(PID.TID 0000.0001) 
(PID.TID 0000.0001) // ======================================================
(PID.TID 0000.0001) //                      MITgcm UV
(PID.TID 0000.0001) //                      =========
(PID.TID 0000.0001) // ======================================================
(PID.TID 0000.0001) // execution environment starting up...
(PID.TID 0000.0001) 
(PID.TID 0000.0001) // MITgcmUV version:  checkpoint65d
(PID.TID 0000.0001) // Build user:        hugke729
(PID.TID 0000.0001) // Build host:        hugke729
(PID.TID 0000.0001) // Build date:        Mon Apr 10 14:21:54 PDT 2017
(PID.TID 0000.0001) 
(PID.TID 0000.0001) // =======================================================
(PID.TID 0000.0001) // Execution Environment parameter file "eedata"
(PID.TID 0000.0001) // =======================================================
(PID.TID 0000.0001) ># Example "eedata" file
(PID.TID 0000.0001) ># Lines beginning "#" are comments
(PID.TID 0000.0001) ># nTx - No. threads per process in X
(PID.TID 0000.0001) ># nTy - No. threads per process in Y
(PID.TID 0000.0001) > &EEPARMS
(PID.TID 0000.0001) > /
(PID.TID 0000.0001) ># Note: Some systems use & as the
(PID.TID 0000.0001) ># namelist terminator. Other systems
(PID.TID 0000.0001) ># use a / character (as shown here).
(PID.TID 0000.0001) 
(PID.TID 0000.0001) // =======================================================
(PID.TID 0000.0001) // Computational Grid Specification ( see files "SIZE.h" )
(PID.TID 0000.0001) //                                  ( and "eedata"       )
(PID.TID 0000.0001) // =======================================================
(PID.TID 0000.0001)      nPx =    1 ; /* No. processes in X */
(PID.TID 0000.0001)      nPy =    1 ; /* No. processes in Y */
(PID.TID 0000.0001)      nSx =    1 ; /* No. tiles in X per process */
(PID.TID 0000.0001)      nSy =    1 ; /* No. tiles in Y per process */
(PID.TID 0000.0001)      sNx =  200 ; /* Tile size in X */
(PID.TID 0000.0001)      sNy =    1 ; /* Tile size in Y */
(PID.TID 0000.0001)      OLx =    2 ; /* Tile overlap distance in X */
(PID.TID 0000.0001)      OLy =    2 ; /* Tile overlap distance in Y */
(PID.TID 0000.0001)      nTx =    1 ; /* No. threads in X per process */
(PID.TID 0000.0001)      nTy =    1 ; /* No. threads in Y per process */
(PID.TID 0000.0001)       Nr =  100 ; /* No. levels in the vertical   */
(PID.TID 0000.0001)       Nx =  200 ; /* Total domain size in X ( = nPx*nSx*sNx ) */
(PID.TID 0000.0001)       Ny =    1 ; /* Total domain size in Y ( = nPy*nSy*sNy ) */
(PID.TID 0000.0001)   nTiles =    1 ; /* Total no. tiles per process ( = nSx*nSy ) */
(PID.TID 0000.0001)   nProcs =    1 ; /* Total no. processes ( = nPx*nPy ) */
(PID.TID 0000.0001) nThreads =    1 ; /* Total no. threads per process ( = nTx*nTy ) */
(PID.TID 0000.0001) usingMPI =    F ; /* Flag used to control whether MPI is in use */
(PID.TID 0000.0001)                   /*  note: To execute a program with MPI calls */
(PID.TID 0000.0001)                   /*  it must be launched appropriately e.g     */
(PID.TID 0000.0001)                   /*  "mpirun -np 64 ......"                    */
(PID.TID 0000.0001) useCoupler=    F ;/* Flag used to control communications with   */
(PID.TID 0000.0001)                   /*  other model components, through a coupler */
(PID.TID 0000.0001) debugMode =    F ; /* print debug msg. (sequence of S/R calls)  */
(PID.TID 0000.0001) printMapIncludesZeros=    F ; /* print zeros in Std.Output maps */
(PID.TID 0000.0001) maxLengthPrt1D=   65 /* maxLength of 1D array printed to StdOut */
(PID.TID 0000.0001) 
(PID.TID 0000.0001) // ======================================================
(PID.TID 0000.0001) // Mapping of tiles to threads
(PID.TID 0000.0001) // ======================================================
(PID.TID 0000.0001) // -o- Thread   1, tiles (   1:   1,   1:   1)
(PID.TID 0000.0001) 
(PID.TID 0000.0001) // ======================================================
(PID.TID 0000.0001) // Tile <-> Tile connectvity table
(PID.TID 0000.0001) // ======================================================
(PID.TID 0000.0001) // Tile number: 000001 (process no. = 000000)
(PID.TID 0000.0001) //        WEST: Tile = 000001, Process = 000000, Comm = put
(PID.TID 0000.0001) //                bi = 000001, bj = 000001
(PID.TID 0000.0001) //        EAST: Tile = 000001, Process = 000000, Comm = put
(PID.TID 0000.0001) //                bi = 000001, bj = 000001
(PID.TID 0000.0001) //       SOUTH: Tile = 000001, Process = 000000, Comm = put
(PID.TID 0000.0001) //                bi = 000001, bj = 000001
(PID.TID 0000.0001) //       NORTH: Tile = 000001, Process = 000000, Comm = put
(PID.TID 0000.0001) //                bi = 000001, bj = 000001
(PID.TID 0000.0001) 
(PID.TID 0000.0001)  INI_PARMS: opening model parameter file "data"
(PID.TID 0000.0001)  OPEN_COPY_DATA_FILE: opening file data
(PID.TID 0000.0001) // =======================================================
(PID.TID 0000.0001) // Parameter file "data"
(PID.TID 0000.0001) // =======================================================
(PID.TID 0000.0001) ># ====================
(PID.TID 0000.0001) ># | Model parameters |
(PID.TID 0000.0001) ># ====================
(PID.TID 0000.0001) >#
(PID.TID 0000.0001) ># See src/ini_parms.F for possible parameters.
(PID.TID 0000.0001) >#
(PID.TID 0000.0001) ># Continuous equation parameters
(PID.TID 0000.0001) > &PARM01
(PID.TID 0000.0001) > tRefFile='Tref.bin'
(PID.TID 0000.0001) > sRef= 25*35.,
(PID.TID 0000.0001) > viscAz=1.E-5,
(PID.TID 0000.0001) > viscAh=1.E-4,
(PID.TID 0000.0001) > no_slip_sides=.FALSE.,
(PID.TID 0000.0001) > no_slip_bottom=.FALSE.,
(PID.TID 0000.0001) > viscA4=0.E12,
(PID.TID 0000.0001) > diffKhT=1.E-4,
(PID.TID 0000.0001) > diffKzT=1.E-5,
(PID.TID 0000.0001) > diffKhS=1.E3,
(PID.TID 0000.0001) > diffKzS=1.E-5,
(PID.TID 0000.0001) > f0=0.E-4,
(PID.TID 0000.0001) > beta=0.0E-11,
(PID.TID 0000.0001) > tAlpha=2.E-4,
(PID.TID 0000.0001) > sBeta =0.E-4,
(PID.TID 0000.0001) > gravity=9.81,
(PID.TID 0000.0001) > gBaro=9.81,
(PID.TID 0000.0001) > rigidLid=.FALSE.,
(PID.TID 0000.0001) > implicitFreeSurface=.TRUE.,
(PID.TID 0000.0001) > eosType='LINEAR',
(PID.TID 0000.0001) > nonHydrostatic=.FALSE.,
(PID.TID 0000.0001) > readBinaryPrec=64,
(PID.TID 0000.0001) > useSingleCpuIO=.TRUE.
(PID.TID 0000.0001) > writeBinaryPrec=64,
(PID.TID 0000.0001) > writeStatePrec=64,
(PID.TID 0000.0001) > saltStepping=.FALSE.,
(PID.TID 0000.0001) ># minimum cell fraction.  This reduces steppiness..
(PID.TID 0000.0001) >  hFacMin=0.1,
(PID.TID 0000.0001) >  exactConserv=.FALSE.,
(PID.TID 0000.0001) >  implicitDiffusion=.TRUE.
(PID.TID 0000.0001) >  implicitViscosity=.TRUE.
(PID.TID 0000.0001) ># Superbee on:
(PID.TID 0000.0001) > tempAdvScheme=77,
(PID.TID 0000.0001) > staggerTimeStep=.TRUE.,
(PID.TID 0000.0001) >/
(PID.TID 0000.0001) >
(PID.TID 0000.0001) ># Elliptic solver parameters
(PID.TID 0000.0001) > &PARM02
(PID.TID 0000.0001) > cg2dMaxIters=1000,
(PID.TID 0000.0001) > cg2dTargetResidual=1.E-13,
(PID.TID 0000.0001) > cg3dMaxIters=400,
(PID.TID 0000.0001) > cg3dTargetResidual=1.E-13,
(PID.TID 0000.0001) >/
(PID.TID 0000.0001) >
(PID.TID 0000.0001) ># Time stepping parameters
(PID.TID 0000.0001) > &PARM03
(PID.TID 0000.0001) > niter0=0,
(PID.TID 0000.0001) ># times are in s
(PID.TID 0000.0001) > startTime=0,
(PID.TID 0000.0001) > endTime=108000,
(PID.TID 0000.0001) > deltaT=15,
(PID.TID 0000.0001) > abEps=0.1,
(PID.TID 0000.0001) ># once per tide checkpoint...
(PID.TID 0000.0001) > pChkptFreq=21600,
(PID.TID 0000.0001) > chkptFreq=0.0,
(PID.TID 0000.0001) > dumpFreq=7200,
(PID.TID 0000.0001) > monitorFreq=7200,
(PID.TID 0000.0001) ># Forcing for boundary condition files
(PID.TID 0000.0001) > periodicExternalForcing=.FALSE.,
(PID.TID 0000.0001) >/
(PID.TID 0000.0001) >
(PID.TID 0000.0001) ># Gridding parameters
(PID.TID 0000.0001) > &PARM04
(PID.TID 0000.0001) > usingCartesianGrid=.TRUE.,
(PID.TID 0000.0001) > usingSphericalPolarGrid=.FALSE.,
(PID.TID 0000.0001) > delXfile='delXvar.bin',
(PID.TID 0000.0001) > delY=5.e3,
(PID.TID 0000.0001) > delRfile = 'delZvar.bin',
(PID.TID 0000.0001) >/
(PID.TID 0000.0001) >
(PID.TID 0000.0001) ># Input datasets
(PID.TID 0000.0001) > &PARM05
(PID.TID 0000.0001) > bathyFile='topo.bin',
(PID.TID 0000.0001) > hydrogThetaFile='T0.bin',
(PID.TID 0000.0001) > checkIniTemp=.FALSE.,
(PID.TID 0000.0001) > uVelInitFile='U0.bin',
(PID.TID 0000.0001) > /
(PID.TID 0000.0001) 
(PID.TID 0000.0001)  INI_PARMS ; starts to read PARM01
(PID.TID 0000.0001)  INI_PARMS ; read PARM01 : OK
(PID.TID 0000.0001)  INI_PARMS ; starts to read PARM02
(PID.TID 0000.0001)  INI_PARMS ; read PARM02 : OK
(PID.TID 0000.0001)  INI_PARMS ; starts to read PARM03
(PID.TID 0000.0001)  INI_PARMS ; read PARM03 : OK
(PID.TID 0000.0001)  INI_PARMS ; starts to read PARM04
(PID.TID 0000.0001)  INI_PARMS ; read PARM04 : OK
(PID.TID 0000.0001)  INI_PARMS ; starts to read PARM05
(PID.TID 0000.0001)  INI_PARMS ; read PARM05 : OK
(PID.TID 0000.0001)  INI_PARMS: finished reading file "data"
(PID.TID 0000.0001)  PACKAGES_BOOT: opening data.pkg
(PID.TID 0000.0001)  OPEN_COPY_DATA_FILE: opening file data.pkg
(PID.TID 0000.0001) // =======================================================
(PID.TID 0000.0001) // Parameter file "data.pkg"
(PID.TID 0000.0001) // =======================================================
(PID.TID 0000.0001) ># Packages
(PID.TID 0000.0001) > &PACKAGES
(PID.TID 0000.0001) > useOBCS=.TRUE.,
(PID.TID 0000.0001) > useKL10=.TRUE.,
(PID.TID 0000.0001) > useDIAGNOSTICS=.FALSE.,
(PID.TID 0000.0001) > useMNC=.FALSE.,
(PID.TID 0000.0001) > /
(PID.TID 0000.0001) 
(PID.TID 0000.0001)  PACKAGES_BOOT: finished reading data.pkg
(PID.TID 0000.0001)  PACKAGES_BOOT: On/Off package Summary
 --------  pkgs with a standard "usePKG" On/Off switch in "data.pkg":  --------
 pkg/obcs                 compiled   and   used ( useOBCS                  = T )
 pkg/kl10                 compiled   and   used ( useKL10                  = T )
 -------- pkgs without standard "usePKG" On/Off switch in "data.pkg":  --------
 pkg/generic_advdiff      compiled   and   used ( useGAD                   = T )
 pkg/mom_common           compiled   and   used ( momStepping              = T )
 pkg/mom_vecinv           compiled but not used ( +vectorInvariantMomentum = F )
 pkg/mom_fluxform         compiled   and   used ( & not vectorInvariantMom = T )
 pkg/monitor              compiled   and   used ( monitorFreq > 0.         = T )
 pkg/debug                compiled but not used ( debugMode                = F )
 pkg/rw                   compiled   and   used
 pkg/mdsio                compiled   and   used
(PID.TID 0000.0001)  PACKAGES_BOOT: End of package Summary
(PID.TID 0000.0001) 
(PID.TID 0000.0001)  OBCS_READPARMS: opening data.obcs
(PID.TID 0000.0001)  OPEN_COPY_DATA_FILE: opening file data.obcs
(PID.TID 0000.0001) // =======================================================
(PID.TID 0000.0001) // Parameter file "data.obcs"
(PID.TID 0000.0001) // =======================================================
(PID.TID 0000.0001) ># Open-boundaries
(PID.TID 0000.0001) > &OBCS_PARM01
(PID.TID 0000.0001) > OB_Iwest=1*1,
(PID.TID 0000.0001) > OB_Ieast=1*-1,
(PID.TID 0000.0001) > OB_Jnorth=100*0,
(PID.TID 0000.0001) > OB_Jsouth=100*0,
(PID.TID 0000.0001) > useOBCSsponge=.TRUE.,
(PID.TID 0000.0001) > OBEuFile='U_in.bin',
(PID.TID 0000.0001) > OBWuFile='U_in.bin',
(PID.TID 0000.0001) > OBEtFile='TE.bin',
(PID.TID 0000.0001) > OBWtFile='TW.bin',
(PID.TID 0000.0001) > useOBCSprescribe=.TRUE.,
(PID.TID 0000.0001) > /
(PID.TID 0000.0001) >
(PID.TID 0000.0001) ># Orlanski parameters
(PID.TID 0000.0001) > &OBCS_PARM02
(PID.TID 0000.0001) >/
(PID.TID 0000.0001) >
(PID.TID 0000.0001) ># Sponge layer parameters
(PID.TID 0000.0001) > &OBCS_PARM03
(PID.TID 0000.0001) > Urelaxobcsinner=1000.,
(PID.TID 0000.0001) > Urelaxobcsbound=100.,
(PID.TID 0000.0001) > Vrelaxobcsinner=1000.0,
(PID.TID 0000.0001) > Vrelaxobcsbound=100.0,
(PID.TID 0000.0001) > spongeThickness=10,
(PID.TID 0000.0001) > /
(PID.TID 0000.0001) 
(PID.TID 0000.0001)  OBCS_READPARMS: finished reading data.obcs
(PID.TID 0000.0001)  OB_indexUnset = /* unset OB index value (i.e. no OB) */
(PID.TID 0000.0001)                       0
(PID.TID 0000.0001)     ;
(PID.TID 0000.0001)  Northern OB global indices : OB_Jnorth =
(PID.TID 0000.0001)   200 @        0                            /* I =  1:200 */
(PID.TID 0000.0001)  Southern OB global indices : OB_Jsouth =
(PID.TID 0000.0001)   200 @        0                            /* I =  1:200 */
(PID.TID 0000.0001)  Eastern  OB global indices : OB_Ieast =
(PID.TID 0000.0001)                     200                     /* J =  1 */
(PID.TID 0000.0001)  Western  OB global indices : OB_Iwest =
(PID.TID 0000.0001)                       1                     /* J =  1 */
(PID.TID 0000.0001) 
(PID.TID 0000.0001)  KL10_READPARMS: opening data.kl10
(PID.TID 0000.0001)  OPEN_COPY_DATA_FILE: opening file data.kl10
(PID.TID 0000.0001) // =======================================================
(PID.TID 0000.0001) // Parameter file "data.kl10"
(PID.TID 0000.0001) // =======================================================
(PID.TID 0000.0001) ># =====================================================================
(PID.TID 0000.0001) ># | Parameters for Klymak and Legg (2010) vertical mixing scheme      |
(PID.TID 0000.0001) ># =====================================================================
(PID.TID 0000.0001) > &KL10_PARM01
(PID.TID 0000.0001) > KLwriteState=.TRUE.,
(PID.TID 0000.0001) >/
(PID.TID 0000.0001) 
(PID.TID 0000.0001)  KL10_READPARMS: finished reading data.kl10
(PID.TID 0000.0001) SET_PARMS: done
(PID.TID 0000.0001)  MDS_READVEC_LOC: open file: delXvar.bin
(PID.TID 0000.0001) S/R LOAD_GRID_SPACING: delX loaded from file: delXvar.bin
(PID.TID 0000.0001)  MDS_READVEC_LOC: open file: delZvar.bin
(PID.TID 0000.0001) S/R LOAD_GRID_SPACING: delR loaded from file: delZvar.bin
(PID.TID 0000.0001) Enter INI_VERTICAL_GRID: setInterFDr=    T ; setCenterDr=    F
(PID.TID 0000.0001) %MON XC_max                       =   9.9471849328752E+04
(PID.TID 0000.0001) %MON XC_min                       =   6.3164731900833E+02
(PID.TID 0000.0001) %MON XC_mean                      =   5.2906107272275E+04
(PID.TID 0000.0001) %MON XC_sd                        =   2.2139310392762E+04
(PID.TID 0000.0001) %MON XG_max                       =   9.8943698657505E+04
(PID.TID 0000.0001) %MON XG_min                       =   0.0000000000000E+00
(PID.TID 0000.0001) %MON XG_mean                      =   5.2656107272275E+04
(PID.TID 0000.0001) %MON XG_sd                        =   2.2172561685063E+04
(PID.TID 0000.0001) %MON DXC_max                      =   1.2503953509116E+03
(PID.TID 0000.0001) %MON DXC_min                      =   2.0000000000000E+02
(PID.TID 0000.0001) %MON DXC_mean                     =   5.0000000000000E+02
(PID.TID 0000.0001) %MON DXC_sd                       =   2.8531736750525E+02
(PID.TID 0000.0001) %MON DXF_max                      =   1.2632946380167E+03
(PID.TID 0000.0001) %MON DXF_min                      =   2.0000000000000E+02
(PID.TID 0000.0001) %MON DXF_mean                     =   5.0000000000000E+02
(PID.TID 0000.0001) %MON DXF_sd                       =   2.8547066202794E+02
(PID.TID 0000.0001) %MON DXG_max                      =   1.2632946380167E+03
(PID.TID 0000.0001) %MON DXG_min                      =   2.0000000000000E+02
(PID.TID 0000.0001) %MON DXG_mean                     =   5.0000000000000E+02
(PID.TID 0000.0001) %MON DXG_sd                       =   2.8547066202794E+02
(PID.TID 0000.0001) %MON DXV_max                      =   1.2503953509116E+03
(PID.TID 0000.0001) %MON DXV_min                      =   2.0000000000000E+02
(PID.TID 0000.0001) %MON DXV_mean                     =   5.0000000000000E+02
(PID.TID 0000.0001) %MON DXV_sd                       =   2.8531736750525E+02
(PID.TID 0000.0001) %MON YC_max                       =   2.5000000000000E+03
(PID.TID 0000.0001) %MON YC_min                       =   2.5000000000000E+03
(PID.TID 0000.0001) %MON YC_mean                      =   2.5000000000000E+03
(PID.TID 0000.0001) %MON YC_sd                        =   0.0000000000000E+00
(PID.TID 0000.0001) %MON YG_max                       =   0.0000000000000E+00
(PID.TID 0000.0001) %MON YG_min                       =   0.0000000000000E+00
(PID.TID 0000.0001) %MON YG_mean                      =   0.0000000000000E+00
(PID.TID 0000.0001) %MON YG_sd                        =   0.0000000000000E+00
(PID.TID 0000.0001) %MON DYC_max                      =   5.0000000000000E+03
(PID.TID 0000.0001) %MON DYC_min                      =   5.0000000000000E+03
(PID.TID 0000.0001) %MON DYC_mean                     =   5.0000000000000E+03
(PID.TID 0000.0001) %MON DYC_sd                       =   0.0000000000000E+00
(PID.TID 0000.0001) %MON DYF_max                      =   5.0000000000000E+03
(PID.TID 0000.0001) %MON DYF_min                      =   5.0000000000000E+03
(PID.TID 0000.0001) %MON DYF_mean                     =   5.0000000000000E+03
(PID.TID 0000.0001) %MON DYF_sd                       =   0.0000000000000E+00
(PID.TID 0000.0001) %MON DYG_max                      =   5.0000000000000E+03
(PID.TID 0000.0001) %MON DYG_min                      =   5.0000000000000E+03
(PID.TID 0000.0001) %MON DYG_mean                     =   5.0000000000000E+03
(PID.TID 0000.0001) %MON DYG_sd                       =   0.0000000000000E+00
(PID.TID 0000.0001) %MON DYU_max                      =   5.0000000000000E+03
(PID.TID 0000.0001) %MON DYU_min                      =   5.0000000000000E+03
(PID.TID 0000.0001) %MON DYU_mean                     =   5.0000000000000E+03
(PID.TID 0000.0001) %MON DYU_sd                       =   0.0000000000000E+00
(PID.TID 0000.0001) %MON RA_max                       =   6.3164731900833E+06
(PID.TID 0000.0001) %MON RA_min                       =   1.0000000000000E+06
(PID.TID 0000.0001) %MON RA_mean                      =   2.5000000000000E+06
(PID.TID 0000.0001) %MON RA_sd                        =   1.4273533101397E+06
(PID.TID 0000.0001) %MON RAW_max                      =   6.2519767545581E+06
(PID.TID 0000.0001) %MON RAW_min                      =   1.0000000000000E+06
(PID.TID 0000.0001) %MON RAW_mean                     =   2.5000000000000E+06
(PID.TID 0000.0001) %MON RAW_sd                       =   1.4265868375263E+06
(PID.TID 0000.0001) %MON RAS_max                      =   6.3164731900833E+06
(PID.TID 0000.0001) %MON RAS_min                      =   1.0000000000000E+06
(PID.TID 0000.0001) %MON RAS_mean                     =   2.5000000000000E+06
(PID.TID 0000.0001) %MON RAS_sd                       =   1.4273533101397E+06
(PID.TID 0000.0001) %MON RAZ_max                      =   6.2519767545581E+06
(PID.TID 0000.0001) %MON RAZ_min                      =   1.0000000000000E+06
(PID.TID 0000.0001) %MON RAZ_mean                     =   2.5000000000000E+06
(PID.TID 0000.0001) %MON RAZ_sd                       =   1.4265868375263E+06
(PID.TID 0000.0001) %MON AngleCS_max                  =   1.0000000000000E+00
(PID.TID 0000.0001) %MON AngleCS_min                  =   1.0000000000000E+00
(PID.TID 0000.0001) %MON AngleCS_mean                 =   1.0000000000000E+00
(PID.TID 0000.0001) %MON AngleCS_sd                   =   0.0000000000000E+00
(PID.TID 0000.0001) %MON AngleSN_max                  =   0.0000000000000E+00
(PID.TID 0000.0001) %MON AngleSN_min                  =   0.0000000000000E+00
(PID.TID 0000.0001) %MON AngleSN_mean                 =   0.0000000000000E+00
(PID.TID 0000.0001) %MON AngleSN_sd                   =   0.0000000000000E+00
(PID.TID 0000.0001)  MDS_READVEC_LOC: open file: Tref.bin
(PID.TID 0000.0001) S/R LOAD_REF_FILES: tRef loaded from file: Tref.bin
(PID.TID 0000.0001)  MDS_READ_FIELD: opening global file: topo.bin
(PID.TID 0000.0001) // =======================================================
(PID.TID 0000.0001) // Field Model R_low (ini_masks_etc)
(PID.TID 0000.0001) // CMIN =         -1.995096555355119E+02
(PID.TID 0000.0001) // CMAX =         -8.001666550931284E+01
(PID.TID 0000.0001) // CINT =          4.425666297266630E+00
(PID.TID 0000.0001) // SYMBOLS (CMIN->CMAX): -abcdefghijklmnopqrstuvwxyz+
(PID.TID 0000.0001) //                  0.0: .
(PID.TID 0000.0001) // RANGE I (Lo:Hi:Step):(    -1:   202:     1)
(PID.TID 0000.0001) // RANGE J (Lo:Hi:Step):(     3:    -1:    -1)
(PID.TID 0000.0001) // RANGE K (Lo:Hi:Step):(   1:   1:   1)
(PID.TID 0000.0001) // =======================================================
(PID.TID 0000.0001) K =   1
(PID.TID 0000.0001) //                I=8       I=18      I=28      I=38      I=48      I=58      I=68      I=78      I=88      I=98      I=108     I=118     I=128     I=138     I=148     I=158     I=168     I=178     I=188     I=198
(PID.TID 0000.0001) // |--J--|101234567|901234567|901234567|901234567|901234567|901234567|901234567|901234567|901234567|901234567|901234567|901234567|901234567|901234567|901234567|901234567|901234567|901234567|901234567|901234567|9012
(PID.TID 0000.0001) //      3 -------------------aaaaaaaaaaaabbbbbbcccccddddeeefffgghhhiijjkkllmmnnoppqqrrssttuuvvwwxxxyyyzzzz++++++++++++zzzzyyyxxxwwvvuuttssrrqqpponnmmllkkjjiihhhggfffeeeddddcccccbbbbbbaaaaaaaaaaaa-------------------
(PID.TID 0000.0001) //      2 -------------------aaaaaaaaaaaabbbbbbcccccddddeeefffgghhhiijjkkllmmnnoppqqrrssttuuvvwwxxxyyyzzzz++++++++++++zzzzyyyxxxwwvvuuttssrrqqpponnmmllkkjjiihhhggfffeeeddddcccccbbbbbbaaaaaaaaaaaa-------------------
(PID.TID 0000.0001) //      1 -------------------aaaaaaaaaaaabbbbbbcccccddddeeefffgghhhiijjkkllmmnnoppqqrrssttuuvvwwxxxyyyzzzz++++++++++++zzzzyyyxxxwwvvuuttssrrqqpponnmmllkkjjiihhhggfffeeeddddcccccbbbbbbaaaaaaaaaaaa-------------------
(PID.TID 0000.0001) //      0 -------------------aaaaaaaaaaaabbbbbbcccccddddeeefffgghhhiijjkkllmmnnoppqqrrssttuuvvwwxxxyyyzzzz++++++++++++zzzzyyyxxxwwvvuuttssrrqqpponnmmllkkjjiihhhggfffeeeddddcccccbbbbbbaaaaaaaaaaaa-------------------
(PID.TID 0000.0001) //     -1 -------------------aaaaaaaaaaaabbbbbbcccccddddeeefffgghhhiijjkkllmmnnoppqqrrssttuuvvwwxxxyyyzzzz++++++++++++zzzzyyyxxxwwvvuuttssrrqqpponnmmllkkjjiihhhggfffeeeddddcccccbbbbbbaaaaaaaaaaaa-------------------
(PID.TID 0000.0001) // =======================================================
(PID.TID 0000.0001) // END OF FIELD                                          =
(PID.TID 0000.0001) // =======================================================
(PID.TID 0000.0001) 
(PID.TID 0000.0001) // =======================================================
(PID.TID 0000.0001) // Field Model Ro_surf (ini_masks_etc)
(PID.TID 0000.0001) // CMIN =         -8.704148513061227E-14
(PID.TID 0000.0001) // CMAX =         -1.776356839400250E-15
(PID.TID 0000.0001) // CINT =          3.157967714489334E-15
(PID.TID 0000.0001) // SYMBOLS (CMIN->CMAX): -abcdefghijklmnopqrstuvwxyz+
(PID.TID 0000.0001) //                  0.0: .
(PID.TID 0000.0001) // RANGE I (Lo:Hi:Step):(    -1:   202:     1)
(PID.TID 0000.0001) // RANGE J (Lo:Hi:Step):(     3:    -1:    -1)
(PID.TID 0000.0001) // RANGE K (Lo:Hi:Step):(   1:   1:   1)
(PID.TID 0000.0001) // =======================================================
(PID.TID 0000.0001) K =   1
(PID.TID 0000.0001) //                I=8       I=18      I=28      I=38      I=48      I=58      I=68      I=78      I=88      I=98      I=108     I=118     I=128     I=138     I=148     I=158     I=168     I=178     I=188     I=198
(PID.TID 0000.0001) // |--J--|101234567|901234567|901234567|901234567|901234567|901234567|901234567|901234567|901234567|901234567|901234567|901234567|901234567|901234567|901234567|901234567|901234567|901234567|901234567|901234567|9012
(PID.TID 0000.0001) //      3 -----------iiiiii---iiiiiirrrrriiiiiiiri---ii-----------iiiii--i-iiirrrrrrrr+rrr+rr+++++r++++++++++++++++++++++++++r+++++rr+rrr+rrrrrrrriii-i--iiiii-----------ii---iriiiiiiirrrrriiiiii---iiiiii-----------
(PID.TID 0000.0001) //      2 -----------iiiiii---iiiiiirrrrriiiiiiiri---ii-----------iiiii--i-iiirrrrrrrr+rrr+rr+++++r++++++++++++++++++++++++++r+++++rr+rrr+rrrrrrrriii-i--iiiii-----------ii---iriiiiiiirrrrriiiiii---iiiiii-----------
(PID.TID 0000.0001) //      1 -----------iiiiii---iiiiiirrrrriiiiiiiri---ii-----------iiiii--i-iiirrrrrrrr+rrr+rr+++++r++++++++++++++++++++++++++r+++++rr+rrr+rrrrrrrriii-i--iiiii-----------ii---iriiiiiiirrrrriiiiii---iiiiii-----------
(PID.TID 0000.0001) //      0 -----------iiiiii---iiiiiirrrrriiiiiiiri---ii-----------iiiii--i-iiirrrrrrrr+rrr+rr+++++r++++++++++++++++++++++++++r+++++rr+rrr+rrrrrrrriii-i--iiiii-----------ii---iriiiiiiirrrrriiiiii---iiiiii-----------
(PID.TID 0000.0001) //     -1 -----------iiiiii---iiiiiirrrrriiiiiiiri---ii-----------iiiii--i-iiirrrrrrrr+rrr+rr+++++r++++++++++++++++++++++++++r+++++rr+rrr+rrrrrrrriii-i--iiiii-----------ii---iriiiiiiirrrrriiiiii---iiiiii-----------
(PID.TID 0000.0001) // =======================================================
(PID.TID 0000.0001) // END OF FIELD                                          =
(PID.TID 0000.0001) // =======================================================
(PID.TID 0000.0001) 
(PID.TID 0000.0001) // =======================================================
(PID.TID 0000.0001) // Field hFacC at iteration          0
(PID.TID 0000.0001) // CMIN =          1.000000000000000E+00
(PID.TID 0000.0001) // CMAX =          1.000000000000000E+00
(PID.TID 0000.0001) // CINT =          0.000000000000000E+00
(PID.TID 0000.0001) // SYMBOLS (CMIN->CMAX): -abcdefghijklmnopqrstuvwxyz+
(PID.TID 0000.0001) //                  0.0: .
(PID.TID 0000.0001) // RANGE I (Lo:Hi:Step):(    -1:   202:     1)
(PID.TID 0000.0001) // RANGE J (Lo:Hi:Step):(     3:    -1:    -1)
(PID.TID 0000.0001) // RANGE K (Lo:Hi:Step):(   1:   1:   1)
(PID.TID 0000.0001) // =======================================================
(PID.TID 0000.0001) // =======================================================
(PID.TID 0000.0001) // END OF FIELD                                          =
(PID.TID 0000.0001) // =======================================================
(PID.TID 0000.0001) 
(PID.TID 0000.0001) // =======================================================
(PID.TID 0000.0001) // Field hFacW at iteration          0
(PID.TID 0000.0001) // CMIN =          1.000000000000000E+00
(PID.TID 0000.0001) // CMAX =          1.000000000000000E+00
(PID.TID 0000.0001) // CINT =          0.000000000000000E+00
(PID.TID 0000.0001) // SYMBOLS (CMIN->CMAX): -abcdefghijklmnopqrstuvwxyz+
(PID.TID 0000.0001) //                  0.0: .
(PID.TID 0000.0001) // RANGE I (Lo:Hi:Step):(    -1:   202:     1)
(PID.TID 0000.0001) // RANGE J (Lo:Hi:Step):(     3:    -1:    -1)
(PID.TID 0000.0001) // RANGE K (Lo:Hi:Step):(   1:   1:   1)
(PID.TID 0000.0001) // =======================================================
(PID.TID 0000.0001) // =======================================================
(PID.TID 0000.0001) // END OF FIELD                                          =
(PID.TID 0000.0001) // =======================================================
(PID.TID 0000.0001) 
(PID.TID 0000.0001) // =======================================================
(PID.TID 0000.0001) // Field hFacS at iteration          0
(PID.TID 0000.0001) // CMIN =          1.000000000000000E+00
(PID.TID 0000.0001) // CMAX =          1.000000000000000E+00
(PID.TID 0000.0001) // CINT =          0.000000000000000E+00
(PID.TID 0000.0001) // SYMBOLS (CMIN->CMAX): -abcdefghijklmnopqrstuvwxyz+
(PID.TID 0000.0001) //                  0.0: .
(PID.TID 0000.0001) // RANGE I (Lo:Hi:Step):(    -1:   202:     1)
(PID.TID 0000.0001) // RANGE J (Lo:Hi:Step):(     3:    -1:    -1)
(PID.TID 0000.0001) // RANGE K (Lo:Hi:Step):(   1:   1:   1)
(PID.TID 0000.0001) // =======================================================
(PID.TID 0000.0001) // =======================================================
(PID.TID 0000.0001) // END OF FIELD                                          =
(PID.TID 0000.0001) // =======================================================
(PID.TID 0000.0001) 
(PID.TID 0000.0001) GAD_INIT_FIXED: GAD_OlMinSize=  2  0  1
(PID.TID 0000.0001) 
(PID.TID 0000.0001) // ===================================
(PID.TID 0000.0001) // GAD parameters :
(PID.TID 0000.0001) // ===================================
(PID.TID 0000.0001) tempAdvScheme =   /* Temp. Horiz.Advection scheme selector */
(PID.TID 0000.0001)                      77
(PID.TID 0000.0001)     ;
(PID.TID 0000.0001) tempVertAdvScheme =   /* Temp. Vert. Advection scheme selector */
(PID.TID 0000.0001)                      77
(PID.TID 0000.0001)     ;
(PID.TID 0000.0001) tempMultiDimAdvec =   /* use Muti-Dim Advec method for Temp */
(PID.TID 0000.0001)                   T
(PID.TID 0000.0001)     ;
(PID.TID 0000.0001) tempSOM_Advection = /* use 2nd Order Moment Advection for Temp */
(PID.TID 0000.0001)                   F
(PID.TID 0000.0001)     ;
(PID.TID 0000.0001) AdamsBashforthGt = /* apply Adams-Bashforth extrapolation on Gt */
(PID.TID 0000.0001)                   F
(PID.TID 0000.0001)     ;
(PID.TID 0000.0001) AdamsBashforth_T = /* apply Adams-Bashforth extrapolation on Temp */
(PID.TID 0000.0001)                   F
(PID.TID 0000.0001)     ;
(PID.TID 0000.0001) saltAdvScheme =   /* Salt. Horiz.advection scheme selector */
(PID.TID 0000.0001)                       2
(PID.TID 0000.0001)     ;
(PID.TID 0000.0001) saltVertAdvScheme =   /* Salt. Vert. Advection scheme selector */
(PID.TID 0000.0001)                       2
(PID.TID 0000.0001)     ;
(PID.TID 0000.0001) saltMultiDimAdvec =   /* use Muti-Dim Advec method for Salt */
(PID.TID 0000.0001)                   F
(PID.TID 0000.0001)     ;
(PID.TID 0000.0001) saltSOM_Advection = /* use 2nd Order Moment Advection for Salt */
(PID.TID 0000.0001)                   F
(PID.TID 0000.0001)     ;
(PID.TID 0000.0001) AdamsBashforthGs = /* apply Adams-Bashforth extrapolation on Gs */
(PID.TID 0000.0001)                   F
(PID.TID 0000.0001)     ;
(PID.TID 0000.0001) AdamsBashforth_S = /* apply Adams-Bashforth extrapolation on Salt */
(PID.TID 0000.0001)                   F
(PID.TID 0000.0001)     ;
(PID.TID 0000.0001) // ===================================
(PID.TID 0000.0001) %MON fCori_max                    =   0.0000000000000E+00
(PID.TID 0000.0001) %MON fCori_min                    =   0.0000000000000E+00
(PID.TID 0000.0001) %MON fCori_mean                   =   0.0000000000000E+00
(PID.TID 0000.0001) %MON fCori_sd                     =   0.0000000000000E+00
(PID.TID 0000.0001) %MON fCoriG_max                   =   0.0000000000000E+00
(PID.TID 0000.0001) %MON fCoriG_min                   =   0.0000000000000E+00
(PID.TID 0000.0001) %MON fCoriG_mean                  =   0.0000000000000E+00
(PID.TID 0000.0001) %MON fCoriG_sd                    =   0.0000000000000E+00
(PID.TID 0000.0001) %MON fCoriCos_max                 =   0.0000000000000E+00
(PID.TID 0000.0001) %MON fCoriCos_min                 =   0.0000000000000E+00
(PID.TID 0000.0001) %MON fCoriCos_mean                =   0.0000000000000E+00
(PID.TID 0000.0001) %MON fCoriCos_sd                  =   0.0000000000000E+00
(PID.TID 0000.0001) INI_CG2D: CG2D normalisation factor =  3.9806821064003673E-04
(PID.TID 0000.0001) 
(PID.TID 0000.0001) // =======================================================
(PID.TID 0000.0001) // Model configuration
(PID.TID 0000.0001) // =======================================================
(PID.TID 0000.0001) //
(PID.TID 0000.0001) // "Physical" paramters ( PARM01 in namelist )
(PID.TID 0000.0001) //
(PID.TID 0000.0001) buoyancyRelation = /* Type of relation to get Buoyancy */
(PID.TID 0000.0001)               'OCEANIC'
(PID.TID 0000.0001)     ;
(PID.TID 0000.0001) fluidIsAir   =  /* fluid major constituent is Air */
(PID.TID 0000.0001)                   F
(PID.TID 0000.0001)     ;
(PID.TID 0000.0001) fluidIsWater =  /* fluid major constituent is Water */
(PID.TID 0000.0001)                   T
(PID.TID 0000.0001)     ;
(PID.TID 0000.0001) usingPCoords =  /* use p (or p*) vertical coordinate */
(PID.TID 0000.0001)                   F
(PID.TID 0000.0001)     ;
(PID.TID 0000.0001) usingZCoords =  /* use z (or z*) vertical coordinate */
(PID.TID 0000.0001)                   T
(PID.TID 0000.0001)     ;
(PID.TID 0000.0001) tRef =   /* Reference temperature profile ( oC or K ) */
(PID.TID 0000.0001)    13 @  1.500000000000000E+01,             /* K =  1: 13 */
(PID.TID 0000.0001)                 1.499933084687693E+01,      /* K = 14 */
(PID.TID 0000.0001)                 1.497717153877677E+01,      /* K = 15 */
(PID.TID 0000.0001)                 1.470721590167325E+01,      /* K = 16 */
(PID.TID 0000.0001)                 1.349735867339025E+01,      /* K = 17 */
(PID.TID 0000.0001)                 1.150264132660976E+01,      /* K = 18 */
(PID.TID 0000.0001)                 1.029278409832675E+01,      /* K = 19 */
(PID.TID 0000.0001)                 1.002282846122323E+01,      /* K = 20 */
(PID.TID 0000.0001)                 1.000066915312308E+01,      /* K = 21 */
(PID.TID 0000.0001)    79 @  1.000000000000000E+01              /* K = 22:100 */
(PID.TID 0000.0001)     ;
(PID.TID 0000.0001) sRef =   /* Reference salinity profile ( psu ) */
(PID.TID 0000.0001)   100 @  3.500000000000000E+01              /* K =  1:100 */
(PID.TID 0000.0001)     ;
(PID.TID 0000.0001) useStrainTensionVisc= /* Use StrainTension Form of Viscous Operator */
(PID.TID 0000.0001)                   F
(PID.TID 0000.0001)     ;
(PID.TID 0000.0001) useVariableVisc = /* Use variable horizontal viscosity */
(PID.TID 0000.0001)                   F
(PID.TID 0000.0001)     ;
(PID.TID 0000.0001) useHarmonicVisc = /* Use harmonic horizontal viscosity */
(PID.TID 0000.0001)                   T
(PID.TID 0000.0001)     ;
(PID.TID 0000.0001) useBiharmonicVisc= /* Use biharmonic horiz.  viscosity */
(PID.TID 0000.0001)                   F
(PID.TID 0000.0001)     ;
(PID.TID 0000.0001) useSmag3D = /* Use isotropic 3-D Smagorinsky viscosity */
(PID.TID 0000.0001)                   F
(PID.TID 0000.0001)     ;
(PID.TID 0000.0001) viscAh  =   /* Lateral harmonic viscosity ( m^2/s ) */
(PID.TID 0000.0001)                 1.000000000000000E-04
(PID.TID 0000.0001)     ;
(PID.TID 0000.0001) viscA4  =   /* Lateral biharmonic viscosity ( m^4/s ) */
(PID.TID 0000.0001)                 0.000000000000000E+00
(PID.TID 0000.0001)     ;
(PID.TID 0000.0001) no_slip_sides =  /* Viscous BCs: No-slip sides */
(PID.TID 0000.0001)                   F
(PID.TID 0000.0001)     ;
(PID.TID 0000.0001) sideDragFactor = /* side-drag scaling factor (non-dim) */
(PID.TID 0000.0001)                 2.000000000000000E+00
(PID.TID 0000.0001)     ;
(PID.TID 0000.0001) viscArNr = /* vertical profile of vertical viscosity ( m^2/s )*/
(PID.TID 0000.0001)   100 @  1.000000000000000E-05              /* K =  1:100 */
(PID.TID 0000.0001)     ;
(PID.TID 0000.0001) no_slip_bottom =  /* Viscous BCs: No-slip bottom */
(PID.TID 0000.0001)                   F
(PID.TID 0000.0001)     ;
(PID.TID 0000.0001) bottomDragLinear = /* linear bottom-drag coefficient ( m/s ) */
(PID.TID 0000.0001)                 0.000000000000000E+00
(PID.TID 0000.0001)     ;
(PID.TID 0000.0001) bottomDragQuadratic = /* quadratic bottom-drag coefficient (-) */
(PID.TID 0000.0001)                 0.000000000000000E+00
(PID.TID 0000.0001)     ;
(PID.TID 0000.0001) diffKhT =   /* Laplacian diffusion of heat laterally ( m^2/s ) */
(PID.TID 0000.0001)                 1.000000000000000E-04
(PID.TID 0000.0001)     ;
(PID.TID 0000.0001) diffK4T =   /* Biharmonic diffusion of heat laterally ( m^4/s ) */
(PID.TID 0000.0001)                 0.000000000000000E+00
(PID.TID 0000.0001)     ;
(PID.TID 0000.0001) diffKhS =   /* Laplacian diffusion of salt laterally ( m^2/s ) */
(PID.TID 0000.0001)                 1.000000000000000E+03
(PID.TID 0000.0001)     ;
(PID.TID 0000.0001) diffK4S =   /* Biharmonic diffusion of salt laterally ( m^4/s ) */
(PID.TID 0000.0001)                 0.000000000000000E+00
(PID.TID 0000.0001)     ;
(PID.TID 0000.0001) diffKrNrT = /* vertical profile of vertical diffusion of Temp ( m^2/s )*/
(PID.TID 0000.0001)   100 @  1.000000000000000E-05              /* K =  1:100 */
(PID.TID 0000.0001)     ;
(PID.TID 0000.0001) diffKrNrS = /* vertical profile of vertical diffusion of Salt ( m^2/s )*/
(PID.TID 0000.0001)   100 @  1.000000000000000E-05              /* K =  1:100 */
(PID.TID 0000.0001)     ;
(PID.TID 0000.0001) diffKrBL79surf = /* Surface diffusion for Bryan and Lewis 79 ( m^2/s ) */
(PID.TID 0000.0001)                 0.000000000000000E+00
(PID.TID 0000.0001)     ;
(PID.TID 0000.0001) diffKrBL79deep = /* Deep diffusion for Bryan and Lewis 1979 ( m^2/s ) */
(PID.TID 0000.0001)                 0.000000000000000E+00
(PID.TID 0000.0001)     ;
(PID.TID 0000.0001) diffKrBL79scl = /* Depth scale for Bryan and Lewis 1979 ( m ) */
(PID.TID 0000.0001)                 2.000000000000000E+02
(PID.TID 0000.0001)     ;
(PID.TID 0000.0001) diffKrBL79Ho = /* Turning depth for Bryan and Lewis 1979 ( m ) */
(PID.TID 0000.0001)                -2.000000000000000E+03
(PID.TID 0000.0001)     ;
(PID.TID 0000.0001) ivdc_kappa = /* Implicit Vertical Diffusivity for Convection ( m^2/s) */
(PID.TID 0000.0001)                 0.000000000000000E+00
(PID.TID 0000.0001)     ;
(PID.TID 0000.0001) hMixCriteria=  /* Criteria for mixed-layer diagnostic */
(PID.TID 0000.0001)                -8.000000000000000E-01
(PID.TID 0000.0001)     ;
(PID.TID 0000.0001) dRhoSmall =  /* Parameter for mixed-layer diagnostic */
(PID.TID 0000.0001)                 1.000000000000000E-06
(PID.TID 0000.0001)     ;
(PID.TID 0000.0001) hMixSmooth=  /* Smoothing parameter for mixed-layer diagnostic */
(PID.TID 0000.0001)                 0.000000000000000E+00
(PID.TID 0000.0001)     ;
(PID.TID 0000.0001) eosType =  /* Type of Equation of State */
(PID.TID 0000.0001)               'LINEAR'
(PID.TID 0000.0001)     ;
(PID.TID 0000.0001) tAlpha = /* Linear EOS thermal expansion coefficient ( 1/oC ) */
(PID.TID 0000.0001)                 2.000000000000000E-04
(PID.TID 0000.0001)     ;
(PID.TID 0000.0001) sBeta  = /* Linear EOS haline contraction coefficient ( 1/psu ) */
(PID.TID 0000.0001)                 0.000000000000000E+00
(PID.TID 0000.0001)     ;
(PID.TID 0000.0001) rhoNil    = /* Reference density for Linear EOS ( kg/m^3 ) */
(PID.TID 0000.0001)                 9.998000000000000E+02
(PID.TID 0000.0001)     ;
(PID.TID 0000.0001) HeatCapacity_Cp =  /* Specific heat capacity ( J/kg/K ) */
(PID.TID 0000.0001)                 3.994000000000000E+03
(PID.TID 0000.0001)     ;
(PID.TID 0000.0001) celsius2K = /* 0 degree Celsius converted to Kelvin ( K ) */
(PID.TID 0000.0001)                 2.731500000000000E+02
(PID.TID 0000.0001)     ;
(PID.TID 0000.0001) rhoConst  = /* Reference density (Boussinesq)  ( kg/m^3 ) */
(PID.TID 0000.0001)                 9.998000000000000E+02
(PID.TID 0000.0001)     ;
(PID.TID 0000.0001) rhoFacC = /* normalized Reference density @ cell-Center (-) */
(PID.TID 0000.0001)   100 @  1.000000000000000E+00              /* K =  1:100 */
(PID.TID 0000.0001)     ;
(PID.TID 0000.0001) rhoFacF = /* normalized Reference density @ W-Interface (-) */
(PID.TID 0000.0001)   101 @  1.000000000000000E+00              /* K =  1:101 */
(PID.TID 0000.0001)     ;
(PID.TID 0000.0001) rhoConstFresh = /* Fresh-water reference density ( kg/m^3 ) */
(PID.TID 0000.0001)                 9.998000000000000E+02
(PID.TID 0000.0001)     ;
(PID.TID 0000.0001) gravity =   /* Gravitational acceleration ( m/s^2 ) */
(PID.TID 0000.0001)                 9.810000000000000E+00
(PID.TID 0000.0001)     ;
(PID.TID 0000.0001) gBaro =   /* Barotropic gravity ( m/s^2 ) */
(PID.TID 0000.0001)                 9.810000000000000E+00
(PID.TID 0000.0001)     ;
(PID.TID 0000.0001) rotationPeriod =   /* Rotation Period ( s ) */
(PID.TID 0000.0001)                 8.616400000000000E+04
(PID.TID 0000.0001)     ;
(PID.TID 0000.0001) omega =   /* Angular velocity ( rad/s ) */
(PID.TID 0000.0001)                 7.292123516990375E-05
(PID.TID 0000.0001)     ;
(PID.TID 0000.0001) f0 =   /* Reference coriolis parameter ( 1/s ) */
(PID.TID 0000.0001)                 0.000000000000000E+00
(PID.TID 0000.0001)     ;
(PID.TID 0000.0001) beta =   /* Beta ( 1/(m.s) ) */
(PID.TID 0000.0001)                 0.000000000000000E+00
(PID.TID 0000.0001)     ;
(PID.TID 0000.0001) fPrime =   /* Second coriolis parameter ( 1/s ) */
(PID.TID 0000.0001)                 0.000000000000000E+00
(PID.TID 0000.0001)     ;
(PID.TID 0000.0001) rigidLid =   /* Rigid lid on/off flag */
(PID.TID 0000.0001)                   F
(PID.TID 0000.0001)     ;
(PID.TID 0000.0001) implicitFreeSurface =   /* Implicit free surface on/off flag */
(PID.TID 0000.0001)                   T
(PID.TID 0000.0001)     ;
(PID.TID 0000.0001) freeSurfFac =   /* Implicit free surface factor */
(PID.TID 0000.0001)                 1.000000000000000E+00
(PID.TID 0000.0001)     ;
(PID.TID 0000.0001) implicSurfPress =  /* Surface Pressure implicit factor (0-1)*/
(PID.TID 0000.0001)                 1.000000000000000E+00
(PID.TID 0000.0001)     ;
(PID.TID 0000.0001) implicDiv2Dflow =  /* Barot. Flow Div. implicit factor (0-1)*/
(PID.TID 0000.0001)                 1.000000000000000E+00
(PID.TID 0000.0001)     ;
(PID.TID 0000.0001) uniformLin_PhiSurf = /* use uniform Bo_surf on/off flag*/
(PID.TID 0000.0001)                   T
(PID.TID 0000.0001)     ;
(PID.TID 0000.0001) uniformFreeSurfLev = /* free-surface level-index is uniform */
(PID.TID 0000.0001)                   T
(PID.TID 0000.0001)     ;
(PID.TID 0000.0001) hFacMin =   /* minimum partial cell factor (hFac) */
(PID.TID 0000.0001)                 1.000000000000000E-01
(PID.TID 0000.0001)     ;
(PID.TID 0000.0001) hFacMinDr = /* minimum partial cell thickness ( m) */
(PID.TID 0000.0001)                 0.000000000000000E+00
(PID.TID 0000.0001)     ;
(PID.TID 0000.0001) exactConserv =  /* Exact Volume Conservation on/off flag*/
(PID.TID 0000.0001)                   F
(PID.TID 0000.0001)     ;
(PID.TID 0000.0001) linFSConserveTr = /* Tracer correction for Lin Free Surface on/off flag*/
(PID.TID 0000.0001)                   F
(PID.TID 0000.0001)     ;
(PID.TID 0000.0001) nonlinFreeSurf = /* Non-linear Free Surf. options (-1,0,1,2,3)*/
(PID.TID 0000.0001)                       0
(PID.TID 0000.0001)      -1,0= Off ; 1,2,3= On, 2=+rescale gU,gV, 3=+update cg2d solv.
(PID.TID 0000.0001)     ;
(PID.TID 0000.0001) hFacInf =   /* lower threshold for hFac (nonlinFreeSurf only)*/
(PID.TID 0000.0001)                 2.000000000000000E-01
(PID.TID 0000.0001)     ;
(PID.TID 0000.0001) hFacSup =   /* upper threshold for hFac (nonlinFreeSurf only)*/
(PID.TID 0000.0001)                 2.000000000000000E+00
(PID.TID 0000.0001)     ;
(PID.TID 0000.0001) select_rStar = /* r* Vertical coord. options (=0 r coord.; >0 uses r*)*/
(PID.TID 0000.0001)                       0
(PID.TID 0000.0001)     ;
(PID.TID 0000.0001) useRealFreshWaterFlux = /* Real Fresh Water Flux on/off flag*/
(PID.TID 0000.0001)                   F
(PID.TID 0000.0001)     ;
(PID.TID 0000.0001) temp_EvPrRn = /* Temp. of Evap/Prec/R (UNSET=use local T)(oC)*/
(PID.TID 0000.0001)                 1.234567000000000E+05
(PID.TID 0000.0001)     ;
(PID.TID 0000.0001) salt_EvPrRn = /* Salin. of Evap/Prec/R (UNSET=use local S)(psu)*/
(PID.TID 0000.0001)                 0.000000000000000E+00
(PID.TID 0000.0001)     ;
(PID.TID 0000.0001) selectAddFluid = /* option for mass source/sink of fluid (=0: off) */
(PID.TID 0000.0001)                       0
(PID.TID 0000.0001)     ;
(PID.TID 0000.0001) temp_addMass = /* Temp. of addMass array (UNSET=use local T)(oC)*/
(PID.TID 0000.0001)                 1.234567000000000E+05
(PID.TID 0000.0001)     ;
(PID.TID 0000.0001) salt_addMass = /* Salin. of addMass array (UNSET=use local S)(psu)*/
(PID.TID 0000.0001)                 0.000000000000000E+00
(PID.TID 0000.0001)     ;
(PID.TID 0000.0001) convertFW2Salt = /* convert F.W. Flux to Salt Flux (-1=use local S)(psu)*/
(PID.TID 0000.0001)                 3.500000000000000E+01
(PID.TID 0000.0001)     ;
(PID.TID 0000.0001) use3Dsolver = /* use 3-D pressure solver on/off flag */
(PID.TID 0000.0001)                   F
(PID.TID 0000.0001)     ;
(PID.TID 0000.0001) nonHydrostatic =  /* Non-Hydrostatic on/off flag */
(PID.TID 0000.0001)                   F
(PID.TID 0000.0001)     ;
(PID.TID 0000.0001) nh_Am2 = /* Non-Hydrostatic terms scaling factor */
(PID.TID 0000.0001)                 1.000000000000000E+00
(PID.TID 0000.0001)     ;
(PID.TID 0000.0001) implicitNHPress = /* Non-Hyd Pressure implicit factor (0-1)*/
(PID.TID 0000.0001)                 1.000000000000000E+00
(PID.TID 0000.0001)     ;
(PID.TID 0000.0001) selectNHfreeSurf = /* Non-Hyd (free-)Surface option */
(PID.TID 0000.0001)                       0
(PID.TID 0000.0001)     ;
(PID.TID 0000.0001) quasiHydrostatic = /* Quasi-Hydrostatic on/off flag */
(PID.TID 0000.0001)                   F
(PID.TID 0000.0001)     ;
(PID.TID 0000.0001) calc_wVelocity = /* vertical velocity calculation on/off flag */
(PID.TID 0000.0001)                   T
(PID.TID 0000.0001)     ;
(PID.TID 0000.0001) momStepping =  /* Momentum equation on/off flag */
(PID.TID 0000.0001)                   T
(PID.TID 0000.0001)     ;
(PID.TID 0000.0001) vectorInvariantMomentum= /* Vector-Invariant Momentum on/off */
(PID.TID 0000.0001)                   F
(PID.TID 0000.0001)     ;
(PID.TID 0000.0001) momAdvection =  /* Momentum advection on/off flag */
(PID.TID 0000.0001)                   T
(PID.TID 0000.0001)     ;
(PID.TID 0000.0001) momViscosity =  /* Momentum viscosity on/off flag */
(PID.TID 0000.0001)                   T
(PID.TID 0000.0001)     ;
(PID.TID 0000.0001) momImplVertAdv= /* Momentum implicit vert. advection on/off*/
(PID.TID 0000.0001)                   F
(PID.TID 0000.0001)     ;
(PID.TID 0000.0001) implicitViscosity = /* Implicit viscosity on/off flag */
(PID.TID 0000.0001)                   T
(PID.TID 0000.0001)     ;
(PID.TID 0000.0001) metricTerms =  /* metric-Terms on/off flag */
(PID.TID 0000.0001)                   F
(PID.TID 0000.0001)     ;
(PID.TID 0000.0001) useNHMTerms = /* Non-Hydrostatic Metric-Terms on/off */
(PID.TID 0000.0001)                   F
(PID.TID 0000.0001)     ;
(PID.TID 0000.0001) selectCoriMap = /* Coriolis Map options (0,1,2,3)*/
(PID.TID 0000.0001)                       1
(PID.TID 0000.0001)     0= f-Plane ; 1= Beta-Plane ; 2= Spherical ; 3= read from file
(PID.TID 0000.0001)     ;
(PID.TID 0000.0001) use3dCoriolis = /* 3-D Coriolis on/off flag */
(PID.TID 0000.0001)                   F
(PID.TID 0000.0001)     ;
(PID.TID 0000.0001) useCoriolis =  /* Coriolis on/off flag */
(PID.TID 0000.0001)                   T
(PID.TID 0000.0001)     ;
(PID.TID 0000.0001) useCDscheme =  /* CD scheme on/off flag */
(PID.TID 0000.0001)                   F
(PID.TID 0000.0001)     ;
(PID.TID 0000.0001) useEnergyConservingCoriolis= /* Flx-Form Coriolis scheme flag */
(PID.TID 0000.0001)                   F
(PID.TID 0000.0001)     ;
(PID.TID 0000.0001) useJamartWetPoints= /* Coriolis WetPoints method flag */
(PID.TID 0000.0001)                   F
(PID.TID 0000.0001)     ;
(PID.TID 0000.0001) useJamartMomAdv= /* V.I Non-linear terms Jamart flag */
(PID.TID 0000.0001)                   F
(PID.TID 0000.0001)     ;
(PID.TID 0000.0001) useAbsVorticity= /* V.I Works with f+zeta in Coriolis */
(PID.TID 0000.0001)                   F
(PID.TID 0000.0001)     ;
(PID.TID 0000.0001) selectVortScheme= /* V.I Scheme selector for Vorticity-Term */
(PID.TID 0000.0001)               123456789
(PID.TID 0000.0001)    = 0 : enstrophy (Shallow-Water Eq.) conserving scheme by Sadourny, JAS 75
(PID.TID 0000.0001)    = 1 : same as 0 with modified hFac
(PID.TID 0000.0001)    = 2 : energy conserving scheme (used by Sadourny in JAS 75 paper)
(PID.TID 0000.0001)    = 3 : energy (general) and enstrophy (2D, nonDiv.) conserving scheme
(PID.TID 0000.0001)          from Sadourny (Burridge & Haseler, ECMWF Rep.4, 1977)
(PID.TID 0000.0001)     ;
(PID.TID 0000.0001) upwindVorticity= /* V.I Upwind bias vorticity flag */
(PID.TID 0000.0001)                   F
(PID.TID 0000.0001)     ;
(PID.TID 0000.0001) highOrderVorticity= /* V.I High order vort. advect. flag */
(PID.TID 0000.0001)                   F
(PID.TID 0000.0001)     ;
(PID.TID 0000.0001) upwindShear= /* V.I Upwind vertical Shear advection flag */
(PID.TID 0000.0001)                   F
(PID.TID 0000.0001)     ;
(PID.TID 0000.0001) selectKEscheme= /* V.I Kinetic Energy scheme selector */
(PID.TID 0000.0001)                       0
(PID.TID 0000.0001)     ;
(PID.TID 0000.0001) momForcing =  /* Momentum forcing on/off flag */
(PID.TID 0000.0001)                   T
(PID.TID 0000.0001)     ;
(PID.TID 0000.0001) momPressureForcing =  /* Momentum pressure term on/off flag */
(PID.TID 0000.0001)                   T
(PID.TID 0000.0001)     ;
(PID.TID 0000.0001) implicitIntGravWave= /* Implicit Internal Gravity Wave flag */
(PID.TID 0000.0001)                   F
(PID.TID 0000.0001)     ;
(PID.TID 0000.0001) staggerTimeStep =    /* Stagger time stepping on/off flag */
(PID.TID 0000.0001)                   T
(PID.TID 0000.0001)     ;
(PID.TID 0000.0001) doResetHFactors = /* reset thickness factors @ each time-step */
(PID.TID 0000.0001)                   F
(PID.TID 0000.0001)     ;
(PID.TID 0000.0001) multiDimAdvection =  /* enable/disable Multi-Dim Advection */
(PID.TID 0000.0001)                   T
(PID.TID 0000.0001)     ;
(PID.TID 0000.0001) useMultiDimAdvec =   /* Multi-Dim Advection is/is-not used */
(PID.TID 0000.0001)                   T
(PID.TID 0000.0001)     ;
(PID.TID 0000.0001) implicitDiffusion = /* Implicit Diffusion on/off flag */
(PID.TID 0000.0001)                   T
(PID.TID 0000.0001)     ;
(PID.TID 0000.0001) tempStepping =  /* Temperature equation on/off flag */
(PID.TID 0000.0001)                   T
(PID.TID 0000.0001)     ;
(PID.TID 0000.0001) tempAdvection = /* Temperature advection on/off flag */
(PID.TID 0000.0001)                   T
(PID.TID 0000.0001)     ;
(PID.TID 0000.0001) tempImplVertAdv = /* Temp. implicit vert. advection on/off */
(PID.TID 0000.0001)                   F
(PID.TID 0000.0001)     ;
(PID.TID 0000.0001) tempForcing  =  /* Temperature forcing on/off flag */
(PID.TID 0000.0001)                   T
(PID.TID 0000.0001)     ;
(PID.TID 0000.0001) doThetaClimRelax = /* apply SST relaxation on/off flag */
(PID.TID 0000.0001)                   F
(PID.TID 0000.0001)     ;
(PID.TID 0000.0001) tempIsActiveTr = /* Temp. is a dynamically Active Tracer */
(PID.TID 0000.0001)                   T
(PID.TID 0000.0001)     ;
(PID.TID 0000.0001) saltStepping =  /* Salinity equation on/off flag */
(PID.TID 0000.0001)                   F
(PID.TID 0000.0001)     ;
(PID.TID 0000.0001) saltAdvection = /* Salinity advection on/off flag */
(PID.TID 0000.0001)                   F
(PID.TID 0000.0001)     ;
(PID.TID 0000.0001) saltImplVertAdv = /* Sali. implicit vert. advection on/off */
(PID.TID 0000.0001)                   F
(PID.TID 0000.0001)     ;
(PID.TID 0000.0001) saltForcing  =  /* Salinity forcing on/off flag */
(PID.TID 0000.0001)                   F
(PID.TID 0000.0001)     ;
(PID.TID 0000.0001) doSaltClimRelax = /* apply SSS relaxation on/off flag */
(PID.TID 0000.0001)                   F
(PID.TID 0000.0001)     ;
(PID.TID 0000.0001) saltIsActiveTr = /* Salt  is a dynamically Active Tracer */
(PID.TID 0000.0001)                   F
(PID.TID 0000.0001)     ;
(PID.TID 0000.0001)  readBinaryPrec = /* Precision used for reading binary files */
(PID.TID 0000.0001)                      64
(PID.TID 0000.0001)     ;
(PID.TID 0000.0001) writeBinaryPrec = /* Precision used for writing binary files */
(PID.TID 0000.0001)                      64
(PID.TID 0000.0001)     ;
(PID.TID 0000.0001)  globalFiles = /* write "global" (=not per tile) files */
(PID.TID 0000.0001)                   F
(PID.TID 0000.0001)     ;
(PID.TID 0000.0001)  useSingleCpuIO = /* only master MPI process does I/O */
(PID.TID 0000.0001)                   T
(PID.TID 0000.0001)     ;
(PID.TID 0000.0001)  useSingleCpuInput = /* only master process reads input */
(PID.TID 0000.0001)                   T
(PID.TID 0000.0001)     ;
(PID.TID 0000.0001) /* debLev[*]  : level of debug & auxiliary message printing */
(PID.TID 0000.0001) debLevZero =  0 ; /* level of disabled aux. msg printing */
(PID.TID 0000.0001)    debLevA =  1 ; /* level of minimum  aux. msg printing */
(PID.TID 0000.0001)    debLevB =  2 ; /* level of low aux. print (report read-file opening)*/
(PID.TID 0000.0001)    debLevC =  3 ; /* level of moderate debug prt (most pkgs debug msg) */
(PID.TID 0000.0001)    debLevD =  4 ; /* level of enhanced debug prt (add DEBUG_STATS prt) */
(PID.TID 0000.0001)    debLevE =  5 ; /* level of extensive debug printing */
(PID.TID 0000.0001) debugLevel =  /* select debug printing level */
(PID.TID 0000.0001)                       2
(PID.TID 0000.0001)     ;
(PID.TID 0000.0001) //
(PID.TID 0000.0001) // Elliptic solver(s) paramters ( PARM02 in namelist )
(PID.TID 0000.0001) //
(PID.TID 0000.0001) cg2dMaxIters =   /* Upper limit on 2d con. grad iterations  */
(PID.TID 0000.0001)                    1000
(PID.TID 0000.0001)     ;
(PID.TID 0000.0001) cg2dChkResFreq =   /* 2d con. grad convergence test frequency */
(PID.TID 0000.0001)                       1
(PID.TID 0000.0001)     ;
(PID.TID 0000.0001) cg2dUseMinResSol= /* use cg2d last-iter(=0) / min-resid.(=1) solution */
(PID.TID 0000.0001)                       0
(PID.TID 0000.0001)     ;
(PID.TID 0000.0001) cg2dTargetResidual =   /* 2d con. grad target residual  */
(PID.TID 0000.0001)                 1.000000000000000E-13
(PID.TID 0000.0001)     ;
(PID.TID 0000.0001) cg2dTargetResWunit =   /* CG2d target residual [W units] */
(PID.TID 0000.0001)                -1.000000000000000E+00
(PID.TID 0000.0001)     ;
(PID.TID 0000.0001) cg2dPreCondFreq =   /* Freq. for updating cg2d preconditioner */
(PID.TID 0000.0001)                       1
(PID.TID 0000.0001)     ;
(PID.TID 0000.0001) useSRCGSolver =  /* use single reduction CG solver(s) */
(PID.TID 0000.0001)                   F
(PID.TID 0000.0001)     ;
(PID.TID 0000.0001) printResidualFreq = /* Freq. for printing CG residual */
(PID.TID 0000.0001)                       0
(PID.TID 0000.0001)     ;
(PID.TID 0000.0001) //
(PID.TID 0000.0001) // Time stepping paramters ( PARM03 in namelist )
(PID.TID 0000.0001) //
(PID.TID 0000.0001) deltaTMom =   /* Momentum equation timestep ( s ) */
(PID.TID 0000.0001)                 1.500000000000000E+01
(PID.TID 0000.0001)     ;
(PID.TID 0000.0001) deltaTFreeSurf = /* FreeSurface equation timestep ( s ) */
(PID.TID 0000.0001)                 1.500000000000000E+01
(PID.TID 0000.0001)     ;
(PID.TID 0000.0001) dTtracerLev =  /* Tracer equation timestep ( s ) */
(PID.TID 0000.0001)   100 @  1.500000000000000E+01              /* K =  1:100 */
(PID.TID 0000.0001)     ;
(PID.TID 0000.0001) deltaTClock  =   /* Model clock timestep ( s ) */
(PID.TID 0000.0001)                 1.500000000000000E+01
(PID.TID 0000.0001)     ;
(PID.TID 0000.0001) cAdjFreq =   /* Convective adjustment interval ( s ) */
(PID.TID 0000.0001)                 0.000000000000000E+00
(PID.TID 0000.0001)     ;
(PID.TID 0000.0001) momForcingOutAB = /* =1: take Momentum Forcing out of Adams-Bash. stepping */
(PID.TID 0000.0001)                       0
(PID.TID 0000.0001)     ;
(PID.TID 0000.0001) tracForcingOutAB = /* =1: take T,S,pTr Forcing out of Adams-Bash. stepping */
(PID.TID 0000.0001)                       0
(PID.TID 0000.0001)     ;
(PID.TID 0000.0001) momDissip_In_AB = /* put Dissipation Tendency in Adams-Bash. stepping */
(PID.TID 0000.0001)                   T
(PID.TID 0000.0001)     ;
(PID.TID 0000.0001) doAB_onGtGs = /* apply AB on Tendencies (rather than on T,S)*/
(PID.TID 0000.0001)                   T
(PID.TID 0000.0001)     ;
(PID.TID 0000.0001) abEps =   /* Adams-Bashforth-2 stabilizing weight */
(PID.TID 0000.0001)                 1.000000000000000E-01
(PID.TID 0000.0001)     ;
(PID.TID 0000.0001) pickupStrictlyMatch= /* stop if pickup do not strictly match */
(PID.TID 0000.0001)                   T
(PID.TID 0000.0001)     ;
(PID.TID 0000.0001) nIter0   =   /* Run starting timestep number */
(PID.TID 0000.0001)                       0
(PID.TID 0000.0001)     ;
(PID.TID 0000.0001) nTimeSteps = /* Number of timesteps */
(PID.TID 0000.0001)                    7200
(PID.TID 0000.0001)     ;
(PID.TID 0000.0001) nEndIter =   /* Run ending timestep number */
(PID.TID 0000.0001)                    7200
(PID.TID 0000.0001)     ;
(PID.TID 0000.0001) baseTime =   /* Model base time ( s ) */
(PID.TID 0000.0001)                 0.000000000000000E+00
(PID.TID 0000.0001)     ;
(PID.TID 0000.0001) startTime =  /* Run start time ( s ) */
(PID.TID 0000.0001)                 0.000000000000000E+00
(PID.TID 0000.0001)     ;
(PID.TID 0000.0001) endTime  =   /* Integration ending time ( s ) */
(PID.TID 0000.0001)                 1.080000000000000E+05
(PID.TID 0000.0001)     ;
(PID.TID 0000.0001) pChkPtFreq = /* Permanent restart/pickup file interval ( s ) */
(PID.TID 0000.0001)                 2.160000000000000E+04
(PID.TID 0000.0001)     ;
(PID.TID 0000.0001) chkPtFreq  = /* Rolling restart/pickup file interval ( s ) */
(PID.TID 0000.0001)                 0.000000000000000E+00
(PID.TID 0000.0001)     ;
(PID.TID 0000.0001) pickup_write_mdsio =   /* Model IO flag. */
(PID.TID 0000.0001)                   T
(PID.TID 0000.0001)     ;
(PID.TID 0000.0001) pickup_read_mdsio =   /* Model IO flag. */
(PID.TID 0000.0001)                   T
(PID.TID 0000.0001)     ;
(PID.TID 0000.0001) pickup_write_immed =   /* Model IO flag. */
(PID.TID 0000.0001)                   F
(PID.TID 0000.0001)     ;
(PID.TID 0000.0001) writePickupAtEnd =   /* Model IO flag. */
(PID.TID 0000.0001)                   T
(PID.TID 0000.0001)     ;
(PID.TID 0000.0001) dumpFreq =   /* Model state write out interval ( s ). */
(PID.TID 0000.0001)                 7.200000000000000E+03
(PID.TID 0000.0001)     ;
(PID.TID 0000.0001) dumpInitAndLast= /* write out Initial & Last iter. model state */
(PID.TID 0000.0001)                   T
(PID.TID 0000.0001)     ;
(PID.TID 0000.0001) snapshot_mdsio =   /* Model IO flag. */
(PID.TID 0000.0001)                   T
(PID.TID 0000.0001)     ;
(PID.TID 0000.0001) monitorFreq =   /* Monitor output interval ( s ). */
(PID.TID 0000.0001)                 7.200000000000000E+03
(PID.TID 0000.0001)     ;
(PID.TID 0000.0001) monitorSelect = /* select group of variables to monitor */
(PID.TID 0000.0001)                       3
(PID.TID 0000.0001)     ;
(PID.TID 0000.0001) monitor_stdio =   /* Model IO flag. */
(PID.TID 0000.0001)                   T
(PID.TID 0000.0001)     ;
(PID.TID 0000.0001) externForcingPeriod =   /* forcing period (s) */
(PID.TID 0000.0001)                 0.000000000000000E+00
(PID.TID 0000.0001)     ;
(PID.TID 0000.0001) externForcingCycle =   /* period of the cyle (s). */
(PID.TID 0000.0001)                 0.000000000000000E+00
(PID.TID 0000.0001)     ;
(PID.TID 0000.0001) tauThetaClimRelax =   /* relaxation time scale (s) */
(PID.TID 0000.0001)                 0.000000000000000E+00
(PID.TID 0000.0001)     ;
(PID.TID 0000.0001) tauSaltClimRelax =   /* relaxation time scale (s) */
(PID.TID 0000.0001)                 0.000000000000000E+00
(PID.TID 0000.0001)     ;
(PID.TID 0000.0001) latBandClimRelax =   /* max. Lat. where relaxation */
(PID.TID 0000.0001)                 1.500000000000000E+04
(PID.TID 0000.0001)     ;
(PID.TID 0000.0001) //
(PID.TID 0000.0001) // Gridding paramters ( PARM04 in namelist )
(PID.TID 0000.0001) //
(PID.TID 0000.0001) usingCartesianGrid = /* Cartesian coordinates flag ( True/False ) */
(PID.TID 0000.0001)                   T
(PID.TID 0000.0001)     ;
(PID.TID 0000.0001) usingCylindricalGrid = /* Cylindrical coordinates flag ( True/False ) */
(PID.TID 0000.0001)                   F
(PID.TID 0000.0001)     ;
(PID.TID 0000.0001) usingSphericalPolarGrid = /* Spherical coordinates flag ( True/False ) */
(PID.TID 0000.0001)                   F
(PID.TID 0000.0001)     ;
(PID.TID 0000.0001) usingCurvilinearGrid = /* Curvilinear coordinates flag ( True/False ) */
(PID.TID 0000.0001)                   F
(PID.TID 0000.0001)     ;
(PID.TID 0000.0001) selectSigmaCoord = /* Hybrid-Sigma Vert. Coordinate option */
(PID.TID 0000.0001)                       0
(PID.TID 0000.0001)     ;
(PID.TID 0000.0001) Ro_SeaLevel = /* r(1) ( units of r ==  m ) */
(PID.TID 0000.0001)                 0.000000000000000E+00
(PID.TID 0000.0001)     ;
(PID.TID 0000.0001) rSigmaBnd = /* r/sigma transition ( units of r ==  m ) */
(PID.TID 0000.0001)                 1.234567000000000E+05
(PID.TID 0000.0001)     ;
(PID.TID 0000.0001) rkSign =   /* index orientation relative to vertical coordinate */
(PID.TID 0000.0001)                -1.000000000000000E+00
(PID.TID 0000.0001)     ;
(PID.TID 0000.0001) gravitySign = /* gravity orientation relative to vertical coordinate */
(PID.TID 0000.0001)                -1.000000000000000E+00
(PID.TID 0000.0001)     ;
(PID.TID 0000.0001) mass2rUnit = /* convert mass per unit area [kg/m2] to r-units [m] */
(PID.TID 0000.0001)                 1.000200040008002E-03
(PID.TID 0000.0001)     ;
(PID.TID 0000.0001) rUnit2mass = /* convert r-units [m] to mass per unit area [kg/m2] */
(PID.TID 0000.0001)                 9.998000000000000E+02
(PID.TID 0000.0001)     ;
(PID.TID 0000.0001) drC =   /* C spacing ( units of r ) */
(PID.TID 0000.0001)                 2.160197349097110E+00,      /* K =  1 */
(PID.TID 0000.0001)                 4.268476490917204E+00,      /* K =  2 */
(PID.TID 0000.0001)                 4.165887879138223E+00,      /* K =  3 */
(PID.TID 0000.0001)                 4.065764883203475E+00,      /* K =  4 */
(PID.TID 0000.0001)                 3.968048244474149E+00,      /* K =  5 */
(PID.TID 0000.0001)                 3.872680128534226E+00,      /* K =  6 */
(PID.TID 0000.0001)                 3.779604090960689E+00,      /* K =  7 */
(PID.TID 0000.0001)                 3.688765043916412E+00,      /* K =  8 */
(PID.TID 0000.0001)                 3.600109223545968E+00,      /* K =  9 */
(PID.TID 0000.0001)                 3.513584158155032E+00,      /* K = 10 */
(PID.TID 0000.0001)                 3.429138637154566E+00,      /* K = 11 */
(PID.TID 0000.0001)                 3.346722680751403E+00,      /* K = 12 */
(PID.TID 0000.0001)                 3.266287510367288E+00,      /* K = 13 */
(PID.TID 0000.0001)                 3.187785519768858E+00,      /* K = 14 */
(PID.TID 0000.0001)                 3.111170246891496E+00,      /* K = 15 */
(PID.TID 0000.0001)                 3.036396346340368E+00,      /* K = 16 */
(PID.TID 0000.0001)                 2.963419562552367E+00,      /* K = 17 */
(PID.TID 0000.0001)                 2.892196703603085E+00,      /* K = 18 */
(PID.TID 0000.0001)                 2.822685615643309E+00,      /* K = 19 */
(PID.TID 0000.0001)                 2.754845157949907E+00,      /* K = 20 */
(PID.TID 0000.0001)                 2.688635178576353E+00,      /* K = 21 */
(PID.TID 0000.0001)                 2.624016490588450E+00,      /* K = 22 */
(PID.TID 0000.0001)                 2.560950848871215E+00,      /* K = 23 */
(PID.TID 0000.0001)                 2.499400927493190E+00,      /* K = 24 */
(PID.TID 0000.0001)                 2.439330297614770E+00,      /* K = 25 */
(PID.TID 0000.0001)                 2.380703405927489E+00,      /* K = 26 */
(PID.TID 0000.0001)                 2.323485553611495E+00,      /* K = 27 */
(PID.TID 0000.0001)                 2.267642875798760E+00,      /* K = 28 */
(PID.TID 0000.0001)                 2.213142321529876E+00,      /* K = 29 */
(PID.TID 0000.0001)                 2.159951634192559E+00,      /* K = 30 */
(PID.TID 0000.0001)                 2.108039332430311E+00,      /* K = 31 */
(PID.TID 0000.0001)                 2.057374691509905E+00,      /* K = 32 */
(PID.TID 0000.0001)                 2.007927725136697E+00,      /* K = 33 */
(PID.TID 0000.0001)                 1.959669167706986E+00,      /* K = 34 */
(PID.TID 0000.0001)                 1.912570456986916E+00,      /* K = 35 */
(PID.TID 0000.0001)                 1.866603717207679E+00,      /* K = 36 */
(PID.TID 0000.0001)                 1.821741742567009E+00,      /* K = 37 */
(PID.TID 0000.0001)                 1.777957981127196E+00,      /* K = 38 */
(PID.TID 0000.0001)                 1.735226519100095E+00,      /* K = 39 */
(PID.TID 0000.0001)                 1.693522065509840E+00,      /* K = 40 */
(PID.TID 0000.0001)                 1.652819937224159E+00,      /* K = 41 */
(PID.TID 0000.0001)                 1.613096044345458E+00,      /* K = 42 */
(PID.TID 0000.0001)                 1.574326875953012E+00,      /* K = 43 */
(PID.TID 0000.0001)                 1.536489486187827E+00,      /* K = 44 */
(PID.TID 0000.0001)                 1.499561480671944E+00,      /* K = 45 */
(PID.TID 0000.0001)                 1.463521003254131E+00,      /* K = 46 */
(PID.TID 0000.0001)                 1.428346723074140E+00,      /* K = 47 */
(PID.TID 0000.0001)                 1.394017821937860E+00,      /* K = 48 */
(PID.TID 0000.0001)                 1.360513981995887E+00,      /* K = 49 */
(PID.TID 0000.0001)                 1.327815373718239E+00,      /* K = 50 */
(PID.TID 0000.0001)                 1.295902644158079E+00,      /* K = 51 */
(PID.TID 0000.0001)                 1.264756905497510E+00,      /* K = 52 */
(PID.TID 0000.0001)                 1.234359723868664E+00,      /* K = 53 */
(PID.TID 0000.0001)                 1.204693108443458E+00,      /* K = 54 */
(PID.TID 0000.0001)                 1.175739500785574E+00,      /* K = 55 */
(PID.TID 0000.0001)                 1.147481764458347E+00,      /* K = 56 */
(PID.TID 0000.0001)                 1.119903174882425E+00,      /* K = 57 */
(PID.TID 0000.0001)                 1.092987409437182E+00,      /* K = 58 */
(PID.TID 0000.0001)                 1.066718537800039E+00,      /* K = 59 */
(PID.TID 0000.0001)                 1.041081012517969E+00,      /* K = 60 */
(PID.TID 0000.0001)                 1.014209083336182E+00,      /* K = 61 */
(PID.TID 0000.0001)     3 @  1.000000000000000E+00,             /* K = 62: 64 */
(PID.TID 0000.0001)                 1.009825193735121E+00,      /* K = 65 */
(PID.TID 0000.0001)                 1.032205276222085E+00,      /* K = 66 */
(PID.TID 0000.0001)                 1.057624228779317E+00,      /* K = 67 */
(PID.TID 0000.0001)                 1.083669145148197E+00,      /* K = 68 */
(PID.TID 0000.0001)                 1.110355440231940E+00,      /* K = 69 */
(PID.TID 0000.0001)                 1.137698908539156E+00,      /* K = 70 */
(PID.TID 0000.0001)                 1.165715733531969E+00,      /* K = 71 */
(PID.TID 0000.0001)                 1.194422497204327E+00,      /* K = 72 */
(PID.TID 0000.0001)                 1.223836189896201E+00,      /* K = 73 */
(PID.TID 0000.0001)                 1.253974220349460E+00,      /* K = 74 */
(PID.TID 0000.0001)                 1.284854426011378E+00,      /* K = 75 */
(PID.TID 0000.0001)                 1.316495083591883E+00,      /* K = 76 */
(PID.TID 0000.0001)                 1.348914919880776E+00,      /* K = 77 */
(PID.TID 0000.0001)                 1.382133122831344E+00,      /* K = 78 */
(PID.TID 0000.0001)                 1.416169352916909E+00,      /* K = 79 */
(PID.TID 0000.0001)                 1.451043754767046E+00,      /* K = 80 */
(PID.TID 0000.0001)                 1.486776969090353E+00,      /* K = 81 */
(PID.TID 0000.0001)                 1.523390144890824E+00,      /* K = 82 */
(PID.TID 0000.0001)                 1.560904951985071E+00,      /* K = 83 */
(PID.TID 0000.0001)                 1.599343593827782E+00,      /* K = 84 */
(PID.TID 0000.0001)                 1.638728820653027E+00,      /* K = 85 */
(PID.TID 0000.0001)                 1.679083942939175E+00,      /* K = 86 */
(PID.TID 0000.0001)                 1.720432845205392E+00,      /* K = 87 */
(PID.TID 0000.0001)                 1.762800000147905E+00,      /* K = 88 */
(PID.TID 0000.0001)                 1.806210483124362E+00,      /* K = 89 */
(PID.TID 0000.0001)                 1.850689986994904E+00,      /* K = 90 */
(PID.TID 0000.0001)                 1.896264837328693E+00,      /* K = 91 */
(PID.TID 0000.0001)                 1.942962007984925E+00,      /* K = 92 */
(PID.TID 0000.0001)                 1.990809137077537E+00,      /* K = 93 */
(PID.TID 0000.0001)                 2.039834543333057E+00,      /* K = 94 */
(PID.TID 0000.0001)                 2.090067242851278E+00,      /* K = 95 */
(PID.TID 0000.0001)                 2.141536966278686E+00,      /* K = 96 */
(PID.TID 0000.0001)                 2.194274176404790E+00,      /* K = 97 */
(PID.TID 0000.0001)                 2.248310086191781E+00,      /* K = 98 */
(PID.TID 0000.0001)                 2.303676677248189E+00,      /* K = 99 */
(PID.TID 0000.0001)                 2.360406718757467E+00,      /* K =100 */
(PID.TID 0000.0001)                 1.194558374047700E+00       /* K =101 */
(PID.TID 0000.0001)     ;
(PID.TID 0000.0001) drF =   /* W spacing ( units of r ) */
(PID.TID 0000.0001)                 4.320394698194220E+00,      /* K =  1 */
(PID.TID 0000.0001)                 4.216558283640189E+00,      /* K =  2 */
(PID.TID 0000.0001)                 4.115217474636258E+00,      /* K =  3 */
(PID.TID 0000.0001)                 4.016312291770691E+00,      /* K =  4 */
(PID.TID 0000.0001)                 3.919784197177606E+00,      /* K =  5 */
(PID.TID 0000.0001)                 3.825576059890846E+00,      /* K =  6 */
(PID.TID 0000.0001)                 3.733632122030531E+00,      /* K =  7 */
(PID.TID 0000.0001)                 3.643897965802293E+00,      /* K =  8 */
(PID.TID 0000.0001)                 3.556320481289644E+00,      /* K =  9 */
(PID.TID 0000.0001)                 3.470847835020420E+00,      /* K = 10 */
(PID.TID 0000.0001)                 3.387429439288711E+00,      /* K = 11 */
(PID.TID 0000.0001)                 3.306015922214096E+00,      /* K = 12 */
(PID.TID 0000.0001)                 3.226559098520481E+00,      /* K = 13 */
(PID.TID 0000.0001)                 3.149011941017235E+00,      /* K = 14 */
(PID.TID 0000.0001)                 3.073328552765757E+00,      /* K = 15 */
(PID.TID 0000.0001)                 2.999464139914980E+00,      /* K = 16 */
(PID.TID 0000.0001)                 2.927374985189755E+00,      /* K = 17 */
(PID.TID 0000.0001)                 2.857018422016415E+00,      /* K = 18 */
(PID.TID 0000.0001)                 2.788352809270202E+00,      /* K = 19 */
(PID.TID 0000.0001)                 2.721337506629613E+00,      /* K = 20 */
(PID.TID 0000.0001)                 2.655932850523093E+00,      /* K = 21 */
(PID.TID 0000.0001)                 2.592100130653806E+00,      /* K = 22 */
(PID.TID 0000.0001)                 2.529801567088624E+00,      /* K = 23 */
(PID.TID 0000.0001)                 2.469000287897756E+00,      /* K = 24 */
(PID.TID 0000.0001)                 2.409660307331784E+00,      /* K = 25 */
(PID.TID 0000.0001)                 2.351746504523194E+00,      /* K = 26 */
(PID.TID 0000.0001)                 2.295224602699796E+00,      /* K = 27 */
(PID.TID 0000.0001)                 2.240061148897725E+00,      /* K = 28 */
(PID.TID 0000.0001)                 2.186223494162026E+00,      /* K = 29 */
(PID.TID 0000.0001)                 2.133679774223093E+00,      /* K = 30 */
(PID.TID 0000.0001)                 2.082398890637530E+00,      /* K = 31 */
(PID.TID 0000.0001)                 2.032350492382280E+00,      /* K = 32 */
(PID.TID 0000.0001)                 1.983504957891114E+00,      /* K = 33 */
(PID.TID 0000.0001)                 1.935833377522857E+00,      /* K = 34 */
(PID.TID 0000.0001)                 1.889307536450973E+00,      /* K = 35 */
(PID.TID 0000.0001)                 1.843899897964384E+00,      /* K = 36 */
(PID.TID 0000.0001)                 1.799583587169634E+00,      /* K = 37 */
(PID.TID 0000.0001)                 1.756332375084757E+00,      /* K = 38 */
(PID.TID 0000.0001)                 1.714120663115434E+00,      /* K = 39 */
(PID.TID 0000.0001)                 1.672923467904247E+00,      /* K = 40 */
(PID.TID 0000.0001)                 1.632716406544071E+00,      /* K = 41 */
(PID.TID 0000.0001)                 1.593475682146844E+00,      /* K = 42 */
(PID.TID 0000.0001)                 1.555178069759179E+00,      /* K = 43 */
(PID.TID 0000.0001)                 1.517800902616476E+00,      /* K = 44 */
(PID.TID 0000.0001)                 1.481322058727412E+00,      /* K = 45 */
(PID.TID 0000.0001)                 1.445719947780850E+00,      /* K = 46 */
(PID.TID 0000.0001)                 1.410973498367431E+00,      /* K = 47 */
(PID.TID 0000.0001)                 1.377062145508289E+00,      /* K = 48 */
(PID.TID 0000.0001)                 1.343965818483486E+00,      /* K = 49 */
(PID.TID 0000.0001)                 1.311664928952993E+00,      /* K = 50 */
(PID.TID 0000.0001)                 1.280140359363165E+00,      /* K = 51 */
(PID.TID 0000.0001)                 1.249373451631856E+00,      /* K = 52 */
(PID.TID 0000.0001)                 1.219345996105473E+00,      /* K = 53 */
(PID.TID 0000.0001)                 1.190040220781444E+00,      /* K = 54 */
(PID.TID 0000.0001)                 1.161438780789704E+00,      /* K = 55 */
(PID.TID 0000.0001)                 1.133524748126990E+00,      /* K = 56 */
(PID.TID 0000.0001)                 1.106281601637860E+00,      /* K = 57 */
(PID.TID 0000.0001)                 1.079693217236504E+00,      /* K = 58 */
(PID.TID 0000.0001)                 1.053743858363574E+00,      /* K = 59 */
(PID.TID 0000.0001)                 1.028418166672365E+00,      /* K = 60 */
(PID.TID 0000.0001)     4 @  1.000000000000000E+00,             /* K = 61: 64 */
(PID.TID 0000.0001)                 1.019650387470241E+00,      /* K = 65 */
(PID.TID 0000.0001)                 1.044760164973929E+00,      /* K = 66 */
(PID.TID 0000.0001)                 1.070488292584705E+00,      /* K = 67 */
(PID.TID 0000.0001)                 1.096849997711689E+00,      /* K = 68 */
(PID.TID 0000.0001)                 1.123860882752190E+00,      /* K = 69 */
(PID.TID 0000.0001)                 1.151536934326122E+00,      /* K = 70 */
(PID.TID 0000.0001)                 1.179894532737815E+00,      /* K = 71 */
(PID.TID 0000.0001)                 1.208950461670838E+00,      /* K = 72 */
(PID.TID 0000.0001)                 1.238721918121564E+00,      /* K = 73 */
(PID.TID 0000.0001)                 1.269226522577355E+00,      /* K = 74 */
(PID.TID 0000.0001)                 1.300482329445401E+00,      /* K = 75 */
(PID.TID 0000.0001)                 1.332507837738365E+00,      /* K = 76 */
(PID.TID 0000.0001)                 1.365322002023187E+00,      /* K = 77 */
(PID.TID 0000.0001)                 1.398944243639500E+00,      /* K = 78 */
(PID.TID 0000.0001)                 1.433394462194317E+00,      /* K = 79 */
(PID.TID 0000.0001)                 1.468693047339775E+00,      /* K = 80 */
(PID.TID 0000.0001)                 1.504860890840930E+00,      /* K = 81 */
(PID.TID 0000.0001)                 1.541919398940718E+00,      /* K = 82 */
(PID.TID 0000.0001)                 1.579890505029424E+00,      /* K = 83 */
(PID.TID 0000.0001)                 1.618796682626140E+00,      /* K = 84 */
(PID.TID 0000.0001)                 1.658660958679914E+00,      /* K = 85 */
(PID.TID 0000.0001)                 1.699506927198435E+00,      /* K = 86 */
(PID.TID 0000.0001)                 1.741358763212350E+00,      /* K = 87 */
(PID.TID 0000.0001)                 1.784241237083460E+00,      /* K = 88 */
(PID.TID 0000.0001)                 1.828179729165265E+00,      /* K = 89 */
(PID.TID 0000.0001)                 1.873200244824543E+00,      /* K = 90 */
(PID.TID 0000.0001)                 1.919329429832842E+00,      /* K = 91 */
(PID.TID 0000.0001)                 1.966594586137007E+00,      /* K = 92 */
(PID.TID 0000.0001)                 2.015023688018067E+00,      /* K = 93 */
(PID.TID 0000.0001)                 2.064645398648046E+00,      /* K = 94 */
(PID.TID 0000.0001)                 2.115489087054509E+00,      /* K = 95 */
(PID.TID 0000.0001)                 2.167584845502862E+00,      /* K = 96 */
(PID.TID 0000.0001)                 2.220963507306716E+00,      /* K = 97 */
(PID.TID 0000.0001)                 2.275656665076845E+00,      /* K = 98 */
(PID.TID 0000.0001)                 2.331696689419534E+00,      /* K = 99 */
(PID.TID 0000.0001)                 2.389116748095400E+00       /* K =100 */
(PID.TID 0000.0001)     ;
(PID.TID 0000.0001) delX = /* U spacing ( m - cartesian, degrees - spherical ) */
(PID.TID 0000.0001)                 1.263294638016668E+03,      /* I =  1 */
(PID.TID 0000.0001)                 1.237496063806571E+03,      /* I =  2 */
(PID.TID 0000.0001)                 1.212224339320398E+03,      /* I =  3 */
(PID.TID 0000.0001)      . . .
(PID.TID 0000.0001)                 4.790113490274632E+02,      /* I = 48 */
(PID.TID 0000.0001)                 4.692291418815790E+02,      /* I = 49 */
(PID.TID 0000.0001)                 4.596467036489769E+02,      /* I = 50 */
(PID.TID 0000.0001)                 4.502599547167311E+02,      /* I = 51 */
(PID.TID 0000.0001)                 4.410648987843862E+02,      /* I = 52 */
(PID.TID 0000.0001)                 4.320576211625778E+02,      /* I = 53 */
(PID.TID 0000.0001)      . . .
(PID.TID 0000.0001)                 2.000000000000000E+02,      /* I = 98 */
(PID.TID 0000.0001)                 2.000000000000000E+02,      /* I = 99 */
(PID.TID 0000.0001)                 2.000000000000000E+02,      /* I =100 */
(PID.TID 0000.0001)                 2.000000000000000E+02,      /* I =101 */
(PID.TID 0000.0001)                 2.000000000000000E+02,      /* I =102 */
(PID.TID 0000.0001)                 2.000000000000000E+02,      /* I =103 */
(PID.TID 0000.0001)      . . .
(PID.TID 0000.0001)                 3.612641354876311E+02,      /* I =148 */
(PID.TID 0000.0001)                 3.687955530665730E+02,      /* I =149 */
(PID.TID 0000.0001)                 3.764839811128614E+02,      /* I =150 */
(PID.TID 0000.0001)                 3.843326928863569E+02,      /* I =151 */
(PID.TID 0000.0001)                 3.923450298858749E+02,      /* I =152 */
(PID.TID 0000.0001)                 4.005244032717896E+02,      /* I =153 */
(PID.TID 0000.0001)      . . .
(PID.TID 0000.0001)                 1.013599012055986E+03,      /* I =198 */
(PID.TID 0000.0001)                 1.034729915092050E+03,      /* I =199 */
(PID.TID 0000.0001)                 1.056301342495056E+03       /* I =200 */
(PID.TID 0000.0001)     ;
(PID.TID 0000.0001) delY = /* V spacing ( m - cartesian, degrees - spherical ) */
(PID.TID 0000.0001)                 5.000000000000000E+03       /* J =  1 */
(PID.TID 0000.0001)     ;
(PID.TID 0000.0001) xgOrigin = /* X-axis origin of West  edge (cartesian: m, lat-lon: deg) */
(PID.TID 0000.0001)                 0.000000000000000E+00
(PID.TID 0000.0001)     ;
(PID.TID 0000.0001) ygOrigin = /* Y-axis origin of South edge (cartesian: m, lat-lon: deg) */
(PID.TID 0000.0001)                 0.000000000000000E+00
(PID.TID 0000.0001)     ;
(PID.TID 0000.0001) rSphere =  /* Radius ( ignored - cartesian, m - spherical ) */
(PID.TID 0000.0001)                 6.370000000000000E+06
(PID.TID 0000.0001)     ;
(PID.TID 0000.0001) deepAtmosphere = /* Deep/Shallow Atmosphere flag (True/False) */
(PID.TID 0000.0001)                   F
(PID.TID 0000.0001)     ;
(PID.TID 0000.0001) xC =  /* xC(:,1,:,1) : P-point X coord ( deg. or m if cartesian) */
(PID.TID 0000.0001)                 6.316473190083342E+02,      /* I =  1 */
(PID.TID 0000.0001)                 1.882042669919954E+03,      /* I =  2 */
(PID.TID 0000.0001)                 3.106902871483439E+03,      /* I =  3 */
(PID.TID 0000.0001)      . . .
(PID.TID 0000.0001)                 3.864398747251778E+04,      /* I = 48 */
(PID.TID 0000.0001)                 3.911810771797229E+04,      /* I = 49 */
(PID.TID 0000.0001)                 3.958254564073758E+04,      /* I = 50 */
(PID.TID 0000.0001)                 4.003749896992043E+04,      /* I = 51 */
(PID.TID 0000.0001)                 4.048316139667099E+04,      /* I = 52 */
(PID.TID 0000.0001)                 4.091972265664447E+04,      /* I = 53 */
(PID.TID 0000.0001)      . . .
(PID.TID 0000.0001)                 5.369999999999999E+04,      /* I = 98 */
(PID.TID 0000.0001)                 5.389999999999999E+04,      /* I = 99 */
(PID.TID 0000.0001)                 5.409999999999999E+04,      /* I =100 */
(PID.TID 0000.0001)                 5.429999999999999E+04,      /* I =101 */
(PID.TID 0000.0001)                 5.449999999999999E+04,      /* I =102 */
(PID.TID 0000.0001)                 5.469999999999999E+04,      /* I =103 */
(PID.TID 0000.0001)      . . .
(PID.TID 0000.0001)                 6.578505387737689E+04,      /* I =148 */
(PID.TID 0000.0001)                 6.615008372165399E+04,      /* I =149 */
(PID.TID 0000.0001)                 6.652272348874371E+04,      /* I =150 */
(PID.TID 0000.0001)                 6.690313182574332E+04,      /* I =151 */
(PID.TID 0000.0001)                 6.729147068712943E+04,      /* I =152 */
(PID.TID 0000.0001)                 6.768790540370827E+04,      /* I =153 */
(PID.TID 0000.0001)      . . .
(PID.TID 0000.0001)                 9.740216923638493E+04,      /* I =198 */
(PID.TID 0000.0001)                 9.842633369995895E+04,      /* I =199 */
(PID.TID 0000.0001)                 9.947184932875249E+04       /* I =200 */
(PID.TID 0000.0001)     ;
(PID.TID 0000.0001) yC =  /* yC(1,:,1,:) : P-point Y coord ( deg. or m if cartesian) */
(PID.TID 0000.0001)                 2.500000000000000E+03       /* J =  1 */
(PID.TID 0000.0001)     ;
(PID.TID 0000.0001) rcoord = /* P-point R coordinate (  units of r ) */
(PID.TID 0000.0001)                -2.160197349097110E+00,      /* K =  1 */
(PID.TID 0000.0001)                -6.428673840014314E+00,      /* K =  2 */
(PID.TID 0000.0001)                -1.059456171915254E+01,      /* K =  3 */
(PID.TID 0000.0001)                -1.466032660235601E+01,      /* K =  4 */
(PID.TID 0000.0001)                -1.862837484683016E+01,      /* K =  5 */
(PID.TID 0000.0001)                -2.250105497536439E+01,      /* K =  6 */
(PID.TID 0000.0001)                -2.628065906632508E+01,      /* K =  7 */
(PID.TID 0000.0001)                -2.996942411024149E+01,      /* K =  8 */
(PID.TID 0000.0001)                -3.356953333378746E+01,      /* K =  9 */
(PID.TID 0000.0001)                -3.708311749194250E+01,      /* K = 10 */
(PID.TID 0000.0001)                -4.051225612909706E+01,      /* K = 11 */
(PID.TID 0000.0001)                -4.385897880984847E+01,      /* K = 12 */
(PID.TID 0000.0001)                -4.712526632021576E+01,      /* K = 13 */
(PID.TID 0000.0001)                -5.031305183998462E+01,      /* K = 14 */
(PID.TID 0000.0001)                -5.342422208687611E+01,      /* K = 15 */
(PID.TID 0000.0001)                -5.646061843321648E+01,      /* K = 16 */
(PID.TID 0000.0001)                -5.942403799576885E+01,      /* K = 17 */
(PID.TID 0000.0001)                -6.231623469937193E+01,      /* K = 18 */
(PID.TID 0000.0001)                -6.513892031501524E+01,      /* K = 19 */
(PID.TID 0000.0001)                -6.789376547296514E+01,      /* K = 20 */
(PID.TID 0000.0001)                -7.058240065154149E+01,      /* K = 21 */
(PID.TID 0000.0001)                -7.320641714212994E+01,      /* K = 22 */
(PID.TID 0000.0001)                -7.576736799100115E+01,      /* K = 23 */
(PID.TID 0000.0001)                -7.826676891849434E+01,      /* K = 24 */
(PID.TID 0000.0001)                -8.070609921610911E+01,      /* K = 25 */
(PID.TID 0000.0001)                -8.308680262203660E+01,      /* K = 26 */
(PID.TID 0000.0001)                -8.541028817564809E+01,      /* K = 27 */
(PID.TID 0000.0001)                -8.767793105144685E+01,      /* K = 28 */
(PID.TID 0000.0001)                -8.989107337297672E+01,      /* K = 29 */
(PID.TID 0000.0001)                -9.205102500716927E+01,      /* K = 30 */
(PID.TID 0000.0001)                -9.415906433959958E+01,      /* K = 31 */
(PID.TID 0000.0001)                -9.621643903110949E+01,      /* K = 32 */
(PID.TID 0000.0001)                -9.822436675624618E+01,      /* K = 33 */
(PID.TID 0000.0001)                -1.001840359239532E+02,      /* K = 34 */
(PID.TID 0000.0001)                -1.020966063809401E+02,      /* K = 35 */
(PID.TID 0000.0001)                -1.039632100981478E+02,      /* K = 36 */
(PID.TID 0000.0001)                -1.057849518407148E+02,      /* K = 37 */
(PID.TID 0000.0001)                -1.075629098218420E+02,      /* K = 38 */
(PID.TID 0000.0001)                -1.092981363409421E+02,      /* K = 39 */
(PID.TID 0000.0001)                -1.109916584064519E+02,      /* K = 40 */
(PID.TID 0000.0001)                -1.126444783436761E+02,      /* K = 41 */
(PID.TID 0000.0001)                -1.142575743880215E+02,      /* K = 42 */
(PID.TID 0000.0001)                -1.158319012639745E+02,      /* K = 43 */
(PID.TID 0000.0001)                -1.173683907501624E+02,      /* K = 44 */
(PID.TID 0000.0001)                -1.188679522308343E+02,      /* K = 45 */
(PID.TID 0000.0001)                -1.203314732340884E+02,      /* K = 46 */
(PID.TID 0000.0001)                -1.217598199571626E+02,      /* K = 47 */
(PID.TID 0000.0001)                -1.231538377791004E+02,      /* K = 48 */
(PID.TID 0000.0001)                -1.245143517610963E+02,      /* K = 49 */
(PID.TID 0000.0001)                -1.258421671348146E+02,      /* K = 50 */
(PID.TID 0000.0001)                -1.271380697789726E+02,      /* K = 51 */
(PID.TID 0000.0001)                -1.284028266844702E+02,      /* K = 52 */
(PID.TID 0000.0001)                -1.296371864083388E+02,      /* K = 53 */
(PID.TID 0000.0001)                -1.308418795167823E+02,      /* K = 54 */
(PID.TID 0000.0001)                -1.320176190175679E+02,      /* K = 55 */
(PID.TID 0000.0001)                -1.331651007820262E+02,      /* K = 56 */
(PID.TID 0000.0001)                -1.342850039569086E+02,      /* K = 57 */
(PID.TID 0000.0001)                -1.353779913663458E+02,      /* K = 58 */
(PID.TID 0000.0001)                -1.364447099041458E+02,      /* K = 59 */
(PID.TID 0000.0001)                -1.374857909166638E+02,      /* K = 60 */
(PID.TID 0000.0001)                -1.385000000000000E+02,      /* K = 61 */
(PID.TID 0000.0001)                -1.395000000000000E+02,      /* K = 62 */
(PID.TID 0000.0001)                -1.405000000000000E+02,      /* K = 63 */
(PID.TID 0000.0001)                -1.415000000000000E+02,      /* K = 64 */
(PID.TID 0000.0001)                -1.425098251937351E+02,      /* K = 65 */
(PID.TID 0000.0001)                -1.435420304699572E+02,      /* K = 66 */
(PID.TID 0000.0001)                -1.445996546987365E+02,      /* K = 67 */
(PID.TID 0000.0001)                -1.456833238438847E+02,      /* K = 68 */
(PID.TID 0000.0001)                -1.467936792841166E+02,      /* K = 69 */
(PID.TID 0000.0001)                -1.479313781926558E+02,      /* K = 70 */
(PID.TID 0000.0001)                -1.490970939261877E+02,      /* K = 71 */
(PID.TID 0000.0001)                -1.502915164233921E+02,      /* K = 72 */
(PID.TID 0000.0001)                -1.515153526132883E+02,      /* K = 73 */
(PID.TID 0000.0001)                -1.527693268336377E+02,      /* K = 74 */
(PID.TID 0000.0001)                -1.540541812596491E+02,      /* K = 75 */
(PID.TID 0000.0001)                -1.553706763432410E+02,      /* K = 76 */
(PID.TID 0000.0001)                -1.567195912631217E+02,      /* K = 77 */
(PID.TID 0000.0001)                -1.581017243859531E+02,      /* K = 78 */
(PID.TID 0000.0001)                -1.595178937388700E+02,      /* K = 79 */
(PID.TID 0000.0001)                -1.609689374936370E+02,      /* K = 80 */
(PID.TID 0000.0001)                -1.624557144627274E+02,      /* K = 81 */
(PID.TID 0000.0001)                -1.639791046076182E+02,      /* K = 82 */
(PID.TID 0000.0001)                -1.655400095596033E+02,      /* K = 83 */
(PID.TID 0000.0001)                -1.671393531534310E+02,      /* K = 84 */
(PID.TID 0000.0001)                -1.687780819740841E+02,      /* K = 85 */
(PID.TID 0000.0001)                -1.704571659170232E+02,      /* K = 86 */
(PID.TID 0000.0001)                -1.721775987622286E+02,      /* K = 87 */
(PID.TID 0000.0001)                -1.739403987623765E+02,      /* K = 88 */
(PID.TID 0000.0001)                -1.757466092455009E+02,      /* K = 89 */
(PID.TID 0000.0001)                -1.775972992324958E+02,      /* K = 90 */
(PID.TID 0000.0001)                -1.794935640698245E+02,      /* K = 91 */
(PID.TID 0000.0001)                -1.814365260778094E+02,      /* K = 92 */
(PID.TID 0000.0001)                -1.834273352148870E+02,      /* K = 93 */
(PID.TID 0000.0001)                -1.854671697582200E+02,      /* K = 94 */
(PID.TID 0000.0001)                -1.875572370010713E+02,      /* K = 95 */
(PID.TID 0000.0001)                -1.896987739673500E+02,      /* K = 96 */
(PID.TID 0000.0001)                -1.918930481437548E+02,      /* K = 97 */
(PID.TID 0000.0001)                -1.941413582299466E+02,      /* K = 98 */
(PID.TID 0000.0001)                -1.964450349071948E+02,      /* K = 99 */
(PID.TID 0000.0001)                -1.988054416259523E+02       /* K =100 */
(PID.TID 0000.0001)     ;
(PID.TID 0000.0001) rF =   /* W-Interf. R coordinate (  units of r ) */
(PID.TID 0000.0001)                 0.000000000000000E+00,      /* K =  1 */
(PID.TID 0000.0001)                -4.320394698194220E+00,      /* K =  2 */
(PID.TID 0000.0001)                -8.536952981834409E+00,      /* K =  3 */
(PID.TID 0000.0001)                -1.265217045647067E+01,      /* K =  4 */
(PID.TID 0000.0001)                -1.666848274824136E+01,      /* K =  5 */
(PID.TID 0000.0001)                -2.058826694541897E+01,      /* K =  6 */
(PID.TID 0000.0001)                -2.441384300530981E+01,      /* K =  7 */
(PID.TID 0000.0001)                -2.814747512734034E+01,      /* K =  8 */
(PID.TID 0000.0001)                -3.179137309314264E+01,      /* K =  9 */
(PID.TID 0000.0001)                -3.534769357443228E+01,      /* K = 10 */
(PID.TID 0000.0001)                -3.881854140945270E+01,      /* K = 11 */
(PID.TID 0000.0001)                -4.220597084874141E+01,      /* K = 12 */
(PID.TID 0000.0001)                -4.551198677095550E+01,      /* K = 13 */
(PID.TID 0000.0001)                -4.873854586947598E+01,      /* K = 14 */
(PID.TID 0000.0001)                -5.188755781049322E+01,      /* K = 15 */
(PID.TID 0000.0001)                -5.496088636325898E+01,      /* K = 16 */
(PID.TID 0000.0001)                -5.796035050317396E+01,      /* K = 17 */
(PID.TID 0000.0001)                -6.088772548836371E+01,      /* K = 18 */
(PID.TID 0000.0001)                -6.374474391038013E+01,      /* K = 19 */
(PID.TID 0000.0001)                -6.653309671965033E+01,      /* K = 20 */
(PID.TID 0000.0001)                -6.925443422627994E+01,      /* K = 21 */
(PID.TID 0000.0001)                -7.191036707680303E+01,      /* K = 22 */
(PID.TID 0000.0001)                -7.450246720745683E+01,      /* K = 23 */
(PID.TID 0000.0001)                -7.703226877454546E+01,      /* K = 24 */
(PID.TID 0000.0001)                -7.950126906244321E+01,      /* K = 25 */
(PID.TID 0000.0001)                -8.191092936977500E+01,      /* K = 26 */
(PID.TID 0000.0001)                -8.426267587429820E+01,      /* K = 27 */
(PID.TID 0000.0001)                -8.655790047699799E+01,      /* K = 28 */
(PID.TID 0000.0001)                -8.879796162589571E+01,      /* K = 29 */
(PID.TID 0000.0001)                -9.098418512005773E+01,      /* K = 30 */
(PID.TID 0000.0001)                -9.311786489428083E+01,      /* K = 31 */
(PID.TID 0000.0001)                -9.520026378491836E+01,      /* K = 32 */
(PID.TID 0000.0001)                -9.723261427730064E+01,      /* K = 33 */
(PID.TID 0000.0001)                -9.921611923519175E+01,      /* K = 34 */
(PID.TID 0000.0001)                -1.011519526127146E+02,      /* K = 35 */
(PID.TID 0000.0001)                -1.030412601491656E+02,      /* K = 36 */
(PID.TID 0000.0001)                -1.048851600471300E+02,      /* K = 37 */
(PID.TID 0000.0001)                -1.066847436342996E+02,      /* K = 38 */
(PID.TID 0000.0001)                -1.084410760093844E+02,      /* K = 39 */
(PID.TID 0000.0001)                -1.101551966724998E+02,      /* K = 40 */
(PID.TID 0000.0001)                -1.118281201404040E+02,      /* K = 41 */
(PID.TID 0000.0001)                -1.134608365469481E+02,      /* K = 42 */
(PID.TID 0000.0001)                -1.150543122290950E+02,      /* K = 43 */
(PID.TID 0000.0001)                -1.166094902988541E+02,      /* K = 44 */
(PID.TID 0000.0001)                -1.181272912014706E+02,      /* K = 45 */
(PID.TID 0000.0001)                -1.196086132601980E+02,      /* K = 46 */
(PID.TID 0000.0001)                -1.210543332079789E+02,      /* K = 47 */
(PID.TID 0000.0001)                -1.224653067063463E+02,      /* K = 48 */
(PID.TID 0000.0001)                -1.238423688518546E+02,      /* K = 49 */
(PID.TID 0000.0001)                -1.251863346703381E+02,      /* K = 50 */
(PID.TID 0000.0001)                -1.264979995992911E+02,      /* K = 51 */
(PID.TID 0000.0001)                -1.277781399586542E+02,      /* K = 52 */
(PID.TID 0000.0001)                -1.290275134102861E+02,      /* K = 53 */
(PID.TID 0000.0001)                -1.302468594063915E+02,      /* K = 54 */
(PID.TID 0000.0001)                -1.314368996271730E+02,      /* K = 55 */
(PID.TID 0000.0001)                -1.325983384079627E+02,      /* K = 56 */
(PID.TID 0000.0001)                -1.337318631560897E+02,      /* K = 57 */
(PID.TID 0000.0001)                -1.348381447577275E+02,      /* K = 58 */
(PID.TID 0000.0001)                -1.359178379749640E+02,      /* K = 59 */
(PID.TID 0000.0001)                -1.369715818333276E+02,      /* K = 60 */
(PID.TID 0000.0001)                -1.379999999999999E+02,      /* K = 61 */
(PID.TID 0000.0001)                -1.389999999999999E+02,      /* K = 62 */
(PID.TID 0000.0001)                -1.399999999999999E+02,      /* K = 63 */
(PID.TID 0000.0001)                -1.409999999999999E+02,      /* K = 64 */
(PID.TID 0000.0001)                -1.419999999999999E+02,      /* K = 65 */
(PID.TID 0000.0001)                -1.430196503874702E+02,      /* K = 66 */
(PID.TID 0000.0001)                -1.440644105524441E+02,      /* K = 67 */
(PID.TID 0000.0001)                -1.451348988450288E+02,      /* K = 68 */
(PID.TID 0000.0001)                -1.462317488427405E+02,      /* K = 69 */
(PID.TID 0000.0001)                -1.473556097254927E+02,      /* K = 70 */
(PID.TID 0000.0001)                -1.485071466598188E+02,      /* K = 71 */
(PID.TID 0000.0001)                -1.496870411925566E+02,      /* K = 72 */
(PID.TID 0000.0001)                -1.508959916542275E+02,      /* K = 73 */
(PID.TID 0000.0001)                -1.521347135723491E+02,      /* K = 74 */
(PID.TID 0000.0001)                -1.534039400949264E+02,      /* K = 75 */
(PID.TID 0000.0001)                -1.547044224243718E+02,      /* K = 76 */
(PID.TID 0000.0001)                -1.560369302621102E+02,      /* K = 77 */
(PID.TID 0000.0001)                -1.574022522641334E+02,      /* K = 78 */
(PID.TID 0000.0001)                -1.588011965077729E+02,      /* K = 79 */
(PID.TID 0000.0001)                -1.602345909699672E+02,      /* K = 80 */
(PID.TID 0000.0001)                -1.617032840173070E+02,      /* K = 81 */
(PID.TID 0000.0001)                -1.632081449081479E+02,      /* K = 82 */
(PID.TID 0000.0001)                -1.647500643070886E+02,      /* K = 83 */
(PID.TID 0000.0001)                -1.663299548121180E+02,      /* K = 84 */
(PID.TID 0000.0001)                -1.679487514947442E+02,      /* K = 85 */
(PID.TID 0000.0001)                -1.696074124534241E+02,      /* K = 86 */
(PID.TID 0000.0001)                -1.713069193806225E+02,      /* K = 87 */
(PID.TID 0000.0001)                -1.730482781438349E+02,      /* K = 88 */
(PID.TID 0000.0001)                -1.748325193809183E+02,      /* K = 89 */
(PID.TID 0000.0001)                -1.766606991100836E+02,      /* K = 90 */
(PID.TID 0000.0001)                -1.785338993549081E+02,      /* K = 91 */
(PID.TID 0000.0001)                -1.804532287847410E+02,      /* K = 92 */
(PID.TID 0000.0001)                -1.824198233708780E+02,      /* K = 93 */
(PID.TID 0000.0001)                -1.844348470588960E+02,      /* K = 94 */
(PID.TID 0000.0001)                -1.864994924575441E+02,      /* K = 95 */
(PID.TID 0000.0001)                -1.886149815445986E+02,      /* K = 96 */
(PID.TID 0000.0001)                -1.907825663901014E+02,      /* K = 97 */
(PID.TID 0000.0001)                -1.930035298974082E+02,      /* K = 98 */
(PID.TID 0000.0001)                -1.952791865624850E+02,      /* K = 99 */
(PID.TID 0000.0001)                -1.976108832519045E+02,      /* K =100 */
(PID.TID 0000.0001)                -1.999999999999999E+02       /* K =101 */
(PID.TID 0000.0001)     ;
(PID.TID 0000.0001) deepFacC = /* deep-model grid factor @ cell-Center (-) */
(PID.TID 0000.0001)   100 @  1.000000000000000E+00              /* K =  1:100 */
(PID.TID 0000.0001)     ;
(PID.TID 0000.0001) deepFacF = /* deep-model grid factor @ W-Interface (-) */
(PID.TID 0000.0001)   101 @  1.000000000000000E+00              /* K =  1:101 */
(PID.TID 0000.0001)     ;
(PID.TID 0000.0001) rVel2wUnit = /* convert units: rVel -> wSpeed (=1 if z-coord)*/
(PID.TID 0000.0001)   101 @  1.000000000000000E+00              /* K =  1:101 */
(PID.TID 0000.0001)     ;
(PID.TID 0000.0001) wUnit2rVel = /* convert units: wSpeed -> rVel (=1 if z-coord)*/
(PID.TID 0000.0001)   101 @  1.000000000000000E+00              /* K =  1:101 */
(PID.TID 0000.0001)     ;
(PID.TID 0000.0001) dBdrRef = /* Vertical grad. of reference buoyancy [(m/s/r)^2] */
(PID.TID 0000.0001)    13 @  0.000000000000000E+00,             /* K =  1: 13 */
(PID.TID 0000.0001)                 4.118465371426771E-07,      /* K = 14 */
(PID.TID 0000.0001)                 1.397434374925135E-05,      /* K = 15 */
(PID.TID 0000.0001)                 1.744347244507378E-04,      /* K = 16 */
(PID.TID 0000.0001)                 8.010137720244966E-04,      /* K = 17 */
(PID.TID 0000.0001)                 1.353170560462825E-03,      /* K = 18 */
(PID.TID 0000.0001)                 8.409508550070192E-04,      /* K = 19 */
(PID.TID 0000.0001)                 1.922623340439448E-04,      /* K = 20 */
(PID.TID 0000.0001)                 1.617049529030042E-05,      /* K = 21 */
(PID.TID 0000.0001)                 5.003316222208473E-07,      /* K = 22 */
(PID.TID 0000.0001)    78 @  0.000000000000000E+00              /* K = 23:100 */
(PID.TID 0000.0001)     ;
(PID.TID 0000.0001) rotateGrid = /* use rotated grid ( True/False ) */
(PID.TID 0000.0001)                   F
(PID.TID 0000.0001)     ;
(PID.TID 0000.0001) phiEuler = /* Euler angle, rotation about original z-coordinate [rad] */
(PID.TID 0000.0001)                 0.000000000000000E+00
(PID.TID 0000.0001)     ;
(PID.TID 0000.0001) thetaEuler = /* Euler angle, rotation about new x-coordinate [rad] */
(PID.TID 0000.0001)                 0.000000000000000E+00
(PID.TID 0000.0001)     ;
(PID.TID 0000.0001) psiEuler = /* Euler angle, rotation about new z-coordinate [rad] */
(PID.TID 0000.0001)                 0.000000000000000E+00
(PID.TID 0000.0001)     ;
(PID.TID 0000.0001) dxF =  /* dxF(:,1,:,1) ( units: m ) */
(PID.TID 0000.0001)                 1.263294638016668E+03,      /* I =  1 */
(PID.TID 0000.0001)                 1.237496063806571E+03,      /* I =  2 */
(PID.TID 0000.0001)                 1.212224339320398E+03,      /* I =  3 */
(PID.TID 0000.0001)      . . .
(PID.TID 0000.0001)                 4.790113490274632E+02,      /* I = 48 */
(PID.TID 0000.0001)                 4.692291418815790E+02,      /* I = 49 */
(PID.TID 0000.0001)                 4.596467036489769E+02,      /* I = 50 */
(PID.TID 0000.0001)                 4.502599547167311E+02,      /* I = 51 */
(PID.TID 0000.0001)                 4.410648987843862E+02,      /* I = 52 */
(PID.TID 0000.0001)                 4.320576211625778E+02,      /* I = 53 */
(PID.TID 0000.0001)      . . .
(PID.TID 0000.0001)                 2.000000000000000E+02,      /* I = 98 */
(PID.TID 0000.0001)                 2.000000000000000E+02,      /* I = 99 */
(PID.TID 0000.0001)                 2.000000000000000E+02,      /* I =100 */
(PID.TID 0000.0001)                 2.000000000000000E+02,      /* I =101 */
(PID.TID 0000.0001)                 2.000000000000000E+02,      /* I =102 */
(PID.TID 0000.0001)                 2.000000000000000E+02,      /* I =103 */
(PID.TID 0000.0001)      . . .
(PID.TID 0000.0001)                 3.612641354876311E+02,      /* I =148 */
(PID.TID 0000.0001)                 3.687955530665730E+02,      /* I =149 */
(PID.TID 0000.0001)                 3.764839811128614E+02,      /* I =150 */
(PID.TID 0000.0001)                 3.843326928863569E+02,      /* I =151 */
(PID.TID 0000.0001)                 3.923450298858749E+02,      /* I =152 */
(PID.TID 0000.0001)                 4.005244032717896E+02,      /* I =153 */
(PID.TID 0000.0001)      . . .
(PID.TID 0000.0001)                 1.013599012055986E+03,      /* I =198 */
(PID.TID 0000.0001)                 1.034729915092050E+03,      /* I =199 */
(PID.TID 0000.0001)                 1.056301342495056E+03       /* I =200 */
(PID.TID 0000.0001)     ;
(PID.TID 0000.0001) dxF =  /* dxF(1,:,1,:) ( units: m ) */
(PID.TID 0000.0001)                 1.263294638016668E+03       /* J =  1 */
(PID.TID 0000.0001)     ;
(PID.TID 0000.0001) dyF =  /* dyF(:,1,:,1) ( units: m ) */
(PID.TID 0000.0001)   200 @  5.000000000000000E+03              /* I =  1:200 */
(PID.TID 0000.0001)     ;
(PID.TID 0000.0001) dyF =  /* dyF(1,:,1,:) ( units: m ) */
(PID.TID 0000.0001)                 5.000000000000000E+03       /* J =  1 */
(PID.TID 0000.0001)     ;
(PID.TID 0000.0001) dxG =  /* dxG(:,1,:,1) ( units: m ) */
(PID.TID 0000.0001)                 1.263294638016668E+03,      /* I =  1 */
(PID.TID 0000.0001)                 1.237496063806571E+03,      /* I =  2 */
(PID.TID 0000.0001)                 1.212224339320398E+03,      /* I =  3 */
(PID.TID 0000.0001)      . . .
(PID.TID 0000.0001)                 4.790113490274632E+02,      /* I = 48 */
(PID.TID 0000.0001)                 4.692291418815790E+02,      /* I = 49 */
(PID.TID 0000.0001)                 4.596467036489769E+02,      /* I = 50 */
(PID.TID 0000.0001)                 4.502599547167311E+02,      /* I = 51 */
(PID.TID 0000.0001)                 4.410648987843862E+02,      /* I = 52 */
(PID.TID 0000.0001)                 4.320576211625778E+02,      /* I = 53 */
(PID.TID 0000.0001)      . . .
(PID.TID 0000.0001)                 2.000000000000000E+02,      /* I = 98 */
(PID.TID 0000.0001)                 2.000000000000000E+02,      /* I = 99 */
(PID.TID 0000.0001)                 2.000000000000000E+02,      /* I =100 */
(PID.TID 0000.0001)                 2.000000000000000E+02,      /* I =101 */
(PID.TID 0000.0001)                 2.000000000000000E+02,      /* I =102 */
(PID.TID 0000.0001)                 2.000000000000000E+02,      /* I =103 */
(PID.TID 0000.0001)      . . .
(PID.TID 0000.0001)                 3.612641354876311E+02,      /* I =148 */
(PID.TID 0000.0001)                 3.687955530665730E+02,      /* I =149 */
(PID.TID 0000.0001)                 3.764839811128614E+02,      /* I =150 */
(PID.TID 0000.0001)                 3.843326928863569E+02,      /* I =151 */
(PID.TID 0000.0001)                 3.923450298858749E+02,      /* I =152 */
(PID.TID 0000.0001)                 4.005244032717896E+02,      /* I =153 */
(PID.TID 0000.0001)      . . .
(PID.TID 0000.0001)                 1.013599012055986E+03,      /* I =198 */
(PID.TID 0000.0001)                 1.034729915092050E+03,      /* I =199 */
(PID.TID 0000.0001)                 1.056301342495056E+03       /* I =200 */
(PID.TID 0000.0001)     ;
(PID.TID 0000.0001) dxG =  /* dxG(1,:,1,:) ( units: m ) */
(PID.TID 0000.0001)                 1.263294638016668E+03       /* J =  1 */
(PID.TID 0000.0001)     ;
(PID.TID 0000.0001) dyG =  /* dyG(:,1,:,1) ( units: m ) */
(PID.TID 0000.0001)   200 @  5.000000000000000E+03              /* I =  1:200 */
(PID.TID 0000.0001)     ;
(PID.TID 0000.0001) dyG =  /* dyG(1,:,1,:) ( units: m ) */
(PID.TID 0000.0001)                 5.000000000000000E+03       /* J =  1 */
(PID.TID 0000.0001)     ;
(PID.TID 0000.0001) dxC =  /* dxC(:,1,:,1) ( units: m ) */
(PID.TID 0000.0001)                 1.159797990255862E+03,      /* I =  1 */
(PID.TID 0000.0001)                 1.250395350911620E+03,      /* I =  2 */
(PID.TID 0000.0001)                 1.224860201563485E+03,      /* I =  3 */
(PID.TID 0000.0001)      . . .
(PID.TID 0000.0001)                 4.840044193881684E+02,      /* I = 48 */
(PID.TID 0000.0001)                 4.741202454545211E+02,      /* I = 49 */
(PID.TID 0000.0001)                 4.644379227652780E+02,      /* I = 50 */
(PID.TID 0000.0001)                 4.549533291828540E+02,      /* I = 51 */
(PID.TID 0000.0001)                 4.456624267505587E+02,      /* I = 52 */
(PID.TID 0000.0001)                 4.365612599734820E+02,      /* I = 53 */
(PID.TID 0000.0001)      . . .
(PID.TID 0000.0001)                 2.000000000000000E+02,      /* I = 98 */
(PID.TID 0000.0001)                 2.000000000000000E+02,      /* I = 99 */
(PID.TID 0000.0001)                 2.000000000000000E+02,      /* I =100 */
(PID.TID 0000.0001)                 2.000000000000000E+02,      /* I =101 */
(PID.TID 0000.0001)                 2.000000000000000E+02,      /* I =102 */
(PID.TID 0000.0001)                 2.000000000000000E+02,      /* I =103 */
(PID.TID 0000.0001)      . . .
(PID.TID 0000.0001)                 3.575753287246037E+02,      /* I =148 */
(PID.TID 0000.0001)                 3.650298442771020E+02,      /* I =149 */
(PID.TID 0000.0001)                 3.726397670897172E+02,      /* I =150 */
(PID.TID 0000.0001)                 3.804083369996092E+02,      /* I =151 */
(PID.TID 0000.0001)                 3.883388613861159E+02,      /* I =152 */
(PID.TID 0000.0001)                 3.964347165788323E+02,      /* I =153 */
(PID.TID 0000.0001)      . . .
(PID.TID 0000.0001)                 1.003249324601893E+03,      /* I =198 */
(PID.TID 0000.0001)                 1.024164463574018E+03,      /* I =199 */
(PID.TID 0000.0001)                 1.045515628793553E+03       /* I =200 */
(PID.TID 0000.0001)     ;
(PID.TID 0000.0001) dxC =  /* dxC(1,:,1,:) ( units: m ) */
(PID.TID 0000.0001)                 1.159797990255862E+03       /* J =  1 */
(PID.TID 0000.0001)     ;
(PID.TID 0000.0001) dyC =  /* dyC(:,1,:,1) ( units: m ) */
(PID.TID 0000.0001)   200 @  5.000000000000000E+03              /* I =  1:200 */
(PID.TID 0000.0001)     ;
(PID.TID 0000.0001) dyC =  /* dyC(1,:,1,:) ( units: m ) */
(PID.TID 0000.0001)                 5.000000000000000E+03       /* J =  1 */
(PID.TID 0000.0001)     ;
(PID.TID 0000.0001) dxV =  /* dxV(:,1,:,1) ( units: m ) */
(PID.TID 0000.0001)                 1.159797990255862E+03,      /* I =  1 */
(PID.TID 0000.0001)                 1.250395350911620E+03,      /* I =  2 */
(PID.TID 0000.0001)                 1.224860201563485E+03,      /* I =  3 */
(PID.TID 0000.0001)      . . .
(PID.TID 0000.0001)                 4.840044193881684E+02,      /* I = 48 */
(PID.TID 0000.0001)                 4.741202454545211E+02,      /* I = 49 */
(PID.TID 0000.0001)                 4.644379227652780E+02,      /* I = 50 */
(PID.TID 0000.0001)                 4.549533291828540E+02,      /* I = 51 */
(PID.TID 0000.0001)                 4.456624267505587E+02,      /* I = 52 */
(PID.TID 0000.0001)                 4.365612599734820E+02,      /* I = 53 */
(PID.TID 0000.0001)      . . .
(PID.TID 0000.0001)                 2.000000000000000E+02,      /* I = 98 */
(PID.TID 0000.0001)                 2.000000000000000E+02,      /* I = 99 */
(PID.TID 0000.0001)                 2.000000000000000E+02,      /* I =100 */
(PID.TID 0000.0001)                 2.000000000000000E+02,      /* I =101 */
(PID.TID 0000.0001)                 2.000000000000000E+02,      /* I =102 */
(PID.TID 0000.0001)                 2.000000000000000E+02,      /* I =103 */
(PID.TID 0000.0001)      . . .
(PID.TID 0000.0001)                 3.575753287246037E+02,      /* I =148 */
(PID.TID 0000.0001)                 3.650298442771020E+02,      /* I =149 */
(PID.TID 0000.0001)                 3.726397670897172E+02,      /* I =150 */
(PID.TID 0000.0001)                 3.804083369996092E+02,      /* I =151 */
(PID.TID 0000.0001)                 3.883388613861159E+02,      /* I =152 */
(PID.TID 0000.0001)                 3.964347165788323E+02,      /* I =153 */
(PID.TID 0000.0001)      . . .
(PID.TID 0000.0001)                 1.003249324601893E+03,      /* I =198 */
(PID.TID 0000.0001)                 1.024164463574018E+03,      /* I =199 */
(PID.TID 0000.0001)                 1.045515628793553E+03       /* I =200 */
(PID.TID 0000.0001)     ;
(PID.TID 0000.0001) dxV =  /* dxV(1,:,1,:) ( units: m ) */
(PID.TID 0000.0001)                 1.159797990255862E+03       /* J =  1 */
(PID.TID 0000.0001)     ;
(PID.TID 0000.0001) dyU =  /* dyU(:,1,:,1) ( units: m ) */
(PID.TID 0000.0001)   200 @  5.000000000000000E+03              /* I =  1:200 */
(PID.TID 0000.0001)     ;
(PID.TID 0000.0001) dyU =  /* dyU(1,:,1,:) ( units: m ) */
(PID.TID 0000.0001)                 5.000000000000000E+03       /* J =  1 */
(PID.TID 0000.0001)     ;
(PID.TID 0000.0001) rA  =  /* rA (:,1,:,1) ( units: m^2 ) */
(PID.TID 0000.0001)                 6.316473190083342E+06,      /* I =  1 */
(PID.TID 0000.0001)                 6.187480319032855E+06,      /* I =  2 */
(PID.TID 0000.0001)                 6.061121696601991E+06,      /* I =  3 */
(PID.TID 0000.0001)      . . .
(PID.TID 0000.0001)                 2.395056745137316E+06,      /* I = 48 */
(PID.TID 0000.0001)                 2.346145709407895E+06,      /* I = 49 */
(PID.TID 0000.0001)                 2.298233518244884E+06,      /* I = 50 */
(PID.TID 0000.0001)                 2.251299773583656E+06,      /* I = 51 */
(PID.TID 0000.0001)                 2.205324493921931E+06,      /* I = 52 */
(PID.TID 0000.0001)                 2.160288105812889E+06,      /* I = 53 */
(PID.TID 0000.0001)      . . .
(PID.TID 0000.0001)                 1.000000000000000E+06,      /* I = 98 */
(PID.TID 0000.0001)                 1.000000000000000E+06,      /* I = 99 */
(PID.TID 0000.0001)                 1.000000000000000E+06,      /* I =100 */
(PID.TID 0000.0001)                 1.000000000000000E+06,      /* I =101 */
(PID.TID 0000.0001)                 1.000000000000000E+06,      /* I =102 */
(PID.TID 0000.0001)                 1.000000000000000E+06,      /* I =103 */
(PID.TID 0000.0001)      . . .
(PID.TID 0000.0001)                 1.806320677438155E+06,      /* I =148 */
(PID.TID 0000.0001)                 1.843977765332865E+06,      /* I =149 */
(PID.TID 0000.0001)                 1.882419905564307E+06,      /* I =150 */
(PID.TID 0000.0001)                 1.921663464431785E+06,      /* I =151 */
(PID.TID 0000.0001)                 1.961725149429375E+06,      /* I =152 */
(PID.TID 0000.0001)                 2.002622016358948E+06,      /* I =153 */
(PID.TID 0000.0001)      . . .
(PID.TID 0000.0001)                 5.067995060279928E+06,      /* I =198 */
(PID.TID 0000.0001)                 5.173649575460250E+06,      /* I =199 */
(PID.TID 0000.0001)                 5.281506712475282E+06       /* I =200 */
(PID.TID 0000.0001)     ;
(PID.TID 0000.0001) rA  =  /* rA (1,:,1,:) ( units: m^2 ) */
(PID.TID 0000.0001)                 6.316473190083342E+06       /* J =  1 */
(PID.TID 0000.0001)     ;
(PID.TID 0000.0001) rAw =  /* rAw(:,1,:,1) ( units: m^2 ) */
(PID.TID 0000.0001)                 5.798989951279311E+06,      /* I =  1 */
(PID.TID 0000.0001)                 6.251976754558099E+06,      /* I =  2 */
(PID.TID 0000.0001)                 6.124301007817423E+06,      /* I =  3 */
(PID.TID 0000.0001)      . . .
(PID.TID 0000.0001)                 2.420022096940842E+06,      /* I = 48 */
(PID.TID 0000.0001)                 2.370601227272606E+06,      /* I = 49 */
(PID.TID 0000.0001)                 2.322189613826390E+06,      /* I = 50 */
(PID.TID 0000.0001)                 2.274766645914270E+06,      /* I = 51 */
(PID.TID 0000.0001)                 2.228312133752794E+06,      /* I = 52 */
(PID.TID 0000.0001)                 2.182806299867410E+06,      /* I = 53 */
(PID.TID 0000.0001)      . . .
(PID.TID 0000.0001)                 1.000000000000000E+06,      /* I = 98 */
(PID.TID 0000.0001)                 1.000000000000000E+06,      /* I = 99 */
(PID.TID 0000.0001)                 1.000000000000000E+06,      /* I =100 */
(PID.TID 0000.0001)                 1.000000000000000E+06,      /* I =101 */
(PID.TID 0000.0001)                 1.000000000000000E+06,      /* I =102 */
(PID.TID 0000.0001)                 1.000000000000000E+06,      /* I =103 */
(PID.TID 0000.0001)      . . .
(PID.TID 0000.0001)                 1.787876643623018E+06,      /* I =148 */
(PID.TID 0000.0001)                 1.825149221385510E+06,      /* I =149 */
(PID.TID 0000.0001)                 1.863198835448586E+06,      /* I =150 */
(PID.TID 0000.0001)                 1.902041684998046E+06,      /* I =151 */
(PID.TID 0000.0001)                 1.941694306930580E+06,      /* I =152 */
(PID.TID 0000.0001)                 1.982173582894161E+06,      /* I =153 */
(PID.TID 0000.0001)      . . .
(PID.TID 0000.0001)                 5.016246623009465E+06,      /* I =198 */
(PID.TID 0000.0001)                 5.120822317870088E+06,      /* I =199 */
(PID.TID 0000.0001)                 5.227578143967765E+06       /* I =200 */
(PID.TID 0000.0001)     ;
(PID.TID 0000.0001) rAw =  /* rAw(1,:,1,:) ( units: m^2 ) */
(PID.TID 0000.0001)                 5.798989951279311E+06       /* J =  1 */
(PID.TID 0000.0001)     ;
(PID.TID 0000.0001) rAs =  /* rAs(:,1,:,1) ( units: m^2 ) */
(PID.TID 0000.0001)                 6.316473190083342E+06,      /* I =  1 */
(PID.TID 0000.0001)                 6.187480319032855E+06,      /* I =  2 */
(PID.TID 0000.0001)                 6.061121696601991E+06,      /* I =  3 */
(PID.TID 0000.0001)      . . .
(PID.TID 0000.0001)                 2.395056745137316E+06,      /* I = 48 */
(PID.TID 0000.0001)                 2.346145709407895E+06,      /* I = 49 */
(PID.TID 0000.0001)                 2.298233518244884E+06,      /* I = 50 */
(PID.TID 0000.0001)                 2.251299773583656E+06,      /* I = 51 */
(PID.TID 0000.0001)                 2.205324493921931E+06,      /* I = 52 */
(PID.TID 0000.0001)                 2.160288105812889E+06,      /* I = 53 */
(PID.TID 0000.0001)      . . .
(PID.TID 0000.0001)                 1.000000000000000E+06,      /* I = 98 */
(PID.TID 0000.0001)                 1.000000000000000E+06,      /* I = 99 */
(PID.TID 0000.0001)                 1.000000000000000E+06,      /* I =100 */
(PID.TID 0000.0001)                 1.000000000000000E+06,      /* I =101 */
(PID.TID 0000.0001)                 1.000000000000000E+06,      /* I =102 */
(PID.TID 0000.0001)                 1.000000000000000E+06,      /* I =103 */
(PID.TID 0000.0001)      . . .
(PID.TID 0000.0001)                 1.806320677438155E+06,      /* I =148 */
(PID.TID 0000.0001)                 1.843977765332865E+06,      /* I =149 */
(PID.TID 0000.0001)                 1.882419905564307E+06,      /* I =150 */
(PID.TID 0000.0001)                 1.921663464431785E+06,      /* I =151 */
(PID.TID 0000.0001)                 1.961725149429375E+06,      /* I =152 */
(PID.TID 0000.0001)                 2.002622016358948E+06,      /* I =153 */
(PID.TID 0000.0001)      . . .
(PID.TID 0000.0001)                 5.067995060279928E+06,      /* I =198 */
(PID.TID 0000.0001)                 5.173649575460250E+06,      /* I =199 */
(PID.TID 0000.0001)                 5.281506712475282E+06       /* I =200 */
(PID.TID 0000.0001)     ;
(PID.TID 0000.0001) rAs =  /* rAs(1,:,1,:) ( units: m^2 ) */
(PID.TID 0000.0001)                 6.316473190083342E+06       /* J =  1 */
(PID.TID 0000.0001)     ;
(PID.TID 0000.0001) globalArea = /* Integrated horizontal Area (m^2) */
(PID.TID 0000.0001)                 4.884020200974414E+08
(PID.TID 0000.0001)     ;
(PID.TID 0000.0001) // =======================================================
(PID.TID 0000.0001) // End of Model config. summary
(PID.TID 0000.0001) // =======================================================
(PID.TID 0000.0001) 
(PID.TID 0000.0001) == Packages configuration : Check & print summary ==
(PID.TID 0000.0001) 
(PID.TID 0000.0001) OBCS_CHECK: #define ALLOW_OBCS
(PID.TID 0000.0001) OBCS_CHECK: start summary:
(PID.TID 0000.0001) useOBCSprescribe = /* prescribe OB values */
(PID.TID 0000.0001)                   T
(PID.TID 0000.0001)     ;
(PID.TID 0000.0001) useOBCSbalance = /* balance the flow through OB */
(PID.TID 0000.0001)                   F
(PID.TID 0000.0001)     ;
(PID.TID 0000.0001) OBCS_uvApplyFac = /* Factor to apply to U,V 2nd column/row */
(PID.TID 0000.0001)                 1.000000000000000E+00
(PID.TID 0000.0001)     ;
(PID.TID 0000.0001) OBCS_u1_adv_T = /* Temp uses upwind adv-scheme @ OB */
(PID.TID 0000.0001)                       0
(PID.TID 0000.0001)     ;
(PID.TID 0000.0001) OBCS_u1_adv_S = /* Salt uses upwind adv-scheme @ OB */
(PID.TID 0000.0001)                       0
(PID.TID 0000.0001)     ;
(PID.TID 0000.0001) OBCS_monitorFreq = /* monitor output frequency [s] */
(PID.TID 0000.0001)                 7.200000000000000E+03
(PID.TID 0000.0001)     ;
(PID.TID 0000.0001) OBCS_monSelect = /* select group of variables to monitor */
(PID.TID 0000.0001)                       0
(PID.TID 0000.0001)     ;
(PID.TID 0000.0001) useOBCStides = /* apply tidal forcing through OB */
(PID.TID 0000.0001)                   F
(PID.TID 0000.0001)     ;
(PID.TID 0000.0001) tidalPeriod = /* (s) */
(PID.TID 0000.0001)    10 @  0.000000000000000E+00              /* I =  1: 10 */
(PID.TID 0000.0001)     ;
(PID.TID 0000.0001) OB_indexNone = /* null value for OB index (i.e. no OB) */
(PID.TID 0000.0001)                     -99
(PID.TID 0000.0001)     ;
(PID.TID 0000.0001) ======== Tile bi=   1 , bj=   1 ========
(PID.TID 0000.0001)  OB_Jn = /* Northern OB local indices */
(PID.TID 0000.0001)   204 @      -99                            /* I = -1:202 */
(PID.TID 0000.0001)  OB_Js = /* Southern OB local indices */
(PID.TID 0000.0001)   204 @      -99                            /* I = -1:202 */
(PID.TID 0000.0001)  OB_Ie = /* Eastern OB local indices */
(PID.TID 0000.0001)     5 @      200                            /* J = -1:  3 */
(PID.TID 0000.0001)  OB_Iw = /* Western OB local indices */
(PID.TID 0000.0001)     5 @        1                            /* J = -1:  3 */
(PID.TID 0000.0001) OBCS_CHECK: end summary.
(PID.TID 0000.0001) OBCS_CHECK: set-up OK
(PID.TID 0000.0001) OBCS_CHECK: check Inside Mask and OB locations: OK
(PID.TID 0000.0001) KL10_CHECK: #define ALLOW_KL10
(PID.TID 0000.0001) GAD_CHECK: #define ALLOW_GENERIC_ADVDIFF
(PID.TID 0000.0001) // =======================================================
(PID.TID 0000.0001) // Check Model config. (CONFIG_CHECK):
(PID.TID 0000.0001) // CONFIG_CHECK : Normal End
(PID.TID 0000.0001) // =======================================================
(PID.TID 0000.0001) 
(PID.TID 0000.0001)  MDS_READ_FIELD: opening global file: U0.bin
(PID.TID 0000.0001)  MDS_READ_FIELD: opening global file: T0.bin
(PID.TID 0000.0001) Start initial hydrostatic pressure computation
(PID.TID 0000.0001) Pressure is predetermined for buoyancyRelation OCEANIC
(PID.TID 0000.0001) 
(PID.TID 0000.0001)  OBCS_FIELDS_LOAD: Reading initial data:         0  0.000000000000E+00
(PID.TID 0000.0001)  MDS_READ_SEC_YZ: opening global file: U_in.bin
(PID.TID 0000.0001)  MDS_READ_SEC_YZ: opening global file: TE.bin
(PID.TID 0000.0001)  MDS_READ_SEC_YZ: opening global file: U_in.bin
(PID.TID 0000.0001)  MDS_READ_SEC_YZ: opening global file: TW.bin
(PID.TID 0000.0001) // =======================================================
(PID.TID 0000.0001) // Model current state
(PID.TID 0000.0001) // =======================================================
(PID.TID 0000.0001) 
(PID.TID 0000.0001) // =======================================================
(PID.TID 0000.0001) // Begin MONITOR dynamic field statistics
(PID.TID 0000.0001) // =======================================================
(PID.TID 0000.0001) %MON time_tsnumber                =                     0
(PID.TID 0000.0001) %MON time_secondsf                =   0.0000000000000E+00
(PID.TID 0000.0001) %MON dynstat_eta_max              =   0.0000000000000E+00
(PID.TID 0000.0001) %MON dynstat_eta_min              =   0.0000000000000E+00
(PID.TID 0000.0001) %MON dynstat_eta_mean             =   0.0000000000000E+00
(PID.TID 0000.0001) %MON dynstat_eta_sd               =   0.0000000000000E+00
(PID.TID 0000.0001) %MON dynstat_eta_del2             =   0.0000000000000E+00
(PID.TID 0000.0001) %MON dynstat_uvel_max             =   0.0000000000000E+00
(PID.TID 0000.0001) %MON dynstat_uvel_min             =   0.0000000000000E+00
(PID.TID 0000.0001) %MON dynstat_uvel_mean            =   0.0000000000000E+00
(PID.TID 0000.0001) %MON dynstat_uvel_sd              =   0.0000000000000E+00
(PID.TID 0000.0001) %MON dynstat_uvel_del2            =   0.0000000000000E+00
(PID.TID 0000.0001) %MON dynstat_vvel_max             =   0.0000000000000E+00
(PID.TID 0000.0001) %MON dynstat_vvel_min             =   0.0000000000000E+00
(PID.TID 0000.0001) %MON dynstat_vvel_mean            =   0.0000000000000E+00
(PID.TID 0000.0001) %MON dynstat_vvel_sd              =   0.0000000000000E+00
(PID.TID 0000.0001) %MON dynstat_vvel_del2            =   0.0000000000000E+00
(PID.TID 0000.0001) %MON dynstat_wvel_max             =  -0.0000000000000E+00
(PID.TID 0000.0001) %MON dynstat_wvel_min             =  -0.0000000000000E+00
(PID.TID 0000.0001) %MON dynstat_wvel_mean            =   0.0000000000000E+00
(PID.TID 0000.0001) %MON dynstat_wvel_sd              =   0.0000000000000E+00
(PID.TID 0000.0001) %MON dynstat_wvel_del2            =   0.0000000000000E+00
(PID.TID 0000.0001) %MON dynstat_theta_max            =   1.5000000000000E+01
(PID.TID 0000.0001) %MON dynstat_theta_min            =   1.0000000000000E+01
(PID.TID 0000.0001) %MON dynstat_theta_mean           =   1.3087522322671E+01
(PID.TID 0000.0001) %MON dynstat_theta_sd             =   2.4002530674537E+00
(PID.TID 0000.0001) %MON dynstat_theta_del2           =   8.1390307348071E-05
(PID.TID 0000.0001) %MON dynstat_salt_max             =   3.5000000000000E+01
(PID.TID 0000.0001) %MON dynstat_salt_min             =   3.5000000000000E+01
(PID.TID 0000.0001) %MON dynstat_salt_mean            =   3.5000000000000E+01
(PID.TID 0000.0001) %MON dynstat_salt_sd              =   7.1054273576010E-15
(PID.TID 0000.0001) %MON dynstat_salt_del2            =   0.0000000000000E+00
(PID.TID 0000.0001) %MON dynstat_sst_max              =   1.5000000000000E+01
(PID.TID 0000.0001) %MON dynstat_sst_min              =   1.5000000000000E+01
(PID.TID 0000.0001) %MON dynstat_sst_mean             =   1.5000000000000E+01
(PID.TID 0000.0001) %MON dynstat_sst_sd               =   2.4868995751604E-14
(PID.TID 0000.0001) %MON dynstat_sst_del2             =   0.0000000000000E+00
(PID.TID 0000.0001) %MON dynstat_sss_max              =   3.5000000000000E+01
(PID.TID 0000.0001) %MON dynstat_sss_min              =   3.5000000000000E+01
(PID.TID 0000.0001) %MON dynstat_sss_mean             =   3.5000000000000E+01
(PID.TID 0000.0001) %MON dynstat_sss_sd               =   0.0000000000000E+00
(PID.TID 0000.0001) %MON dynstat_sss_del2             =   0.0000000000000E+00
(PID.TID 0000.0001) %MON forcing_qnet_max             =   0.0000000000000E+00
(PID.TID 0000.0001) %MON forcing_qnet_min             =   0.0000000000000E+00
(PID.TID 0000.0001) %MON forcing_qnet_mean            =   0.0000000000000E+00
(PID.TID 0000.0001) %MON forcing_qnet_sd              =   0.0000000000000E+00
(PID.TID 0000.0001) %MON forcing_qnet_del2            =   0.0000000000000E+00
(PID.TID 0000.0001) %MON forcing_qsw_max              =   0.0000000000000E+00
(PID.TID 0000.0001) %MON forcing_qsw_min              =   0.0000000000000E+00
(PID.TID 0000.0001) %MON forcing_qsw_mean             =   0.0000000000000E+00
(PID.TID 0000.0001) %MON forcing_qsw_sd               =   0.0000000000000E+00
(PID.TID 0000.0001) %MON forcing_qsw_del2             =   0.0000000000000E+00
(PID.TID 0000.0001) %MON forcing_empmr_max            =   0.0000000000000E+00
(PID.TID 0000.0001) %MON forcing_empmr_min            =   0.0000000000000E+00
(PID.TID 0000.0001) %MON forcing_empmr_mean           =   0.0000000000000E+00
(PID.TID 0000.0001) %MON forcing_empmr_sd             =   0.0000000000000E+00
(PID.TID 0000.0001) %MON forcing_empmr_del2           =   0.0000000000000E+00
(PID.TID 0000.0001) %MON forcing_fu_max               =   0.0000000000000E+00
(PID.TID 0000.0001) %MON forcing_fu_min               =   0.0000000000000E+00
(PID.TID 0000.0001) %MON forcing_fu_mean              =   0.0000000000000E+00
(PID.TID 0000.0001) %MON forcing_fu_sd                =   0.0000000000000E+00
(PID.TID 0000.0001) %MON forcing_fu_del2              =   0.0000000000000E+00
(PID.TID 0000.0001) %MON forcing_fv_max               =   0.0000000000000E+00
(PID.TID 0000.0001) %MON forcing_fv_min               =   0.0000000000000E+00
(PID.TID 0000.0001) %MON forcing_fv_mean              =   0.0000000000000E+00
(PID.TID 0000.0001) %MON forcing_fv_sd                =   0.0000000000000E+00
(PID.TID 0000.0001) %MON forcing_fv_del2              =   0.0000000000000E+00
(PID.TID 0000.0001) %MON advcfl_uvel_max              =   0.0000000000000E+00
(PID.TID 0000.0001) %MON advcfl_vvel_max              =   0.0000000000000E+00
(PID.TID 0000.0001) %MON advcfl_wvel_max              =   0.0000000000000E+00
(PID.TID 0000.0001) %MON advcfl_W_hf_max              =   0.0000000000000E+00
(PID.TID 0000.0001) %MON pe_b_mean                    =   0.0000000000000E+00
(PID.TID 0000.0001) %MON ke_max                       =   0.0000000000000E+00
(PID.TID 0000.0001) %MON ke_mean                      =   0.0000000000000E+00
(PID.TID 0000.0001) %MON ke_vol                       =   8.5336562999261E+10
(PID.TID 0000.0001) %MON vort_r_min                   =   0.0000000000000E+00
(PID.TID 0000.0001) %MON vort_r_max                   =   0.0000000000000E+00
(PID.TID 0000.0001) %MON vort_a_mean                  =   0.0000000000000E+00
(PID.TID 0000.0001) %MON vort_a_sd                    =   0.0000000000000E+00
(PID.TID 0000.0001) %MON vort_p_mean                  =   0.0000000000000E+00
(PID.TID 0000.0001) %MON vort_p_sd                    =   0.0000000000000E+00
(PID.TID 0000.0001) %MON surfExpan_theta_mean         =   0.0000000000000E+00
(PID.TID 0000.0001) %MON surfExpan_salt_mean          =   0.0000000000000E+00
(PID.TID 0000.0001) // =======================================================
(PID.TID 0000.0001) // End MONITOR dynamic field statistics
(PID.TID 0000.0001) // =======================================================
(PID.TID 0000.0001) // =======================================================
(PID.TID 0000.0001) // Begin OBCS MONITOR field statistics
(PID.TID 0000.0001) // =======================================================
(PID.TID 0000.0001) %MON obc_E_uVel_max               =   0.0000000000000E+00
(PID.TID 0000.0001) %MON obc_E_uVel_min               =   0.0000000000000E+00
(PID.TID 0000.0001) %MON obc_E_uVel_mean              =   0.0000000000000E+00
(PID.TID 0000.0001) %MON obc_E_uVel_sd                =   0.0000000000000E+00
(PID.TID 0000.0001) %MON obc_E_uVel_Int               =   0.0000000000000E+00
(PID.TID 0000.0001) %MON obc_W_uVel_max               =   0.0000000000000E+00
(PID.TID 0000.0001) %MON obc_W_uVel_min               =   0.0000000000000E+00
(PID.TID 0000.0001) %MON obc_W_uVel_mean              =   0.0000000000000E+00
(PID.TID 0000.0001) %MON obc_W_uVel_sd                =   0.0000000000000E+00
(PID.TID 0000.0001) %MON obc_W_uVel_Int               =   0.0000000000000E+00
(PID.TID 0000.0001) // =======================================================
(PID.TID 0000.0001) // End OBCS MONITOR field statistics
(PID.TID 0000.0001) // =======================================================
(PID.TID 0000.0001) SOLVE_FOR_PRESSURE: putPmEinXvector =    F
 cg2d: Sum(rhs),rhsMax =  -1.19218870886506E-15  9.89228079263352E-04
 cg2d: Sum(rhs),rhsMax =  -2.36652024712378E-14  2.19618079079165E-03
 cg2d: Sum(rhs),rhsMax =  -5.32382278465218E-14  3.17602250022710E-03
 cg2d: Sum(rhs),rhsMax =  -6.47802433664745E-14  3.84755601060955E-03
 cg2d: Sum(rhs),rhsMax =  -4.53243192644240E-14  4.31700571263138E-03
 cg2d: Sum(rhs),rhsMax =  -1.88906246686061E-13  4.55871283606479E-03
 cg2d: Sum(rhs),rhsMax =  -2.08891404197924E-13  4.67973322698555E-03
 cg2d: Sum(rhs),rhsMax =  -2.05218968087797E-13  4.75111450764924E-03
 cg2d: Sum(rhs),rhsMax =  -2.21374970193360E-13  4.77113775298097E-03
 cg2d: Sum(rhs),rhsMax =  -1.88231767558628E-13  4.76978656452268E-03
 cg2d: Sum(rhs),rhsMax =  -1.64087319864984E-13  4.76167136178813E-03
 cg2d: Sum(rhs),rhsMax =  -2.16548694793418E-13  4.75269612890872E-03
 cg2d: Sum(rhs),rhsMax =  -3.23934671987940E-13  4.74467650005794E-03
 cg2d: Sum(rhs),rhsMax =  -4.02594602658228E-13  4.73786401136207E-03
 cg2d: Sum(rhs),rhsMax =  -4.60503609187006E-13  4.82954968082591E-03
 cg2d: Sum(rhs),rhsMax =  -3.48674816401012E-13  4.94535084253334E-03
 cg2d: Sum(rhs),rhsMax =  -3.56391594320723E-13  5.06271974687605E-03
 cg2d: Sum(rhs),rhsMax =  -3.40998961601420E-13  5.18669993132565E-03
 cg2d: Sum(rhs),rhsMax =  -3.22259688106366E-13  5.30977574447498E-03
 cg2d: Sum(rhs),rhsMax =  -2.13314412358412E-13  5.44052552849052E-03
 cg2d: Sum(rhs),rhsMax =  -6.47219515226881E-14  5.57185671746894E-03
 cg2d: Sum(rhs),rhsMax =   5.97493013090505E-14  5.70844297783775E-03
 cg2d: Sum(rhs),rhsMax =   1.47970333916950E-13  5.84752022776373E-03
 cg2d: Sum(rhs),rhsMax =   2.49484268837801E-13  5.99103577283832E-03
 cg2d: Sum(rhs),rhsMax =   3.53372092530374E-13  6.13683331601411E-03
 cg2d: Sum(rhs),rhsMax =   4.56043948831313E-13  6.28815813954523E-03
 cg2d: Sum(rhs),rhsMax =   5.54530622901618E-13  6.43876675679360E-03
 cg2d: Sum(rhs),rhsMax =   5.89103325305372E-13  6.59863869477962E-03
 cg2d: Sum(rhs),rhsMax =   6.39476021721858E-13  6.75767537102278E-03
 cg2d: Sum(rhs),rhsMax =   6.90514422803960E-13  6.91993924568843E-03
 cg2d: Sum(rhs),rhsMax =   7.29695608798564E-13  7.08817700293852E-03
 cg2d: Sum(rhs),rhsMax =   7.89277476098711E-13  7.25649147669349E-03
 cg2d: Sum(rhs),rhsMax =   8.70454067131636E-13  7.42539784780503E-03
 cg2d: Sum(rhs),rhsMax =   8.92024302811036E-13  7.60293743545214E-03
 cg2d: Sum(rhs),rhsMax =   8.84428201231431E-13  7.78112486091817E-03
 cg2d: Sum(rhs),rhsMax =   8.86017259604436E-13  7.96030243061582E-03
 cg2d: Sum(rhs),rhsMax =   8.68032145084398E-13  8.14076290875282E-03
 cg2d: Sum(rhs),rhsMax =   8.84885983999423E-13  8.32281792677276E-03
 cg2d: Sum(rhs),rhsMax =   9.54840759681986E-13  8.51139875374000E-03
 cg2d: Sum(rhs),rhsMax =   1.01591807611778E-12  8.70127713134334E-03
 cg2d: Sum(rhs),rhsMax =   1.11692958755603E-12  8.89259917050027E-03
 cg2d: Sum(rhs),rhsMax =   1.16701064773166E-12  9.08547344935226E-03
 cg2d: Sum(rhs),rhsMax =   1.24969143106696E-12  9.27997062607245E-03
 cg2d: Sum(rhs),rhsMax =   1.30119244372284E-12  9.47612907735558E-03
 cg2d: Sum(rhs),rhsMax =   1.38886124823046E-12  9.67394710090116E-03
 cg2d: Sum(rhs),rhsMax =   1.48018099513370E-12  9.87338745521783E-03
 cg2d: Sum(rhs),rhsMax =   1.50174013849314E-12  1.00743779186284E-02
 cg2d: Sum(rhs),rhsMax =   1.54865009704963E-12  1.02768015910963E-02
 cg2d: Sum(rhs),rhsMax =   1.66466276527166E-12  1.04805052492219E-02
 cg2d: Sum(rhs),rhsMax =   1.70042105396284E-12  1.06852846192189E-02
 cg2d: Sum(rhs),rhsMax =   1.78399742895019E-12  1.08908915164757E-02
 cg2d: Sum(rhs),rhsMax =   1.88663494549157E-12  1.10970191571836E-02
 cg2d: Sum(rhs),rhsMax =   1.96594823753671E-12  1.13033042495125E-02
 cg2d: Sum(rhs),rhsMax =   2.06358541365859E-12  1.15156796923243E-02
 cg2d: Sum(rhs),rhsMax =   2.16857434787165E-12  1.17294418762914E-02
 cg2d: Sum(rhs),rhsMax =   2.26799135027989E-12  1.19433517505008E-02
 cg2d: Sum(rhs),rhsMax =   2.35352015653945E-12  1.21568871127535E-02
 cg2d: Sum(rhs),rhsMax =   2.42147968343431E-12  1.23694388344186E-02
 cg2d: Sum(rhs),rhsMax =   2.41463793404506E-12  1.25803034192446E-02
 cg2d: Sum(rhs),rhsMax =   2.45177489421877E-12  1.28002731252253E-02
 cg2d: Sum(rhs),rhsMax =   2.45103937146496E-12  1.30204919500686E-02
 cg2d: Sum(rhs),rhsMax =   2.55617749189696E-12  1.32385284650237E-02
 cg2d: Sum(rhs),rhsMax =   2.49866793922138E-12  1.34534332163636E-02
 cg2d: Sum(rhs),rhsMax =   2.60419463771200E-12  1.36734144488400E-02
 cg2d: Sum(rhs),rhsMax =   2.59431365279283E-12  1.38983596629185E-02
 cg2d: Sum(rhs),rhsMax =   2.65149013856103E-12  1.41193148523124E-02
 cg2d: Sum(rhs),rhsMax =   2.66525690406638E-12  1.43350605563118E-02
 cg2d: Sum(rhs),rhsMax =   2.70983235850508E-12  1.45635347447415E-02
 cg2d: Sum(rhs),rhsMax =   2.68529642966087E-12  1.47899166465259E-02
 cg2d: Sum(rhs),rhsMax =   2.79121170621011E-12  1.50101382627123E-02
 cg2d: Sum(rhs),rhsMax =   2.77877720833430E-12  1.52835888155484E-02
 cg2d: Sum(rhs),rhsMax =   2.86470847044029E-12  1.58341455589692E-02
 cg2d: Sum(rhs),rhsMax =   2.81752399189372E-12  1.65233559742842E-02
 cg2d: Sum(rhs),rhsMax =   2.71427325060358E-12  1.74587287451248E-02
 cg2d: Sum(rhs),rhsMax =   2.56683563293336E-12  1.87353665882371E-02
 cg2d: Sum(rhs),rhsMax =   2.42805775485522E-12  2.03629945137110E-02
 cg2d: Sum(rhs),rhsMax =   2.32480701356508E-12  2.20161901166034E-02
 cg2d: Sum(rhs),rhsMax =   2.17426077142591E-12  2.36276782027891E-02
 cg2d: Sum(rhs),rhsMax =   2.06379358047570E-12  2.51813102509347E-02
 cg2d: Sum(rhs),rhsMax =   1.98552285723963E-12  2.66633959988165E-02
 cg2d: Sum(rhs),rhsMax =   1.91546778438578E-12  2.80630191659187E-02
 cg2d: Sum(rhs),rhsMax =   1.80799819560207E-12  2.93721928572317E-02
 cg2d: Sum(rhs),rhsMax =   1.72728498171182E-12  3.05858602506511E-02
 cg2d: Sum(rhs),rhsMax =   1.61781699148378E-12  3.17017565746826E-02
 cg2d: Sum(rhs),rhsMax =   1.42774680966795E-12  3.27201563218812E-02
 cg2d: Sum(rhs),rhsMax =   1.23634436022257E-12  3.36435346786755E-02
 cg2d: Sum(rhs),rhsMax =   1.06137321154165E-12  3.44761742007767E-02
 cg2d: Sum(rhs),rhsMax =   8.36664071357518E-13  3.52237470575655E-02
 cg2d: Sum(rhs),rhsMax =   6.71906974503145E-13  3.58929001841032E-02
 cg2d: Sum(rhs),rhsMax =   4.76507722169117E-13  3.64908660436328E-02
 cg2d: Sum(rhs),rhsMax =   2.94209101525666E-13  3.70251161029105E-02
 cg2d: Sum(rhs),rhsMax =   1.45661260830821E-13  3.75030682173559E-02
 cg2d: Sum(rhs),rhsMax =  -6.90558721316847E-14  3.79318534802660E-02
 cg2d: Sum(rhs),rhsMax =  -1.22901688826005E-13  3.83181431423849E-02
 cg2d: Sum(rhs),rhsMax =  -1.63424829224823E-13  3.86680322334573E-02
 cg2d: Sum(rhs),rhsMax =  -2.50688358960360E-13  3.89869736438419E-02
 cg2d: Sum(rhs),rhsMax =  -3.24296145493008E-13  3.92797546484745E-02
 cg2d: Sum(rhs),rhsMax =  -3.86912724081867E-13  3.95505070729645E-02
 cg2d: Sum(rhs),rhsMax =  -4.79172257428218E-13  3.98027423410103E-02
 cg2d: Sum(rhs),rhsMax =  -5.37347943918576E-13  4.00394032989239E-02
 cg2d: Sum(rhs),rhsMax =  -5.99631455600047E-13  4.08468481859149E-02
 cg2d: Sum(rhs),rhsMax =  -6.52811138479592E-13  4.17381000414599E-02
 cg2d: Sum(rhs),rhsMax =  -6.81898981724771E-13  4.25499592800118E-02
 cg2d: Sum(rhs),rhsMax =  -6.88893386779910E-13  4.32885876745859E-02
 cg2d: Sum(rhs),rhsMax =  -7.15094650161063E-13  4.39604720468359E-02
 cg2d: Sum(rhs),rhsMax =  -7.12208070297038E-13  4.45721768302939E-02
 cg2d: Sum(rhs),rhsMax =  -6.68243238521882E-13  4.51301378429028E-02
 cg2d: Sum(rhs),rhsMax =  -6.43374242770278E-13  4.56404995879043E-02
 cg2d: Sum(rhs),rhsMax =  -5.77871084317394E-13  4.61089955194037E-02
 cg2d: Sum(rhs),rhsMax =  -5.19362330919648E-13  4.65408684141669E-02
 cg2d: Sum(rhs),rhsMax =  -4.67847982577041E-13  4.69408263367205E-02
 cg2d: Sum(rhs),rhsMax =  -4.39204228541712E-13  4.73130286602321E-02
 cg2d: Sum(rhs),rhsMax =  -3.96571664396106E-13  4.76610961518670E-02
 cg2d: Sum(rhs),rhsMax =  -3.30957483640759E-13  4.79881391560805E-02
 cg2d: Sum(rhs),rhsMax =  -2.98649993624167E-13  4.82967983029728E-02
 cg2d: Sum(rhs),rhsMax =  -2.56905607898261E-13  4.85892928177909E-02
 cg2d: Sum(rhs),rhsMax =  -1.75193193285850E-13  4.88674723051563E-02
 cg2d: Sum(rhs),rhsMax =  -1.49102952207159E-13  4.91328687353972E-02
 cg2d: Sum(rhs),rhsMax =  -7.51620987671231E-14  4.93867461969883E-02
 cg2d: Sum(rhs),rhsMax =  -4.51860771022439E-14  4.96301467453396E-02
 cg2d: Sum(rhs),rhsMax =  -3.16413562018170E-14  4.98639313402128E-02
 cg2d: Sum(rhs),rhsMax =   8.62643290133747E-14  5.00888154051860E-02
 cg2d: Sum(rhs),rhsMax =   1.26010313294955E-13  5.03053989598211E-02
 cg2d: Sum(rhs),rhsMax =   1.97952765290665E-13  5.05141915757155E-02
 cg2d: Sum(rhs),rhsMax =   2.18935980456081E-13  5.07156326051993E-02
 cg2d: Sum(rhs),rhsMax =   3.12527781431982E-13  5.09101072434259E-02
 cg2d: Sum(rhs),rhsMax =   3.24296145493008E-13  5.10979590294223E-02
 cg2d: Sum(rhs),rhsMax =   4.00124378074906E-13  5.12794993869869E-02
 cg2d: Sum(rhs),rhsMax =   4.67181848762266E-13  5.14550147679222E-02
 cg2d: Sum(rhs),rhsMax =   4.94160268260657E-13  5.16247719011443E-02
 cg2d: Sum(rhs),rhsMax =   6.33826324758502E-13  5.17890215821534E-02
 cg2d: Sum(rhs),rhsMax =   6.19393425438375E-13  5.19480013658955E-02
 cg2d: Sum(rhs),rhsMax =   6.11288797358611E-13  5.21019374575312E-02
 cg2d: Sum(rhs),rhsMax =   6.99107438606461E-13  5.22510460334176E-02
 cg2d: Sum(rhs),rhsMax =   7.32303107042753E-13  5.23955341704519E-02
 cg2d: Sum(rhs),rhsMax =   7.83706433082898E-13  5.25356005164579E-02
 cg2d: Sum(rhs),rhsMax =   7.89590615113411E-13  5.26714357973212E-02
 cg2d: Sum(rhs),rhsMax =   7.95918886353775E-13  5.28032232274088E-02
 cg2d: Sum(rhs),rhsMax =   8.64086580065759E-13  5.29311388674864E-02
 cg2d: Sum(rhs),rhsMax =   8.65751914602697E-13  5.30553519577917E-02
 cg2d: Sum(rhs),rhsMax =   8.51652082189958E-13  5.31760252420674E-02
 cg2d: Sum(rhs),rhsMax =   9.55457934992410E-13  5.32933152902341E-02
 cg2d: Sum(rhs),rhsMax =   9.36473121271320E-13  5.34073728220961E-02
 cg2d: Sum(rhs),rhsMax =   9.53015444338234E-13  5.35183430312984E-02
 cg2d: Sum(rhs),rhsMax =   1.03184127908662E-12  5.36263659070890E-02
 cg2d: Sum(rhs),rhsMax =   1.11777254119261E-12  5.37315765507974E-02
 cg2d: Sum(rhs),rhsMax =   1.18971499318832E-12  5.38341054839597E-02
 cg2d: Sum(rhs),rhsMax =   1.19793064357054E-12  5.39340789454147E-02
 cg2d: Sum(rhs),rhsMax =   1.26676447109730E-12  5.40316191752803E-02
 cg2d: Sum(rhs),rhsMax =   1.40698563910746E-12  5.41268446843399E-02
 cg2d: Sum(rhs),rhsMax =   1.44018130754375E-12  5.42198705079541E-02
 cg2d: Sum(rhs),rhsMax =   1.47615253354161E-12  5.43108084440925E-02
 cg2d: Sum(rhs),rhsMax =   1.54010137976002E-12  5.43997672754437E-02
 cg2d: Sum(rhs),rhsMax =   1.57640567266526E-12  5.44868529757812E-02
 cg2d: Sum(rhs),rhsMax =   1.66677782686975E-12  5.45721689008557E-02
 cg2d: Sum(rhs),rhsMax =   1.65667479734566E-12  5.46558159640450E-02
 cg2d: Sum(rhs),rhsMax =   1.73783210044576E-12  5.47378927968440E-02
 cg2d: Sum(rhs),rhsMax =   1.78479453438740E-12  5.48184958940119E-02
 cg2d: Sum(rhs),rhsMax =   1.78312919985046E-12  5.48977197428401E-02
 cg2d: Sum(rhs),rhsMax =   1.85740312019789E-12  5.49756569355483E-02
 cg2d: Sum(rhs),rhsMax =   1.92479365779263E-12  5.50523982632788E-02
 cg2d: Sum(rhs),rhsMax =   1.99240623999231E-12  5.51280327895185E-02
 cg2d: Sum(rhs),rhsMax =   1.93500770961919E-12  5.52026479000528E-02
 cg2d: Sum(rhs),rhsMax =   1.91391347215131E-12  5.52763293257200E-02
 cg2d: Sum(rhs),rhsMax =   1.90913951314542E-12  5.53491611332953E-02
 cg2d: Sum(rhs),rhsMax =   1.91058280307743E-12  5.54212256787735E-02
 cg2d: Sum(rhs),rhsMax =   1.86350934683333E-12  5.54926035161362E-02
 cg2d: Sum(rhs),rhsMax =   1.82831527695271E-12  5.55633732533733E-02
 cg2d: Sum(rhs),rhsMax =   1.79734005456567E-12  5.56336113460789E-02
 cg2d: Sum(rhs),rhsMax =   1.75603975804961E-12  5.57033918173574E-02
 cg2d: Sum(rhs),rhsMax =   1.70974345792274E-12  5.57727858910636E-02
 cg2d: Sum(rhs),rhsMax =   1.67565961106675E-12  5.58418615235801E-02
 cg2d: Sum(rhs),rhsMax =   1.69841918307156E-12  5.59106828174275E-02
 cg2d: Sum(rhs),rhsMax =   1.66044955562938E-12  5.59793092980451E-02
 cg2d: Sum(rhs),rhsMax =   1.72750702631674E-12  5.60477950331295E-02
 cg2d: Sum(rhs),rhsMax =   1.70297109747253E-12  5.61161875720435E-02
 cg2d: Sum(rhs),rhsMax =   1.70707892266364E-12  5.61845266810914E-02
 cg2d: Sum(rhs),rhsMax =   1.72106773277392E-12  5.62528428490258E-02
 cg2d: Sum(rhs),rhsMax =   1.77269310341899E-12  5.63211555361176E-02
 cg2d: Sum(rhs),rhsMax =   1.83086878990935E-12  5.63894711396562E-02
 cg2d: Sum(rhs),rhsMax =   1.83675297193986E-12  5.64577806490227E-02
 cg2d: Sum(rhs),rhsMax =   1.84419146620485E-12  5.65260569646840E-02
 cg2d: Sum(rhs),rhsMax =   1.86473059216041E-12  5.65942518578120E-02
 cg2d: Sum(rhs),rhsMax =   1.90192306348536E-12  5.66622925509458E-02
 cg2d: Sum(rhs),rhsMax =   1.91191507070698E-12  5.67300779054096E-02
 cg2d: Sum(rhs),rhsMax =   1.89381843540559E-12  5.67974742082774E-02
 cg2d: Sum(rhs),rhsMax =   1.95721217011169E-12  5.68643105607198E-02
 cg2d: Sum(rhs),rhsMax =   1.91402449445377E-12  5.69303738807145E-02
 cg2d: Sum(rhs),rhsMax =   1.91402449445377E-12  5.69954035464442E-02
 cg2d: Sum(rhs),rhsMax =   1.91091586998482E-12  5.70590857222395E-02
 cg2d: Sum(rhs),rhsMax =   1.94133598085955E-12  5.71210474265736E-02
 cg2d: Sum(rhs),rhsMax =   1.91147098149713E-12  5.71808504211936E-02
 cg2d: Sum(rhs),rhsMax =   1.86473059216041E-12  5.72379850216417E-02
 cg2d: Sum(rhs),rhsMax =   1.88105087062240E-12  5.72918639517452E-02
 cg2d: Sum(rhs),rhsMax =   1.85729209789542E-12  5.73418163875190E-02
 cg2d: Sum(rhs),rhsMax =   1.84341431008761E-12  5.73870823585937E-02
 cg2d: Sum(rhs),rhsMax =   1.86106685617915E-12  5.74268076968618E-02
 cg2d: Sum(rhs),rhsMax =   1.94144700316201E-12  5.74600397415307E-02
 cg2d: Sum(rhs),rhsMax =   1.98907557091843E-12  5.74857240260596E-02
 cg2d: Sum(rhs),rhsMax =   1.86839432814168E-12  5.75027021843856E-02
 cg2d: Sum(rhs),rhsMax =   1.82576176399607E-12  5.75097113202029E-02
 cg2d: Sum(rhs),rhsMax =   1.67565961106675E-12  5.75053850827216E-02
 cg2d: Sum(rhs),rhsMax =   1.63746793901964E-12  5.74882566848060E-02
 cg2d: Sum(rhs),rhsMax =   1.52411416820541E-12  5.74567640793074E-02
 cg2d: Sum(rhs),rhsMax =   1.42907907729750E-12  5.74092574884777E-02
 cg2d: Sum(rhs),rhsMax =   1.38000721960907E-12  5.73440094416627E-02
 cg2d: Sum(rhs),rhsMax =   1.25399690631411E-12  5.72592274314890E-02
 cg2d: Sum(rhs),rhsMax =   1.18816068095384E-12  5.71530692431910E-02
 cg2d: Sum(rhs),rhsMax =   1.11732845198276E-12  5.70236609474399E-02
 cg2d: Sum(rhs),rhsMax =   1.00053298979219E-12  5.68691174752164E-02
 cg2d: Sum(rhs),rhsMax =   9.13491504661579E-13  5.66875656155769E-02
 cg2d: Sum(rhs),rhsMax =   8.45212788647132E-13  5.64771691957168E-02
 cg2d: Sum(rhs),rhsMax =   7.48623385504743E-13  5.62361561199878E-02
 cg2d: Sum(rhs),rhsMax =   6.40931752116103E-13  5.59628468632930E-02
 cg2d: Sum(rhs),rhsMax =   5.38014077733351E-13  5.56556839375579E-02
 cg2d: Sum(rhs),rhsMax =   4.40758540776187E-13  5.53132617808972E-02
 cg2d: Sum(rhs),rhsMax =   4.19220214098459E-13  5.49343564607658E-02
 cg2d: Sum(rhs),rhsMax =   4.22550883172335E-13  5.45179545377346E-02
 cg2d: Sum(rhs),rhsMax =   4.71511718558304E-13  5.40632804082235E-02
 cg2d: Sum(rhs),rhsMax =   5.25357535252624E-13  5.39070948032957E-02
 cg2d: Sum(rhs),rhsMax =   4.99156271871470E-13  5.37575779207876E-02
 cg2d: Sum(rhs),rhsMax =   4.99267294173933E-13  5.35780304461064E-02
 cg2d: Sum(rhs),rhsMax =   4.89164264649844E-13  5.33670160897052E-02
 cg2d: Sum(rhs),rhsMax =   4.38316050122012E-13  5.31231624573668E-02
 cg2d: Sum(rhs),rhsMax =   3.43503003819023E-13  5.28451793506118E-02
 cg2d: Sum(rhs),rhsMax =   3.12638803734444E-13  5.25318778934864E-02
 cg2d: Sum(rhs),rhsMax =   2.30482299912182E-13  5.21821902038358E-02
 cg2d: Sum(rhs),rhsMax =   1.46105350040671E-13  5.17951892827044E-02
 cg2d: Sum(rhs),rhsMax =   9.14823772291129E-14  5.13701087563872E-02
 cg2d: Sum(rhs),rhsMax =   3.55271367880050E-15  5.09063620737394E-02
 cg2d: Sum(rhs),rhsMax =  -5.98410210272959E-14  5.04035607383347E-02
 cg2d: Sum(rhs),rhsMax =  -1.02251540567977E-13  4.98615311424491E-02
 cg2d: Sum(rhs),rhsMax =  -1.87405646556726E-13  4.92803295688647E-02
 cg2d: Sum(rhs),rhsMax =  -1.55653268052447E-13  4.86602549379951E-02
 cg2d: Sum(rhs),rhsMax =  -6.47260023356466E-14  4.80018589022935E-02
 cg2d: Sum(rhs),rhsMax =  -4.10782519111308E-15  4.73059529273172E-02
 cg2d: Sum(rhs),rhsMax =   1.42108547152020E-14  4.65736120486991E-02
 cg2d: Sum(rhs),rhsMax =   3.64153152077051E-14  4.58061750556733E-02
 cg2d: Sum(rhs),rhsMax =   6.70574706873595E-14  4.50052409232644E-02
 cg2d: Sum(rhs),rhsMax =   6.90558721316847E-14  4.41726613949381E-02
 cg2d: Sum(rhs),rhsMax =   1.28785870856518E-13  4.33105297031726E-02
 cg2d: Sum(rhs),rhsMax =   1.57651669496772E-13  4.24211655045288E-02
 cg2d: Sum(rhs),rhsMax =   1.84297022087776E-13  4.15070961956399E-02
 cg2d: Sum(rhs),rhsMax =   1.90514271025677E-13  4.05710348642753E-02
 cg2d: Sum(rhs),rhsMax =   2.58015830922886E-13  3.96158552124461E-02
 cg2d: Sum(rhs),rhsMax =   2.72226685638088E-13  3.86445638637156E-02
 cg2d: Sum(rhs),rhsMax =   2.96207502969992E-13  3.76602705320012E-02
 cg2d: Sum(rhs),rhsMax =   4.05897537802957E-13  3.66661565820658E-02
 cg2d: Sum(rhs),rhsMax =   4.22106793962485E-13  3.56654425508989E-02
 cg2d: Sum(rhs),rhsMax =   4.62296867453915E-13  3.46613552230370E-02
 cg2d: Sum(rhs),rhsMax =   5.42232925226926E-13  3.36570948608830E-02
 cg2d: Sum(rhs),rhsMax =   5.93303184359684E-13  3.26558031831077E-02
 cg2d: Sum(rhs),rhsMax =   6.09512440519211E-13  3.16605326606586E-02
 cg2d: Sum(rhs),rhsMax =   7.05657754451749E-13  3.06742176617128E-02
 cg2d: Sum(rhs),rhsMax =   7.91811061162662E-13  2.96996479255050E-02
 cg2d: Sum(rhs),rhsMax =   8.43325409505269E-13  2.87394447821911E-02
 cg2d: Sum(rhs),rhsMax =   9.62341317745086E-13  2.77960404639546E-02
 cg2d: Sum(rhs),rhsMax =   1.04583008919690E-12  2.68716607738602E-02
 cg2d: Sum(rhs),rhsMax =   1.13797860024079E-12  2.59683112960837E-02
 cg2d: Sum(rhs),rhsMax =   1.20570220474292E-12  2.50877672467329E-02
 cg2d: Sum(rhs),rhsMax =   1.36246569581999E-12  2.42315669810832E-02
 cg2d: Sum(rhs),rhsMax =   1.43707268307480E-12  2.34010090931188E-02
 cg2d: Sum(rhs),rhsMax =   1.49258383430606E-12  2.25971529689764E-02
 cg2d: Sum(rhs),rhsMax =   1.53121959556302E-12  2.18208225891324E-02
 cg2d: Sum(rhs),rhsMax =   1.53899115673539E-12  2.10946298372477E-02
 cg2d: Sum(rhs),rhsMax =   1.52777790418668E-12  2.07155566744897E-02
 cg2d: Sum(rhs),rhsMax =   1.53121959556302E-12  2.03482466387680E-02
 cg2d: Sum(rhs),rhsMax =   1.40998324127395E-12  1.99914649136042E-02
 cg2d: Sum(rhs),rhsMax =   1.33781874467331E-12  1.96440443073450E-02
 cg2d: Sum(rhs),rhsMax =   1.25321975019688E-12  1.93048926380149E-02
 cg2d: Sum(rhs),rhsMax =   1.09490194688533E-12  1.91185527689795E-02
 cg2d: Sum(rhs),rhsMax =   9.92539384014890E-13  1.91980975747990E-02
 cg2d: Sum(rhs),rhsMax =   8.94062601730639E-13  1.92617503295033E-02
 cg2d: Sum(rhs),rhsMax =   7.70605801392321E-13  1.93029647661015E-02
 cg2d: Sum(rhs),rhsMax =   5.74651437545981E-13  1.93216958990118E-02
 cg2d: Sum(rhs),rhsMax =   4.76729766774042E-13  1.93156576009540E-02
 cg2d: Sum(rhs),rhsMax =   3.65596442009064E-13  1.92848916617185E-02
 cg2d: Sum(rhs),rhsMax =   2.53796983429311E-13  1.92257715896001E-02
 cg2d: Sum(rhs),rhsMax =   1.35225164399344E-13  1.91413022809610E-02
 cg2d: Sum(rhs),rhsMax =   1.15463194561016E-14  1.90247066556642E-02
 cg2d: Sum(rhs),rhsMax =  -9.54791801177635E-14  1.98046188162988E-02
 cg2d: Sum(rhs),rhsMax =  -1.46660461552983E-13  2.06792259428778E-02
 cg2d: Sum(rhs),rhsMax =  -1.77191594730175E-13  2.15657794532341E-02
 cg2d: Sum(rhs),rhsMax =  -1.87516668859189E-13  2.24231359852945E-02
 cg2d: Sum(rhs),rhsMax =  -1.42663658664333E-13  2.32718846566213E-02
 cg2d: Sum(rhs),rhsMax =  -1.01640917904433E-13  2.41109685524423E-02
 cg2d: Sum(rhs),rhsMax =  -6.76125821996720E-14  2.49463956007928E-02
 cg2d: Sum(rhs),rhsMax =  -1.09967590589122E-13  2.57627359139219E-02
 cg2d: Sum(rhs),rhsMax =  -2.03725925018716E-13  2.65421449138770E-02
 cg2d: Sum(rhs),rhsMax =  -3.22741833258533E-13  2.73034504845731E-02
 cg2d: Sum(rhs),rhsMax =  -4.75619543749417E-13  2.80433626214653E-02
 cg2d: Sum(rhs),rhsMax =  -6.31494856406789E-13  2.87572412234433E-02
 cg2d: Sum(rhs),rhsMax =  -7.72770736290340E-13  2.94427890126698E-02
 cg2d: Sum(rhs),rhsMax =  -9.17266262945304E-13  3.01061304059254E-02
 cg2d: Sum(rhs),rhsMax =  -1.06709086011847E-12  3.07347640614220E-02
 cg2d: Sum(rhs),rhsMax =  -1.19920740004886E-12  3.13258248099481E-02
 cg2d: Sum(rhs),rhsMax =  -1.32482913528520E-12  3.18794631170174E-02
 cg2d: Sum(rhs),rhsMax =  -1.47654111160023E-12  3.23929238133484E-02
 cg2d: Sum(rhs),rhsMax =  -1.64596114515803E-12  3.28657586215859E-02
 cg2d: Sum(rhs),rhsMax =  -1.76447745303676E-12  3.32966123449832E-02
 cg2d: Sum(rhs),rhsMax =  -1.89920301707502E-12  3.36829494536691E-02
 cg2d: Sum(rhs),rhsMax =  -2.04511407808639E-12  3.40238421429699E-02
 cg2d: Sum(rhs),rhsMax =  -2.15957807192524E-12  3.43166497283961E-02
 cg2d: Sum(rhs),rhsMax =  -2.28175811578524E-12  3.45619651490151E-02
 cg2d: Sum(rhs),rhsMax =  -2.41862085914590E-12  3.47602244590207E-02
 cg2d: Sum(rhs),rhsMax =  -2.53139176287220E-12  3.49100876144931E-02
 cg2d: Sum(rhs),rhsMax =  -2.67225130912152E-12  3.50113700797146E-02
 cg2d: Sum(rhs),rhsMax =  -2.78160827704710E-12  3.50678942334689E-02
 cg2d: Sum(rhs),rhsMax =  -2.90242829770193E-12  3.50731041529779E-02
 cg2d: Sum(rhs),rhsMax =  -3.04051228638968E-12  3.50436023882909E-02
 cg2d: Sum(rhs),rhsMax =  -3.16521808763071E-12  3.49595641297104E-02
 cg2d: Sum(rhs),rhsMax =  -3.31124017094453E-12  3.48217285217270E-02
 cg2d: Sum(rhs),rhsMax =  -3.42353922988536E-12  3.46325337236278E-02
 cg2d: Sum(rhs),rhsMax =  -3.56062401785096E-12  3.43922835742977E-02
 cg2d: Sum(rhs),rhsMax =  -3.70090069701234E-12  3.41006684199471E-02
 cg2d: Sum(rhs),rhsMax =  -3.85330656271776E-12  3.37566824727898E-02
 cg2d: Sum(rhs),rhsMax =  -4.03302391482896E-12  3.33601547740225E-02
 cg2d: Sum(rhs),rhsMax =  -4.20291579317222E-12  3.29116724842175E-02
 cg2d: Sum(rhs),rhsMax =  -4.29103974575185E-12  3.24123147009061E-02
 cg2d: Sum(rhs),rhsMax =  -4.41122138816752E-12  3.18606954617867E-02
 cg2d: Sum(rhs),rhsMax =  -4.56285009775570E-12  3.12584410769761E-02
 cg2d: Sum(rhs),rhsMax =  -4.69230210242699E-12  3.06096618861147E-02
 cg2d: Sum(rhs),rhsMax =  -4.83726947386742E-12  2.99279214567737E-02
 cg2d: Sum(rhs),rhsMax =  -4.97984986580491E-12  2.91932172757760E-02
 cg2d: Sum(rhs),rhsMax =  -5.12756503923129E-12  2.84346352638020E-02
 cg2d: Sum(rhs),rhsMax =  -5.18918241709798E-12  2.80762537799268E-02
 cg2d: Sum(rhs),rhsMax =  -5.16853226883995E-12  2.81843148904221E-02
 cg2d: Sum(rhs),rhsMax =  -4.92528240414458E-12  2.97031598860936E-02
 cg2d: Sum(rhs),rhsMax =  -4.69957406323829E-12  3.12022502417461E-02
 cg2d: Sum(rhs),rhsMax =  -4.48793779916912E-12  3.26769810181943E-02
 cg2d: Sum(rhs),rhsMax =  -4.26614299442463E-12  3.41222326341237E-02
 cg2d: Sum(rhs),rhsMax =  -4.11727596461020E-12  3.55387857061843E-02
 cg2d: Sum(rhs),rhsMax =  -4.00748878526258E-12  3.69181500940039E-02
 cg2d: Sum(rhs),rhsMax =  -3.91860155435353E-12  3.82600288634687E-02
 cg2d: Sum(rhs),rhsMax =  -3.91997545534650E-12  3.95726189930658E-02
 cg2d: Sum(rhs),rhsMax =  -3.90877608058560E-12  4.08395054402220E-02
 cg2d: Sum(rhs),rhsMax =  -3.86204956903669E-12  4.20553548594309E-02
 cg2d: Sum(rhs),rhsMax =  -3.77013698038553E-12  4.32213193215107E-02
 cg2d: Sum(rhs),rhsMax =  -3.64366870009292E-12  4.43348752379647E-02
 cg2d: Sum(rhs),rhsMax =  -3.53204965275467E-12  4.53928184843588E-02
 cg2d: Sum(rhs),rhsMax =  -3.43329531471426E-12  4.63923053768070E-02
 cg2d: Sum(rhs),rhsMax =  -3.36755623386864E-12  4.73346270438408E-02
 cg2d: Sum(rhs),rhsMax =  -3.33286176434910E-12  4.82133111157480E-02
 cg2d: Sum(rhs),rhsMax =  -3.32835148331156E-12  4.90257017126523E-02
 cg2d: Sum(rhs),rhsMax =  -3.35959038366695E-12  4.97700950624889E-02
 cg2d: Sum(rhs),rhsMax =  -3.40622668959512E-12  5.04439852629801E-02
 cg2d: Sum(rhs),rhsMax =  -3.45431322434919E-12  5.10451505949938E-02
 cg2d: Sum(rhs),rhsMax =  -3.51661755271238E-12  5.15742057105223E-02
 cg2d: Sum(rhs),rhsMax =  -3.58864327143493E-12  5.20281289392434E-02
 cg2d: Sum(rhs),rhsMax =  -3.65991265072196E-12  5.24187963366161E-02
 cg2d: Sum(rhs),rhsMax =  -3.74471287312161E-12  5.27372821547753E-02
 cg2d: Sum(rhs),rhsMax =  -3.82836817802712E-12  5.29706944122386E-02
 cg2d: Sum(rhs),rhsMax =  -3.91644008890246E-12  5.31213058643457E-02
 cg2d: Sum(rhs),rhsMax =  -4.00659019850202E-12  5.31937400831998E-02
 cg2d: Sum(rhs),rhsMax =  -4.10235734271680E-12  5.31867573470902E-02
 cg2d: Sum(rhs),rhsMax =  -4.20546236723496E-12  5.31008572908218E-02
 cg2d: Sum(rhs),rhsMax =  -4.30772778559074E-12  5.29367031287018E-02
 cg2d: Sum(rhs),rhsMax =  -4.41988459720655E-12  5.26928293045030E-02
 cg2d: Sum(rhs),rhsMax =  -4.52898135661073E-12  5.23810154548177E-02
 cg2d: Sum(rhs),rhsMax =  -4.64429363022933E-12  5.19930357220403E-02
 cg2d: Sum(rhs),rhsMax =  -4.75571838853828E-12  5.15288406915948E-02
 cg2d: Sum(rhs),rhsMax =  -4.88100705686723E-12  5.09900343907532E-02
 cg2d: Sum(rhs),rhsMax =  -4.97675511912377E-12  5.03784963688763E-02
 cg2d: Sum(rhs),rhsMax =  -5.06654440624033E-12  4.96961490238043E-02
 cg2d: Sum(rhs),rhsMax =  -5.17193926574677E-12  4.89436243770379E-02
 cg2d: Sum(rhs),rhsMax =  -5.28267186938880E-12  4.81192566720888E-02
 cg2d: Sum(rhs),rhsMax =  -5.40320913011705E-12  4.72241396838988E-02
 cg2d: Sum(rhs),rhsMax =  -5.53440626660517E-12  4.62584362989270E-02
 cg2d: Sum(rhs),rhsMax =  -5.67001653961619E-12  4.52227517965796E-02
 cg2d: Sum(rhs),rhsMax =  -5.84111925494568E-12  4.41231151633217E-02
 cg2d: Sum(rhs),rhsMax =  -6.00976907128015E-12  4.29628472121479E-02
 cg2d: Sum(rhs),rhsMax =  -6.20286114139112E-12  4.17407049003635E-02
 cg2d: Sum(rhs),rhsMax =  -6.41136796430963E-12  4.04771664228337E-02
 cg2d: Sum(rhs),rhsMax =  -6.64976407271922E-12  3.91467556362609E-02
 cg2d: Sum(rhs),rhsMax =  -6.91370571903605E-12  3.77687907671903E-02
 cg2d: Sum(rhs),rhsMax =  -7.12620934484320E-12  3.66720809665749E-02
 cg2d: Sum(rhs),rhsMax =  -6.92965129722722E-12  3.77436800881633E-02
 cg2d: Sum(rhs),rhsMax =  -6.54687415391209E-12  3.98288235275298E-02
 cg2d: Sum(rhs),rhsMax =  -6.34273189525913E-12  4.18825491478608E-02
 cg2d: Sum(rhs),rhsMax =  -6.10048123128593E-12  4.38972575260817E-02
 cg2d: Sum(rhs),rhsMax =  -5.86364290455776E-12  4.58630537908583E-02
 cg2d: Sum(rhs),rhsMax =  -5.65023722254310E-12  4.77790502515075E-02
 cg2d: Sum(rhs),rhsMax =  -5.45737066648400E-12  4.96381517589243E-02
 cg2d: Sum(rhs),rhsMax =  -5.28685428768938E-12  5.14336034386403E-02
 cg2d: Sum(rhs),rhsMax =  -5.17588749637810E-12  5.31609162567547E-02
 cg2d: Sum(rhs),rhsMax =  -5.06460151594723E-12  5.48166053864938E-02
 cg2d: Sum(rhs),rhsMax =  -4.96837293528785E-12  5.63976904338255E-02
 cg2d: Sum(rhs),rhsMax =  -4.88460660807988E-12  5.78998489705460E-02
 cg2d: Sum(rhs),rhsMax =  -4.81438500177234E-12  5.93161677323795E-02
 cg2d: Sum(rhs),rhsMax =  -4.74396910643549E-12  6.06487867468991E-02
 cg2d: Sum(rhs),rhsMax =  -4.69564664928868E-12  6.19078986016878E-02
 cg2d: Sum(rhs),rhsMax =  -4.64173144365532E-12  6.30672262918125E-02
 cg2d: Sum(rhs),rhsMax =  -4.58975912831505E-12  6.41296132807627E-02
 cg2d: Sum(rhs),rhsMax =  -4.54331017252230E-12  6.50852677344898E-02
 cg2d: Sum(rhs),rhsMax =  -4.50903203663700E-12  6.59505545689946E-02
 cg2d: Sum(rhs),rhsMax =  -4.47600290165440E-12  6.67323174415768E-02
 cg2d: Sum(rhs),rhsMax =  -4.45449233055228E-12  6.73915891912746E-02
 cg2d: Sum(rhs),rhsMax =  -4.43439729380657E-12  6.79563763351869E-02
 cg2d: Sum(rhs),rhsMax =  -4.41693903674434E-12  6.84370277476633E-02
 cg2d: Sum(rhs),rhsMax =  -4.40811276369857E-12  6.87756556021264E-02
 cg2d: Sum(rhs),rhsMax =  -4.42054726157437E-12  6.90500551611182E-02
 cg2d: Sum(rhs),rhsMax =  -4.42570979863888E-12  6.92254463704078E-02
 cg2d: Sum(rhs),rhsMax =  -4.44516645714543E-12  6.92506104849272E-02
 cg2d: Sum(rhs),rhsMax =  -4.47913928169896E-12  6.91454918508581E-02
 cg2d: Sum(rhs),rhsMax =  -4.50123271988900E-12  6.89876117188368E-02
 cg2d: Sum(rhs),rhsMax =  -4.55474546967594E-12  6.87090367545367E-02
 cg2d: Sum(rhs),rhsMax =  -4.61838900456257E-12  6.82831093891801E-02
 cg2d: Sum(rhs),rhsMax =  -4.66202076943034E-12  6.78188390207455E-02
 cg2d: Sum(rhs),rhsMax =  -4.73113215271326E-12  6.72560222209924E-02
 cg2d: Sum(rhs),rhsMax =  -4.81320538980867E-12  6.65426407212885E-02
 cg2d: Sum(rhs),rhsMax =  -4.91362506238602E-12  6.57973383890851E-02
 cg2d: Sum(rhs),rhsMax =  -4.99628116656936E-12  6.49370629670399E-02
 cg2d: Sum(rhs),rhsMax =  -5.11385378487716E-12  6.39328326869973E-02
 cg2d: Sum(rhs),rhsMax =  -5.23331378232683E-12  6.29131252991115E-02
 cg2d: Sum(rhs),rhsMax =  -5.37420108415176E-12  6.17836409111678E-02
 cg2d: Sum(rhs),rhsMax =  -5.50304246615951E-12  6.05097018775027E-02
 cg2d: Sum(rhs),rhsMax =  -5.68495250874435E-12  5.92304667329176E-02
 cg2d: Sum(rhs),rhsMax =  -5.86103388044990E-12  5.78476487591851E-02
 cg2d: Sum(rhs),rhsMax =  -6.06559247273708E-12  5.63763367309877E-02
 cg2d: Sum(rhs),rhsMax =  -6.31039664966693E-12  5.47692922197165E-02
 cg2d: Sum(rhs),rhsMax =  -6.53394005567520E-12  5.31736496613249E-02
 cg2d: Sum(rhs),rhsMax =  -6.74621469798353E-12  5.15115821892161E-02
 cg2d: Sum(rhs),rhsMax =  -7.00289826127687E-12  4.97820453246938E-02
 cg2d: Sum(rhs),rhsMax =  -7.32258698121768E-12  4.80001420136437E-02
 cg2d: Sum(rhs),rhsMax =  -7.63322738350780E-12  4.61709160991820E-02
 cg2d: Sum(rhs),rhsMax =  -8.01037014497297E-12  4.42940297784143E-02
 cg2d: Sum(rhs),rhsMax =  -7.99060817513464E-12  4.45841994814591E-02
 cg2d: Sum(rhs),rhsMax =  -7.60480567407740E-12  4.71271514226830E-02
 cg2d: Sum(rhs),rhsMax =  -7.29893923079317E-12  4.96210541735829E-02
 cg2d: Sum(rhs),rhsMax =  -6.95699053920862E-12  5.20624831412609E-02
 cg2d: Sum(rhs),rhsMax =  -6.68964883487888E-12  5.44427366646948E-02
 cg2d: Sum(rhs),rhsMax =  -6.46616094002184E-12  5.67554594372988E-02
 cg2d: Sum(rhs),rhsMax =  -6.24483798006281E-12  5.89978606260511E-02
 cg2d: Sum(rhs),rhsMax =  -6.06370509359522E-12  6.11636667108090E-02
 cg2d: Sum(rhs),rhsMax =  -5.86863890816858E-12  6.32459151000795E-02
 cg2d: Sum(rhs),rhsMax =  -5.71859226639049E-12  6.52357125999554E-02
 cg2d: Sum(rhs),rhsMax =  -5.57115464872027E-12  6.71289096628789E-02
 cg2d: Sum(rhs),rhsMax =  -5.43454170554014E-12  6.89266550161408E-02
 cg2d: Sum(rhs),rhsMax =  -5.32962562971306E-12  7.06192266830098E-02
 cg2d: Sum(rhs),rhsMax =  -5.23825427478641E-12  7.22039101397116E-02
 cg2d: Sum(rhs),rhsMax =  -5.13183939787609E-12  7.36771123550265E-02
 cg2d: Sum(rhs),rhsMax =  -5.04385422317455E-12  7.50411996940858E-02
 cg2d: Sum(rhs),rhsMax =  -4.95631313768286E-12  7.62943286999036E-02
 cg2d: Sum(rhs),rhsMax =  -4.89203122455706E-12  7.74211179061065E-02
 cg2d: Sum(rhs),rhsMax =  -4.82047735061997E-12  7.84202470035837E-02
 cg2d: Sum(rhs),rhsMax =  -4.76724215658919E-12  7.92909731251894E-02
 cg2d: Sum(rhs),rhsMax =  -4.72527572625836E-12  8.00332788015572E-02
 cg2d: Sum(rhs),rhsMax =  -4.67897942613149E-12  8.06495227180444E-02
 cg2d: Sum(rhs),rhsMax =  -4.64672744726613E-12  8.11329603450772E-02
 cg2d: Sum(rhs),rhsMax =  -4.61070071011704E-12  8.14905953332908E-02
 cg2d: Sum(rhs),rhsMax =  -4.57583970714381E-12  8.17199221662273E-02
 cg2d: Sum(rhs),rhsMax =  -4.57256454922117E-12  8.18333878491236E-02
 cg2d: Sum(rhs),rhsMax =  -4.55357973550008E-12  8.18138228564278E-02
 cg2d: Sum(rhs),rhsMax =  -4.55824267220351E-12  8.16634758555995E-02
 cg2d: Sum(rhs),rhsMax =  -4.55446791391978E-12  8.13866989074458E-02
 cg2d: Sum(rhs),rhsMax =  -4.54647430814248E-12  8.09846293446408E-02
 cg2d: Sum(rhs),rhsMax =  -4.55330217974392E-12  8.04584515032103E-02
 cg2d: Sum(rhs),rhsMax =  -4.59615678849445E-12  7.98103107676233E-02
 cg2d: Sum(rhs),rhsMax =  -4.63146188067753E-12  7.90403872898911E-02
 cg2d: Sum(rhs),rhsMax =  -4.66132688003995E-12  7.81512476573755E-02
 cg2d: Sum(rhs),rhsMax =  -4.71844785465692E-12  7.71446541930922E-02
 cg2d: Sum(rhs),rhsMax =  -4.76940709148721E-12  7.60276129986971E-02
 cg2d: Sum(rhs),rhsMax =  -4.84023932045829E-12  7.48177667403270E-02
 cg2d: Sum(rhs),rhsMax =  -4.91584550843527E-12  7.34960344276708E-02
 cg2d: Sum(rhs),rhsMax =  -5.02187180728697E-12  7.20682001417969E-02
 cg2d: Sum(rhs),rhsMax =  -5.11624076438011E-12  7.05389595576536E-02
 cg2d: Sum(rhs),rhsMax =  -5.24558174674894E-12  6.89144243615238E-02
 cg2d: Sum(rhs),rhsMax =  -5.49849055175855E-12  6.72012518757351E-02
 cg2d: Sum(rhs),rhsMax =  -5.69899683000585E-12  6.54075393577979E-02
 cg2d: Sum(rhs),rhsMax =  -5.81124037779546E-12  6.35331094827952E-02
 cg2d: Sum(rhs),rhsMax =  -5.96001026309523E-12  6.15997686835720E-02
 cg2d: Sum(rhs),rhsMax =  -6.07125461016267E-12  5.95743050868948E-02
 cg2d: Sum(rhs),rhsMax =  -6.26720897400901E-12  5.74847132325227E-02
 cg2d: Sum(rhs),rhsMax =  -6.42486064350578E-12  5.53336950710014E-02
 cg2d: Sum(rhs),rhsMax =  -6.64013288798060E-12  5.31392892915177E-02
 cg2d: Sum(rhs),rhsMax =  -6.86795065263368E-12  5.11037871891449E-02
 cg2d: Sum(rhs),rhsMax =  -6.76536604515832E-12  5.13473569516429E-02
 cg2d: Sum(rhs),rhsMax =  -6.71784849970436E-12  5.15054836360448E-02
 cg2d: Sum(rhs),rhsMax =  -6.38133990094047E-12  5.43523854061052E-02
 cg2d: Sum(rhs),rhsMax =  -6.02107252944961E-12  5.71535701357005E-02
(PID.TID 0000.0001)      cg2d_init_res =   7.69287670471648E-02
(PID.TID 0000.0001)      cg2d_iters(min,last) =      -1      30
(PID.TID 0000.0001)      cg2d_last_res =   5.83913930765858E-14
(PID.TID 0000.0001) // =======================================================
(PID.TID 0000.0001) // Begin MONITOR dynamic field statistics
(PID.TID 0000.0001) // =======================================================
(PID.TID 0000.0001) %MON time_tsnumber                =                   480
(PID.TID 0000.0001) %MON time_secondsf                =   7.2000000000000E+03
(PID.TID 0000.0001) %MON dynstat_eta_max              =   4.9720461360191E-03
(PID.TID 0000.0001) %MON dynstat_eta_min              =  -4.5792217771296E-03
(PID.TID 0000.0001) %MON dynstat_eta_mean             =   3.9968484734327E-16
(PID.TID 0000.0001) %MON dynstat_eta_sd               =   4.3958912110494E-03
(PID.TID 0000.0001) %MON dynstat_eta_del2             =   5.0657093439599E-05
(PID.TID 0000.0001) %MON dynstat_uvel_max             =   6.3164271376409E-01
(PID.TID 0000.0001) %MON dynstat_uvel_min             =  -2.4319800034657E-01
(PID.TID 0000.0001) %MON dynstat_uvel_mean            =   2.9381742424581E-04
(PID.TID 0000.0001) %MON dynstat_uvel_sd              =   2.0468620034608E-02
(PID.TID 0000.0001) %MON dynstat_uvel_del2            =   1.1734064383311E-04
(PID.TID 0000.0001) %MON dynstat_vvel_max             =   0.0000000000000E+00
(PID.TID 0000.0001) %MON dynstat_vvel_min             =   0.0000000000000E+00
(PID.TID 0000.0001) %MON dynstat_vvel_mean            =   0.0000000000000E+00
(PID.TID 0000.0001) %MON dynstat_vvel_sd              =   0.0000000000000E+00
(PID.TID 0000.0001) %MON dynstat_vvel_del2            =   0.0000000000000E+00
(PID.TID 0000.0001) %MON dynstat_wvel_max             =   2.7461736094952E-02
(PID.TID 0000.0001) %MON dynstat_wvel_min             =  -2.0066418120048E-02
(PID.TID 0000.0001) %MON dynstat_wvel_mean            =   4.9087353556491E-21
(PID.TID 0000.0001) %MON dynstat_wvel_sd              =   9.3727754568007E-04
(PID.TID 0000.0001) %MON dynstat_wvel_del2            =   2.0310598859446E-05
(PID.TID 0000.0001) %MON dynstat_theta_max            =   1.5000000000170E+01
(PID.TID 0000.0001) %MON dynstat_theta_min            =   9.9999999999984E+00
(PID.TID 0000.0001) %MON dynstat_theta_mean           =   1.3087516147975E+01
(PID.TID 0000.0001) %MON dynstat_theta_sd             =   2.3997145421182E+00
(PID.TID 0000.0001) %MON dynstat_theta_del2           =   6.2454974480002E-04
(PID.TID 0000.0001) %MON dynstat_salt_max             =   3.5000000000000E+01
(PID.TID 0000.0001) %MON dynstat_salt_min             =   3.5000000000000E+01
(PID.TID 0000.0001) %MON dynstat_salt_mean            =   3.5000000000000E+01
(PID.TID 0000.0001) %MON dynstat_salt_sd              =   7.1054273576010E-15
(PID.TID 0000.0001) %MON dynstat_salt_del2            =   0.0000000000000E+00
(PID.TID 0000.0001) %MON dynstat_sst_max              =   1.5000000000001E+01
(PID.TID 0000.0001) %MON dynstat_sst_min              =   1.5000000000000E+01
(PID.TID 0000.0001) %MON dynstat_sst_mean             =   1.5000000000001E+01
(PID.TID 0000.0001) %MON dynstat_sst_sd               =   3.1466183596731E-13
(PID.TID 0000.0001) %MON dynstat_sst_del2             =   2.6369829145692E-14
(PID.TID 0000.0001) %MON dynstat_sss_max              =   3.5000000000000E+01
(PID.TID 0000.0001) %MON dynstat_sss_min              =   3.5000000000000E+01
(PID.TID 0000.0001) %MON dynstat_sss_mean             =   3.5000000000000E+01
(PID.TID 0000.0001) %MON dynstat_sss_sd               =   0.0000000000000E+00
(PID.TID 0000.0001) %MON dynstat_sss_del2             =   0.0000000000000E+00
(PID.TID 0000.0001) %MON forcing_qnet_max             =   0.0000000000000E+00
(PID.TID 0000.0001) %MON forcing_qnet_min             =   0.0000000000000E+00
(PID.TID 0000.0001) %MON forcing_qnet_mean            =   0.0000000000000E+00
(PID.TID 0000.0001) %MON forcing_qnet_sd              =   0.0000000000000E+00
(PID.TID 0000.0001) %MON forcing_qnet_del2            =   0.0000000000000E+00
(PID.TID 0000.0001) %MON forcing_qsw_max              =   0.0000000000000E+00
(PID.TID 0000.0001) %MON forcing_qsw_min              =   0.0000000000000E+00
(PID.TID 0000.0001) %MON forcing_qsw_mean             =   0.0000000000000E+00
(PID.TID 0000.0001) %MON forcing_qsw_sd               =   0.0000000000000E+00
(PID.TID 0000.0001) %MON forcing_qsw_del2             =   0.0000000000000E+00
(PID.TID 0000.0001) %MON forcing_empmr_max            =   0.0000000000000E+00
(PID.TID 0000.0001) %MON forcing_empmr_min            =   0.0000000000000E+00
(PID.TID 0000.0001) %MON forcing_empmr_mean           =   0.0000000000000E+00
(PID.TID 0000.0001) %MON forcing_empmr_sd             =   0.0000000000000E+00
(PID.TID 0000.0001) %MON forcing_empmr_del2           =   0.0000000000000E+00
(PID.TID 0000.0001) %MON forcing_fu_max               =   0.0000000000000E+00
(PID.TID 0000.0001) %MON forcing_fu_min               =   0.0000000000000E+00
(PID.TID 0000.0001) %MON forcing_fu_mean              =   0.0000000000000E+00
(PID.TID 0000.0001) %MON forcing_fu_sd                =   0.0000000000000E+00
(PID.TID 0000.0001) %MON forcing_fu_del2              =   0.0000000000000E+00
(PID.TID 0000.0001) %MON forcing_fv_max               =   0.0000000000000E+00
(PID.TID 0000.0001) %MON forcing_fv_min               =   0.0000000000000E+00
(PID.TID 0000.0001) %MON forcing_fv_mean              =   0.0000000000000E+00
(PID.TID 0000.0001) %MON forcing_fv_sd                =   0.0000000000000E+00
(PID.TID 0000.0001) %MON forcing_fv_del2              =   0.0000000000000E+00
(PID.TID 0000.0001) %MON advcfl_uvel_max              =   4.7373203532306E-02
(PID.TID 0000.0001) %MON advcfl_vvel_max              =   0.0000000000000E+00
(PID.TID 0000.0001) %MON advcfl_wvel_max              =   1.3852190447437E-01
(PID.TID 0000.0001) %MON advcfl_W_hf_max              =   1.4022751565419E-01
(PID.TID 0000.0001) %MON pe_b_mean                    =   5.4246932856471E-07
(PID.TID 0000.0001) %MON ke_max                       =   1.7420950912016E-01
(PID.TID 0000.0001) %MON ke_mean                      =   2.1184469041856E-04
(PID.TID 0000.0001) %MON ke_vol                       =   8.5336562999261E+10
(PID.TID 0000.0001) %MON vort_r_min                   =   0.0000000000000E+00
(PID.TID 0000.0001) %MON vort_r_max                   =   0.0000000000000E+00
(PID.TID 0000.0001) %MON vort_a_mean                  =   0.0000000000000E+00
(PID.TID 0000.0001) %MON vort_a_sd                    =   0.0000000000000E+00
(PID.TID 0000.0001) %MON vort_p_mean                  =   0.0000000000000E+00
(PID.TID 0000.0001) %MON vort_p_sd                    =   0.0000000000000E+00
(PID.TID 0000.0001) %MON surfExpan_theta_mean         =  -6.7504190364919E-20
(PID.TID 0000.0001) %MON surfExpan_salt_mean          =   3.3647347300859E-19
(PID.TID 0000.0001) // =======================================================
(PID.TID 0000.0001) // End MONITOR dynamic field statistics
(PID.TID 0000.0001) // =======================================================
(PID.TID 0000.0001) // =======================================================
(PID.TID 0000.0001) // Begin OBCS MONITOR field statistics
(PID.TID 0000.0001) // =======================================================
(PID.TID 0000.0001) %MON obc_E_uVel_max               =   0.0000000000000E+00
(PID.TID 0000.0001) %MON obc_E_uVel_min               =   0.0000000000000E+00
(PID.TID 0000.0001) %MON obc_E_uVel_mean              =   0.0000000000000E+00
(PID.TID 0000.0001) %MON obc_E_uVel_sd                =   0.0000000000000E+00
(PID.TID 0000.0001) %MON obc_E_uVel_Int               =   0.0000000000000E+00
(PID.TID 0000.0001) %MON obc_W_uVel_max               =   0.0000000000000E+00
(PID.TID 0000.0001) %MON obc_W_uVel_min               =   0.0000000000000E+00
(PID.TID 0000.0001) %MON obc_W_uVel_mean              =   0.0000000000000E+00
(PID.TID 0000.0001) %MON obc_W_uVel_sd                =   0.0000000000000E+00
(PID.TID 0000.0001) %MON obc_W_uVel_Int               =   0.0000000000000E+00
(PID.TID 0000.0001) // =======================================================
(PID.TID 0000.0001) // End OBCS MONITOR field statistics
(PID.TID 0000.0001) // =======================================================
 cg2d: Sum(rhs),rhsMax =  -5.75028913374354E-12  5.98891165369371E-02
 cg2d: Sum(rhs),rhsMax =  -5.50415268918414E-12  6.25539343061120E-02
 cg2d: Sum(rhs),rhsMax =  -5.27466958999412E-12  6.51407560733944E-02
 cg2d: Sum(rhs),rhsMax =  -5.10380626650431E-12  6.76433875449119E-02
 cg2d: Sum(rhs),rhsMax =  -4.93727281281053E-12  7.00550538615877E-02
 cg2d: Sum(rhs),rhsMax =  -4.76596540011087E-12  7.23685272564681E-02
 cg2d: Sum(rhs),rhsMax =  -4.68214356175167E-12  7.45705079545187E-02
 cg2d: Sum(rhs),rhsMax =  -4.60387283851560E-12  7.66662360956450E-02
 cg2d: Sum(rhs),rhsMax =  -4.55679938227149E-12  7.86420243459569E-02
 cg2d: Sum(rhs),rhsMax =  -4.53814763545779E-12  8.04945070133901E-02
 cg2d: Sum(rhs),rhsMax =  -4.51161330516925E-12  8.22237473492590E-02
 cg2d: Sum(rhs),rhsMax =  -4.48752146553488E-12  8.38275198492149E-02
 cg2d: Sum(rhs),rhsMax =  -4.48940884467675E-12  8.53051075715414E-02
 cg2d: Sum(rhs),rhsMax =  -4.45765646617247E-12  8.66389998194931E-02
 cg2d: Sum(rhs),rhsMax =  -4.45465886400598E-12  8.78321602766911E-02
 cg2d: Sum(rhs),rhsMax =  -4.40458780559538E-12  8.88849553545713E-02
 cg2d: Sum(rhs),rhsMax =  -4.39215330771958E-12  8.97943745766891E-02
 cg2d: Sum(rhs),rhsMax =  -4.35151914501830E-12  9.05570838600537E-02
 cg2d: Sum(rhs),rhsMax =  -4.25093293898726E-12  9.11804626507712E-02
 cg2d: Sum(rhs),rhsMax =  -4.26836344047388E-12  9.16701501263862E-02
 cg2d: Sum(rhs),rhsMax =  -4.36084501842515E-12  9.20146196057565E-02
 cg2d: Sum(rhs),rhsMax =  -4.37616609616498E-12  9.22089783185537E-02
 cg2d: Sum(rhs),rhsMax =  -4.39359659765159E-12  9.22511973358774E-02
 cg2d: Sum(rhs),rhsMax =  -4.40480985020031E-12  9.21494126580670E-02
 cg2d: Sum(rhs),rhsMax =  -4.43445280495780E-12  9.19042575811126E-02
 cg2d: Sum(rhs),rhsMax =  -4.48130421659698E-12  9.15123188613219E-02
 cg2d: Sum(rhs),rhsMax =  -4.52449189225490E-12  9.09618637130050E-02
 cg2d: Sum(rhs),rhsMax =  -4.57589521829505E-12  9.03098798171269E-02
 cg2d: Sum(rhs),rhsMax =  -4.67581529051131E-12  8.95123272028062E-02
 cg2d: Sum(rhs),rhsMax =  -4.74320582810606E-12  8.85797066571472E-02
 cg2d: Sum(rhs),rhsMax =  -4.84912110465530E-12  8.75502672614480E-02
 cg2d: Sum(rhs),rhsMax =  -4.98567853668419E-12  8.63746236221822E-02
 cg2d: Sum(rhs),rhsMax =  -5.13056264139777E-12  8.50381206602907E-02
 cg2d: Sum(rhs),rhsMax =  -5.26290122593309E-12  8.36302859615790E-02
 cg2d: Sum(rhs),rhsMax =  -5.41944267240524E-12  8.20865331845466E-02
 cg2d: Sum(rhs),rhsMax =  -5.58042501097589E-12  8.04330445287849E-02
 cg2d: Sum(rhs),rhsMax =  -5.68733948824729E-12  7.86207556882473E-02
 cg2d: Sum(rhs),rhsMax =  -5.86541926139716E-12  7.67743494546707E-02
 cg2d: Sum(rhs),rhsMax =  -6.04627459210860E-12  7.48224486891788E-02
 cg2d: Sum(rhs),rhsMax =  -6.23823215306629E-12  7.27615333109052E-02
 cg2d: Sum(rhs),rhsMax =  -6.45272724142387E-12  7.06300848670301E-02
 cg2d: Sum(rhs),rhsMax =  -6.74937883360371E-12  6.84139638345591E-02
 cg2d: Sum(rhs),rhsMax =  -7.06545932871450E-12  6.61146252491709E-02
 cg2d: Sum(rhs),rhsMax =  -7.41551264837881E-12  6.37601053919583E-02
 cg2d: Sum(rhs),rhsMax =  -7.72049091324334E-12  6.13447637925710E-02
 cg2d: Sum(rhs),rhsMax =  -7.93465293469353E-12  6.04808127766471E-02
 cg2d: Sum(rhs),rhsMax =  -7.89757148567105E-12  6.05987080522160E-02
 cg2d: Sum(rhs),rhsMax =  -7.84072806681024E-12  6.07047731896949E-02
 cg2d: Sum(rhs),rhsMax =  -7.46347428304261E-12  6.29530585674814E-02
 cg2d: Sum(rhs),rhsMax =  -7.03714864158655E-12  6.61022435351449E-02
 cg2d: Sum(rhs),rhsMax =  -6.74793554367170E-12  6.91697058833110E-02
 cg2d: Sum(rhs),rhsMax =  -6.50113296529753E-12  7.21485511145334E-02
 cg2d: Sum(rhs),rhsMax =  -6.21591667027133E-12  7.50337928442035E-02
 cg2d: Sum(rhs),rhsMax =  -5.99442717685861E-12  7.78146709652856E-02
 cg2d: Sum(rhs),rhsMax =  -5.80124837057383E-12  8.04880175658101E-02
 cg2d: Sum(rhs),rhsMax =  -5.68844971127191E-12  8.30594642150064E-02
 cg2d: Sum(rhs),rhsMax =  -5.52513590434955E-12  8.54908918528803E-02
 cg2d: Sum(rhs),rhsMax =  -5.38302735719753E-12  8.78049009179240E-02
 cg2d: Sum(rhs),rhsMax =  -5.31097388289936E-12  8.99807853237500E-02
 cg2d: Sum(rhs),rhsMax =  -5.19706500057282E-12  9.20151536705200E-02
 cg2d: Sum(rhs),rhsMax =  -5.14477349611298E-12  9.39031032756036E-02
 cg2d: Sum(rhs),rhsMax =  -5.06727992899414E-12  9.56409683827659E-02
 cg2d: Sum(rhs),rhsMax =  -5.00943730941117E-12  9.72314845669614E-02
 cg2d: Sum(rhs),rhsMax =  -4.98745489352359E-12  9.86666086417572E-02
 cg2d: Sum(rhs),rhsMax =  -4.93549645597113E-12  9.99350180773750E-02
 cg2d: Sum(rhs),rhsMax =  -4.93716179050807E-12  1.01037611770126E-01
 cg2d: Sum(rhs),rhsMax =  -4.90907314798505E-12  1.01980905572556E-01
 cg2d: Sum(rhs),rhsMax =  -4.90696372423827E-12  1.02751726289811E-01
 cg2d: Sum(rhs),rhsMax =  -4.90163465372007E-12  1.03356736857942E-01
 cg2d: Sum(rhs),rhsMax =  -4.88942220044919E-12  1.03796393912368E-01
 cg2d: Sum(rhs),rhsMax =  -4.90973928179983E-12  1.04088354893178E-01
 cg2d: Sum(rhs),rhsMax =  -4.91906515520668E-12  1.04210641416084E-01
 cg2d: Sum(rhs),rhsMax =  -4.92583751565689E-12  1.04164319474598E-01
 cg2d: Sum(rhs),rhsMax =  -4.93238783150218E-12  1.03952813076986E-01
 cg2d: Sum(rhs),rhsMax =  -4.94448926247060E-12  1.03580825332698E-01
 cg2d: Sum(rhs),rhsMax =  -4.98356911293740E-12  1.03046532030661E-01
 cg2d: Sum(rhs),rhsMax =  -5.00655072954714E-12  1.02353573993586E-01
 cg2d: Sum(rhs),rhsMax =  -5.08648678732015E-12  1.01506349219237E-01
 cg2d: Sum(rhs),rhsMax =  -5.16309217601929E-12  1.00502575216714E-01
 cg2d: Sum(rhs),rhsMax =  -5.24769117049573E-12  9.93494925322111E-02
 cg2d: Sum(rhs),rhsMax =  -5.35471667006959E-12  9.80676234036110E-02
 cg2d: Sum(rhs),rhsMax =  -5.45152811781691E-12  9.66393141381341E-02
 cg2d: Sum(rhs),rhsMax =  -5.60274049377085E-12  9.50693297637811E-02
 cg2d: Sum(rhs),rhsMax =  -5.70743452499300E-12  9.33641154766505E-02
 cg2d: Sum(rhs),rhsMax =  -5.86053428008881E-12  9.15336174630551E-02
 cg2d: Sum(rhs),rhsMax =  -5.97155658255133E-12  8.95840360205302E-02
 cg2d: Sum(rhs),rhsMax =  -6.12998540816534E-12  8.75110347098039E-02
 cg2d: Sum(rhs),rhsMax =  -6.30417940072903E-12  8.53288218779347E-02
 cg2d: Sum(rhs),rhsMax =  -6.51556586461766E-12  8.30285390435034E-02
 cg2d: Sum(rhs),rhsMax =  -6.69986288670543E-12  8.06501929338697E-02
 cg2d: Sum(rhs),rhsMax =  -6.90081325416259E-12  7.81836095328674E-02
 cg2d: Sum(rhs),rhsMax =  -7.14406311885796E-12  7.56117682694018E-02
 cg2d: Sum(rhs),rhsMax =  -7.42006456277977E-12  7.29520793873739E-02
 cg2d: Sum(rhs),rhsMax =  -7.71160912904634E-12  7.02201891757064E-02
 cg2d: Sum(rhs),rhsMax =  -8.05810973503185E-12  6.74284243556649E-02
 cg2d: Sum(rhs),rhsMax =  -8.40971736693064E-12  6.45944280312850E-02
 cg2d: Sum(rhs),rhsMax =  -8.44280201306447E-12  6.43835346090442E-02
 cg2d: Sum(rhs),rhsMax =  -8.02313770975616E-12  6.79185391756253E-02
 cg2d: Sum(rhs),rhsMax =  -7.65953966919142E-12  7.13758043333694E-02
 cg2d: Sum(rhs),rhsMax =  -7.33058058699498E-12  7.47324453384274E-02
 cg2d: Sum(rhs),rhsMax =  -7.08677561078730E-12  7.80168948469620E-02
 cg2d: Sum(rhs),rhsMax =  -6.85040912884460E-12  8.11868527830118E-02
 cg2d: Sum(rhs),rhsMax =  -6.62714327859248E-12  8.42288232535442E-02
 cg2d: Sum(rhs),rhsMax =  -6.45306030833126E-12  8.71768213287454E-02
 cg2d: Sum(rhs),rhsMax =  -6.28175289563160E-12  8.99874682823598E-02
 cg2d: Sum(rhs),rhsMax =  -6.11077854983932E-12  9.26419193460316E-02
 cg2d: Sum(rhs),rhsMax =  -5.93031179718650E-12  9.51833261894766E-02
 cg2d: Sum(rhs),rhsMax =  -5.77377035071436E-12  9.75506009421486E-02
 cg2d: Sum(rhs),rhsMax =  -5.63010749132786E-12  9.97887427547795E-02
 cg2d: Sum(rhs),rhsMax =  -5.50059997550534E-12  1.01848915973468E-01
 cg2d: Sum(rhs),rhsMax =  -5.40528732884127E-12  1.03754202867464E-01
 cg2d: Sum(rhs),rhsMax =  -5.33134647540123E-12  1.05499592492993E-01
 cg2d: Sum(rhs),rhsMax =  -5.24458254602678E-12  1.07040384004234E-01
 cg2d: Sum(rhs),rhsMax =  -5.19417842070879E-12  1.08403727647818E-01
 cg2d: Sum(rhs),rhsMax =  -5.14460696265928E-12  1.09609818328939E-01
 cg2d: Sum(rhs),rhsMax =  -5.12118125683969E-12  1.10615396519182E-01
 cg2d: Sum(rhs),rhsMax =  -5.07777153657685E-12  1.11444005766448E-01
 cg2d: Sum(rhs),rhsMax =  -5.06145125811486E-12  1.12102360387676E-01
 cg2d: Sum(rhs),rhsMax =  -5.02120567347220E-12  1.12586055481026E-01
 cg2d: Sum(rhs),rhsMax =  -5.03780350769034E-12  1.12880992544248E-01
 cg2d: Sum(rhs),rhsMax =  -5.02808905622487E-12  1.12990334943347E-01
 cg2d: Sum(rhs),rhsMax =  -5.02514696520961E-12  1.12920908036509E-01
 cg2d: Sum(rhs),rhsMax =  -5.04435382353563E-12  1.12674677639708E-01
 cg2d: Sum(rhs),rhsMax =  -5.04335462281347E-12  1.12267554193806E-01
 cg2d: Sum(rhs),rhsMax =  -5.03419528286031E-12  1.11692252903824E-01
 cg2d: Sum(rhs),rhsMax =  -5.02481389830223E-12  1.10950390495129E-01
 cg2d: Sum(rhs),rhsMax =  -5.02897723464457E-12  1.10053204163710E-01
 cg2d: Sum(rhs),rhsMax =  -5.01748642633970E-12  1.08988745352698E-01
 cg2d: Sum(rhs),rhsMax =  -5.00555152882498E-12  1.07760377424343E-01
 cg2d: Sum(rhs),rhsMax =  -5.00954833171363E-12  1.06382353077437E-01
 cg2d: Sum(rhs),rhsMax =  -5.06600317251582E-12  1.04962308229294E-01
 cg2d: Sum(rhs),rhsMax =  -5.16570120012716E-12  1.03219811023113E-01
 cg2d: Sum(rhs),rhsMax =  -5.30303578827329E-12  1.01376465164617E-01
 cg2d: Sum(rhs),rhsMax =  -5.46468426065871E-12  9.94127742996723E-02
 cg2d: Sum(rhs),rhsMax =  -5.66213742558830E-12  9.73074135669859E-02
 cg2d: Sum(rhs),rhsMax =  -5.86808379665626E-12  9.52084374996432E-02
 cg2d: Sum(rhs),rhsMax =  -6.06420469395630E-12  9.28510779563369E-02
 cg2d: Sum(rhs),rhsMax =  -6.26676488479916E-12  9.04236899774947E-02
 cg2d: Sum(rhs),rhsMax =  -6.49669207319903E-12  8.80098511330285E-02
 cg2d: Sum(rhs),rhsMax =  -6.73766598069392E-12  8.53104361028614E-02
 cg2d: Sum(rhs),rhsMax =  -7.00850488755123E-12  8.26596744953886E-02
 cg2d: Sum(rhs),rhsMax =  -7.31281701860098E-12  7.97731982660870E-02
 cg2d: Sum(rhs),rhsMax =  -7.64349694648558E-12  7.69520508609079E-02
 cg2d: Sum(rhs),rhsMax =  -8.02891086948421E-12  7.40177919080084E-02
 cg2d: Sum(rhs),rhsMax =  -8.42870218065173E-12  7.10241041358545E-02
 cg2d: Sum(rhs),rhsMax =  -8.49131875924058E-12  7.10113755862753E-02
 cg2d: Sum(rhs),rhsMax =  -8.11706257763944E-12  7.48236368409563E-02
 cg2d: Sum(rhs),rhsMax =  -7.79198927602920E-12  7.85379364063442E-02
 cg2d: Sum(rhs),rhsMax =  -7.50105533242618E-12  8.21476888370653E-02
 cg2d: Sum(rhs),rhsMax =  -7.26041449183867E-12  8.56598633961287E-02
 cg2d: Sum(rhs),rhsMax =  -7.03476166208361E-12  8.90452057520117E-02
 cg2d: Sum(rhs),rhsMax =  -6.85551615475788E-12  9.23062783896898E-02
 cg2d: Sum(rhs),rhsMax =  -6.74071909401164E-12  9.54369995160052E-02
 cg2d: Sum(rhs),rhsMax =  -6.61293242387728E-12  9.84220154880808E-02
 cg2d: Sum(rhs),rhsMax =  -6.38925023999093E-12  1.01248844021063E-01
 cg2d: Sum(rhs),rhsMax =  -6.14949757782313E-12  1.03915114829868E-01
 cg2d: Sum(rhs),rhsMax =  -5.96492299997919E-12  1.06416794372059E-01
 cg2d: Sum(rhs),rhsMax =  -5.81495962492795E-12  1.08748989295287E-01
 cg2d: Sum(rhs),rhsMax =  -5.71498404156046E-12  1.10892496723931E-01
 cg2d: Sum(rhs),rhsMax =  -5.63624147353892E-12  1.12836650194735E-01
 cg2d: Sum(rhs),rhsMax =  -5.56663048989492E-12  1.14620993896752E-01
 cg2d: Sum(rhs),rhsMax =  -5.52916046281382E-12  1.16207183180678E-01
 cg2d: Sum(rhs),rhsMax =  -5.49296719221104E-12  1.17596528161884E-01
 cg2d: Sum(rhs),rhsMax =  -5.47240031067986E-12  1.18791638011880E-01
 cg2d: Sum(rhs),rhsMax =  -5.46696021785920E-12  1.19784290977724E-01
 cg2d: Sum(rhs),rhsMax =  -5.47042966481115E-12  1.20569265259064E-01
 cg2d: Sum(rhs),rhsMax =  -5.48727729920984E-12  1.21155331025978E-01
 cg2d: Sum(rhs),rhsMax =  -5.50520740105753E-12  1.21540206837683E-01
 cg2d: Sum(rhs),rhsMax =  -5.54220558335317E-12  1.21742238646136E-01
 cg2d: Sum(rhs),rhsMax =  -5.57687229729709E-12  1.21747307455266E-01
 cg2d: Sum(rhs),rhsMax =  -5.62175306306756E-12  1.21558207828762E-01
 cg2d: Sum(rhs),rhsMax =  -5.66963143100452E-12  1.21185384930134E-01
 cg2d: Sum(rhs),rhsMax =  -5.72111802377151E-12  1.20643301323889E-01
 cg2d: Sum(rhs),rhsMax =  -5.78248560145767E-12  1.19922973994267E-01
 cg2d: Sum(rhs),rhsMax =  -5.84077231025049E-12  1.19011502492846E-01
 cg2d: Sum(rhs),rhsMax =  -5.90139048739502E-12  1.17928352381697E-01
 cg2d: Sum(rhs),rhsMax =  -5.97519256295698E-12  1.16654217885228E-01
 cg2d: Sum(rhs),rhsMax =  -6.04696848149899E-12  1.15227128640121E-01
 cg2d: Sum(rhs),rhsMax =  -6.11979911191440E-12  1.13634079229383E-01
 cg2d: Sum(rhs),rhsMax =  -6.20528628481054E-12  1.11900709940213E-01
 cg2d: Sum(rhs),rhsMax =  -6.28974650140890E-12  1.10034923806767E-01
 cg2d: Sum(rhs),rhsMax =  -6.37268016134840E-12  1.08025464501669E-01
 cg2d: Sum(rhs),rhsMax =  -6.45475339844381E-12  1.05878367329102E-01
 cg2d: Sum(rhs),rhsMax =  -6.56219523165191E-12  1.03598500586803E-01
 cg2d: Sum(rhs),rhsMax =  -6.68504140932669E-12  1.01297719685955E-01
 cg2d: Sum(rhs),rhsMax =  -6.84791112703920E-12  9.87468692781639E-02
 cg2d: Sum(rhs),rhsMax =  -7.03967439896758E-12  9.61071076734692E-02
 cg2d: Sum(rhs),rhsMax =  -7.24995063983158E-12  9.34639941541605E-02
 cg2d: Sum(rhs),rhsMax =  -7.46205874868622E-12  9.05876368030387E-02
 cg2d: Sum(rhs),rhsMax =  -7.64582841483730E-12  8.76404598364422E-02
 cg2d: Sum(rhs),rhsMax =  -7.83967335493685E-12  8.47412673776409E-02
 cg2d: Sum(rhs),rhsMax =  -8.08325628653961E-12  8.16279003761844E-02
 cg2d: Sum(rhs),rhsMax =  -8.33416669010489E-12  7.86181975821555E-02
 cg2d: Sum(rhs),rhsMax =  -8.65921223613952E-12  7.54152988835219E-02
 cg2d: Sum(rhs),rhsMax =  -8.28503932126523E-12  7.84715884779633E-02
 cg2d: Sum(rhs),rhsMax =  -7.87186982265098E-12  8.23253851470558E-02
 cg2d: Sum(rhs),rhsMax =  -7.50371986768528E-12  8.59782331299090E-02
 cg2d: Sum(rhs),rhsMax =  -7.15350001456727E-12  8.96214975733151E-02
 cg2d: Sum(rhs),rhsMax =  -6.84979850618106E-12  9.30386845405363E-02
 cg2d: Sum(rhs),rhsMax =  -6.54774845454398E-12  9.64340455187005E-02
 cg2d: Sum(rhs),rhsMax =  -6.28221086262926E-12  9.95897366677165E-02
 cg2d: Sum(rhs),rhsMax =  -6.03253558217887E-12  1.02624668698624E-01
 cg2d: Sum(rhs),rhsMax =  -5.79328252037214E-12  1.05586204864411E-01
 cg2d: Sum(rhs),rhsMax =  -5.56867052470267E-12  1.08268471284667E-01
 cg2d: Sum(rhs),rhsMax =  -5.35668731593830E-12  1.10811305546789E-01
 cg2d: Sum(rhs),rhsMax =  -5.15018583335802E-12  1.13203228923984E-01
 cg2d: Sum(rhs),rhsMax =  -4.96269692007445E-12  1.15416827323687E-01
 cg2d: Sum(rhs),rhsMax =  -4.78661554836890E-12  1.17451487829486E-01
 cg2d: Sum(rhs),rhsMax =  -4.69503602662513E-12  1.19368849224864E-01
 cg2d: Sum(rhs),rhsMax =  -4.67374750012794E-12  1.20963407353385E-01
 cg2d: Sum(rhs),rhsMax =  -4.56612525567834E-12  1.22395956811729E-01
 cg2d: Sum(rhs),rhsMax =  -4.46241654739055E-12  1.23621218404468E-01
 cg2d: Sum(rhs),rhsMax =  -4.35868008352713E-12  1.24770338807580E-01
 cg2d: Sum(rhs),rhsMax =  -4.27469171171424E-12  1.25564731853471E-01
 cg2d: Sum(rhs),rhsMax =  -4.18633183674189E-12  1.26212978734951E-01
 cg2d: Sum(rhs),rhsMax =  -4.09954015179181E-12  1.26769842938159E-01
 cg2d: Sum(rhs),rhsMax =  -4.02607114313724E-12  1.26995835868857E-01
 cg2d: Sum(rhs),rhsMax =  -3.95738997127637E-12  1.27059079794461E-01
 cg2d: Sum(rhs),rhsMax =  -3.89047127846709E-12  1.27035506989926E-01
 cg2d: Sum(rhs),rhsMax =  -3.83429399342106E-12  1.26691873800778E-01
 cg2d: Sum(rhs),rhsMax =  -3.77903264237034E-12  1.26203995166166E-01
 cg2d: Sum(rhs),rhsMax =  -3.72560315931025E-12  1.25638708368240E-01
 cg2d: Sum(rhs),rhsMax =  -3.68448327403570E-12  1.24767597747490E-01
 cg2d: Sum(rhs),rhsMax =  -3.64452912293700E-12  1.23768825881591E-01
 cg2d: Sum(rhs),rhsMax =  -3.60907137508804E-12  1.22681802370257E-01
 cg2d: Sum(rhs),rhsMax =  -3.58449381288040E-12  1.21298830933906E-01
 cg2d: Sum(rhs),rhsMax =  -3.55498963600098E-12  1.19857533956649E-01
 cg2d: Sum(rhs),rhsMax =  -3.53708728972890E-12  1.18167512288953E-01
 cg2d: Sum(rhs),rhsMax =  -3.51980944390817E-12  1.16422073550263E-01
 cg2d: Sum(rhs),rhsMax =  -3.51260687203592E-12  1.14442927651519E-01
 cg2d: Sum(rhs),rhsMax =  -3.50519613334654E-12  1.12434217176869E-01
 cg2d: Sum(rhs),rhsMax =  -3.49675843835939E-12  1.10207925566317E-01
 cg2d: Sum(rhs),rhsMax =  -3.49252571307801E-12  1.07918862720635E-01
 cg2d: Sum(rhs),rhsMax =  -3.49796580589867E-12  1.05480347988069E-01
 cg2d: Sum(rhs),rhsMax =  -3.51337015036535E-12  1.02890446679814E-01
 cg2d: Sum(rhs),rhsMax =  -3.51770002016139E-12  1.00187248321560E-01
 cg2d: Sum(rhs),rhsMax =  -3.53056472945923E-12  9.74247666150006E-02
 cg2d: Sum(rhs),rhsMax =  -3.61777274804354E-12  9.45895310896339E-02
 cg2d: Sum(rhs),rhsMax =  -3.70378727687637E-12  9.16337704529513E-02
 cg2d: Sum(rhs),rhsMax =  -3.80744047401294E-12  8.86073396244617E-02
 cg2d: Sum(rhs),rhsMax =  -3.91918442144146E-12  8.55333381035805E-02
 cg2d: Sum(rhs),rhsMax =  -4.03768685153238E-12  8.24014217572686E-02
 cg2d: Sum(rhs),rhsMax =  -4.14585032970649E-12  7.95589073769364E-02
 cg2d: Sum(rhs),rhsMax =  -3.91900401019996E-12  8.35914920461695E-02
 cg2d: Sum(rhs),rhsMax =  -3.71563890766424E-12  8.75144265342767E-02
 cg2d: Sum(rhs),rhsMax =  -3.53303497568902E-12  9.13216165766143E-02
 cg2d: Sum(rhs),rhsMax =  -3.37371797165531E-12  9.50038001263776E-02
 cg2d: Sum(rhs),rhsMax =  -3.23341353691831E-12  9.85475722529765E-02
 cg2d: Sum(rhs),rhsMax =  -3.09828551703362E-12  1.01954259957519E-01
 cg2d: Sum(rhs),rhsMax =  -2.92808832735858E-12  1.05209053886523E-01
 cg2d: Sum(rhs),rhsMax =  -2.77304568196968E-12  1.08325653119910E-01
 cg2d: Sum(rhs),rhsMax =  -2.62649624271916E-12  1.11291763180267E-01
 cg2d: Sum(rhs),rhsMax =  -2.48356890608648E-12  1.14084422256586E-01
 cg2d: Sum(rhs),rhsMax =  -2.36843877843285E-12  1.16701601931319E-01
 cg2d: Sum(rhs),rhsMax =  -2.25761076499964E-12  1.19140567707651E-01
 cg2d: Sum(rhs),rhsMax =  -2.15756579269311E-12  1.21401486935652E-01
 cg2d: Sum(rhs),rhsMax =  -2.07893424697403E-12  1.23476448110634E-01
 cg2d: Sum(rhs),rhsMax =  -2.00520156035111E-12  1.25365532716648E-01
 cg2d: Sum(rhs),rhsMax =  -1.94198823688652E-12  1.27061806996574E-01
 cg2d: Sum(rhs),rhsMax =  -1.89386006876902E-12  1.28555026411347E-01
 cg2d: Sum(rhs),rhsMax =  -1.84655069013218E-12  1.29843085860242E-01
 cg2d: Sum(rhs),rhsMax =  -1.79614656481419E-12  1.30932898251538E-01
 cg2d: Sum(rhs),rhsMax =  -1.73933090152900E-12  1.31822402789002E-01
 cg2d: Sum(rhs),rhsMax =  -1.68179359327780E-12  1.32517007415986E-01
 cg2d: Sum(rhs),rhsMax =  -1.61648472385423E-12  1.33012642794474E-01
 cg2d: Sum(rhs),rhsMax =  -1.56333279655030E-12  1.33301613552828E-01
 cg2d: Sum(rhs),rhsMax =  -1.50446322066955E-12  1.33385919627581E-01
 cg2d: Sum(rhs),rhsMax =  -1.44542711133511E-12  1.33274563088743E-01
 cg2d: Sum(rhs),rhsMax =  -1.38672406890805E-12  1.32969477720091E-01
 cg2d: Sum(rhs),rhsMax =  -1.32871491587139E-12  1.32483015067081E-01
 cg2d: Sum(rhs),rhsMax =  -1.26654242649238E-12  1.31813398969917E-01
 cg2d: Sum(rhs),rhsMax =  -1.21777588013572E-12  1.30955627517766E-01
 cg2d: Sum(rhs),rhsMax =  -1.16170961739215E-12  1.29922912318187E-01
 cg2d: Sum(rhs),rhsMax =  -1.11061160268378E-12  1.28711414297681E-01
 cg2d: Sum(rhs),rhsMax =  -1.04705133452399E-12  1.27320350734388E-01
 cg2d: Sum(rhs),rhsMax =  -9.91484672141496E-13  1.25750973522412E-01
 cg2d: Sum(rhs),rhsMax =  -9.40608702038048E-13  1.24042356506083E-01
 cg2d: Sum(rhs),rhsMax =  -8.74023076136154E-13  1.22169718513139E-01
 cg2d: Sum(rhs),rhsMax =  -8.16152700977568E-13  1.20174942137753E-01
 cg2d: Sum(rhs),rhsMax =  -7.52703455120241E-13  1.18029754922802E-01
 cg2d: Sum(rhs),rhsMax =  -6.90197898833844E-13  1.15754021196256E-01
 cg2d: Sum(rhs),rhsMax =  -6.42430553199347E-13  1.13371209770410E-01
 cg2d: Sum(rhs),rhsMax =  -6.40432151755022E-13  1.10834779755320E-01
 cg2d: Sum(rhs),rhsMax =  -6.27026208732673E-13  1.08179683184586E-01
 cg2d: Sum(rhs),rhsMax =  -6.28497254240301E-13  1.05412587136880E-01
 cg2d: Sum(rhs),rhsMax =  -6.46538378390460E-13  1.02539227909502E-01
 cg2d: Sum(rhs),rhsMax =  -6.28108676181682E-13  9.95703441006200E-02
 cg2d: Sum(rhs),rhsMax =  -6.44928555004753E-13  9.64911618987304E-02
 cg2d: Sum(rhs),rhsMax =  -6.41153796721028E-13  9.33462079491577E-02
 cg2d: Sum(rhs),rhsMax =  -6.43762820828897E-13  9.01408699048038E-02
 cg2d: Sum(rhs),rhsMax =  -6.41875441687034E-13  8.68793852184665E-02
 cg2d: Sum(rhs),rhsMax =  -6.59861054685962E-13  8.41658674283203E-02
 cg2d: Sum(rhs),rhsMax =  -6.47704112566316E-13  8.83551312247594E-02
 cg2d: Sum(rhs),rhsMax =  -6.15008044491105E-13  9.24338532243130E-02
 cg2d: Sum(rhs),rhsMax =  -6.10289596636449E-13  9.63976683749093E-02
 cg2d: Sum(rhs),rhsMax =  -6.27220497761982E-13  1.00203863302428E-01
 cg2d: Sum(rhs),rhsMax =  -6.43984865433822E-13  1.03875613236094E-01
 cg2d: Sum(rhs),rhsMax =  -6.38211705705771E-13  1.07391330533104E-01
 cg2d: Sum(rhs),rhsMax =  -6.18893825077294E-13  1.10746325755753E-01
 cg2d: Sum(rhs),rhsMax =  -5.65048008382973E-13  1.13934834273209E-01
 cg2d: Sum(rhs),rhsMax =  -4.68070027181966E-13  1.16936081907025E-01
 cg2d: Sum(rhs),rhsMax =  -3.45667938717042E-13  1.19754285905876E-01
 cg2d: Sum(rhs),rhsMax =  -2.04392058833491E-13  1.22394137747095E-01
 cg2d: Sum(rhs),rhsMax =  -6.98885394001536E-14  1.24838998750827E-01
 cg2d: Sum(rhs),rhsMax =   7.06656955173912E-14  1.27086410453488E-01
 cg2d: Sum(rhs),rhsMax =   2.20934381900406E-13  1.29125099077434E-01
 cg2d: Sum(rhs),rhsMax =   3.70425912166183E-13  1.30942871834571E-01
 cg2d: Sum(rhs),rhsMax =   5.01265695618258E-13  1.32550355374319E-01
 cg2d: Sum(rhs),rhsMax =   6.32938146338802E-13  1.33946126224695E-01
 cg2d: Sum(rhs),rhsMax =   7.73769937012503E-13  1.35125122752370E-01
 cg2d: Sum(rhs),rhsMax =   8.96449581233583E-13  1.36089549783282E-01
 cg2d: Sum(rhs),rhsMax =   1.02495789633394E-12  1.36827293417902E-01
 cg2d: Sum(rhs),rhsMax =   1.15546461287863E-12  1.37348397676341E-01
 cg2d: Sum(rhs),rhsMax =   1.27653443371400E-12  1.37653859509448E-01
 cg2d: Sum(rhs),rhsMax =   1.41964218158819E-12  1.37752842179823E-01
 cg2d: Sum(rhs),rhsMax =   1.55375712296291E-12  1.37637664041504E-01
 cg2d: Sum(rhs),rhsMax =   1.70935487986412E-12  1.37300840985400E-01
 cg2d: Sum(rhs),rhsMax =   1.84185999785313E-12  1.36752506695843E-01
 cg2d: Sum(rhs),rhsMax =   1.99196215078246E-12  1.36005863461431E-01
 cg2d: Sum(rhs),rhsMax =   2.14961382027923E-12  1.35073403057015E-01
 cg2d: Sum(rhs),rhsMax =   2.29810614982284E-12  1.33926777962333E-01
 cg2d: Sum(rhs),rhsMax =   2.45997666681319E-12  1.32614386867187E-01
 cg2d: Sum(rhs),rhsMax =   2.62945221152222E-12  1.31113646447522E-01
 cg2d: Sum(rhs),rhsMax =   2.81069612029228E-12  1.29429173263217E-01
 cg2d: Sum(rhs),rhsMax =   2.98461255709981E-12  1.27558076146005E-01
 cg2d: Sum(rhs),rhsMax =   3.17651460690627E-12  1.25520215861558E-01
 cg2d: Sum(rhs),rhsMax =   3.38484795747718E-12  1.23335044956748E-01
 cg2d: Sum(rhs),rhsMax =   3.58374441233877E-12  1.21025036889435E-01
 cg2d: Sum(rhs),rhsMax =   3.81294995577264E-12  1.18562545100381E-01
 cg2d: Sum(rhs),rhsMax =   4.05325772945275E-12  1.15983716713802E-01
 cg2d: Sum(rhs),rhsMax =   4.29811741753383E-12  1.13266095454800E-01
 cg2d: Sum(rhs),rhsMax =   4.58966198380040E-12  1.10429989761151E-01
 cg2d: Sum(rhs),rhsMax =   4.83413309382286E-12  1.07460772588137E-01
 cg2d: Sum(rhs),rhsMax =   5.04130071021791E-12  1.04383367861131E-01
 cg2d: Sum(rhs),rhsMax =   5.23270315966329E-12  1.01183014625030E-01
 cg2d: Sum(rhs),rhsMax =   5.48128209487686E-12  9.78714508383716E-02
 cg2d: Sum(rhs),rhsMax =   5.73208147613968E-12  9.44768810209998E-02
 cg2d: Sum(rhs),rhsMax =   5.99664762290786E-12  9.10590087501004E-02
 cg2d: Sum(rhs),rhsMax =   6.31317220722849E-12  8.75953472056790E-02
 cg2d: Sum(rhs),rhsMax =   6.16540152265088E-12  9.02401498343242E-02
 cg2d: Sum(rhs),rhsMax =   5.94480020765786E-12  9.45586517380680E-02
 cg2d: Sum(rhs),rhsMax =   5.81068526628314E-12  9.87313824403425E-02
 cg2d: Sum(rhs),rhsMax =   5.70088420914772E-12  1.02755977673355E-01
 cg2d: Sum(rhs),rhsMax =   5.61528601394912E-12  1.06620547832290E-01
 cg2d: Sum(rhs),rhsMax =   5.54406520691941E-12  1.10304425340434E-01
 cg2d: Sum(rhs),rhsMax =   5.46940270851337E-12  1.13787767912359E-01
 cg2d: Sum(rhs),rhsMax =   5.41156008893040E-12  1.17125882674404E-01
 cg2d: Sum(rhs),rhsMax =   5.36082289670503E-12  1.20241196286363E-01
 cg2d: Sum(rhs),rhsMax =   5.33106891964508E-12  1.23178842316049E-01
 cg2d: Sum(rhs),rhsMax =   5.31324984009984E-12  1.25887780178021E-01
 cg2d: Sum(rhs),rhsMax =   5.29326582565659E-12  1.28359506874006E-01
 cg2d: Sum(rhs),rhsMax =   5.29187804687581E-12  1.30594762164271E-01
 cg2d: Sum(rhs),rhsMax =   5.29559729400830E-12  1.32646277333561E-01
 cg2d: Sum(rhs),rhsMax =   5.30286925481960E-12  1.34459202671292E-01
 cg2d: Sum(rhs),rhsMax =   5.38358246870985E-12  1.36023450597585E-01
 cg2d: Sum(rhs),rhsMax =   5.48111556142317E-12  1.37348128360179E-01
 cg2d: Sum(rhs),rhsMax =   5.55905321775185E-12  1.38435318104200E-01
 cg2d: Sum(rhs),rhsMax =   5.64787105972187E-12  1.39275585561382E-01
 cg2d: Sum(rhs),rhsMax =   5.71193092824274E-12  1.39866206473598E-01
 cg2d: Sum(rhs),rhsMax =   5.67973446052861E-12  1.40187488812670E-01
 cg2d: Sum(rhs),rhsMax =   5.74379432904948E-12  1.40328195898789E-01
 cg2d: Sum(rhs),rhsMax =   5.80513415116002E-12  1.40227908130432E-01
 cg2d: Sum(rhs),rhsMax =   5.88323834094240E-12  1.39890753200627E-01
 cg2d: Sum(rhs),rhsMax =   5.97727423112815E-12  1.39329941321937E-01
 cg2d: Sum(rhs),rhsMax =   6.09062800194238E-12  1.38542246137145E-01
 cg2d: Sum(rhs),rhsMax =   6.16440232192872E-12  1.37546591367369E-01
 cg2d: Sum(rhs),rhsMax =   6.26032559125633E-12  1.36337349012437E-01
 cg2d: Sum(rhs),rhsMax =   6.36918295882083E-12  1.34952208202729E-01
 cg2d: Sum(rhs),rhsMax =   6.50340892249801E-12  1.33328930208048E-01
 cg2d: Sum(rhs),rhsMax =   6.62392363182107E-12  1.31516343571108E-01
 cg2d: Sum(rhs),rhsMax =   6.78784806140698E-12  1.29536090016682E-01
 cg2d: Sum(rhs),rhsMax =   6.96176449821451E-12  1.27402295775282E-01
 cg2d: Sum(rhs),rhsMax =   7.14162062820378E-12  1.25115891769338E-01
 cg2d: Sum(rhs),rhsMax =   7.33657579132796E-12  1.22622271532863E-01
 cg2d: Sum(rhs),rhsMax =   7.56561480130813E-12  1.20000126720841E-01
 cg2d: Sum(rhs),rhsMax =   7.80120412713359E-12  1.17275002083678E-01
 cg2d: Sum(rhs),rhsMax =   8.04944999543977E-12  1.14399667326173E-01
 cg2d: Sum(rhs),rhsMax =   8.33644264730538E-12  1.11457720359898E-01
 cg2d: Sum(rhs),rhsMax =   8.60711502070899E-12  1.08542478802414E-01
 cg2d: Sum(rhs),rhsMax =   8.94295748565810E-12  1.05289265727889E-01
 cg2d: Sum(rhs),rhsMax =   9.31765775646909E-12  1.01957426926116E-01
 cg2d: Sum(rhs),rhsMax =   9.70035163305738E-12  9.87154086495787E-02
 cg2d: Sum(rhs),rhsMax =   1.01371133709449E-11  9.51801826249024E-02
 cg2d: Sum(rhs),rhsMax =   1.05784270232334E-11  9.17943947587741E-02
 cg2d: Sum(rhs),rhsMax =   1.10336184633297E-11  8.85478103376235E-02
 cg2d: Sum(rhs),rhsMax =   1.05717656850857E-11  9.30625493830704E-02
 cg2d: Sum(rhs),rhsMax =   1.01240127392543E-11  9.74864812024332E-02
 cg2d: Sum(rhs),rhsMax =   9.78450653832397E-12  1.01864427235207E-01
 cg2d: Sum(rhs),rhsMax =   9.43312095103011E-12  1.05937297356230E-01
 cg2d: Sum(rhs),rhsMax =   9.17632636543431E-12  1.09856762632392E-01
 cg2d: Sum(rhs),rhsMax =   8.91564599925232E-12  1.13620945067422E-01
 cg2d: Sum(rhs),rhsMax =   8.67017568850770E-12  1.17186708358259E-01
 cg2d: Sum(rhs),rhsMax =   8.47866221675986E-12  1.20554131871717E-01
 cg2d: Sum(rhs),rhsMax =   8.29225577092529E-12  1.23720533817727E-01
 cg2d: Sum(rhs),rhsMax =   8.13071832084233E-12  1.26698434003150E-01
 cg2d: Sum(rhs),rhsMax =   7.98050514561055E-12  1.29447256416566E-01
 cg2d: Sum(rhs),rhsMax =   7.85416176540821E-12  1.31970179574326E-01
 cg2d: Sum(rhs),rhsMax =   7.76467778962342E-12  1.34257979479218E-01
 cg2d: Sum(rhs),rhsMax =   7.68324293076716E-12  1.36300249606364E-01
 cg2d: Sum(rhs),rhsMax =   7.62406804355464E-12  1.38105513642864E-01
 cg2d: Sum(rhs),rhsMax =   7.54618589837719E-12  1.39681710888410E-01
 cg2d: Sum(rhs),rhsMax =   7.49916795328431E-12  1.41013662017996E-01
 cg2d: Sum(rhs),rhsMax =   7.46563921794063E-12  1.42099854751002E-01
 cg2d: Sum(rhs),rhsMax =   7.45009609559588E-12  1.42982913333525E-01
 cg2d: Sum(rhs),rhsMax =   7.45631334453378E-12  1.43596944667182E-01
 cg2d: Sum(rhs),rhsMax =   7.45548067726531E-12  1.43962060978773E-01
 cg2d: Sum(rhs),rhsMax =   7.47779616006028E-12  1.44095407208918E-01
 cg2d: Sum(rhs),rhsMax =   7.52342632637237E-12  1.44000686368766E-01
 cg2d: Sum(rhs),rhsMax =   7.60180807191091E-12  1.43648021512112E-01
 cg2d: Sum(rhs),rhsMax =   7.67585994765341E-12  1.43148982748137E-01
 cg2d: Sum(rhs),rhsMax =   7.74469377518017E-12  1.42374979213246E-01
 cg2d: Sum(rhs),rhsMax =   7.85477238807175E-12  1.41450993771221E-01
 cg2d: Sum(rhs),rhsMax =   7.94830867789642E-12  1.40283749173931E-01
 cg2d: Sum(rhs),rhsMax =   8.09530220635679E-12  1.38949360822276E-01
 cg2d: Sum(rhs),rhsMax =   8.22508727793547E-12  1.37474089639778E-01
 cg2d: Sum(rhs),rhsMax =   8.36142266535944E-12  1.35759344037349E-01
 cg2d: Sum(rhs),rhsMax =   8.53611625828421E-12  1.33887805359361E-01
 cg2d: Sum(rhs),rhsMax =   8.72929506456899E-12  1.31901293527687E-01
 cg2d: Sum(rhs),rhsMax =   8.90326701252775E-12  1.29698295249368E-01
 cg2d: Sum(rhs),rhsMax =   9.10621578142923E-12  1.27369193411787E-01
 cg2d: Sum(rhs),rhsMax =   9.33370047917492E-12  1.24898203935518E-01
 cg2d: Sum(rhs),rhsMax =   9.56817958197576E-12  1.22306947456804E-01
 cg2d: Sum(rhs),rhsMax =   9.80238112902043E-12  1.19573506073480E-01
 cg2d: Sum(rhs),rhsMax =   1.00239816447356E-11  1.16714415178582E-01
 cg2d: Sum(rhs),rhsMax =   1.02902131260407E-11  1.13816531153050E-01
 cg2d: Sum(rhs),rhsMax =   1.05681019491044E-11  1.10674301851700E-01
 cg2d: Sum(rhs),rhsMax =   1.08429931700016E-11  1.07461280673944E-01
 cg2d: Sum(rhs),rhsMax =   1.11329834240337E-11  1.04227190925095E-01
 cg2d: Sum(rhs),rhsMax =   1.14847020782349E-11  1.00849314270817E-01
 cg2d: Sum(rhs),rhsMax =   1.18278720151466E-11  9.74914351148184E-02
 cg2d: Sum(rhs),rhsMax =   1.22613030839602E-11  9.40492575222716E-02
 cg2d: Sum(rhs),rhsMax =   1.23134835661176E-11  9.33712607396015E-02
 cg2d: Sum(rhs),rhsMax =   1.17027498802713E-11  9.80743318760808E-02
 cg2d: Sum(rhs),rhsMax =   1.11640696687232E-11  1.02647336203578E-01
 cg2d: Sum(rhs),rhsMax =   1.07158726336820E-11  1.07064304467079E-01
 cg2d: Sum(rhs),rhsMax =   1.02823305425659E-11  1.11317591078739E-01
 cg2d: Sum(rhs),rhsMax =   9.91540183292727E-12  1.15398593265139E-01
 cg2d: Sum(rhs),rhsMax =   9.61275503641446E-12  1.19299154151206E-01
 cg2d: Sum(rhs),rhsMax =   9.34208266301084E-12  1.23008502695187E-01
 cg2d: Sum(rhs),rhsMax =   9.10038711054995E-12  1.26518203824226E-01
 cg2d: Sum(rhs),rhsMax =   8.88272788657218E-12  1.29816640647702E-01
 cg2d: Sum(rhs),rhsMax =   8.71036576199913E-12  1.32917765696831E-01
 cg2d: Sum(rhs),rhsMax =   8.54455395327136E-12  1.35807031427576E-01
 cg2d: Sum(rhs),rhsMax =   8.39844860323069E-12  1.38467472303136E-01
 cg2d: Sum(rhs),rhsMax =   8.28415114284553E-12  1.40900500200306E-01
 cg2d: Sum(rhs),rhsMax =   8.20277179514051E-12  1.43101330843423E-01
 cg2d: Sum(rhs),rhsMax =   8.11883893447884E-12  1.45068871453733E-01
 cg2d: Sum(rhs),rhsMax =   8.05022715155701E-12  1.46818601446682E-01
 cg2d: Sum(rhs),rhsMax =   8.00154387192720E-12  1.48333355703300E-01
 cg2d: Sum(rhs),rhsMax =   7.96929189306184E-12  1.49602334151422E-01
 cg2d: Sum(rhs),rhsMax =   7.94381227464669E-12  1.50604448071233E-01
 cg2d: Sum(rhs),rhsMax =   7.91994247961725E-12  1.51380936639228E-01
 cg2d: Sum(rhs),rhsMax =   7.92638177316007E-12  1.51937682560398E-01
 cg2d: Sum(rhs),rhsMax =   7.93676235844032E-12  1.52268258816540E-01
 cg2d: Sum(rhs),rhsMax =   7.94864174480381E-12  1.52377151665350E-01
 cg2d: Sum(rhs),rhsMax =   7.95713495094219E-12  1.52265462117474E-01
 cg2d: Sum(rhs),rhsMax =   8.01131383454390E-12  1.51911508598832E-01
 cg2d: Sum(rhs),rhsMax =   8.03290767237286E-12  1.51349104057190E-01
 cg2d: Sum(rhs),rhsMax =   8.08558775489132E-12  1.50600046684087E-01
 cg2d: Sum(rhs),rhsMax =   8.14182055108859E-12  1.49651825387399E-01
 cg2d: Sum(rhs),rhsMax =   8.20327139550159E-12  1.48511741786466E-01
 cg2d: Sum(rhs),rhsMax =   8.27282686799435E-12  1.47202684405173E-01
 cg2d: Sum(rhs),rhsMax =   8.35070901317181E-12  1.45701859237916E-01
 cg2d: Sum(rhs),rhsMax =   8.43408676232116E-12  1.44068981649988E-01
 cg2d: Sum(rhs),rhsMax =   8.52845571941430E-12  1.42275495907306E-01
 cg2d: Sum(rhs),rhsMax =   8.64214255713591E-12  1.40308837679857E-01
 cg2d: Sum(rhs),rhsMax =   8.75688410673092E-12  1.38158411554123E-01
 cg2d: Sum(rhs),rhsMax =   8.87329099086287E-12  1.35883115453580E-01
 cg2d: Sum(rhs),rhsMax =   9.01961838550847E-12  1.33469894469806E-01
 cg2d: Sum(rhs),rhsMax =   9.15717501825952E-12  1.30944481591521E-01
 cg2d: Sum(rhs),rhsMax =   9.31471566545383E-12  1.28281409831965E-01
 cg2d: Sum(rhs),rhsMax =   9.48363609865055E-12  1.25499138805450E-01
 cg2d: Sum(rhs),rhsMax =   9.66526858547923E-12  1.22522368548110E-01
 cg2d: Sum(rhs),rhsMax =   9.85278525433841E-12  1.19496538679236E-01
 cg2d: Sum(rhs),rhsMax =   1.00355834753429E-11  1.16367890715755E-01
 cg2d: Sum(rhs),rhsMax =   1.02958752634663E-11  1.13130503921387E-01
 cg2d: Sum(rhs),rhsMax =   1.05336295241898E-11  1.09863294531347E-01
 cg2d: Sum(rhs),rhsMax =   1.08066888770963E-11  1.06561454485531E-01
 cg2d: Sum(rhs),rhsMax =   1.10852438339748E-11  1.03190994759046E-01
 cg2d: Sum(rhs),rhsMax =   1.13903331211418E-11  9.98021497885328E-02
(PID.TID 0000.0001)      cg2d_init_res =   6.77492936380330E-02
(PID.TID 0000.0001)      cg2d_iters(min,last) =      -1      29
(PID.TID 0000.0001)      cg2d_last_res =   9.79906580646198E-14
(PID.TID 0000.0001) // =======================================================
(PID.TID 0000.0001) // Begin MONITOR dynamic field statistics
(PID.TID 0000.0001) // =======================================================
(PID.TID 0000.0001) %MON time_tsnumber                =                   960
(PID.TID 0000.0001) %MON time_secondsf                =   1.4400000000000E+04
(PID.TID 0000.0001) %MON dynstat_eta_max              =   4.5939927673664E-03
(PID.TID 0000.0001) %MON dynstat_eta_min              =  -1.1343999025596E-02
(PID.TID 0000.0001) %MON dynstat_eta_mean             =  -1.3078789414203E-15
(PID.TID 0000.0001) %MON dynstat_eta_sd               =   3.9437033859129E-03
(PID.TID 0000.0001) %MON dynstat_eta_del2             =   7.8191712542227E-05
(PID.TID 0000.0001) %MON dynstat_uvel_max             =   8.8080947637044E-01
(PID.TID 0000.0001) %MON dynstat_uvel_min             =  -4.0311006227893E-01
(PID.TID 0000.0001) %MON dynstat_uvel_mean            =  -3.4714320009612E-04
(PID.TID 0000.0001) %MON dynstat_uvel_sd              =   3.4071190365869E-02
(PID.TID 0000.0001) %MON dynstat_uvel_del2            =   1.7144258129435E-04
(PID.TID 0000.0001) %MON dynstat_vvel_max             =   0.0000000000000E+00
(PID.TID 0000.0001) %MON dynstat_vvel_min             =   0.0000000000000E+00
(PID.TID 0000.0001) %MON dynstat_vvel_mean            =   0.0000000000000E+00
(PID.TID 0000.0001) %MON dynstat_vvel_sd              =   0.0000000000000E+00
(PID.TID 0000.0001) %MON dynstat_vvel_del2            =   0.0000000000000E+00
(PID.TID 0000.0001) %MON dynstat_wvel_max             =   4.2873661631644E-02
(PID.TID 0000.0001) %MON dynstat_wvel_min             =  -1.6663106378079E-02
(PID.TID 0000.0001) %MON dynstat_wvel_mean            =   6.9106703475528E-21
(PID.TID 0000.0001) %MON dynstat_wvel_sd              =   1.5040924107346E-03
(PID.TID 0000.0001) %MON dynstat_wvel_del2            =   2.8147901736851E-05
(PID.TID 0000.0001) %MON dynstat_theta_max            =   1.5000000000218E+01
(PID.TID 0000.0001) %MON dynstat_theta_min            =   9.9999999999972E+00
(PID.TID 0000.0001) %MON dynstat_theta_mean           =   1.3087511434117E+01
(PID.TID 0000.0001) %MON dynstat_theta_sd             =   2.3973103736571E+00
(PID.TID 0000.0001) %MON dynstat_theta_del2           =   8.0196339769908E-04
(PID.TID 0000.0001) %MON dynstat_salt_max             =   3.5000000000000E+01
(PID.TID 0000.0001) %MON dynstat_salt_min             =   3.5000000000000E+01
(PID.TID 0000.0001) %MON dynstat_salt_mean            =   3.5000000000000E+01
(PID.TID 0000.0001) %MON dynstat_salt_sd              =   7.1054273576010E-15
(PID.TID 0000.0001) %MON dynstat_salt_del2            =   0.0000000000000E+00
(PID.TID 0000.0001) %MON dynstat_sst_max              =   1.5000000000002E+01
(PID.TID 0000.0001) %MON dynstat_sst_min              =   1.5000000000000E+01
(PID.TID 0000.0001) %MON dynstat_sst_mean             =   1.5000000000001E+01
(PID.TID 0000.0001) %MON dynstat_sst_sd               =   6.8531818308629E-13
(PID.TID 0000.0001) %MON dynstat_sst_del2             =   5.1863995490896E-14
(PID.TID 0000.0001) %MON dynstat_sss_max              =   3.5000000000000E+01
(PID.TID 0000.0001) %MON dynstat_sss_min              =   3.5000000000000E+01
(PID.TID 0000.0001) %MON dynstat_sss_mean             =   3.5000000000000E+01
(PID.TID 0000.0001) %MON dynstat_sss_sd               =   0.0000000000000E+00
(PID.TID 0000.0001) %MON dynstat_sss_del2             =   0.0000000000000E+00
(PID.TID 0000.0001) %MON forcing_qnet_max             =   0.0000000000000E+00
(PID.TID 0000.0001) %MON forcing_qnet_min             =   0.0000000000000E+00
(PID.TID 0000.0001) %MON forcing_qnet_mean            =   0.0000000000000E+00
(PID.TID 0000.0001) %MON forcing_qnet_sd              =   0.0000000000000E+00
(PID.TID 0000.0001) %MON forcing_qnet_del2            =   0.0000000000000E+00
(PID.TID 0000.0001) %MON forcing_qsw_max              =   0.0000000000000E+00
(PID.TID 0000.0001) %MON forcing_qsw_min              =   0.0000000000000E+00
(PID.TID 0000.0001) %MON forcing_qsw_mean             =   0.0000000000000E+00
(PID.TID 0000.0001) %MON forcing_qsw_sd               =   0.0000000000000E+00
(PID.TID 0000.0001) %MON forcing_qsw_del2             =   0.0000000000000E+00
(PID.TID 0000.0001) %MON forcing_empmr_max            =   0.0000000000000E+00
(PID.TID 0000.0001) %MON forcing_empmr_min            =   0.0000000000000E+00
(PID.TID 0000.0001) %MON forcing_empmr_mean           =   0.0000000000000E+00
(PID.TID 0000.0001) %MON forcing_empmr_sd             =   0.0000000000000E+00
(PID.TID 0000.0001) %MON forcing_empmr_del2           =   0.0000000000000E+00
(PID.TID 0000.0001) %MON forcing_fu_max               =   0.0000000000000E+00
(PID.TID 0000.0001) %MON forcing_fu_min               =   0.0000000000000E+00
(PID.TID 0000.0001) %MON forcing_fu_mean              =   0.0000000000000E+00
(PID.TID 0000.0001) %MON forcing_fu_sd                =   0.0000000000000E+00
(PID.TID 0000.0001) %MON forcing_fu_del2              =   0.0000000000000E+00
(PID.TID 0000.0001) %MON forcing_fv_max               =   0.0000000000000E+00
(PID.TID 0000.0001) %MON forcing_fv_min               =   0.0000000000000E+00
(PID.TID 0000.0001) %MON forcing_fv_mean              =   0.0000000000000E+00
(PID.TID 0000.0001) %MON forcing_fv_sd                =   0.0000000000000E+00
(PID.TID 0000.0001) %MON forcing_fv_del2              =   0.0000000000000E+00
(PID.TID 0000.0001) %MON advcfl_uvel_max              =   6.6060710727783E-02
(PID.TID 0000.0001) %MON advcfl_vvel_max              =   0.0000000000000E+00
(PID.TID 0000.0001) %MON advcfl_wvel_max              =   2.2964427896674E-01
(PID.TID 0000.0001) %MON advcfl_W_hf_max              =   2.3247187400358E-01
(PID.TID 0000.0001) %MON pe_b_mean                    =   4.3660610351057E-07
(PID.TID 0000.0001) %MON ke_max                       =   2.9027716443758E-01
(PID.TID 0000.0001) %MON ke_mean                      =   5.8690887016065E-04
(PID.TID 0000.0001) %MON ke_vol                       =   8.5336562999261E+10
(PID.TID 0000.0001) %MON vort_r_min                   =   0.0000000000000E+00
(PID.TID 0000.0001) %MON vort_r_max                   =   0.0000000000000E+00
(PID.TID 0000.0001) %MON vort_a_mean                  =   0.0000000000000E+00
(PID.TID 0000.0001) %MON vort_a_sd                    =   0.0000000000000E+00
(PID.TID 0000.0001) %MON vort_p_mean                  =   0.0000000000000E+00
(PID.TID 0000.0001) %MON vort_p_sd                    =   0.0000000000000E+00
(PID.TID 0000.0001) %MON surfExpan_theta_mean         =   9.7619206325131E-19
(PID.TID 0000.0001) %MON surfExpan_salt_mean          =   7.4499021125146E-19
(PID.TID 0000.0001) // =======================================================
(PID.TID 0000.0001) // End MONITOR dynamic field statistics
(PID.TID 0000.0001) // =======================================================
(PID.TID 0000.0001) // =======================================================
(PID.TID 0000.0001) // Begin OBCS MONITOR field statistics
(PID.TID 0000.0001) // =======================================================
(PID.TID 0000.0001) %MON obc_E_uVel_max               =   0.0000000000000E+00
(PID.TID 0000.0001) %MON obc_E_uVel_min               =   0.0000000000000E+00
(PID.TID 0000.0001) %MON obc_E_uVel_mean              =   0.0000000000000E+00
(PID.TID 0000.0001) %MON obc_E_uVel_sd                =   0.0000000000000E+00
(PID.TID 0000.0001) %MON obc_E_uVel_Int               =   0.0000000000000E+00
(PID.TID 0000.0001) %MON obc_W_uVel_max               =   0.0000000000000E+00
(PID.TID 0000.0001) %MON obc_W_uVel_min               =   0.0000000000000E+00
(PID.TID 0000.0001) %MON obc_W_uVel_mean              =   0.0000000000000E+00
(PID.TID 0000.0001) %MON obc_W_uVel_sd                =   0.0000000000000E+00
(PID.TID 0000.0001) %MON obc_W_uVel_Int               =   0.0000000000000E+00
(PID.TID 0000.0001) // =======================================================
(PID.TID 0000.0001) // End OBCS MONITOR field statistics
(PID.TID 0000.0001) // =======================================================
 cg2d: Sum(rhs),rhsMax =   1.10947917519866E-11  1.01694983713029E-01
 cg2d: Sum(rhs),rhsMax =   1.05553898954724E-11  1.06363053495703E-01
 cg2d: Sum(rhs),rhsMax =   1.00575103800793E-11  1.10859813359596E-01
 cg2d: Sum(rhs),rhsMax =   9.62152579830899E-12  1.15171438658754E-01
 cg2d: Sum(rhs),rhsMax =   9.22645293499613E-12  1.19326064236901E-01
 cg2d: Sum(rhs),rhsMax =   8.88861206860270E-12  1.23297659880613E-01
 cg2d: Sum(rhs),rhsMax =   8.58108029078153E-12  1.27094710690966E-01
 cg2d: Sum(rhs),rhsMax =   8.29208923747160E-12  1.30681306009237E-01
 cg2d: Sum(rhs),rhsMax =   8.05583377783137E-12  1.34070224663068E-01
 cg2d: Sum(rhs),rhsMax =   7.83251241642802E-12  1.37270726523853E-01
 cg2d: Sum(rhs),rhsMax =   7.62462315506696E-12  1.40269275155111E-01
 cg2d: Sum(rhs),rhsMax =   7.42372829876103E-12  1.43069231896719E-01
 cg2d: Sum(rhs),rhsMax =   7.27806703793021E-12  1.45628059311320E-01
 cg2d: Sum(rhs),rhsMax =   7.12557790549795E-12  1.47960236169436E-01
 cg2d: Sum(rhs),rhsMax =   7.00500768502366E-12  1.50076386437278E-01
 cg2d: Sum(rhs),rhsMax =   6.90436596784139E-12  1.51978491589401E-01
 cg2d: Sum(rhs),rhsMax =   6.81085743359233E-12  1.53660633792016E-01
 cg2d: Sum(rhs),rhsMax =   6.72437105997403E-12  1.55104036096447E-01
 cg2d: Sum(rhs),rhsMax =   6.65947852418469E-12  1.56327288550022E-01
 cg2d: Sum(rhs),rhsMax =   6.59811094649854E-12  1.57333309693247E-01
 cg2d: Sum(rhs),rhsMax =   6.55703269458741E-12  1.58106598029216E-01
 cg2d: Sum(rhs),rhsMax =   6.52161658010186E-12  1.58656355163542E-01
 cg2d: Sum(rhs),rhsMax =   6.49671982877464E-12  1.59005776064118E-01
 cg2d: Sum(rhs),rhsMax =   6.49391651563747E-12  1.59127490709250E-01
 cg2d: Sum(rhs),rhsMax =   6.49089115789536E-12  1.59046899909157E-01
 cg2d: Sum(rhs),rhsMax =   6.50263176638077E-12  1.58762391534842E-01
 cg2d: Sum(rhs),rhsMax =   6.52328191463880E-12  1.58287649675019E-01
 cg2d: Sum(rhs),rhsMax =   6.55223098000590E-12  1.57615670681588E-01
 cg2d: Sum(rhs),rhsMax =   6.60149712672364E-12  1.56768954687843E-01
 cg2d: Sum(rhs),rhsMax =   6.64757138224559E-12  1.55724992760081E-01
 cg2d: Sum(rhs),rhsMax =   6.71507294214280E-12  1.54493498188887E-01
 cg2d: Sum(rhs),rhsMax =   6.78426759215256E-12  1.53106451004240E-01
 cg2d: Sum(rhs),rhsMax =   6.87458423520582E-12  1.51520443946339E-01
 cg2d: Sum(rhs),rhsMax =   6.96209756512189E-12  1.49785145989401E-01
 cg2d: Sum(rhs),rhsMax =   7.06193437061131E-12  1.47897118068442E-01
 cg2d: Sum(rhs),rhsMax =   7.17961801122158E-12  1.45872568677810E-01
 cg2d: Sum(rhs),rhsMax =   7.31090188388350E-12  1.43698727897822E-01
 cg2d: Sum(rhs),rhsMax =   7.43904937650086E-12  1.41405358288449E-01
 cg2d: Sum(rhs),rhsMax =   7.58354490315583E-12  1.39073693502514E-01
 cg2d: Sum(rhs),rhsMax =   7.74769137734665E-12  1.36553847771082E-01
 cg2d: Sum(rhs),rhsMax =   7.91711141090445E-12  1.33848368587551E-01
 cg2d: Sum(rhs),rhsMax =   8.09885492003559E-12  1.31055966466727E-01
 cg2d: Sum(rhs),rhsMax =   8.29888935349743E-12  1.28163606850234E-01
 cg2d: Sum(rhs),rhsMax =   8.50911008321020E-12  1.25178946906407E-01
 cg2d: Sum(rhs),rhsMax =   8.74561534303098E-12  1.22115176186609E-01
 cg2d: Sum(rhs),rhsMax =   8.97606988736754E-12  1.18966863571620E-01
 cg2d: Sum(rhs),rhsMax =   9.23550125264683E-12  1.15742706218636E-01
 cg2d: Sum(rhs),rhsMax =   9.50881040573393E-12  1.12460854955920E-01
 cg2d: Sum(rhs),rhsMax =   9.80091008351280E-12  1.09158630932657E-01
 cg2d: Sum(rhs),rhsMax =   1.01050279255332E-11  1.05845023893110E-01
 cg2d: Sum(rhs),rhsMax =   1.02042818639347E-11  1.04783756135922E-01
 cg2d: Sum(rhs),rhsMax =   9.78786496297346E-12  1.09198905855165E-01
 cg2d: Sum(rhs),rhsMax =   9.40711397667826E-12  1.13412124571116E-01
 cg2d: Sum(rhs),rhsMax =   9.06744124229419E-12  1.17534469072605E-01
 cg2d: Sum(rhs),rhsMax =   8.76793082582594E-12  1.21417643770197E-01
 cg2d: Sum(rhs),rhsMax =   8.49065262542581E-12  1.25187240830511E-01
 cg2d: Sum(rhs),rhsMax =   8.23072165978544E-12  1.28802681387388E-01
 cg2d: Sum(rhs),rhsMax =   8.00076671580996E-12  1.32222849767515E-01
 cg2d: Sum(rhs),rhsMax =   7.78216380226127E-12  1.35433671396480E-01
 cg2d: Sum(rhs),rhsMax =   7.59059481936220E-12  1.38425345080629E-01
 cg2d: Sum(rhs),rhsMax =   7.40890682138229E-12  1.41241334650525E-01
 cg2d: Sum(rhs),rhsMax =   7.24748039360179E-12  1.43836697566667E-01
 cg2d: Sum(rhs),rhsMax =   7.08516578740159E-12  1.46213074524189E-01
 cg2d: Sum(rhs),rhsMax =   6.95363211455913E-12  1.48378290411536E-01
 cg2d: Sum(rhs),rhsMax =   6.83669787449048E-12  1.50312774192692E-01
 cg2d: Sum(rhs),rhsMax =   6.71429578602556E-12  1.52049945559179E-01
 cg2d: Sum(rhs),rhsMax =   6.61659615985855E-12  1.53595402163669E-01
 cg2d: Sum(rhs),rhsMax =   6.53047060872325E-12  1.54927313643167E-01
 cg2d: Sum(rhs),rhsMax =   6.45720976688580E-12  1.56042593096906E-01
 cg2d: Sum(rhs),rhsMax =   6.39029107407652E-12  1.56944927734621E-01
 cg2d: Sum(rhs),rhsMax =   6.32074947937156E-12  1.57658237165682E-01
 cg2d: Sum(rhs),rhsMax =   6.26777796330913E-12  1.58158779486107E-01
 cg2d: Sum(rhs),rhsMax =   6.22374374259493E-12  1.58440092977531E-01
 cg2d: Sum(rhs),rhsMax =   6.19672368973312E-12  1.58529828899396E-01
 cg2d: Sum(rhs),rhsMax =   6.16350026572121E-12  1.58423006733010E-01
 cg2d: Sum(rhs),rhsMax =   6.15352213628739E-12  1.58112360710372E-01
 cg2d: Sum(rhs),rhsMax =   6.14649997565664E-12  1.57594174751960E-01
 cg2d: Sum(rhs),rhsMax =   6.15124617908691E-12  1.56892786169862E-01
 cg2d: Sum(rhs),rhsMax =   6.16481865556295E-12  1.56066409593791E-01
 cg2d: Sum(rhs),rhsMax =   6.18578799294056E-12  1.55054716106657E-01
 cg2d: Sum(rhs),rhsMax =   6.21375173537331E-12  1.53871433135077E-01
 cg2d: Sum(rhs),rhsMax =   6.24869600507338E-12  1.52443249662258E-01
 cg2d: Sum(rhs),rhsMax =   6.29481189395875E-12  1.50879272551715E-01
 cg2d: Sum(rhs),rhsMax =   6.34618746442328E-12  1.49170934921576E-01
 cg2d: Sum(rhs),rhsMax =   6.41339759077653E-12  1.47336482348490E-01
 cg2d: Sum(rhs),rhsMax =   6.46908915324929E-12  1.45363053013535E-01
 cg2d: Sum(rhs),rhsMax =   6.54042098258145E-12  1.43263151812043E-01
 cg2d: Sum(rhs),rhsMax =   6.62597754441663E-12  1.41093328705262E-01
 cg2d: Sum(rhs),rhsMax =   6.72549516078647E-12  1.38642167756618E-01
 cg2d: Sum(rhs),rhsMax =   6.81921186185264E-12  1.36174756517500E-01
 cg2d: Sum(rhs),rhsMax =   6.93201052115455E-12  1.33594441374422E-01
 cg2d: Sum(rhs),rhsMax =   7.04816760510596E-12  1.30905029135565E-01
 cg2d: Sum(rhs),rhsMax =   7.17906289970927E-12  1.28166018423939E-01
 cg2d: Sum(rhs),rhsMax =   7.31373295259630E-12  1.25308720760633E-01
 cg2d: Sum(rhs),rhsMax =   7.47343853468863E-12  1.22331655663745E-01
 cg2d: Sum(rhs),rhsMax =   7.62589991154528E-12  1.19288820607797E-01
 cg2d: Sum(rhs),rhsMax =   7.80558950808086E-12  1.16175739435565E-01
 cg2d: Sum(rhs),rhsMax =   7.99421639996467E-12  1.13036906363083E-01
 cg2d: Sum(rhs),rhsMax =   8.19128098683564E-12  1.09848264430232E-01
 cg2d: Sum(rhs),rhsMax =   8.40022496007009E-12  1.06713004838694E-01
 cg2d: Sum(rhs),rhsMax =   8.62171445348281E-12  1.03528168166763E-01
 cg2d: Sum(rhs),rhsMax =   8.34496360901937E-12  1.06570533457608E-01
 cg2d: Sum(rhs),rhsMax =   7.98774935084623E-12  1.10781520973114E-01
 cg2d: Sum(rhs),rhsMax =   7.65687513393232E-12  1.14843983164992E-01
 cg2d: Sum(rhs),rhsMax =   7.35347893687788E-12  1.18746687211166E-01
 cg2d: Sum(rhs),rhsMax =   7.09104996943211E-12  1.22459142855135E-01
 cg2d: Sum(rhs),rhsMax =   6.83342271656784E-12  1.26026254508750E-01
 cg2d: Sum(rhs),rhsMax =   6.59883259146454E-12  1.29399718978798E-01
 cg2d: Sum(rhs),rhsMax =   6.39721609019261E-12  1.32562163437757E-01
 cg2d: Sum(rhs),rhsMax =   6.20872797618688E-12  1.35532893365727E-01
 cg2d: Sum(rhs),rhsMax =   5.95018478932730E-12  1.38293592766027E-01
 cg2d: Sum(rhs),rhsMax =   5.70965497104226E-12  1.40919203431643E-01
 cg2d: Sum(rhs),rhsMax =   5.48680545442437E-12  1.43255052815634E-01
 cg2d: Sum(rhs),rhsMax =   5.27841659270223E-12  1.45412292768572E-01
 cg2d: Sum(rhs),rhsMax =   5.07588415743498E-12  1.47361298041972E-01
 cg2d: Sum(rhs),rhsMax =   4.86916063024978E-12  1.49126153915776E-01
 cg2d: Sum(rhs),rhsMax =   4.67581529051131E-12  1.50657167860818E-01
 cg2d: Sum(rhs),rhsMax =   4.47386572233199E-12  1.51967240504769E-01
 cg2d: Sum(rhs),rhsMax =   4.38096781074648E-12  1.53073556965567E-01
 cg2d: Sum(rhs),rhsMax =   4.28831969934151E-12  1.53979925457100E-01
 cg2d: Sum(rhs),rhsMax =   4.19941859064465E-12  1.54652766429384E-01
 cg2d: Sum(rhs),rhsMax =   4.12650469350240E-12  1.55144968796154E-01
 cg2d: Sum(rhs),rhsMax =   4.04493105676806E-12  1.55449787182313E-01
 cg2d: Sum(rhs),rhsMax =   3.96768728982977E-12  1.55518490539786E-01
 cg2d: Sum(rhs),rhsMax =   3.91908727692680E-12  1.55361304926884E-01
 cg2d: Sum(rhs),rhsMax =   3.80903641961083E-12  1.55087270744335E-01
 cg2d: Sum(rhs),rhsMax =   3.76529363244060E-12  1.54610457026045E-01
 cg2d: Sum(rhs),rhsMax =   3.71092045980959E-12  1.53928214576243E-01
 cg2d: Sum(rhs),rhsMax =   3.65515950839779E-12  1.53078571013759E-01
 cg2d: Sum(rhs),rhsMax =   3.60558805034827E-12  1.52063792933542E-01
 cg2d: Sum(rhs),rhsMax =   3.55912521676771E-12  1.50879383186846E-01
 cg2d: Sum(rhs),rhsMax =   3.50999784792805E-12  1.49536631605991E-01
 cg2d: Sum(rhs),rhsMax =   3.46231376902040E-12  1.48048705835999E-01
 cg2d: Sum(rhs),rhsMax =   3.41374151169305E-12  1.46359308238905E-01
 cg2d: Sum(rhs),rhsMax =   3.37208039269399E-12  1.44520052617976E-01
 cg2d: Sum(rhs),rhsMax =   3.31884519866321E-12  1.42557152639730E-01
 cg2d: Sum(rhs),rhsMax =   3.27315952119989E-12  1.40464577646284E-01
 cg2d: Sum(rhs),rhsMax =   3.22725179913164E-12  1.38263815095183E-01
 cg2d: Sum(rhs),rhsMax =   3.20135584708225E-12  1.35902497767573E-01
 cg2d: Sum(rhs),rhsMax =   3.17743054090158E-12  1.33424320569578E-01
 cg2d: Sum(rhs),rhsMax =   3.19941295678916E-12  1.30840902335418E-01
 cg2d: Sum(rhs),rhsMax =   3.23993609718798E-12  1.28163195071114E-01
 cg2d: Sum(rhs),rhsMax =   3.29761218331726E-12  1.25388985497529E-01
 cg2d: Sum(rhs),rhsMax =   3.35179106691896E-12  1.22531388832395E-01
 cg2d: Sum(rhs),rhsMax =   3.43097772415035E-12  1.19586172607853E-01
 cg2d: Sum(rhs),rhsMax =   3.50891538047904E-12  1.16457484289557E-01
 cg2d: Sum(rhs),rhsMax =   3.61610741350660E-12  1.13373848654523E-01
 cg2d: Sum(rhs),rhsMax =   3.70681263461847E-12  1.10111451391502E-01
 cg2d: Sum(rhs),rhsMax =   3.81839004859330E-12  1.06817936521856E-01
 cg2d: Sum(rhs),rhsMax =   3.93440835466663E-12  1.03513428823853E-01
 cg2d: Sum(rhs),rhsMax =   3.90881771394902E-12  1.04136558702337E-01
 cg2d: Sum(rhs),rhsMax =   3.71541686305932E-12  1.08615783225797E-01
 cg2d: Sum(rhs),rhsMax =   3.58058027671859E-12  1.12945174795496E-01
 cg2d: Sum(rhs),rhsMax =   3.42970096767203E-12  1.17086160535174E-01
 cg2d: Sum(rhs),rhsMax =   3.31051852597852E-12  1.21084090205918E-01
 cg2d: Sum(rhs),rhsMax =   3.18917114938699E-12  1.24896443477046E-01
 cg2d: Sum(rhs),rhsMax =   3.07504022245553E-12  1.28522297599812E-01
 cg2d: Sum(rhs),rhsMax =   2.95879987177727E-12  1.31952992961453E-01
 cg2d: Sum(rhs),rhsMax =   2.87264656506636E-12  1.35168240348661E-01
 cg2d: Sum(rhs),rhsMax =   2.77528000580674E-12  1.38173522612971E-01
 cg2d: Sum(rhs),rhsMax =   2.66053845621173E-12  1.40954124775580E-01
 cg2d: Sum(rhs),rhsMax =   2.56994425740231E-12  1.43531098429786E-01
 cg2d: Sum(rhs),rhsMax =   2.47313280965500E-12  1.45899309581609E-01
 cg2d: Sum(rhs),rhsMax =   2.40202302492776E-12  1.48027327930859E-01
 cg2d: Sum(rhs),rhsMax =   2.31420438367991E-12  1.49938769739625E-01
 cg2d: Sum(rhs),rhsMax =   2.22477591904635E-12  1.51637687368439E-01
 cg2d: Sum(rhs),rhsMax =   2.14200879256055E-12  1.53110790658236E-01
 cg2d: Sum(rhs),rhsMax =   2.08555395175836E-12  1.54361910473743E-01
 cg2d: Sum(rhs),rhsMax =   2.01838545876853E-12  1.55398016240063E-01
 cg2d: Sum(rhs),rhsMax =   1.95676808090184E-12  1.56214255600711E-01
 cg2d: Sum(rhs),rhsMax =   1.90614191097893E-12  1.56813561894161E-01
 cg2d: Sum(rhs),rhsMax =   1.87311277599633E-12  1.57203633542849E-01
 cg2d: Sum(rhs),rhsMax =   1.83553172661277E-12  1.57399666902724E-01
 cg2d: Sum(rhs),rhsMax =   1.79978254521984E-12  1.57331490334219E-01
 cg2d: Sum(rhs),rhsMax =   1.78440595632878E-12  1.57102750480284E-01
 cg2d: Sum(rhs),rhsMax =   1.77879933005443E-12  1.56602691647441E-01
 cg2d: Sum(rhs),rhsMax =   1.77990955307905E-12  1.55875894461095E-01
 cg2d: Sum(rhs),rhsMax =   1.77496906061947E-12  1.55027910322021E-01
 cg2d: Sum(rhs),rhsMax =   1.74216197024180E-12  1.53936772215933E-01
 cg2d: Sum(rhs),rhsMax =   1.67327263156380E-12  1.52728231413247E-01
 cg2d: Sum(rhs),rhsMax =   1.60010893424101E-12  1.51239143599012E-01
 cg2d: Sum(rhs),rhsMax =   1.51917367574583E-12  1.49627625745120E-01
 cg2d: Sum(rhs),rhsMax =   1.45367051729295E-12  1.47796088614711E-01
 cg2d: Sum(rhs),rhsMax =   1.39893652217893E-12  1.45791267806932E-01
 cg2d: Sum(rhs),rhsMax =   1.34947608643188E-12  1.43775400157254E-01
 cg2d: Sum(rhs),rhsMax =   1.29352084599077E-12  1.41423977799461E-01
 cg2d: Sum(rhs),rhsMax =   1.24178445304324E-12  1.38944174277490E-01
 cg2d: Sum(rhs),rhsMax =   1.18688392447552E-12  1.36365264737982E-01
 cg2d: Sum(rhs),rhsMax =   1.14652731753040E-12  1.33641491798427E-01
 cg2d: Sum(rhs),rhsMax =   1.10444986489711E-12  1.30802479117806E-01
 cg2d: Sum(rhs),rhsMax =   1.05587760756976E-12  1.27855047298910E-01
 cg2d: Sum(rhs),rhsMax =   1.00242036893405E-12  1.24809167393965E-01
 cg2d: Sum(rhs),rhsMax =   9.50128864474209E-13  1.21654744768876E-01
 cg2d: Sum(rhs),rhsMax =   8.95339358208957E-13  1.18389580549718E-01
 cg2d: Sum(rhs),rhsMax =   8.29891710907305E-13  1.15029436048125E-01
 cg2d: Sum(rhs),rhsMax =   7.54785123291413E-13  1.11577273166938E-01
 cg2d: Sum(rhs),rhsMax =   7.00106639328624E-13  1.08127654387367E-01
 cg2d: Sum(rhs),rhsMax =   6.08180172889661E-13  1.04939422997764E-01
 cg2d: Sum(rhs),rhsMax =   5.11812814352197E-13  1.04901974228109E-01
 cg2d: Sum(rhs),rhsMax =   3.97570865118269E-13  1.09892282085604E-01
 cg2d: Sum(rhs),rhsMax =   2.92155188930110E-13  1.14636086847691E-01
 cg2d: Sum(rhs),rhsMax =   1.76580972066631E-13  1.19271773263490E-01
 cg2d: Sum(rhs),rhsMax =   8.71525074330748E-14  1.23756040957066E-01
 cg2d: Sum(rhs),rhsMax =   2.67008637422350E-14  1.27906405431781E-01
 cg2d: Sum(rhs),rhsMax =  -5.95634652711396E-14  1.31882857268917E-01
 cg2d: Sum(rhs),rhsMax =  -1.11577413974828E-13  1.35736083659312E-01
 cg2d: Sum(rhs),rhsMax =  -1.81410442223751E-13  1.39296840846717E-01
 cg2d: Sum(rhs),rhsMax =  -2.40030217923959E-13  1.42663412044446E-01
 cg2d: Sum(rhs),rhsMax =  -2.91711099720260E-13  1.45793323352814E-01
 cg2d: Sum(rhs),rhsMax =  -3.45501405263349E-13  1.48712340754141E-01
 cg2d: Sum(rhs),rhsMax =  -3.87800902501567E-13  1.51385261997289E-01
 cg2d: Sum(rhs),rhsMax =  -4.26492174909754E-13  1.53815909735809E-01
 cg2d: Sum(rhs),rhsMax =  -4.67847982577041E-13  1.55993069437251E-01
 cg2d: Sum(rhs),rhsMax =  -5.18474152499948E-13  1.57910463448078E-01
 cg2d: Sum(rhs),rhsMax =  -5.70987701564718E-13  1.59582940600622E-01
 cg2d: Sum(rhs),rhsMax =  -6.15341111398493E-13  1.60989191935078E-01
 cg2d: Sum(rhs),rhsMax =  -6.42208508594422E-13  1.62158230268696E-01
 cg2d: Sum(rhs),rhsMax =  -6.85951295764653E-13  1.63058212793140E-01
 cg2d: Sum(rhs),rhsMax =  -7.41240402390986E-13  1.63701666478772E-01
 cg2d: Sum(rhs),rhsMax =  -7.78654918320854E-13  1.64078761991048E-01
 cg2d: Sum(rhs),rhsMax =  -8.13404898991621E-13  1.64233001383255E-01
 cg2d: Sum(rhs),rhsMax =  -8.60866933294346E-13  1.64158220949957E-01
 cg2d: Sum(rhs),rhsMax =  -8.92452778344932E-13  1.63837133236796E-01
 cg2d: Sum(rhs),rhsMax =  -9.33308985651138E-13  1.63286334020977E-01
 cg2d: Sum(rhs),rhsMax =  -9.59343715578598E-13  1.62488031886302E-01
 cg2d: Sum(rhs),rhsMax =  -1.00652819412517E-12  1.61457526668223E-01
 cg2d: Sum(rhs),rhsMax =  -1.02329256179701E-12  1.60343934348168E-01
 cg2d: Sum(rhs),rhsMax =  -1.06586961479138E-12  1.58864994847283E-01
 cg2d: Sum(rhs),rhsMax =  -1.11316511564041E-12  1.57188634896369E-01
 cg2d: Sum(rhs),rhsMax =  -1.15463194561016E-12  1.55329233178010E-01
 cg2d: Sum(rhs),rhsMax =  -1.20498055977691E-12  1.53300815934990E-01
 cg2d: Sum(rhs),rhsMax =  -1.24206200879939E-12  1.51020055486330E-01
 cg2d: Sum(rhs),rhsMax =  -1.27975408048542E-12  1.48569802372488E-01
 cg2d: Sum(rhs),rhsMax =  -1.32321931189949E-12  1.45995391177605E-01
 cg2d: Sum(rhs),rhsMax =  -1.35080835406143E-12  1.43202649004374E-01
 cg2d: Sum(rhs),rhsMax =  -1.39571687540752E-12  1.40353795624912E-01
 cg2d: Sum(rhs),rhsMax =  -1.44934064749691E-12  1.37298134152573E-01
 cg2d: Sum(rhs),rhsMax =  -1.50135459620060E-12  1.34060184528863E-01
 cg2d: Sum(rhs),rhsMax =  -1.54853907474717E-12  1.30786779828292E-01
 cg2d: Sum(rhs),rhsMax =  -1.62325708430444E-12  1.27388781167574E-01
 cg2d: Sum(rhs),rhsMax =  -1.68032254777017E-12  1.23791637892300E-01
 cg2d: Sum(rhs),rhsMax =  -1.76891834513526E-12  1.20067122386450E-01
 cg2d: Sum(rhs),rhsMax =  -1.83697501654478E-12  1.16233126761137E-01
 cg2d: Sum(rhs),rhsMax =  -1.95177207729103E-12  1.12289142826621E-01
 cg2d: Sum(rhs),rhsMax =  -2.02637906454584E-12  1.08369905918046E-01
 cg2d: Sum(rhs),rhsMax =  -2.03470573723052E-12  1.08101900029418E-01
 cg2d: Sum(rhs),rhsMax =  -2.02404759619412E-12  1.09757866939316E-01
 cg2d: Sum(rhs),rhsMax =  -1.93922655711276E-12  1.14961759383965E-01
 cg2d: Sum(rhs),rhsMax =  -1.85540471875356E-12  1.19994925713742E-01
 cg2d: Sum(rhs),rhsMax =  -1.77524661637563E-12  1.24817157758072E-01
 cg2d: Sum(rhs),rhsMax =  -1.71418435002124E-12  1.29412336288318E-01
 cg2d: Sum(rhs),rhsMax =  -1.65778502037028E-12  1.33865632028426E-01
 cg2d: Sum(rhs),rhsMax =  -1.60149671302179E-12  1.38078248977299E-01
 cg2d: Sum(rhs),rhsMax =  -1.57573953885048E-12  1.42066257895332E-01
 cg2d: Sum(rhs),rhsMax =  -1.53071999520193E-12  1.45823648841501E-01
 cg2d: Sum(rhs),rhsMax =  -1.50918166852421E-12  1.49301919412638E-01
 cg2d: Sum(rhs),rhsMax =  -1.49608103683363E-12  1.52539557871560E-01
 cg2d: Sum(rhs),rhsMax =  -1.45017331476538E-12  1.55558145797836E-01
 cg2d: Sum(rhs),rhsMax =  -1.42896805499504E-12  1.58290342746878E-01
 cg2d: Sum(rhs),rhsMax =  -1.42158507188128E-12  1.60738712057192E-01
 cg2d: Sum(rhs),rhsMax =  -1.38722366926913E-12  1.62941230674431E-01
 cg2d: Sum(rhs),rhsMax =  -1.38133948723862E-12  1.64863418314463E-01
 cg2d: Sum(rhs),rhsMax =  -1.38300482177556E-12  1.66491280807177E-01
 cg2d: Sum(rhs),rhsMax =  -1.37667655053519E-12  1.67863845411429E-01
 cg2d: Sum(rhs),rhsMax =  -1.36557432028894E-12  1.68999879898469E-01
 cg2d: Sum(rhs),rhsMax =  -1.36618494295249E-12  1.69861891392254E-01
 cg2d: Sum(rhs),rhsMax =  -1.36096689473675E-12  1.70453637550847E-01
 cg2d: Sum(rhs),rhsMax =  -1.38128397608739E-12  1.70790955602352E-01
 cg2d: Sum(rhs),rhsMax =  -1.38744571387406E-12  1.70862562225121E-01
 cg2d: Sum(rhs),rhsMax =  -1.40870648479563E-12  1.70673637441091E-01
 cg2d: Sum(rhs),rhsMax =  -1.42907907729750E-12  1.70240180674911E-01
 cg2d: Sum(rhs),rhsMax =  -1.46227474573379E-12  1.69561706827375E-01
 cg2d: Sum(rhs),rhsMax =  -1.49902312784889E-12  1.68634651846592E-01
 cg2d: Sum(rhs),rhsMax =  -1.54326551538020E-12  1.67474341478718E-01
 cg2d: Sum(rhs),rhsMax =  -1.58600910182827E-12  1.66634624102365E-01
 cg2d: Sum(rhs),rhsMax =  -1.63724589441472E-12  1.64992764164061E-01
 cg2d: Sum(rhs),rhsMax =  -1.70224945250652E-12  1.63062485532966E-01
 cg2d: Sum(rhs),rhsMax =  -1.76347825231460E-12  1.60936331156562E-01
 cg2d: Sum(rhs),rhsMax =  -1.81504811180844E-12  1.58601010453224E-01
 cg2d: Sum(rhs),rhsMax =  -1.86595183748750E-12  1.56037343620806E-01
 cg2d: Sum(rhs),rhsMax =  -1.94799731900730E-12  1.53304990067359E-01
 cg2d: Sum(rhs),rhsMax =  -2.01882954797838E-12  1.50397234884057E-01
 cg2d: Sum(rhs),rhsMax =  -2.11142214823212E-12  1.47313658813029E-01
 cg2d: Sum(rhs),rhsMax =  -2.21239693232178E-12  1.44004920083412E-01
 cg2d: Sum(rhs),rhsMax =  -2.32014407686165E-12  1.40651975356880E-01
 cg2d: Sum(rhs),rhsMax =  -2.44454456677090E-12  1.37126526804487E-01
 cg2d: Sum(rhs),rhsMax =  -2.58271182218550E-12  1.33523708890962E-01
 cg2d: Sum(rhs),rhsMax =  -2.72482036933752E-12  1.29736490795610E-01
 cg2d: Sum(rhs),rhsMax =  -2.90334423169725E-12  1.25911031002243E-01
 cg2d: Sum(rhs),rhsMax =  -3.07676106814370E-12  1.21969860372622E-01
 cg2d: Sum(rhs),rhsMax =  -3.24795745854090E-12  1.17975172945812E-01
 cg2d: Sum(rhs),rhsMax =  -3.48432394048359E-12  1.13800989511612E-01
 cg2d: Sum(rhs),rhsMax =  -3.70325992093967E-12  1.09684750706809E-01
 cg2d: Sum(rhs),rhsMax =  -3.84281495513505E-12  1.08996230202389E-01
 cg2d: Sum(rhs),rhsMax =  -3.94406729498087E-12  1.08915344997262E-01
 cg2d: Sum(rhs),rhsMax =  -3.97748500802209E-12  1.08673530273393E-01
 cg2d: Sum(rhs),rhsMax =  -3.85169673933206E-12  1.13275842217022E-01
 cg2d: Sum(rhs),rhsMax =  -3.71458419579085E-12  1.18158967827320E-01
 cg2d: Sum(rhs),rhsMax =  -3.66195962442362E-12  1.22898882912963E-01
 cg2d: Sum(rhs),rhsMax =  -3.60644847319236E-12  1.27428419265804E-01
 cg2d: Sum(rhs),rhsMax =  -3.55271367880050E-12  1.31816890093410E-01
 cg2d: Sum(rhs),rhsMax =  -3.52901041722475E-12  1.36011721754956E-01
 cg2d: Sum(rhs),rhsMax =  -3.50869333587411E-12  1.39999165308761E-01
 cg2d: Sum(rhs),rhsMax =  -3.47416539980827E-12  1.43750169224419E-01
 cg2d: Sum(rhs),rhsMax =  -3.46112027926893E-12  1.47279508387394E-01
 cg2d: Sum(rhs),rhsMax =  -3.44763106951973E-12  1.50619073982676E-01
 cg2d: Sum(rhs),rhsMax =  -3.43836070726411E-12  1.53744990195990E-01
 cg2d: Sum(rhs),rhsMax =  -3.42142980613858E-12  1.56664399662329E-01
 cg2d: Sum(rhs),rhsMax =  -3.43836070726411E-12  1.59329036024587E-01
 cg2d: Sum(rhs),rhsMax =  -3.43819417381042E-12  1.61761332148578E-01
 cg2d: Sum(rhs),rhsMax =  -3.44535511231925E-12  1.63994697403050E-01
 cg2d: Sum(rhs),rhsMax =  -3.47849526960431E-12  1.65893700365371E-01
 cg2d: Sum(rhs),rhsMax =  -3.48643336423038E-12  1.67535700296430E-01
 cg2d: Sum(rhs),rhsMax =  -3.51707551971003E-12  1.68920638081394E-01
 cg2d: Sum(rhs),rhsMax =  -3.57108786985805E-12  1.70097692236601E-01
 cg2d: Sum(rhs),rhsMax =  -3.59079432854514E-12  1.71025304540723E-01
 cg2d: Sum(rhs),rhsMax =  -3.64297481070253E-12  1.71653193904850E-01
 cg2d: Sum(rhs),rhsMax =  -3.69876351768994E-12  1.72073154874887E-01
 cg2d: Sum(rhs),rhsMax =  -3.76759734521670E-12  1.72253316928101E-01
 cg2d: Sum(rhs),rhsMax =  -3.85236287314683E-12  1.72217551202233E-01
 cg2d: Sum(rhs),rhsMax =  -3.90404375494313E-12  1.71961761366148E-01
 cg2d: Sum(rhs),rhsMax =  -3.99802413397765E-12  1.71503763527646E-01
 cg2d: Sum(rhs),rhsMax =  -4.07901490362406E-12  1.70839153039211E-01
 cg2d: Sum(rhs),rhsMax =  -4.17377243877581E-12  1.69970283363941E-01
 cg2d: Sum(rhs),rhsMax =  -4.29412061464518E-12  1.68921064032096E-01
 cg2d: Sum(rhs),rhsMax =  -4.39759340054025E-12  1.67686894473584E-01
 cg2d: Sum(rhs),rhsMax =  -4.50778303573429E-12  1.66269761079155E-01
 cg2d: Sum(rhs),rhsMax =  -4.61652938099633E-12  1.64687963336288E-01
 cg2d: Sum(rhs),rhsMax =  -4.74309480580359E-12  1.62947215924947E-01
 cg2d: Sum(rhs),rhsMax =  -4.88314944036006E-12  1.61046065856742E-01
 cg2d: Sum(rhs),rhsMax =  -5.03075359148397E-12  1.59008014422406E-01
 cg2d: Sum(rhs),rhsMax =  -5.17541565159263E-12  1.56815661841360E-01
 cg2d: Sum(rhs),rhsMax =  -5.33301180993817E-12  1.54499205598558E-01
 cg2d: Sum(rhs),rhsMax =  -5.44558842463516E-12  1.52055473999358E-01
 cg2d: Sum(rhs),rhsMax =  -5.58297852393252E-12  1.49487515522293E-01
 cg2d: Sum(rhs),rhsMax =  -5.69699842856153E-12  1.46838130025476E-01
 cg2d: Sum(rhs),rhsMax =  -5.84421400162682E-12  1.44107024896974E-01
 cg2d: Sum(rhs),rhsMax =  -5.99748029017633E-12  1.40975531790842E-01
 cg2d: Sum(rhs),rhsMax =  -6.15774098378097E-12  1.38004489901816E-01
 cg2d: Sum(rhs),rhsMax =  -6.32943697453925E-12  1.35017596718035E-01
 cg2d: Sum(rhs),rhsMax =  -6.51406706353441E-12  1.31913023775299E-01
 cg2d: Sum(rhs),rhsMax =  -6.71268596263985E-12  1.28741075150817E-01
 cg2d: Sum(rhs),rhsMax =  -6.89726054048379E-12  1.25514641103432E-01
 cg2d: Sum(rhs),rhsMax =  -7.12868652996690E-12  1.22234058641130E-01
 cg2d: Sum(rhs),rhsMax =  -7.36294358816281E-12  1.18893379510651E-01
 cg2d: Sum(rhs),rhsMax =  -7.62057084102707E-12  1.15540812723503E-01
 cg2d: Sum(rhs),rhsMax =  -7.87891973885735E-12  1.12179962181588E-01
 cg2d: Sum(rhs),rhsMax =  -8.04573074830728E-12  1.10185618182355E-01
 cg2d: Sum(rhs),rhsMax =  -8.09341482721493E-12  1.10111904692790E-01
 cg2d: Sum(rhs),rhsMax =  -7.89923682020799E-12  1.13328634241726E-01
 cg2d: Sum(rhs),rhsMax =  -7.63045182594624E-12  1.18104259611679E-01
 cg2d: Sum(rhs),rhsMax =  -7.36227745434803E-12  1.22757093540036E-01
 cg2d: Sum(rhs),rhsMax =  -7.14672765411706E-12  1.27289167142300E-01
 cg2d: Sum(rhs),rhsMax =  -6.91707802147334E-12  1.31674584287909E-01
 cg2d: Sum(rhs),rhsMax =  -6.73566757924959E-12  1.35895427447401E-01
 cg2d: Sum(rhs),rhsMax =  -6.59150511950202E-12  1.39955204633466E-01
 cg2d: Sum(rhs),rhsMax =  -6.48786580015326E-12  1.43862802199244E-01
 cg2d: Sum(rhs),rhsMax =  -6.36940500342575E-12  1.47573444273187E-01
 cg2d: Sum(rhs),rhsMax =  -6.27375928985430E-12  1.51136355136994E-01
 cg2d: Sum(rhs),rhsMax =  -6.15851813989821E-12  1.54551255251000E-01
 cg2d: Sum(rhs),rhsMax =  -6.06381611589768E-12  1.57777537685276E-01
 cg2d: Sum(rhs),rhsMax =  -5.95851146201198E-12  1.60825271475213E-01
 cg2d: Sum(rhs),rhsMax =  -5.84954307214502E-12  1.63671603295824E-01
 cg2d: Sum(rhs),rhsMax =  -5.77793368705670E-12  1.66359142560704E-01
 cg2d: Sum(rhs),rhsMax =  -5.69683189510783E-12  1.68859135052657E-01
 cg2d: Sum(rhs),rhsMax =  -5.62089264022347E-12  1.71161264257621E-01
 cg2d: Sum(rhs),rhsMax =  -5.58023072194658E-12  1.73300013714566E-01
 cg2d: Sum(rhs),rhsMax =  -5.51086953848312E-12  1.75191954780962E-01
 cg2d: Sum(rhs),rhsMax =  -5.46304668169739E-12  1.76945263818775E-01
 cg2d: Sum(rhs),rhsMax =  -5.44694844784033E-12  1.78463528551085E-01
 cg2d: Sum(rhs),rhsMax =  -5.43112776973942E-12  1.79733480849549E-01
 cg2d: Sum(rhs),rhsMax =  -5.42579869922122E-12  1.80802297490685E-01
 cg2d: Sum(rhs),rhsMax =  -5.41239275619887E-12  1.81702425830064E-01
 cg2d: Sum(rhs),rhsMax =  -5.43340372693990E-12  1.82404956437949E-01
 cg2d: Sum(rhs),rhsMax =  -5.43634581795516E-12  1.82913491025418E-01
 cg2d: Sum(rhs),rhsMax =  -5.47500933478773E-12  1.83211787722657E-01
 cg2d: Sum(rhs),rhsMax =  -5.50653966868708E-12  1.83328006803624E-01
 cg2d: Sum(rhs),rhsMax =  -5.54659096430044E-12  1.83360214626993E-01
 cg2d: Sum(rhs),rhsMax =  -5.58961210650466E-12  1.83143850981930E-01
 cg2d: Sum(rhs),rhsMax =  -5.65100743976643E-12  1.82712396745008E-01
 cg2d: Sum(rhs),rhsMax =  -5.72722425040695E-12  1.82136509421807E-01
 cg2d: Sum(rhs),rhsMax =  -5.79047920723497E-12  1.81422229773431E-01
 cg2d: Sum(rhs),rhsMax =  -5.87307980026708E-12  1.80529613771681E-01
 cg2d: Sum(rhs),rhsMax =  -5.96897531401908E-12  1.79496275925363E-01
 cg2d: Sum(rhs),rhsMax =  -6.05857031210633E-12  1.78232402199629E-01
 cg2d: Sum(rhs),rhsMax =  -6.16082185267430E-12  1.76879207846360E-01
 cg2d: Sum(rhs),rhsMax =  -6.26765306321886E-12  1.75427076598325E-01
 cg2d: Sum(rhs),rhsMax =  -6.39091557452787E-12  1.73770567782734E-01
 cg2d: Sum(rhs),rhsMax =  -6.50865472628936E-12  1.72016881270332E-01
 cg2d: Sum(rhs),rhsMax =  -6.63119559263237E-12  1.70241915599096E-01
 cg2d: Sum(rhs),rhsMax =  -6.76281253220168E-12  1.68317897491648E-01
 cg2d: Sum(rhs),rhsMax =  -6.90389412305592E-12  1.66147886666351E-01
 cg2d: Sum(rhs),rhsMax =  -7.05396852040963E-12  1.63877817878220E-01
 cg2d: Sum(rhs),rhsMax =  -7.20143389365546E-12  1.61490280064120E-01
 cg2d: Sum(rhs),rhsMax =  -7.36777305831993E-12  1.58999482552399E-01
 cg2d: Sum(rhs),rhsMax =  -7.52556350569478E-12  1.56360367105121E-01
 cg2d: Sum(rhs),rhsMax =  -7.69495578367696E-12  1.53612446852063E-01
 cg2d: Sum(rhs),rhsMax =  -7.88691334463465E-12  1.50763401084877E-01
 cg2d: Sum(rhs),rhsMax =  -8.08988986911174E-12  1.47858610352018E-01
 cg2d: Sum(rhs),rhsMax =  -8.31837376757960E-12  1.44802778869430E-01
 cg2d: Sum(rhs),rhsMax =  -8.55582271697131E-12  1.41686317857379E-01
 cg2d: Sum(rhs),rhsMax =  -8.81034134536662E-12  1.38533786403737E-01
 cg2d: Sum(rhs),rhsMax =  -9.07041108888507E-12  1.35350795399727E-01
 cg2d: Sum(rhs),rhsMax =  -9.36006827600977E-12  1.31943917123290E-01
 cg2d: Sum(rhs),rhsMax =  -9.68200519757545E-12  1.28527811892853E-01
 cg2d: Sum(rhs),rhsMax =  -9.72910640939517E-12  1.28231690017993E-01
 cg2d: Sum(rhs),rhsMax =  -9.40214572864306E-12  1.33408980778616E-01
 cg2d: Sum(rhs),rhsMax =  -9.12661612950671E-12  1.38423262909096E-01
 cg2d: Sum(rhs),rhsMax =  -8.85802542427427E-12  1.43273126238082E-01
 cg2d: Sum(rhs),rhsMax =  -8.62948601465519E-12  1.47958076026273E-01
 cg2d: Sum(rhs),rhsMax =  -8.42773073550518E-12  1.52421679298322E-01
 cg2d: Sum(rhs),rhsMax =  -8.22278356515938E-12  1.56768206368309E-01
 cg2d: Sum(rhs),rhsMax =  -8.02224953133646E-12  1.60863519701684E-01
 cg2d: Sum(rhs),rhsMax =  -7.83217934952063E-12  1.64820046243454E-01
 cg2d: Sum(rhs),rhsMax =  -7.64582841483730E-12  1.68576814085823E-01
 cg2d: Sum(rhs),rhsMax =  -7.48920370163830E-12  1.72100183900063E-01
 cg2d: Sum(rhs),rhsMax =  -7.35561611620028E-12  1.75360111392358E-01
 cg2d: Sum(rhs),rhsMax =  -7.20593029690519E-12  1.78409132530148E-01
 cg2d: Sum(rhs),rhsMax =  -7.07406355715534E-12  1.81234572024680E-01
 cg2d: Sum(rhs),rhsMax =  -6.95379864801282E-12  1.83815286007338E-01
 cg2d: Sum(rhs),rhsMax =  -6.85573819936280E-12  1.86192727248738E-01
 cg2d: Sum(rhs),rhsMax =  -6.77460865183832E-12  1.88337759671769E-01
 cg2d: Sum(rhs),rhsMax =  -6.72095712417331E-12  1.90216154124193E-01
 cg2d: Sum(rhs),rhsMax =  -6.68290423000428E-12  1.91846621609147E-01
 cg2d: Sum(rhs),rhsMax =  -6.65534294341796E-12  1.93243270578938E-01
 cg2d: Sum(rhs),rhsMax =  -6.63744059714588E-12  1.94364484918448E-01
 cg2d: Sum(rhs),rhsMax =  -6.63324950522792E-12  1.95254120262527E-01
 cg2d: Sum(rhs),rhsMax =  -6.62345178703561E-12  1.95942250191094E-01
 cg2d: Sum(rhs),rhsMax =  -6.63655241872618E-12  1.96351448603163E-01
 cg2d: Sum(rhs),rhsMax =  -6.65484334305688E-12  1.96498010669841E-01
 cg2d: Sum(rhs),rhsMax =  -6.67774169293978E-12  1.96406536429795E-01
 cg2d: Sum(rhs),rhsMax =  -6.72650823929644E-12  1.96108515836210E-01
 cg2d: Sum(rhs),rhsMax =  -6.78740397219713E-12  1.95590023246311E-01
 cg2d: Sum(rhs),rhsMax =  -6.84832746067343E-12  1.94848390602367E-01
 cg2d: Sum(rhs),rhsMax =  -6.92862434092945E-12  1.93889563480630E-01
 cg2d: Sum(rhs),rhsMax =  -7.00761670913153E-12  1.92735506647338E-01
 cg2d: Sum(rhs),rhsMax =  -7.09859948599956E-12  1.91357770300032E-01
 cg2d: Sum(rhs),rhsMax =  -7.20618009708573E-12  1.89787488197716E-01
 cg2d: Sum(rhs),rhsMax =  -7.32242044776399E-12  1.87976800518922E-01
 cg2d: Sum(rhs),rhsMax =  -7.45178918570844E-12  1.85991452214953E-01
 cg2d: Sum(rhs),rhsMax =  -7.59478591128016E-12  1.83873070896264E-01
 cg2d: Sum(rhs),rhsMax =  -7.72887309707926E-12  1.81543472128301E-01
 cg2d: Sum(rhs),rhsMax =  -7.79493136704446E-12  1.79067531941229E-01
 cg2d: Sum(rhs),rhsMax =  -7.86801179764041E-12  1.76450597222016E-01
 cg2d: Sum(rhs),rhsMax =  -7.97065191626700E-12  1.73680135172072E-01
 cg2d: Sum(rhs),rhsMax =  -8.10487787994418E-12  1.70731258587294E-01
 cg2d: Sum(rhs),rhsMax =  -8.26666513020768E-12  1.67586431393176E-01
 cg2d: Sum(rhs),rhsMax =  -8.44296854651816E-12  1.64335630396045E-01
 cg2d: Sum(rhs),rhsMax =  -8.64019966684282E-12  1.60980536143181E-01
 cg2d: Sum(rhs),rhsMax =  -8.84697870517925E-12  1.57474442459231E-01
 cg2d: Sum(rhs),rhsMax =  -9.07546260364711E-12  1.53805437005816E-01
 cg2d: Sum(rhs),rhsMax =  -9.32001698039642E-12  1.50011396335532E-01
 cg2d: Sum(rhs),rhsMax =  -9.60703738783764E-12  1.46103916776268E-01
 cg2d: Sum(rhs),rhsMax =  -9.91862147969869E-12  1.42010927052827E-01
 cg2d: Sum(rhs),rhsMax =  -1.02272634805445E-11  1.37904212439118E-01
 cg2d: Sum(rhs),rhsMax =  -1.05758735102768E-11  1.33690355041893E-01
 cg2d: Sum(rhs),rhsMax =  -1.09468822895309E-11  1.29416406858222E-01
 cg2d: Sum(rhs),rhsMax =  -1.09574849194161E-11  1.29472550088958E-01
 cg2d: Sum(rhs),rhsMax =  -1.05701281061243E-11  1.34572883591008E-01
 cg2d: Sum(rhs),rhsMax =  -1.02275410363006E-11  1.39486126021474E-01
 cg2d: Sum(rhs),rhsMax =  -9.90352244656378E-12  1.44209907509635E-01
 cg2d: Sum(rhs),rhsMax =  -9.58630397285276E-12  1.48867146831313E-01
 cg2d: Sum(rhs),rhsMax =  -9.30513999186644E-12  1.53121966189231E-01
 cg2d: Sum(rhs),rhsMax =  -8.97187879544958E-12  1.57343014379159E-01
 cg2d: Sum(rhs),rhsMax =  -8.71416827585847E-12  1.61301808822061E-01
 cg2d: Sum(rhs),rhsMax =  -8.48007775111626E-12  1.64964783511294E-01
 cg2d: Sum(rhs),rhsMax =  -8.20216117247696E-12  1.68387710554424E-01
 cg2d: Sum(rhs),rhsMax =  -8.03537791860265E-12  1.71494723463841E-01
 cg2d: Sum(rhs),rhsMax =  -7.87794829371080E-12  1.74375565449712E-01
 cg2d: Sum(rhs),rhsMax =  -7.77244935079580E-12  1.77118005621562E-01
 cg2d: Sum(rhs),rhsMax =  -7.65393304291706E-12  1.79814601054363E-01
 cg2d: Sum(rhs),rhsMax =  -7.57033324916279E-12  1.81945253980707E-01
 cg2d: Sum(rhs),rhsMax =  -7.48984207987746E-12  1.83932588113650E-01
 cg2d: Sum(rhs),rhsMax =  -7.39883154743382E-12  1.85653719620674E-01
 cg2d: Sum(rhs),rhsMax =  -7.33571536848387E-12  1.87113956355294E-01
 cg2d: Sum(rhs),rhsMax =  -7.20296045031432E-12  1.88385881481392E-01
 cg2d: Sum(rhs),rhsMax =  -7.09168834767127E-12  1.89290035749577E-01
 cg2d: Sum(rhs),rhsMax =  -6.98147095690160E-12  1.90213483226048E-01
 cg2d: Sum(rhs),rhsMax =  -6.98724411662965E-12  1.90680136786398E-01
 cg2d: Sum(rhs),rhsMax =  -6.97028545992850E-12  1.90847488711571E-01
(PID.TID 0000.0001)      cg2d_init_res =   4.39840856753519E-02
(PID.TID 0000.0001)      cg2d_iters(min,last) =      -1      29
(PID.TID 0000.0001)      cg2d_last_res =   3.36239862655964E-14
(PID.TID 0000.0001) // =======================================================
(PID.TID 0000.0001) // Begin MONITOR dynamic field statistics
(PID.TID 0000.0001) // =======================================================
(PID.TID 0000.0001) %MON time_tsnumber                =                  1440
(PID.TID 0000.0001) %MON time_secondsf                =   2.1600000000000E+04
(PID.TID 0000.0001) %MON dynstat_eta_max              =   4.5222635860543E-03
(PID.TID 0000.0001) %MON dynstat_eta_min              =  -1.5068770585382E-02
(PID.TID 0000.0001) %MON dynstat_eta_mean             =   1.5333206154429E-15
(PID.TID 0000.0001) %MON dynstat_eta_sd               =   3.4070283136161E-03
(PID.TID 0000.0001) %MON dynstat_eta_del2             =   1.0360157878335E-04
(PID.TID 0000.0001) %MON dynstat_uvel_max             =   9.9363852989463E-01
(PID.TID 0000.0001) %MON dynstat_uvel_min             =  -4.3375844572764E-01
(PID.TID 0000.0001) %MON dynstat_uvel_mean            =   2.3852719048513E-04
(PID.TID 0000.0001) %MON dynstat_uvel_sd              =   4.8764487823296E-02
(PID.TID 0000.0001) %MON dynstat_uvel_del2            =   3.1860529303064E-04
(PID.TID 0000.0001) %MON dynstat_vvel_max             =   0.0000000000000E+00
(PID.TID 0000.0001) %MON dynstat_vvel_min             =   0.0000000000000E+00
(PID.TID 0000.0001) %MON dynstat_vvel_mean            =   0.0000000000000E+00
(PID.TID 0000.0001) %MON dynstat_vvel_sd              =   0.0000000000000E+00
(PID.TID 0000.0001) %MON dynstat_vvel_del2            =   0.0000000000000E+00
(PID.TID 0000.0001) %MON dynstat_wvel_max             =   6.1394835499316E-02
(PID.TID 0000.0001) %MON dynstat_wvel_min             =  -1.8935943199438E-02
(PID.TID 0000.0001) %MON dynstat_wvel_mean            =  -1.8329021857151E-20
(PID.TID 0000.0001) %MON dynstat_wvel_sd              =   2.0871575202140E-03
(PID.TID 0000.0001) %MON dynstat_wvel_del2            =   4.4038129144964E-05
(PID.TID 0000.0001) %MON dynstat_theta_max            =   1.5000000000302E+01
(PID.TID 0000.0001) %MON dynstat_theta_min            =   9.9999999999964E+00
(PID.TID 0000.0001) %MON dynstat_theta_mean           =   1.3087512974252E+01
(PID.TID 0000.0001) %MON dynstat_theta_sd             =   2.3920345722268E+00
(PID.TID 0000.0001) %MON dynstat_theta_del2           =   1.1913378862660E-03
(PID.TID 0000.0001) %MON dynstat_salt_max             =   3.5000000000000E+01
(PID.TID 0000.0001) %MON dynstat_salt_min             =   3.5000000000000E+01
(PID.TID 0000.0001) %MON dynstat_salt_mean            =   3.5000000000000E+01
(PID.TID 0000.0001) %MON dynstat_salt_sd              =   7.1054273576010E-15
(PID.TID 0000.0001) %MON dynstat_salt_del2            =   0.0000000000000E+00
(PID.TID 0000.0001) %MON dynstat_sst_max              =   1.5000000000003E+01
(PID.TID 0000.0001) %MON dynstat_sst_min              =   1.4999999999999E+01
(PID.TID 0000.0001) %MON dynstat_sst_mean             =   1.5000000000001E+01
(PID.TID 0000.0001) %MON dynstat_sst_sd               =   1.0781735100545E-12
(PID.TID 0000.0001) %MON dynstat_sst_del2             =   6.0789252596550E-14
(PID.TID 0000.0001) %MON dynstat_sss_max              =   3.5000000000000E+01
(PID.TID 0000.0001) %MON dynstat_sss_min              =   3.5000000000000E+01
(PID.TID 0000.0001) %MON dynstat_sss_mean             =   3.5000000000000E+01
(PID.TID 0000.0001) %MON dynstat_sss_sd               =   0.0000000000000E+00
(PID.TID 0000.0001) %MON dynstat_sss_del2             =   0.0000000000000E+00
(PID.TID 0000.0001) %MON forcing_qnet_max             =   0.0000000000000E+00
(PID.TID 0000.0001) %MON forcing_qnet_min             =   0.0000000000000E+00
(PID.TID 0000.0001) %MON forcing_qnet_mean            =   0.0000000000000E+00
(PID.TID 0000.0001) %MON forcing_qnet_sd              =   0.0000000000000E+00
(PID.TID 0000.0001) %MON forcing_qnet_del2            =   0.0000000000000E+00
(PID.TID 0000.0001) %MON forcing_qsw_max              =   0.0000000000000E+00
(PID.TID 0000.0001) %MON forcing_qsw_min              =   0.0000000000000E+00
(PID.TID 0000.0001) %MON forcing_qsw_mean             =   0.0000000000000E+00
(PID.TID 0000.0001) %MON forcing_qsw_sd               =   0.0000000000000E+00
(PID.TID 0000.0001) %MON forcing_qsw_del2             =   0.0000000000000E+00
(PID.TID 0000.0001) %MON forcing_empmr_max            =   0.0000000000000E+00
(PID.TID 0000.0001) %MON forcing_empmr_min            =   0.0000000000000E+00
(PID.TID 0000.0001) %MON forcing_empmr_mean           =   0.0000000000000E+00
(PID.TID 0000.0001) %MON forcing_empmr_sd             =   0.0000000000000E+00
(PID.TID 0000.0001) %MON forcing_empmr_del2           =   0.0000000000000E+00
(PID.TID 0000.0001) %MON forcing_fu_max               =   0.0000000000000E+00
(PID.TID 0000.0001) %MON forcing_fu_min               =   0.0000000000000E+00
(PID.TID 0000.0001) %MON forcing_fu_mean              =   0.0000000000000E+00
(PID.TID 0000.0001) %MON forcing_fu_sd                =   0.0000000000000E+00
(PID.TID 0000.0001) %MON forcing_fu_del2              =   0.0000000000000E+00
(PID.TID 0000.0001) %MON forcing_fv_max               =   0.0000000000000E+00
(PID.TID 0000.0001) %MON forcing_fv_min               =   0.0000000000000E+00
(PID.TID 0000.0001) %MON forcing_fv_mean              =   0.0000000000000E+00
(PID.TID 0000.0001) %MON forcing_fv_sd                =   0.0000000000000E+00
(PID.TID 0000.0001) %MON forcing_fv_del2              =   0.0000000000000E+00
(PID.TID 0000.0001) %MON advcfl_uvel_max              =   7.0955901720515E-02
(PID.TID 0000.0001) %MON advcfl_vvel_max              =   0.0000000000000E+00
(PID.TID 0000.0001) %MON advcfl_wvel_max              =   3.4213211967258E-01
(PID.TID 0000.0001) %MON advcfl_W_hf_max              =   3.4634477015916E-01
(PID.TID 0000.0001) %MON pe_b_mean                    =   3.2586131175820E-07
(PID.TID 0000.0001) %MON ke_max                       =   3.7560016161851E-01
(PID.TID 0000.0001) %MON ke_mean                      =   1.2021777951358E-03
(PID.TID 0000.0001) %MON ke_vol                       =   8.5336562999261E+10
(PID.TID 0000.0001) %MON vort_r_min                   =   0.0000000000000E+00
(PID.TID 0000.0001) %MON vort_r_max                   =   0.0000000000000E+00
(PID.TID 0000.0001) %MON vort_a_mean                  =   0.0000000000000E+00
(PID.TID 0000.0001) %MON vort_a_sd                    =   0.0000000000000E+00
(PID.TID 0000.0001) %MON vort_p_mean                  =   0.0000000000000E+00
(PID.TID 0000.0001) %MON vort_p_sd                    =   0.0000000000000E+00
(PID.TID 0000.0001) %MON surfExpan_theta_mean         =  -1.5740696941213E-18
(PID.TID 0000.0001) %MON surfExpan_salt_mean          =  -1.3008523029460E-18
(PID.TID 0000.0001) // =======================================================
(PID.TID 0000.0001) // End MONITOR dynamic field statistics
(PID.TID 0000.0001) // =======================================================
(PID.TID 0000.0001) // =======================================================
(PID.TID 0000.0001) // Begin OBCS MONITOR field statistics
(PID.TID 0000.0001) // =======================================================
(PID.TID 0000.0001) %MON obc_E_uVel_max               =   0.0000000000000E+00
(PID.TID 0000.0001) %MON obc_E_uVel_min               =   0.0000000000000E+00
(PID.TID 0000.0001) %MON obc_E_uVel_mean              =   0.0000000000000E+00
(PID.TID 0000.0001) %MON obc_E_uVel_sd                =   0.0000000000000E+00
(PID.TID 0000.0001) %MON obc_E_uVel_Int               =   0.0000000000000E+00
(PID.TID 0000.0001) %MON obc_W_uVel_max               =   0.0000000000000E+00
(PID.TID 0000.0001) %MON obc_W_uVel_min               =   0.0000000000000E+00
(PID.TID 0000.0001) %MON obc_W_uVel_mean              =   0.0000000000000E+00
(PID.TID 0000.0001) %MON obc_W_uVel_sd                =   0.0000000000000E+00
(PID.TID 0000.0001) %MON obc_W_uVel_Int               =   0.0000000000000E+00
(PID.TID 0000.0001) // =======================================================
(PID.TID 0000.0001) // End OBCS MONITOR field statistics
(PID.TID 0000.0001) // =======================================================
(PID.TID 0000.0001) %CHECKPOINT      1440 0000001440
 cg2d: Sum(rhs),rhsMax =  -6.95368762571036E-12  1.90742157925642E-01
 cg2d: Sum(rhs),rhsMax =  -6.91652290996103E-12  1.91472115532990E-01
 cg2d: Sum(rhs),rhsMax =  -6.97175650543613E-12  1.90201613900541E-01
 cg2d: Sum(rhs),rhsMax =  -7.04342140167569E-12  1.89212298041445E-01
 cg2d: Sum(rhs),rhsMax =  -7.11034009448497E-12  1.88117471312368E-01
 cg2d: Sum(rhs),rhsMax =  -7.12352399290239E-12  1.86785835711138E-01
 cg2d: Sum(rhs),rhsMax =  -7.17623183099647E-12  1.85384338598199E-01
 cg2d: Sum(rhs),rhsMax =  -7.25214333030522E-12  1.83870196170532E-01
 cg2d: Sum(rhs),rhsMax =  -7.34451388595403E-12  1.81782607334602E-01
 cg2d: Sum(rhs),rhsMax =  -7.45298267545991E-12  1.79639949763312E-01
 cg2d: Sum(rhs),rhsMax =  -7.41695593831082E-12  1.77780578057940E-01
 cg2d: Sum(rhs),rhsMax =  -7.49084128059962E-12  1.75612830905965E-01
 cg2d: Sum(rhs),rhsMax =  -7.51185225134066E-12  1.73207423645963E-01
 cg2d: Sum(rhs),rhsMax =  -7.57410800744651E-12  1.70617536179660E-01
 cg2d: Sum(rhs),rhsMax =  -7.66517405104139E-12  1.67865811811462E-01
 cg2d: Sum(rhs),rhsMax =  -7.77464204126943E-12  1.64950734524805E-01
 cg2d: Sum(rhs),rhsMax =  -7.88621945524426E-12  1.61883319804511E-01
 cg2d: Sum(rhs),rhsMax =  -7.98672239454845E-12  1.58672785918100E-01
 cg2d: Sum(rhs),rhsMax =  -8.07165445593228E-12  1.55325520850969E-01
 cg2d: Sum(rhs),rhsMax =  -8.26771984208108E-12  1.51834310675757E-01
 cg2d: Sum(rhs),rhsMax =  -8.50469694668732E-12  1.48216166685342E-01
 cg2d: Sum(rhs),rhsMax =  -8.75777228515062E-12  1.44503156143828E-01
 cg2d: Sum(rhs),rhsMax =  -9.03727093160001E-12  1.40668907331558E-01
 cg2d: Sum(rhs),rhsMax =  -9.33619848098033E-12  1.36738083122708E-01
 cg2d: Sum(rhs),rhsMax =  -9.61014601230659E-12  1.33162053530872E-01
 cg2d: Sum(rhs),rhsMax =  -9.88598092277471E-12  1.29409851221031E-01
 cg2d: Sum(rhs),rhsMax =  -1.02569064353020E-11  1.25538614600962E-01
 cg2d: Sum(rhs),rhsMax =  -1.06808450972551E-11  1.21506659608542E-01
 cg2d: Sum(rhs),rhsMax =  -1.11043396699984E-11  1.17493527924815E-01
 cg2d: Sum(rhs),rhsMax =  -1.15617515561439E-11  1.13487330000935E-01
 cg2d: Sum(rhs),rhsMax =  -1.12505005311903E-11  1.17328978545546E-01
 cg2d: Sum(rhs),rhsMax =  -1.08545394894577E-11  1.22007167247815E-01
 cg2d: Sum(rhs),rhsMax =  -1.05175868014840E-11  1.26437098057951E-01
 cg2d: Sum(rhs),rhsMax =  -1.02090558229406E-11  1.30732658315939E-01
 cg2d: Sum(rhs),rhsMax =  -9.91645654480067E-12  1.34900357498967E-01
 cg2d: Sum(rhs),rhsMax =  -9.61297708101938E-12  1.38935512467896E-01
 cg2d: Sum(rhs),rhsMax =  -9.33636501443402E-12  1.42786521479029E-01
 cg2d: Sum(rhs),rhsMax =  -9.09428088391451E-12  1.46440741628329E-01
 cg2d: Sum(rhs),rhsMax =  -8.83587647493300E-12  1.49917599388014E-01
 cg2d: Sum(rhs),rhsMax =  -8.59601279046274E-12  1.53251254893660E-01
 cg2d: Sum(rhs),rhsMax =  -8.40966185577940E-12  1.56362762867638E-01
 cg2d: Sum(rhs),rhsMax =  -8.12322431542611E-12  1.61135958329615E-01
 cg2d: Sum(rhs),rhsMax =  -8.05022715155701E-12  1.62969375420080E-01
 cg2d: Sum(rhs),rhsMax =  -7.91672283284584E-12  1.65254001919551E-01
 cg2d: Sum(rhs),rhsMax =  -7.77694575404553E-12  1.67355694927088E-01
 cg2d: Sum(rhs),rhsMax =  -7.64749374937423E-12  1.69289033411036E-01
 cg2d: Sum(rhs),rhsMax =  -7.54990514550968E-12  1.70993228557216E-01
 cg2d: Sum(rhs),rhsMax =  -7.47818473811890E-12  1.72525340780447E-01
 cg2d: Sum(rhs),rhsMax =  -7.34912131150622E-12  1.73872963137361E-01
 cg2d: Sum(rhs),rhsMax =  -7.25647320010125E-12  1.75025092886601E-01
 cg2d: Sum(rhs),rhsMax =  -7.17403914052284E-12  1.75989833772979E-01
 cg2d: Sum(rhs),rhsMax =  -7.11947167886251E-12  1.76699676070173E-01
 cg2d: Sum(rhs),rhsMax =  -7.06962266505684E-12  1.77221471666881E-01
 cg2d: Sum(rhs),rhsMax =  -7.01810831671423E-12  1.77545851793068E-01
 cg2d: Sum(rhs),rhsMax =  -6.90308921136307E-12  1.77700573872939E-01
 cg2d: Sum(rhs),rhsMax =  -6.89670542897147E-12  1.77682750206482E-01
 cg2d: Sum(rhs),rhsMax =  -6.85773660080713E-12  1.77513971387569E-01
 cg2d: Sum(rhs),rhsMax =  -6.77519151892625E-12  1.77158158873848E-01
 cg2d: Sum(rhs),rhsMax =  -6.78218592398139E-12  1.76615123460247E-01
 cg2d: Sum(rhs),rhsMax =  -6.81682488234969E-12  1.75899499255658E-01
 cg2d: Sum(rhs),rhsMax =  -6.84791112703920E-12  1.74998674955984E-01
 cg2d: Sum(rhs),rhsMax =  -6.90525414626109E-12  1.73948079756816E-01
 cg2d: Sum(rhs),rhsMax =  -6.98602287130257E-12  1.72743279923073E-01
 cg2d: Sum(rhs),rhsMax =  -6.90575374662217E-12  1.71410496630221E-01
 cg2d: Sum(rhs),rhsMax =  -7.02399249874475E-12  1.69947923113396E-01
 cg2d: Sum(rhs),rhsMax =  -7.09937664211679E-12  1.68431095149049E-01
 cg2d: Sum(rhs),rhsMax =  -7.21028792227685E-12  1.66789688531626E-01
 cg2d: Sum(rhs),rhsMax =  -7.25935977996528E-12  1.64412856768148E-01
 cg2d: Sum(rhs),rhsMax =  -7.20129511577738E-12  1.62672489181810E-01
 cg2d: Sum(rhs),rhsMax =  -7.16599002359430E-12  1.60697288510952E-01
 cg2d: Sum(rhs),rhsMax =  -7.25181026339783E-12  1.58573538476455E-01
 cg2d: Sum(rhs),rhsMax =  -7.35067562374070E-12  1.56416012675796E-01
 cg2d: Sum(rhs),rhsMax =  -7.42950145848909E-12  1.53922925224551E-01
 cg2d: Sum(rhs),rhsMax =  -7.52969908646151E-12  1.51529114159925E-01
 cg2d: Sum(rhs),rhsMax =  -7.59392548843607E-12  1.49109905406002E-01
 cg2d: Sum(rhs),rhsMax =  -7.63417107307873E-12  1.46335921947869E-01
 cg2d: Sum(rhs),rhsMax =  -7.78210829111003E-12  1.43831270389994E-01
 cg2d: Sum(rhs),rhsMax =  -7.94342369658807E-12  1.41263238092447E-01
 cg2d: Sum(rhs),rhsMax =  -8.10046474342130E-12  1.38559179720969E-01
 cg2d: Sum(rhs),rhsMax =  -8.28220825255244E-12  1.35791734837612E-01
 cg2d: Sum(rhs),rhsMax =  -8.47649728186184E-12  1.33001802793877E-01
 cg2d: Sum(rhs),rhsMax =  -8.69554428462038E-12  1.30150186240851E-01
 cg2d: Sum(rhs),rhsMax =  -8.85469475520040E-12  1.27250296748756E-01
 cg2d: Sum(rhs),rhsMax =  -8.92863560864043E-12  1.24325904641402E-01
 cg2d: Sum(rhs),rhsMax =  -9.08351172057564E-12  1.21365722884390E-01
 cg2d: Sum(rhs),rhsMax =  -9.27047327792252E-12  1.18397163911488E-01
 cg2d: Sum(rhs),rhsMax =  -9.46631661946640E-12  1.15417397007696E-01
 cg2d: Sum(rhs),rhsMax =  -9.50606260374798E-12  1.14386202926442E-01
 cg2d: Sum(rhs),rhsMax =  -9.48774392384166E-12  1.14268154084273E-01
 cg2d: Sum(rhs),rhsMax =  -9.50928225051939E-12  1.14025954314497E-01
 cg2d: Sum(rhs),rhsMax =  -9.52704581891339E-12  1.13659548501714E-01
 cg2d: Sum(rhs),rhsMax =  -9.22273368786364E-12  1.16942571601224E-01
 cg2d: Sum(rhs),rhsMax =  -8.92308449351731E-12  1.20914772475862E-01
 cg2d: Sum(rhs),rhsMax =  -8.63364935099753E-12  1.24776324625701E-01
 cg2d: Sum(rhs),rhsMax =  -8.35598257253878E-12  1.28524589899157E-01
 cg2d: Sum(rhs),rhsMax =  -8.12350187118227E-12  1.32118848746569E-01
 cg2d: Sum(rhs),rhsMax =  -7.79976083720157E-12  1.35582631333642E-01
 cg2d: Sum(rhs),rhsMax =  -7.45914441324658E-12  1.38917443212909E-01
 cg2d: Sum(rhs),rhsMax =  -7.22538695541175E-12  1.42052572466266E-01
 cg2d: Sum(rhs),rhsMax =  -7.04003522145058E-12  1.45042568836739E-01
 cg2d: Sum(rhs),rhsMax =  -6.87133683285879E-12  1.47943799141812E-01
 cg2d: Sum(rhs),rhsMax =  -6.74865718863771E-12  1.50697416890008E-01
 cg2d: Sum(rhs),rhsMax =  -6.59067245223355E-12  1.53270107942727E-01
 cg2d: Sum(rhs),rhsMax =  -6.42280673091022E-12  1.55661679971199E-01
 cg2d: Sum(rhs),rhsMax =  -6.29413188235617E-12  1.57927919192484E-01
 cg2d: Sum(rhs),rhsMax =  -6.15180129059922E-12  1.60079633264017E-01
 cg2d: Sum(rhs),rhsMax =  -6.02601302190919E-12  1.62062860105424E-01
 cg2d: Sum(rhs),rhsMax =  -5.94568838607756E-12  1.63889060246302E-01
 cg2d: Sum(rhs),rhsMax =  -5.77837777626655E-12  1.65547930281747E-01
 cg2d: Sum(rhs),rhsMax =  -5.64881474929280E-12  1.67027361004592E-01
 cg2d: Sum(rhs),rhsMax =  -5.58814106099703E-12  1.68376645470960E-01
 cg2d: Sum(rhs),rhsMax =  -5.41611200333136E-12  1.69571470966769E-01
 cg2d: Sum(rhs),rhsMax =  -5.25063326151098E-12  1.70602415583593E-01
 cg2d: Sum(rhs),rhsMax =  -5.07238695490742E-12  1.71461766879849E-01
 cg2d: Sum(rhs),rhsMax =  -4.93427521064405E-12  1.72184335501277E-01
 cg2d: Sum(rhs),rhsMax =  -4.83674211793073E-12  1.72677272774188E-01
 cg2d: Sum(rhs),rhsMax =  -4.76840789076505E-12  1.73077044730890E-01
 cg2d: Sum(rhs),rhsMax =  -4.76185757491976E-12  1.73325896809959E-01
 cg2d: Sum(rhs),rhsMax =  -4.76491068823748E-12  1.73432825097531E-01
 cg2d: Sum(rhs),rhsMax =  -4.80859796425648E-12  1.73371081899208E-01
 cg2d: Sum(rhs),rhsMax =  -4.84079443197061E-12  1.73160195306179E-01
 cg2d: Sum(rhs),rhsMax =  -4.87943019322756E-12  1.72821420970362E-01
 cg2d: Sum(rhs),rhsMax =  -4.92600404911059E-12  1.72357505193287E-01
 cg2d: Sum(rhs),rhsMax =  -4.97690777478965E-12  1.71772504855923E-01
 cg2d: Sum(rhs),rhsMax =  -5.02209385189190E-12  1.71045763021988E-01
 cg2d: Sum(rhs),rhsMax =  -5.08182385061673E-12  1.70193752616652E-01
 cg2d: Sum(rhs),rhsMax =  -5.12073716762984E-12  1.69225161478018E-01
 cg2d: Sum(rhs),rhsMax =  -5.18779463831720E-12  1.68145922331271E-01
 cg2d: Sum(rhs),rhsMax =  -5.24530419099278E-12  1.66951540802436E-01
 cg2d: Sum(rhs),rhsMax =  -5.30187005409744E-12  1.65644694126927E-01
 cg2d: Sum(rhs),rhsMax =  -5.36748423485278E-12  1.64236989193980E-01
 cg2d: Sum(rhs),rhsMax =  -5.45824496711589E-12  1.62729684324523E-01
 cg2d: Sum(rhs),rhsMax =  -5.55405721414104E-12  1.61147873849746E-01
 cg2d: Sum(rhs),rhsMax =  -5.66618973962818E-12  1.59495332945365E-01
 cg2d: Sum(rhs),rhsMax =  -5.76660941220553E-12  1.57790738762413E-01
 cg2d: Sum(rhs),rhsMax =  -5.87785375927297E-12  1.56075241929260E-01
 cg2d: Sum(rhs),rhsMax =  -5.99920113586450E-12  1.54246908609388E-01
 cg2d: Sum(rhs),rhsMax =  -6.11910522252401E-12  1.52320886693337E-01
 cg2d: Sum(rhs),rhsMax =  -6.24716944841452E-12  1.50328779084837E-01
 cg2d: Sum(rhs),rhsMax =  -6.37273567249963E-12  1.48308533400618E-01
 cg2d: Sum(rhs),rhsMax =  -6.49064135771482E-12  1.46195690668525E-01
 cg2d: Sum(rhs),rhsMax =  -6.64812649375790E-12  1.44019052441213E-01
 cg2d: Sum(rhs),rhsMax =  -6.82531808848807E-12  1.41803124200361E-01
 cg2d: Sum(rhs),rhsMax =  -7.01727564944576E-12  1.39527912670573E-01
 cg2d: Sum(rhs),rhsMax =  -7.18203274630014E-12  1.37163186671445E-01
 cg2d: Sum(rhs),rhsMax =  -7.36755101371500E-12  1.34746254257954E-01
 cg2d: Sum(rhs),rhsMax =  -7.60158602730598E-12  1.32328699685298E-01
 cg2d: Sum(rhs),rhsMax =  -7.82307552071870E-12  1.29893823809782E-01
 cg2d: Sum(rhs),rhsMax =  -8.05711053430969E-12  1.27446975288971E-01
 cg2d: Sum(rhs),rhsMax =  -8.25173263052648E-12  1.24986933798684E-01
 cg2d: Sum(rhs),rhsMax =  -8.48476844339530E-12  1.22502808384362E-01
 cg2d: Sum(rhs),rhsMax =  -8.72690808506604E-12  1.20032606912282E-01
 cg2d: Sum(rhs),rhsMax =  -8.89088802580318E-12  1.18529518144102E-01
 cg2d: Sum(rhs),rhsMax =  -8.95861163030531E-12  1.17931467282038E-01
 cg2d: Sum(rhs),rhsMax =  -8.81306139177696E-12  1.20552526602194E-01
 cg2d: Sum(rhs),rhsMax =  -8.59368132211102E-12  1.24374819184481E-01
 cg2d: Sum(rhs),rhsMax =  -8.35997937542743E-12  1.28079808414162E-01
 cg2d: Sum(rhs),rhsMax =  -8.16424705618601E-12  1.31671614170699E-01
 cg2d: Sum(rhs),rhsMax =  -8.01891886226258E-12  1.35154226856180E-01
 cg2d: Sum(rhs),rhsMax =  -7.84949882870478E-12  1.38514798430368E-01
 cg2d: Sum(rhs),rhsMax =  -7.71654962150592E-12  1.41718108860812E-01
 cg2d: Sum(rhs),rhsMax =  -7.56278373259534E-12  1.44770787081179E-01
 cg2d: Sum(rhs),rhsMax =  -7.42778061280092E-12  1.47679973396760E-01
 cg2d: Sum(rhs),rhsMax =  -7.31825711142164E-12  1.50484062083639E-01
 cg2d: Sum(rhs),rhsMax =  -7.19896364742567E-12  1.53157155701035E-01
 cg2d: Sum(rhs),rhsMax =  -6.94033719383924E-12  1.55672646647526E-01
 cg2d: Sum(rhs),rhsMax =  -6.82770506799102E-12  1.58054019571642E-01
 cg2d: Sum(rhs),rhsMax =  -6.80483447368374E-12  1.60292412673244E-01
 cg2d: Sum(rhs),rhsMax =  -6.77830014339520E-12  1.62343254838368E-01
 cg2d: Sum(rhs),rhsMax =  -6.78179734592277E-12  1.64262302302382E-01
 cg2d: Sum(rhs),rhsMax =  -6.77996547793214E-12  1.66064588426729E-01
 cg2d: Sum(rhs),rhsMax =  -6.78879175097791E-12  1.67712966900851E-01
 cg2d: Sum(rhs),rhsMax =  -6.81632528198861E-12  1.69211702194462E-01
 cg2d: Sum(rhs),rhsMax =  -6.84213796731115E-12  1.70552904537425E-01
 cg2d: Sum(rhs),rhsMax =  -6.85357326446479E-12  1.71740426785176E-01
 cg2d: Sum(rhs),rhsMax =  -6.88071821741687E-12  1.72803832333687E-01
 cg2d: Sum(rhs),rhsMax =  -6.90469903474877E-12  1.73756877649521E-01
 cg2d: Sum(rhs),rhsMax =  -6.94877488882639E-12  1.74575756011298E-01
 cg2d: Sum(rhs),rhsMax =  -7.00661750840936E-12  1.75262762445615E-01
 cg2d: Sum(rhs),rhsMax =  -7.04725167111064E-12  1.75827499814539E-01
 cg2d: Sum(rhs),rhsMax =  -7.10542735760100E-12  1.76236765655719E-01
 cg2d: Sum(rhs),rhsMax =  -7.17970127794842E-12  1.76528655818237E-01
 cg2d: Sum(rhs),rhsMax =  -7.25280946411999E-12  1.76696961603746E-01
 cg2d: Sum(rhs),rhsMax =  -7.33363370031270E-12  1.76718751197835E-01
 cg2d: Sum(rhs),rhsMax =  -7.43483052900729E-12  1.76623126257972E-01
 cg2d: Sum(rhs),rhsMax =  -7.51332329684828E-12  1.76417524068831E-01
 cg2d: Sum(rhs),rhsMax =  -7.63122898206348E-12  1.76097741833357E-01
 cg2d: Sum(rhs),rhsMax =  -7.73370256723638E-12  1.75656581706047E-01
 cg2d: Sum(rhs),rhsMax =  -7.83062503728615E-12  1.75099018413397E-01
 cg2d: Sum(rhs),rhsMax =  -7.95685739518603E-12  1.74430353774703E-01
 cg2d: Sum(rhs),rhsMax =  -8.07887090559234E-12  1.73661456449078E-01
 cg2d: Sum(rhs),rhsMax =  -8.21964718511481E-12  1.72810752954235E-01
 cg2d: Sum(rhs),rhsMax =  -8.34537994265361E-12  1.71866894693522E-01
 cg2d: Sum(rhs),rhsMax =  -8.49165182614797E-12  1.70835511083854E-01
 cg2d: Sum(rhs),rhsMax =  -8.63592530819801E-12  1.69740017720788E-01
 cg2d: Sum(rhs),rhsMax =  -8.79429862266079E-12  1.68540046574434E-01
 cg2d: Sum(rhs),rhsMax =  -8.94190277378470E-12  1.67269518353382E-01
 cg2d: Sum(rhs),rhsMax =  -9.10510555840460E-12  1.65921950828409E-01
 cg2d: Sum(rhs),rhsMax =  -9.25892695846642E-12  1.64500628290810E-01
 cg2d: Sum(rhs),rhsMax =  -9.45227229820489E-12  1.63003383225286E-01
 cg2d: Sum(rhs),rhsMax =  -9.61397628174154E-12  1.61420406465090E-01
 cg2d: Sum(rhs),rhsMax =  -9.81287273660314E-12  1.59768087001178E-01
 cg2d: Sum(rhs),rhsMax =  -1.00211505760228E-11  1.58055917968189E-01
 cg2d: Sum(rhs),rhsMax =  -1.02470809615340E-11  1.56248659574225E-01
 cg2d: Sum(rhs),rhsMax =  -1.04576902693054E-11  1.54393222739591E-01
 cg2d: Sum(rhs),rhsMax =  -1.06831210544556E-11  1.52461760095034E-01
 cg2d: Sum(rhs),rhsMax =  -1.09458553332331E-11  1.50442940086142E-01
 cg2d: Sum(rhs),rhsMax =  -1.12018727627117E-11  1.48394163438672E-01
 cg2d: Sum(rhs),rhsMax =  -1.14714904242419E-11  1.46262561937205E-01
 cg2d: Sum(rhs),rhsMax =  -1.17575393865366E-11  1.44092845102066E-01
 cg2d: Sum(rhs),rhsMax =  -1.20368159883810E-11  1.41884201780406E-01
 cg2d: Sum(rhs),rhsMax =  -1.23376864280544E-11  1.39643940871220E-01
 cg2d: Sum(rhs),rhsMax =  -1.26504917652426E-11  1.37370016783782E-01
 cg2d: Sum(rhs),rhsMax =  -1.29729005315937E-11  1.35072907570663E-01
 cg2d: Sum(rhs),rhsMax =  -1.33074662400645E-11  1.32763531604202E-01
 cg2d: Sum(rhs),rhsMax =  -1.36463063071801E-11  1.30459596329724E-01
 cg2d: Sum(rhs),rhsMax =  -1.40056855002513E-11  1.28109201856384E-01
 cg2d: Sum(rhs),rhsMax =  -1.43889344883519E-11  1.25756037036777E-01
 cg2d: Sum(rhs),rhsMax =  -1.46029854874996E-11  1.24924672269342E-01
 cg2d: Sum(rhs),rhsMax =  -1.43051126499927E-11  1.28569781072870E-01
 cg2d: Sum(rhs),rhsMax =  -1.40499278877826E-11  1.32121867297046E-01
 cg2d: Sum(rhs),rhsMax =  -1.37955202816897E-11  1.35552546521469E-01
 cg2d: Sum(rhs),rhsMax =  -1.35674804724317E-11  1.38860169818952E-01
 cg2d: Sum(rhs),rhsMax =  -1.33777988686745E-11  1.42033697404803E-01
 cg2d: Sum(rhs),rhsMax =  -1.31883393095222E-11  1.45091029184752E-01
 cg2d: Sum(rhs),rhsMax =  -1.30205846105014E-11  1.48001315806618E-01
 cg2d: Sum(rhs),rhsMax =  -1.28758115280903E-11  1.50788243183732E-01
 cg2d: Sum(rhs),rhsMax =  -1.27517996162396E-11  1.53422654509949E-01
 cg2d: Sum(rhs),rhsMax =  -1.26146315615472E-11  1.55919898666943E-01
 cg2d: Sum(rhs),rhsMax =  -1.25399135519899E-11  1.58290783891491E-01
 cg2d: Sum(rhs),rhsMax =  -1.24548704683036E-11  1.60543998430973E-01
 cg2d: Sum(rhs),rhsMax =  -1.23749899216818E-11  1.62660994887987E-01
 cg2d: Sum(rhs),rhsMax =  -1.23193677481481E-11  1.64589364975164E-01
 cg2d: Sum(rhs),rhsMax =  -1.23016041797541E-11  1.66371202557277E-01
 cg2d: Sum(rhs),rhsMax =  -1.22599153051794E-11  1.68026314816916E-01
 cg2d: Sum(rhs),rhsMax =  -1.22647447753366E-11  1.69541806404338E-01
 cg2d: Sum(rhs),rhsMax =  -1.22333254637397E-11  1.70910213053492E-01
 cg2d: Sum(rhs),rhsMax =  -1.22449272943470E-11  1.72136358524748E-01
 cg2d: Sum(rhs),rhsMax =  -1.22382104450480E-11  1.73215427494881E-01
 cg2d: Sum(rhs),rhsMax =  -1.22704624239134E-11  1.74147367927977E-01
 cg2d: Sum(rhs),rhsMax =  -1.23033250254423E-11  1.74953311580643E-01
 cg2d: Sum(rhs),rhsMax =  -1.23502319482327E-11  1.75597032402491E-01
 cg2d: Sum(rhs),rhsMax =  -1.23868970636209E-11  1.76120702030947E-01
 cg2d: Sum(rhs),rhsMax =  -1.24505961096588E-11  1.76512451368768E-01
 cg2d: Sum(rhs),rhsMax =  -1.25097987524470E-11  1.76770552634801E-01
 cg2d: Sum(rhs),rhsMax =  -1.25792987137885E-11  1.76905724004883E-01
 cg2d: Sum(rhs),rhsMax =  -1.26614552176108E-11  1.76931080275420E-01
 cg2d: Sum(rhs),rhsMax =  -1.27362009827436E-11  1.76838445612565E-01
 cg2d: Sum(rhs),rhsMax =  -1.28375088337407E-11  1.76623640169218E-01
 cg2d: Sum(rhs),rhsMax =  -1.29384558622547E-11  1.76296345372118E-01
 cg2d: Sum(rhs),rhsMax =  -1.30438715384429E-11  1.75838516567061E-01
 cg2d: Sum(rhs),rhsMax =  -1.31536170844271E-11  1.75268699557407E-01
 cg2d: Sum(rhs),rhsMax =  -1.32811817099565E-11  1.74583560887208E-01
 cg2d: Sum(rhs),rhsMax =  -1.34164901410827E-11  1.73809579709472E-01
 cg2d: Sum(rhs),rhsMax =  -1.35692013181199E-11  1.72964253838268E-01
 cg2d: Sum(rhs),rhsMax =  -1.37238276298746E-11  1.71999038611393E-01
 cg2d: Sum(rhs),rhsMax =  -1.38830891227570E-11  1.70924063642047E-01
 cg2d: Sum(rhs),rhsMax =  -1.40682465676889E-11  1.69755045877411E-01
 cg2d: Sum(rhs),rhsMax =  -1.42525713453523E-11  1.68501540365665E-01
 cg2d: Sum(rhs),rhsMax =  -1.44474154861740E-11  1.67416030747071E-01
 cg2d: Sum(rhs),rhsMax =  -1.46520851007637E-11  1.65937748956072E-01
 cg2d: Sum(rhs),rhsMax =  -1.48812906441975E-11  1.64432558806362E-01
 cg2d: Sum(rhs),rhsMax =  -1.51055834507474E-11  1.62884056196447E-01
 cg2d: Sum(rhs),rhsMax =  -1.53479728925987E-11  1.61255769459935E-01
 cg2d: Sum(rhs),rhsMax =  -1.55944146484899E-11  1.59552129573273E-01
 cg2d: Sum(rhs),rhsMax =  -1.58517643455980E-11  1.57760994724583E-01
 cg2d: Sum(rhs),rhsMax =  -1.61284874344858E-11  1.55913101576556E-01
 cg2d: Sum(rhs),rhsMax =  -1.64265823165977E-11  1.53998739410820E-01
 cg2d: Sum(rhs),rhsMax =  -1.67397762318444E-11  1.52015826415368E-01
 cg2d: Sum(rhs),rhsMax =  -1.70785885433844E-11  1.49961122962545E-01
 cg2d: Sum(rhs),rhsMax =  -1.74162628763241E-11  1.47853196240556E-01
 cg2d: Sum(rhs),rhsMax =  -1.77541592538688E-11  1.45673518783029E-01
 cg2d: Sum(rhs),rhsMax =  -1.80603587640604E-11  1.43438393978856E-01
 cg2d: Sum(rhs),rhsMax =  -1.83250081775554E-11  1.41163267993656E-01
 cg2d: Sum(rhs),rhsMax =  -1.85997606205746E-11  1.38828304964806E-01
 cg2d: Sum(rhs),rhsMax =  -1.88891680075187E-11  1.36480428094330E-01
 cg2d: Sum(rhs),rhsMax =  -1.92418303512909E-11  1.34104683884973E-01
 cg2d: Sum(rhs),rhsMax =  -1.96508920247140E-11  1.31692638070758E-01
 cg2d: Sum(rhs),rhsMax =  -2.00588989862638E-11  1.29271252118087E-01
 cg2d: Sum(rhs),rhsMax =  -2.05059857982803E-11  1.26836589952986E-01
 cg2d: Sum(rhs),rhsMax =  -2.10059747374203E-11  1.24405106681016E-01
 cg2d: Sum(rhs),rhsMax =  -2.11063944099976E-11  1.24316430423902E-01
 cg2d: Sum(rhs),rhsMax =  -2.05973016420558E-11  1.27946453079990E-01
 cg2d: Sum(rhs),rhsMax =  -2.01277883249418E-11  1.31459652364702E-01
 cg2d: Sum(rhs),rhsMax =  -1.97133420698492E-11  1.34816966357057E-01
 cg2d: Sum(rhs),rhsMax =  -1.93578209017886E-11  1.38034284248076E-01
 cg2d: Sum(rhs),rhsMax =  -1.90259752397282E-11  1.41136933731886E-01
 cg2d: Sum(rhs),rhsMax =  -1.87160842379797E-11  1.44124141175745E-01
 cg2d: Sum(rhs),rhsMax =  -1.84482429332888E-11  1.46957079319835E-01
 cg2d: Sum(rhs),rhsMax =  -1.82086845601503E-11  1.49683651513236E-01
 cg2d: Sum(rhs),rhsMax =  -1.79686820978020E-11  1.52285383038800E-01
 cg2d: Sum(rhs),rhsMax =  -1.77742265350389E-11  1.54687304426241E-01
 cg2d: Sum(rhs),rhsMax =  -1.75984782302407E-11  1.56965257183236E-01
 cg2d: Sum(rhs),rhsMax =  -1.74248115936138E-11  1.59126760846587E-01
 cg2d: Sum(rhs),rhsMax =  -1.72912517637513E-11  1.61132884015432E-01
 cg2d: Sum(rhs),rhsMax =  -1.71461456144328E-11  1.63112449587001E-01
 cg2d: Sum(rhs),rhsMax =  -1.70372049801415E-11  1.64786851389000E-01
 cg2d: Sum(rhs),rhsMax =  -1.69379510417400E-11  1.66322646791005E-01
 cg2d: Sum(rhs),rhsMax =  -1.68488833995895E-11  1.67755314104604E-01
 cg2d: Sum(rhs),rhsMax =  -1.67715841214999E-11  1.69010463740626E-01
 cg2d: Sum(rhs),rhsMax =  -1.67125757677411E-11  1.70123141274631E-01
 cg2d: Sum(rhs),rhsMax =  -1.66849312144279E-11  1.71103871872228E-01
 cg2d: Sum(rhs),rhsMax =  -1.66503200116352E-11  1.71972398162793E-01
 cg2d: Sum(rhs),rhsMax =  -1.66275881952060E-11  1.72700301886653E-01
 cg2d: Sum(rhs),rhsMax =  -1.66044400451426E-11  1.73286025399006E-01
 cg2d: Sum(rhs),rhsMax =  -1.65898683679444E-11  1.73715445807528E-01
 cg2d: Sum(rhs),rhsMax =  -1.66052727124111E-11  1.74003092347325E-01
 cg2d: Sum(rhs),rhsMax =  -1.66099356491145E-11  1.74195366222139E-01
 cg2d: Sum(rhs),rhsMax =  -1.66402724932624E-11  1.74223928285394E-01
 cg2d: Sum(rhs),rhsMax =  -1.66710811821957E-11  1.74158116647977E-01
 cg2d: Sum(rhs),rhsMax =  -1.67481584156803E-11  1.73964762861565E-01
 cg2d: Sum(rhs),rhsMax =  -1.68178804216268E-11  1.73611966562912E-01
 cg2d: Sum(rhs),rhsMax =  -1.68130231958941E-11  1.73162865269998E-01
 cg2d: Sum(rhs),rhsMax =  -1.68377811693432E-11  1.72618582525480E-01
 cg2d: Sum(rhs),rhsMax =  -1.68871583383634E-11  1.71930926944578E-01
 cg2d: Sum(rhs),rhsMax =  -1.69510239178550E-11  1.71171402987957E-01
 cg2d: Sum(rhs),rhsMax =  -1.70188030335083E-11  1.70290307777177E-01
 cg2d: Sum(rhs),rhsMax =  -1.71008762706037E-11  1.69287364243726E-01
 cg2d: Sum(rhs),rhsMax =  -1.71950786942432E-11  1.68231929380434E-01
 cg2d: Sum(rhs),rhsMax =  -1.73016601046072E-11  1.67056383841685E-01
 cg2d: Sum(rhs),rhsMax =  -1.74149583642702E-11  1.65826379913308E-01
 cg2d: Sum(rhs),rhsMax =  -1.75348069397785E-11  1.64529788818505E-01
 cg2d: Sum(rhs),rhsMax =  -1.76531012030523E-11  1.63083353128423E-01
 cg2d: Sum(rhs),rhsMax =  -1.77842185422605E-11  1.61607667693680E-01
 cg2d: Sum(rhs),rhsMax =  -1.79414261225475E-11  1.60080371161122E-01
 cg2d: Sum(rhs),rhsMax =  -1.81003545485225E-11  1.58476938128702E-01
 cg2d: Sum(rhs),rhsMax =  -1.82865944609034E-11  1.56813519821590E-01
 cg2d: Sum(rhs),rhsMax =  -1.84950388337768E-11  1.55053421584824E-01
 cg2d: Sum(rhs),rhsMax =  -1.87022064501718E-11  1.53214170821944E-01
 cg2d: Sum(rhs),rhsMax =  -1.89328275279621E-11  1.51316085203898E-01
 cg2d: Sum(rhs),rhsMax =  -1.91791860171264E-11  1.49340877208163E-01
 cg2d: Sum(rhs),rhsMax =  -1.94464722103049E-11  1.47306842080582E-01
 cg2d: Sum(rhs),rhsMax =  -1.97328819950826E-11  1.45209752591726E-01
 cg2d: Sum(rhs),rhsMax =  -2.00387484383668E-11  1.43048711618961E-01
 cg2d: Sum(rhs),rhsMax =  -2.03543015775409E-11  1.40817154747488E-01
 cg2d: Sum(rhs),rhsMax =  -2.06970274252427E-11  1.38538838838238E-01
 cg2d: Sum(rhs),rhsMax =  -2.10673700706820E-11  1.36225327293817E-01
 cg2d: Sum(rhs),rhsMax =  -2.14434581202738E-11  1.33857330030262E-01
 cg2d: Sum(rhs),rhsMax =  -2.18292051101798E-11  1.31457349513160E-01
 cg2d: Sum(rhs),rhsMax =  -2.22453166998093E-11  1.29050138031637E-01
 cg2d: Sum(rhs),rhsMax =  -2.26353935595114E-11  1.26606514563007E-01
 cg2d: Sum(rhs),rhsMax =  -2.31343832979292E-11  1.24137090151678E-01
 cg2d: Sum(rhs),rhsMax =  -2.36337616144056E-11  1.21661784925732E-01
 cg2d: Sum(rhs),rhsMax =  -2.41545117241060E-11  1.19208230007613E-01
 cg2d: Sum(rhs),rhsMax =  -2.37304065286992E-11  1.21671595941471E-01
 cg2d: Sum(rhs),rhsMax =  -2.30932495348668E-11  1.25245553453513E-01
 cg2d: Sum(rhs),rhsMax =  -2.25177654300523E-11  1.28754598291228E-01
 cg2d: Sum(rhs),rhsMax =  -2.19846363336273E-11  1.32138748693354E-01
 cg2d: Sum(rhs),rhsMax =  -2.14528950159831E-11  1.35413169261122E-01
 cg2d: Sum(rhs),rhsMax =  -2.09625095060062E-11  1.38566614583592E-01
 cg2d: Sum(rhs),rhsMax =  -2.05293559929487E-11  1.41555459790341E-01
 cg2d: Sum(rhs),rhsMax =  -2.01315630832255E-11  1.44420968325864E-01
 cg2d: Sum(rhs),rhsMax =  -1.97659666412164E-11  1.47158866281218E-01
 cg2d: Sum(rhs),rhsMax =  -1.94140814535615E-11  1.49772586348339E-01
 cg2d: Sum(rhs),rhsMax =  -1.91057170084719E-11  1.52240237164138E-01
 cg2d: Sum(rhs),rhsMax =  -1.88251081389978E-11  1.54571685114566E-01
 cg2d: Sum(rhs),rhsMax =  -1.85804704955217E-11  1.56755220257907E-01
 cg2d: Sum(rhs),rhsMax =  -1.83343340509623E-11  1.58840896339138E-01
 cg2d: Sum(rhs),rhsMax =  -1.81414328004337E-11  1.60759536480838E-01
 cg2d: Sum(rhs),rhsMax =  -1.79679604528360E-11  1.62523030792694E-01
 cg2d: Sum(rhs),rhsMax =  -1.77843850757142E-11  1.64160494287137E-01
 cg2d: Sum(rhs),rhsMax =  -1.76367254134391E-11  1.65663636734635E-01
 cg2d: Sum(rhs),rhsMax =  -1.75192638174337E-11  1.67029674937897E-01
 cg2d: Sum(rhs),rhsMax =  -1.73941971937097E-11  1.68238142767045E-01
 cg2d: Sum(rhs),rhsMax =  -1.72927783204102E-11  1.69315934831901E-01
 cg2d: Sum(rhs),rhsMax =  -1.71970493401119E-11  1.70249761491613E-01
 cg2d: Sum(rhs),rhsMax =  -1.71139213911431E-11  1.71057579924425E-01
 cg2d: Sum(rhs),rhsMax =  -1.70587433068192E-11  1.71732055247289E-01
 cg2d: Sum(rhs),rhsMax =  -1.70051750458811E-11  1.72245312591064E-01
 cg2d: Sum(rhs),rhsMax =  -1.69751990242162E-11  1.72628552899720E-01
 cg2d: Sum(rhs),rhsMax =  -1.69688152418246E-11  1.72883067685487E-01
 cg2d: Sum(rhs),rhsMax =  -1.69557146101340E-11  1.73015921905983E-01
 cg2d: Sum(rhs),rhsMax =  -1.69878555666969E-11  1.73067316886815E-01
 cg2d: Sum(rhs),rhsMax =  -1.70216063466455E-11  1.72968413943050E-01
 cg2d: Sum(rhs),rhsMax =  -1.70875535943082E-11  1.72755067928938E-01
 cg2d: Sum(rhs),rhsMax =  -1.71114233893377E-11  1.72414974151173E-01
 cg2d: Sum(rhs),rhsMax =  -1.71588299124892E-11  1.71944501103684E-01
 cg2d: Sum(rhs),rhsMax =  -1.72158953759549E-11  1.71382616885605E-01
 cg2d: Sum(rhs),rhsMax =  -1.73038250395052E-11  1.70720751017457E-01
 cg2d: Sum(rhs),rhsMax =  -1.73794312274822E-11  1.69943996962495E-01
 cg2d: Sum(rhs),rhsMax =  -1.75009451375274E-11  1.69055277801858E-01
 cg2d: Sum(rhs),rhsMax =  -1.76051395683885E-11  1.68084805116248E-01
 cg2d: Sum(rhs),rhsMax =  -1.77436954018617E-11  1.67050907540114E-01
 cg2d: Sum(rhs),rhsMax =  -1.78948522666644E-11  1.65859098480020E-01
 cg2d: Sum(rhs),rhsMax =  -1.80370718361189E-11  1.64601023644363E-01
 cg2d: Sum(rhs),rhsMax =  -1.82000525761339E-11  1.63281143364764E-01
 cg2d: Sum(rhs),rhsMax =  -1.83692505650868E-11  1.61906184736915E-01
 cg2d: Sum(rhs),rhsMax =  -1.85654824846893E-11  1.60406205966253E-01
 cg2d: Sum(rhs),rhsMax =  -1.87614368485356E-11  1.58829872518735E-01
 cg2d: Sum(rhs),rhsMax =  -1.89755433588346E-11  1.57178659486212E-01
 cg2d: Sum(rhs),rhsMax =  -1.91980320529694E-11  1.55530339207215E-01
 cg2d: Sum(rhs),rhsMax =  -1.94501637018618E-11  1.53774600889248E-01
 cg2d: Sum(rhs),rhsMax =  -1.96760385762218E-11  1.51932325948513E-01
 cg2d: Sum(rhs),rhsMax =  -1.99492644625821E-11  1.50037780556977E-01
 cg2d: Sum(rhs),rhsMax =  -2.02107774960325E-11  1.48067212241652E-01
 cg2d: Sum(rhs),rhsMax =  -2.04931072111947E-11  1.46033621365788E-01
 cg2d: Sum(rhs),rhsMax =  -2.07893702253159E-11  1.43917653136533E-01
 cg2d: Sum(rhs),rhsMax =  -2.11103912128863E-11  1.41787029865807E-01
 cg2d: Sum(rhs),rhsMax =  -2.14482320792797E-11  1.39526803673119E-01
 cg2d: Sum(rhs),rhsMax =  -2.18317586231365E-11  1.37234296812428E-01
 cg2d: Sum(rhs),rhsMax =  -2.22152296558420E-11  1.34858463045027E-01
 cg2d: Sum(rhs),rhsMax =  -2.26839103056875E-11  1.32408727946715E-01
 cg2d: Sum(rhs),rhsMax =  -2.31492047753079E-11  1.29925640770538E-01
 cg2d: Sum(rhs),rhsMax =  -2.35972352768954E-11  1.27412113036641E-01
 cg2d: Sum(rhs),rhsMax =  -2.40545916518897E-11  1.24905722985136E-01
 cg2d: Sum(rhs),rhsMax =  -2.45433118273297E-11  1.22344206024391E-01
 cg2d: Sum(rhs),rhsMax =  -2.50521825506667E-11  1.19762038365863E-01
 cg2d: Sum(rhs),rhsMax =  -2.55297449847092E-11  1.17107912804929E-01
 cg2d: Sum(rhs),rhsMax =  -2.56722421099198E-11  1.16259155520934E-01
 cg2d: Sum(rhs),rhsMax =  -2.49430476273460E-11  1.19909838121905E-01
 cg2d: Sum(rhs),rhsMax =  -2.41939801526314E-11  1.23435533972315E-01
 cg2d: Sum(rhs),rhsMax =  -2.35373942558681E-11  1.26844214405549E-01
 cg2d: Sum(rhs),rhsMax =  -2.28850827177496E-11  1.30116915488907E-01
 cg2d: Sum(rhs),rhsMax =  -2.23129847931602E-11  1.33241255303608E-01
 cg2d: Sum(rhs),rhsMax =  -2.18002282892371E-11  1.36288799985949E-01
 cg2d: Sum(rhs),rhsMax =  -2.13447592933846E-11  1.39200057352073E-01
 cg2d: Sum(rhs),rhsMax =  -2.10502726361028E-11  1.42005814959812E-01
 cg2d: Sum(rhs),rhsMax =  -2.05830352761893E-11  1.44673711836908E-01
 cg2d: Sum(rhs),rhsMax =  -2.02112215852424E-11  1.47208416274518E-01
 cg2d: Sum(rhs),rhsMax =  -1.99055771865631E-11  1.49613095017323E-01
 cg2d: Sum(rhs),rhsMax =  -1.96052618584019E-11  1.51895621353768E-01
 cg2d: Sum(rhs),rhsMax =  -1.93236537882058E-11  1.54046989339261E-01
 cg2d: Sum(rhs),rhsMax =  -1.90716886727671E-11  1.56054092155505E-01
 cg2d: Sum(rhs),rhsMax =  -1.88494775343884E-11  1.57910330449712E-01
 cg2d: Sum(rhs),rhsMax =  -1.86325954665278E-11  1.59656409037265E-01
 cg2d: Sum(rhs),rhsMax =  -1.84315340767682E-11  1.61251850784666E-01
 cg2d: Sum(rhs),rhsMax =  -1.82689419148119E-11  1.62677565496000E-01
 cg2d: Sum(rhs),rhsMax =  -1.81092363327195E-11  1.63980611494598E-01
 cg2d: Sum(rhs),rhsMax =  -1.79932180266462E-11  1.65161676304394E-01
 cg2d: Sum(rhs),rhsMax =  -1.78940195993960E-11  1.66208011483234E-01
 cg2d: Sum(rhs),rhsMax =  -1.78192460786875E-11  1.67132800205178E-01
 cg2d: Sum(rhs),rhsMax =  -1.77455827810036E-11  1.67932295801954E-01
 cg2d: Sum(rhs),rhsMax =  -1.76717529498660E-11  1.68591485103452E-01
 cg2d: Sum(rhs),rhsMax =  -1.75838232863157E-11  1.69093454039274E-01
 cg2d: Sum(rhs),rhsMax =  -1.75385816980622E-11  1.69478821760341E-01
 cg2d: Sum(rhs),rhsMax =  -1.74996683810491E-11  1.69740334827868E-01
 cg2d: Sum(rhs),rhsMax =  -1.74535941255272E-11  1.69976381578145E-01
 cg2d: Sum(rhs),rhsMax =  -1.74594227964064E-11  1.70015964377124E-01
 cg2d: Sum(rhs),rhsMax =  -1.74345538006548E-11  1.70133888941479E-01
 cg2d: Sum(rhs),rhsMax =  -1.74592007518015E-11  1.70033503237113E-01
 cg2d: Sum(rhs),rhsMax =  -1.74769088090443E-11  1.69764128094243E-01
 cg2d: Sum(rhs),rhsMax =  -1.75058301188358E-11  1.69370897311774E-01
 cg2d: Sum(rhs),rhsMax =  -1.75552905545828E-11  1.68813617755472E-01
 cg2d: Sum(rhs),rhsMax =  -1.76059167245057E-11  1.68299713242136E-01
 cg2d: Sum(rhs),rhsMax =  -1.76744729962763E-11  1.67417309438990E-01
 cg2d: Sum(rhs),rhsMax =  -1.77772796483566E-11  1.66452421215909E-01
 cg2d: Sum(rhs),rhsMax =  -1.78587145072129E-11  1.65458438944512E-01
 cg2d: Sum(rhs),rhsMax =  -1.79971038072324E-11  1.64335697841491E-01
 cg2d: Sum(rhs),rhsMax =  -1.81532566756459E-11  1.63136378462502E-01
 cg2d: Sum(rhs),rhsMax =  -1.82986958918718E-11  1.61836468171062E-01
 cg2d: Sum(rhs),rhsMax =  -1.84645077005996E-11  1.60435996117558E-01
 cg2d: Sum(rhs),rhsMax =  -1.86297643978151E-11  1.59080137532257E-01
 cg2d: Sum(rhs),rhsMax =  -1.88114523957950E-11  1.57467456659830E-01
 cg2d: Sum(rhs),rhsMax =  -1.89938620387409E-11  1.55819168309646E-01
 cg2d: Sum(rhs),rhsMax =  -1.92027505008241E-11  1.54121710163982E-01
 cg2d: Sum(rhs),rhsMax =  -1.93750571142459E-11  1.52351908694362E-01
 cg2d: Sum(rhs),rhsMax =  -1.95709559669410E-11  1.50804778748343E-01
 cg2d: Sum(rhs),rhsMax =  -1.98442373644525E-11  1.48710527732541E-01
 cg2d: Sum(rhs),rhsMax =  -2.01026972845852E-11  1.46649281549816E-01
 cg2d: Sum(rhs),rhsMax =  -2.03103089901902E-11  1.45147786253551E-01
 cg2d: Sum(rhs),rhsMax =  -2.06291650428625E-11  1.42431399742368E-01
 cg2d: Sum(rhs),rhsMax =  -2.10294004432399E-11  1.39981519553017E-01
 cg2d: Sum(rhs),rhsMax =  -2.14233075723769E-11  1.37658257713823E-01
 cg2d: Sum(rhs),rhsMax =  -2.18164375453966E-11  1.35222154508133E-01
 cg2d: Sum(rhs),rhsMax =  -2.22365459379148E-11  1.32526815700118E-01
 cg2d: Sum(rhs),rhsMax =  -2.26587637541797E-11  1.29884989804185E-01
 cg2d: Sum(rhs),rhsMax =  -2.31619168289399E-11  1.27184723523707E-01
 cg2d: Sum(rhs),rhsMax =  -2.36952679699698E-11  1.24447105978890E-01
 cg2d: Sum(rhs),rhsMax =  -2.42519337945168E-11  1.21671510397443E-01
 cg2d: Sum(rhs),rhsMax =  -2.47425413490987E-11  1.19301622255542E-01
 cg2d: Sum(rhs),rhsMax =  -2.52720067095424E-11  1.16789261382372E-01
 cg2d: Sum(rhs),rhsMax =  -2.53643772651913E-11  1.16267442486809E-01
 cg2d: Sum(rhs),rhsMax =  -2.54297694013417E-11  1.15848276252912E-01
 cg2d: Sum(rhs),rhsMax =  -2.55265808490890E-11  1.15325140749826E-01
 cg2d: Sum(rhs),rhsMax =  -2.56472620918657E-11  1.14704438047040E-01
 cg2d: Sum(rhs),rhsMax =  -2.52405873979455E-11  1.16301314510991E-01
 cg2d: Sum(rhs),rhsMax =  -2.44727571541148E-11  1.19802975675252E-01
 cg2d: Sum(rhs),rhsMax =  -2.38391528739612E-11  1.23204191532288E-01
 cg2d: Sum(rhs),rhsMax =  -2.32384111953365E-11  1.26477008839952E-01
 cg2d: Sum(rhs),rhsMax =  -2.27032836974672E-11  1.29639474208437E-01
(PID.TID 0000.0001)      cg2d_init_res =   6.38286111714335E-02
(PID.TID 0000.0001)      cg2d_iters(min,last) =      -1      29
(PID.TID 0000.0001)      cg2d_last_res =   5.67959892883235E-14
(PID.TID 0000.0001) // =======================================================
(PID.TID 0000.0001) // Begin MONITOR dynamic field statistics
(PID.TID 0000.0001) // =======================================================
(PID.TID 0000.0001) %MON time_tsnumber                =                  1920
(PID.TID 0000.0001) %MON time_secondsf                =   2.8800000000000E+04
(PID.TID 0000.0001) %MON dynstat_eta_max              =   8.3794250387959E-03
(PID.TID 0000.0001) %MON dynstat_eta_min              =  -1.2031883227607E-02
(PID.TID 0000.0001) %MON dynstat_eta_mean             =   3.4068657505012E-15
(PID.TID 0000.0001) %MON dynstat_eta_sd               =   6.6473123691059E-03
(PID.TID 0000.0001) %MON dynstat_eta_del2             =   1.1257224293846E-04
(PID.TID 0000.0001) %MON dynstat_uvel_max             =   9.6586062643729E-01
(PID.TID 0000.0001) %MON dynstat_uvel_min             =  -4.8402560430801E-01
(PID.TID 0000.0001) %MON dynstat_uvel_mean            =   3.7478265848467E-05
(PID.TID 0000.0001) %MON dynstat_uvel_sd              =   6.1688410381618E-02
(PID.TID 0000.0001) %MON dynstat_uvel_del2            =   4.2533382128476E-04
(PID.TID 0000.0001) %MON dynstat_vvel_max             =   0.0000000000000E+00
(PID.TID 0000.0001) %MON dynstat_vvel_min             =   0.0000000000000E+00
(PID.TID 0000.0001) %MON dynstat_vvel_mean            =   0.0000000000000E+00
(PID.TID 0000.0001) %MON dynstat_vvel_sd              =   0.0000000000000E+00
(PID.TID 0000.0001) %MON dynstat_vvel_del2            =   0.0000000000000E+00
(PID.TID 0000.0001) %MON dynstat_wvel_max             =   5.0970135380350E-02
(PID.TID 0000.0001) %MON dynstat_wvel_min             =  -2.3366725374130E-02
(PID.TID 0000.0001) %MON dynstat_wvel_mean            =  -7.0499202478502E-21
(PID.TID 0000.0001) %MON dynstat_wvel_sd              =   2.5814668413447E-03
(PID.TID 0000.0001) %MON dynstat_wvel_del2            =   5.8646595595748E-05
(PID.TID 0000.0001) %MON dynstat_theta_max            =   1.5000000000337E+01
(PID.TID 0000.0001) %MON dynstat_theta_min            =   9.9999999999956E+00
(PID.TID 0000.0001) %MON dynstat_theta_mean           =   1.3087504685865E+01
(PID.TID 0000.0001) %MON dynstat_theta_sd             =   2.3842638193160E+00
(PID.TID 0000.0001) %MON dynstat_theta_del2           =   1.2818071015621E-03
(PID.TID 0000.0001) %MON dynstat_salt_max             =   3.5000000000000E+01
(PID.TID 0000.0001) %MON dynstat_salt_min             =   3.5000000000000E+01
(PID.TID 0000.0001) %MON dynstat_salt_mean            =   3.5000000000000E+01
(PID.TID 0000.0001) %MON dynstat_salt_sd              =   7.1054273576010E-15
(PID.TID 0000.0001) %MON dynstat_salt_del2            =   0.0000000000000E+00
(PID.TID 0000.0001) %MON dynstat_sst_max              =   1.5000000000003E+01
(PID.TID 0000.0001) %MON dynstat_sst_min              =   1.4999999999999E+01
(PID.TID 0000.0001) %MON dynstat_sst_mean             =   1.5000000000002E+01
(PID.TID 0000.0001) %MON dynstat_sst_sd               =   1.4800937190412E-12
(PID.TID 0000.0001) %MON dynstat_sst_del2             =   5.5787465550460E-14
(PID.TID 0000.0001) %MON dynstat_sss_max              =   3.5000000000000E+01
(PID.TID 0000.0001) %MON dynstat_sss_min              =   3.5000000000000E+01
(PID.TID 0000.0001) %MON dynstat_sss_mean             =   3.5000000000000E+01
(PID.TID 0000.0001) %MON dynstat_sss_sd               =   0.0000000000000E+00
(PID.TID 0000.0001) %MON dynstat_sss_del2             =   0.0000000000000E+00
(PID.TID 0000.0001) %MON forcing_qnet_max             =   0.0000000000000E+00
(PID.TID 0000.0001) %MON forcing_qnet_min             =   0.0000000000000E+00
(PID.TID 0000.0001) %MON forcing_qnet_mean            =   0.0000000000000E+00
(PID.TID 0000.0001) %MON forcing_qnet_sd              =   0.0000000000000E+00
(PID.TID 0000.0001) %MON forcing_qnet_del2            =   0.0000000000000E+00
(PID.TID 0000.0001) %MON forcing_qsw_max              =   0.0000000000000E+00
(PID.TID 0000.0001) %MON forcing_qsw_min              =   0.0000000000000E+00
(PID.TID 0000.0001) %MON forcing_qsw_mean             =   0.0000000000000E+00
(PID.TID 0000.0001) %MON forcing_qsw_sd               =   0.0000000000000E+00
(PID.TID 0000.0001) %MON forcing_qsw_del2             =   0.0000000000000E+00
(PID.TID 0000.0001) %MON forcing_empmr_max            =   0.0000000000000E+00
(PID.TID 0000.0001) %MON forcing_empmr_min            =   0.0000000000000E+00
(PID.TID 0000.0001) %MON forcing_empmr_mean           =   0.0000000000000E+00
(PID.TID 0000.0001) %MON forcing_empmr_sd             =   0.0000000000000E+00
(PID.TID 0000.0001) %MON forcing_empmr_del2           =   0.0000000000000E+00
(PID.TID 0000.0001) %MON forcing_fu_max               =   0.0000000000000E+00
(PID.TID 0000.0001) %MON forcing_fu_min               =   0.0000000000000E+00
(PID.TID 0000.0001) %MON forcing_fu_mean              =   0.0000000000000E+00
(PID.TID 0000.0001) %MON forcing_fu_sd                =   0.0000000000000E+00
(PID.TID 0000.0001) %MON forcing_fu_del2              =   0.0000000000000E+00
(PID.TID 0000.0001) %MON forcing_fv_max               =   0.0000000000000E+00
(PID.TID 0000.0001) %MON forcing_fv_min               =   0.0000000000000E+00
(PID.TID 0000.0001) %MON forcing_fv_mean              =   0.0000000000000E+00
(PID.TID 0000.0001) %MON forcing_fv_sd                =   0.0000000000000E+00
(PID.TID 0000.0001) %MON forcing_fv_del2              =   0.0000000000000E+00
(PID.TID 0000.0001) %MON advcfl_uvel_max              =   7.1885656392006E-02
(PID.TID 0000.0001) %MON advcfl_vvel_max              =   0.0000000000000E+00
(PID.TID 0000.0001) %MON advcfl_wvel_max              =   3.4450803617339E-01
(PID.TID 0000.0001) %MON advcfl_W_hf_max              =   3.4874994116497E-01
(PID.TID 0000.0001) %MON pe_b_mean                    =   1.2404335127572E-06
(PID.TID 0000.0001) %MON ke_max                       =   3.7893763099794E-01
(PID.TID 0000.0001) %MON ke_mean                      =   1.9237928036027E-03
(PID.TID 0000.0001) %MON ke_vol                       =   8.5336562999261E+10
(PID.TID 0000.0001) %MON vort_r_min                   =   0.0000000000000E+00
(PID.TID 0000.0001) %MON vort_r_max                   =   0.0000000000000E+00
(PID.TID 0000.0001) %MON vort_a_mean                  =   0.0000000000000E+00
(PID.TID 0000.0001) %MON vort_a_sd                    =   0.0000000000000E+00
(PID.TID 0000.0001) %MON vort_p_mean                  =   0.0000000000000E+00
(PID.TID 0000.0001) %MON vort_p_sd                    =   0.0000000000000E+00
(PID.TID 0000.0001) %MON surfExpan_theta_mean         =  -5.1183888478849E-19
(PID.TID 0000.0001) %MON surfExpan_salt_mean          =  -9.8393176783625E-19
(PID.TID 0000.0001) // =======================================================
(PID.TID 0000.0001) // End MONITOR dynamic field statistics
(PID.TID 0000.0001) // =======================================================
(PID.TID 0000.0001) // =======================================================
(PID.TID 0000.0001) // Begin OBCS MONITOR field statistics
(PID.TID 0000.0001) // =======================================================
(PID.TID 0000.0001) %MON obc_E_uVel_max               =   0.0000000000000E+00
(PID.TID 0000.0001) %MON obc_E_uVel_min               =   0.0000000000000E+00
(PID.TID 0000.0001) %MON obc_E_uVel_mean              =   0.0000000000000E+00
(PID.TID 0000.0001) %MON obc_E_uVel_sd                =   0.0000000000000E+00
(PID.TID 0000.0001) %MON obc_E_uVel_Int               =   0.0000000000000E+00
(PID.TID 0000.0001) %MON obc_W_uVel_max               =   0.0000000000000E+00
(PID.TID 0000.0001) %MON obc_W_uVel_min               =   0.0000000000000E+00
(PID.TID 0000.0001) %MON obc_W_uVel_mean              =   0.0000000000000E+00
(PID.TID 0000.0001) %MON obc_W_uVel_sd                =   0.0000000000000E+00
(PID.TID 0000.0001) %MON obc_W_uVel_Int               =   0.0000000000000E+00
(PID.TID 0000.0001) // =======================================================
(PID.TID 0000.0001) // End OBCS MONITOR field statistics
(PID.TID 0000.0001) // =======================================================
 cg2d: Sum(rhs),rhsMax =  -2.21894724816707E-11  1.32666863802793E-01
 cg2d: Sum(rhs),rhsMax =  -2.16930917673608E-11  1.35560104595816E-01
 cg2d: Sum(rhs),rhsMax =  -2.12878603633726E-11  1.38311504306748E-01
 cg2d: Sum(rhs),rhsMax =  -2.09735562251012E-11  1.40798995814484E-01
 cg2d: Sum(rhs),rhsMax =  -2.06010764003395E-11  1.43514034024205E-01
 cg2d: Sum(rhs),rhsMax =  -2.02728944742603E-11  1.45711423105453E-01
 cg2d: Sum(rhs),rhsMax =  -1.99773531051051E-11  1.47908038973261E-01
 cg2d: Sum(rhs),rhsMax =  -1.97154514935960E-11  1.50009926704297E-01
 cg2d: Sum(rhs),rhsMax =  -1.94830818145419E-11  1.52005835101876E-01
 cg2d: Sum(rhs),rhsMax =  -1.92125204634408E-11  1.53851198839666E-01
 cg2d: Sum(rhs),rhsMax =  -1.89901983027596E-11  1.55614860278932E-01
 cg2d: Sum(rhs),rhsMax =  -1.88191129346649E-11  1.57252078549074E-01
 cg2d: Sum(rhs),rhsMax =  -1.86477500108140E-11  1.58716086016508E-01
 cg2d: Sum(rhs),rhsMax =  -1.84852688711601E-11  1.60091861119010E-01
 cg2d: Sum(rhs),rhsMax =  -1.83720816337996E-11  1.61311836154018E-01
 cg2d: Sum(rhs),rhsMax =  -1.82641679558060E-11  1.62411284584549E-01
 cg2d: Sum(rhs),rhsMax =  -1.81698545098641E-11  1.63389589399847E-01
 cg2d: Sum(rhs),rhsMax =  -1.80764847534931E-11  1.64233728936578E-01
 cg2d: Sum(rhs),rhsMax =  -1.79963266511152E-11  1.64950196260931E-01
 cg2d: Sum(rhs),rhsMax =  -1.79382064757760E-11  1.65556589304338E-01
 cg2d: Sum(rhs),rhsMax =  -1.78709269604838E-11  1.66042716532682E-01
 cg2d: Sum(rhs),rhsMax =  -1.78176917664530E-11  1.66398830473287E-01
 cg2d: Sum(rhs),rhsMax =  -1.75429670790095E-11  1.68625597963208E-01
 cg2d: Sum(rhs),rhsMax =  -1.76197945123135E-11  1.67459467086418E-01
 cg2d: Sum(rhs),rhsMax =  -1.75718883888010E-11  1.67432031284139E-01
 cg2d: Sum(rhs),rhsMax =  -1.76322845213406E-11  1.67041575666994E-01
 cg2d: Sum(rhs),rhsMax =  -1.77146075586165E-11  1.66642374914199E-01
 cg2d: Sum(rhs),rhsMax =  -1.78388415150721E-11  1.66182681127023E-01
 cg2d: Sum(rhs),rhsMax =  -1.78655978899656E-11  1.65555395512205E-01
 cg2d: Sum(rhs),rhsMax =  -1.78870251943408E-11  1.64793329477824E-01
 cg2d: Sum(rhs),rhsMax =  -1.79420367452110E-11  1.63933416760299E-01
 cg2d: Sum(rhs),rhsMax =  -1.80157000428949E-11  1.62997745731660E-01
 cg2d: Sum(rhs),rhsMax =  -1.80938597438285E-11  1.61953806752632E-01
 cg2d: Sum(rhs),rhsMax =  -1.82170389884106E-11  1.60810829963652E-01
 cg2d: Sum(rhs),rhsMax =  -1.83007498044674E-11  1.59569196297842E-01
 cg2d: Sum(rhs),rhsMax =  -1.84016135662546E-11  1.58228709102730E-01
 cg2d: Sum(rhs),rhsMax =  -1.84914861200980E-11  1.56810524978849E-01
 cg2d: Sum(rhs),rhsMax =  -1.86472504104529E-11  1.55321151520264E-01
 cg2d: Sum(rhs),rhsMax =  -1.88243309828806E-11  1.53870537290298E-01
 cg2d: Sum(rhs),rhsMax =  -1.90480964334938E-11  1.52309948956279E-01
 cg2d: Sum(rhs),rhsMax =  -1.92572069401820E-11  1.50647793722213E-01
 cg2d: Sum(rhs),rhsMax =  -1.94800842123755E-11  1.48906523549857E-01
 cg2d: Sum(rhs),rhsMax =  -1.97140082036640E-11  1.47078433582717E-01
 cg2d: Sum(rhs),rhsMax =  -1.99656957633465E-11  1.45183933692248E-01
 cg2d: Sum(rhs),rhsMax =  -2.02148298100724E-11  1.43243311441733E-01
 cg2d: Sum(rhs),rhsMax =  -2.04826156036120E-11  1.41231995792977E-01
 cg2d: Sum(rhs),rhsMax =  -2.07833750209829E-11  1.39161660955154E-01
 cg2d: Sum(rhs),rhsMax =  -2.10860218174957E-11  1.37036058380544E-01
 cg2d: Sum(rhs),rhsMax =  -2.14693818278988E-11  1.34845152548639E-01
 cg2d: Sum(rhs),rhsMax =  -2.18323137346488E-11  1.32583414104645E-01
 cg2d: Sum(rhs),rhsMax =  -2.22517559933522E-11  1.30258931946239E-01
 cg2d: Sum(rhs),rhsMax =  -2.26315632900764E-11  1.27901924158923E-01
 cg2d: Sum(rhs),rhsMax =  -2.30361285602498E-11  1.25538905157779E-01
 cg2d: Sum(rhs),rhsMax =  -2.34010588684441E-11  1.23234450436473E-01
 cg2d: Sum(rhs),rhsMax =  -2.37920794177171E-11  1.20863718058099E-01
 cg2d: Sum(rhs),rhsMax =  -2.42369457836844E-11  1.18458999899375E-01
 cg2d: Sum(rhs),rhsMax =  -2.50000020685093E-11  1.14676431530868E-01
 cg2d: Sum(rhs),rhsMax =  -2.51724197042336E-11  1.13626039183492E-01
 cg2d: Sum(rhs),rhsMax =  -2.51544340912346E-11  1.13557346047544E-01
 cg2d: Sum(rhs),rhsMax =  -2.51435539055933E-11  1.13373190484905E-01
 cg2d: Sum(rhs),rhsMax =  -2.52268206324402E-11  1.13097163098180E-01
 cg2d: Sum(rhs),rhsMax =  -2.52571297210125E-11  1.12741712209034E-01
 cg2d: Sum(rhs),rhsMax =  -2.53310705744525E-11  1.12306574091770E-01
 cg2d: Sum(rhs),rhsMax =  -2.54365417617919E-11  1.11780549330842E-01
 cg2d: Sum(rhs),rhsMax =  -2.52795562261099E-11  1.12315479927122E-01
 cg2d: Sum(rhs),rhsMax =  -2.45271580823214E-11  1.15488701412197E-01
 cg2d: Sum(rhs),rhsMax =  -2.37967423544205E-11  1.18557565614158E-01
 cg2d: Sum(rhs),rhsMax =  -2.32456276449966E-11  1.21533767526435E-01
 cg2d: Sum(rhs),rhsMax =  -2.26562102412231E-11  1.24398100001155E-01
 cg2d: Sum(rhs),rhsMax =  -2.21185292303971E-11  1.27180661640227E-01
 cg2d: Sum(rhs),rhsMax =  -2.16077711279183E-11  1.29846495319012E-01
 cg2d: Sum(rhs),rhsMax =  -2.11502482194703E-11  1.32421377309586E-01
 cg2d: Sum(rhs),rhsMax =  -2.07115991024409E-11  1.34893591024315E-01
 cg2d: Sum(rhs),rhsMax =  -2.02907690649567E-11  1.37246587732954E-01
 cg2d: Sum(rhs),rhsMax =  -1.99247840448891E-11  1.39505394716486E-01
 cg2d: Sum(rhs),rhsMax =  -1.95625737831051E-11  1.41641298480987E-01
 cg2d: Sum(rhs),rhsMax =  -1.92247884278629E-11  1.43669265754700E-01
 cg2d: Sum(rhs),rhsMax =  -1.89810389628065E-11  1.45596112591043E-01
 cg2d: Sum(rhs),rhsMax =  -1.88474236217928E-11  1.47410913462389E-01
 cg2d: Sum(rhs),rhsMax =  -1.86660686907203E-11  1.49107568516926E-01
 cg2d: Sum(rhs),rhsMax =  -1.85015891496221E-11  1.50677083559554E-01
 cg2d: Sum(rhs),rhsMax =  -1.83033033174240E-11  1.52142725772590E-01
 cg2d: Sum(rhs),rhsMax =  -1.81163417600771E-11  1.53513318405142E-01
 cg2d: Sum(rhs),rhsMax =  -1.80271908511997E-11  1.54785586082400E-01
 cg2d: Sum(rhs),rhsMax =  -1.79206094408357E-11  1.55936274787882E-01
 cg2d: Sum(rhs),rhsMax =  -1.78465575650932E-11  1.56979799631505E-01
 cg2d: Sum(rhs),rhsMax =  -1.77600156803237E-11  1.57897692146060E-01
 cg2d: Sum(rhs),rhsMax =  -1.76955672337442E-11  1.58717478860961E-01
 cg2d: Sum(rhs),rhsMax =  -1.76660908124404E-11  1.59423741230517E-01
 cg2d: Sum(rhs),rhsMax =  -1.76532122253548E-11  1.60031897611934E-01
 cg2d: Sum(rhs),rhsMax =  -1.76378356364637E-11  1.60543740297445E-01
 cg2d: Sum(rhs),rhsMax =  -1.76413328389913E-11  1.60952013271113E-01
 cg2d: Sum(rhs),rhsMax =  -1.76035852561540E-11  1.61254253447570E-01
 cg2d: Sum(rhs),rhsMax =  -1.75742753683039E-11  1.61465991032977E-01
 cg2d: Sum(rhs),rhsMax =  -1.75623404707892E-11  1.61540782403495E-01
 cg2d: Sum(rhs),rhsMax =  -1.75429115678583E-11  1.61522782263708E-01
 cg2d: Sum(rhs),rhsMax =  -1.75427450344046E-11  1.61424324368017E-01
 cg2d: Sum(rhs),rhsMax =  -1.75991998752068E-11  1.61232924603665E-01
 cg2d: Sum(rhs),rhsMax =  -1.76657022343818E-11  1.60835496976265E-01
 cg2d: Sum(rhs),rhsMax =  -1.77696191094867E-11  1.60481352400471E-01
 cg2d: Sum(rhs),rhsMax =  -1.78194681232924E-11  1.60044764787517E-01
 cg2d: Sum(rhs),rhsMax =  -1.78074222034752E-11  1.59511570069498E-01
 cg2d: Sum(rhs),rhsMax =  -1.78543291262656E-11  1.58835842645946E-01
 cg2d: Sum(rhs),rhsMax =  -1.78893011515413E-11  1.58122370179952E-01
 cg2d: Sum(rhs),rhsMax =  -1.79364856300879E-11  1.57348901123603E-01
 cg2d: Sum(rhs),rhsMax =  -1.79986026083157E-11  1.56359635128580E-01
 cg2d: Sum(rhs),rhsMax =  -1.80770953761566E-11  1.55431201637832E-01
 cg2d: Sum(rhs),rhsMax =  -1.81420434230972E-11  1.54430999438371E-01
 cg2d: Sum(rhs),rhsMax =  -1.82130976966732E-11  1.53341326250190E-01
 cg2d: Sum(rhs),rhsMax =  -1.83232873318673E-11  1.52184412443754E-01
 cg2d: Sum(rhs),rhsMax =  -1.84248727386205E-11  1.50960989317848E-01
 cg2d: Sum(rhs),rhsMax =  -1.85589876799952E-11  1.49673047431867E-01
 cg2d: Sum(rhs),rhsMax =  -1.87116988570324E-11  1.48352348444214E-01
 cg2d: Sum(rhs),rhsMax =  -1.88630777664400E-11  1.46977877765949E-01
 cg2d: Sum(rhs),rhsMax =  -1.90378268705160E-11  1.45535630034382E-01
 cg2d: Sum(rhs),rhsMax =  -1.92363347473190E-11  1.44043198509404E-01
 cg2d: Sum(rhs),rhsMax =  -1.94480542781150E-11  1.42505321743602E-01
 cg2d: Sum(rhs),rhsMax =  -1.96540561603342E-11  1.40920779318307E-01
 cg2d: Sum(rhs),rhsMax =  -1.98982497146005E-11  1.39297072744157E-01
 cg2d: Sum(rhs),rhsMax =  -2.01429983803791E-11  1.37631003161459E-01
 cg2d: Sum(rhs),rhsMax =  -2.03896344252996E-11  1.35917520386051E-01
 cg2d: Sum(rhs),rhsMax =  -2.06595296425860E-11  1.34179420725405E-01
 cg2d: Sum(rhs),rhsMax =  -2.09157691166695E-11  1.32411998424616E-01
 cg2d: Sum(rhs),rhsMax =  -2.11965445195972E-11  1.30600527194600E-01
 cg2d: Sum(rhs),rhsMax =  -2.15046869200819E-11  1.28721680830113E-01
 cg2d: Sum(rhs),rhsMax =  -2.18026152687401E-11  1.26801609555739E-01
 cg2d: Sum(rhs),rhsMax =  -2.21196949645730E-11  1.24853218197206E-01
 cg2d: Sum(rhs),rhsMax =  -2.24738005982772E-11  1.22867823448183E-01
 cg2d: Sum(rhs),rhsMax =  -2.28229102283706E-11  1.20853605693990E-01
 cg2d: Sum(rhs),rhsMax =  -2.31941688078052E-11  1.18815394319512E-01
 cg2d: Sum(rhs),rhsMax =  -2.35961805650220E-11  1.16765826344525E-01
 cg2d: Sum(rhs),rhsMax =  -2.40275577212401E-11  1.14695057079567E-01
 cg2d: Sum(rhs),rhsMax =  -2.44588793663070E-11  1.12622918344948E-01
 cg2d: Sum(rhs),rhsMax =  -2.48051579276876E-11  1.11148696998035E-01
 cg2d: Sum(rhs),rhsMax =  -2.49024134646447E-11  1.10816132588669E-01
 cg2d: Sum(rhs),rhsMax =  -2.50003906465679E-11  1.10392194859387E-01
 cg2d: Sum(rhs),rhsMax =  -2.48841502958896E-11  1.10923066118045E-01
 cg2d: Sum(rhs),rhsMax =  -2.42020847807112E-11  1.14115202304732E-01
 cg2d: Sum(rhs),rhsMax =  -2.35462205289139E-11  1.17203519856781E-01
 cg2d: Sum(rhs),rhsMax =  -2.29500862758414E-11  1.20212250399835E-01
 cg2d: Sum(rhs),rhsMax =  -2.24082419286731E-11  1.23155415514953E-01
 cg2d: Sum(rhs),rhsMax =  -2.18604023771718E-11  1.26016038331600E-01
 cg2d: Sum(rhs),rhsMax =  -2.13930539949558E-11  1.28763978786059E-01
 cg2d: Sum(rhs),rhsMax =  -2.09251505012276E-11  1.31433729156595E-01
 cg2d: Sum(rhs),rhsMax =  -2.05092609562030E-11  1.34024533504178E-01
 cg2d: Sum(rhs),rhsMax =  -2.01067495986251E-11  1.36504444398990E-01
 cg2d: Sum(rhs),rhsMax =  -1.97538096990968E-11  1.38867766117201E-01
 cg2d: Sum(rhs),rhsMax =  -1.94026461564079E-11  1.41140306869916E-01
 cg2d: Sum(rhs),rhsMax =  -1.90850668602138E-11  1.43302227127610E-01
 cg2d: Sum(rhs),rhsMax =  -1.88052351468571E-11  1.45374204307982E-01
 cg2d: Sum(rhs),rhsMax =  -1.85377269090736E-11  1.47280074694389E-01
 cg2d: Sum(rhs),rhsMax =  -1.82843740148542E-11  1.49132113457444E-01
 cg2d: Sum(rhs),rhsMax =  -1.80498394009021E-11  1.50895827132149E-01
 cg2d: Sum(rhs),rhsMax =  -1.79468662153681E-11  1.52484996461154E-01
 cg2d: Sum(rhs),rhsMax =  -1.78455028532198E-11  1.53982326811958E-01
 cg2d: Sum(rhs),rhsMax =  -1.77361181297186E-11  1.55413628569770E-01
 cg2d: Sum(rhs),rhsMax =  -1.75485737052838E-11  1.56741165259226E-01
 cg2d: Sum(rhs),rhsMax =  -1.74091019378153E-11  1.57950079564021E-01
 cg2d: Sum(rhs),rhsMax =  -1.72960812339085E-11  1.59056686277638E-01
 cg2d: Sum(rhs),rhsMax =  -1.72382386143255E-11  1.60036065424105E-01
 cg2d: Sum(rhs),rhsMax =  -1.71147818139872E-11  1.60904509873146E-01
 cg2d: Sum(rhs),rhsMax =  -1.70083391815012E-11  1.61698143451097E-01
 cg2d: Sum(rhs),rhsMax =  -1.68982605686097E-11  1.62406496895044E-01
 cg2d: Sum(rhs),rhsMax =  -1.68171310210852E-11  1.63023988748667E-01
 cg2d: Sum(rhs),rhsMax =  -1.67441893683673E-11  1.63562681388798E-01
 cg2d: Sum(rhs),rhsMax =  -1.67791613936430E-11  1.63998641057416E-01
 cg2d: Sum(rhs),rhsMax =  -1.68286773405413E-11  1.64355321063072E-01
 cg2d: Sum(rhs),rhsMax =  -1.68904334962861E-11  1.64626245491155E-01
 cg2d: Sum(rhs),rhsMax =  -1.69695923979418E-11  1.64805149581250E-01
 cg2d: Sum(rhs),rhsMax =  -1.69427527563215E-11  1.64897488986023E-01
 cg2d: Sum(rhs),rhsMax =  -1.69399216876087E-11  1.64905709068798E-01
 cg2d: Sum(rhs),rhsMax =  -1.69283753681526E-11  1.64817043058363E-01
 cg2d: Sum(rhs),rhsMax =  -1.69143310468911E-11  1.64662243156827E-01
 cg2d: Sum(rhs),rhsMax =  -1.69065039745675E-11  1.64413265725942E-01
 cg2d: Sum(rhs),rhsMax =  -1.68901836961055E-11  1.64081281765725E-01
 cg2d: Sum(rhs),rhsMax =  -1.68912939191301E-11  1.63686292606642E-01
 cg2d: Sum(rhs),rhsMax =  -1.68778879761078E-11  1.63199196845883E-01
 cg2d: Sum(rhs),rhsMax =  -1.68802749556107E-11  1.62656263235402E-01
 cg2d: Sum(rhs),rhsMax =  -1.69003699923564E-11  1.62049389159703E-01
 cg2d: Sum(rhs),rhsMax =  -1.69116110004808E-11  1.61366141892574E-01
 cg2d: Sum(rhs),rhsMax =  -1.69180502940236E-11  1.60628177197784E-01
 cg2d: Sum(rhs),rhsMax =  -1.69387004422816E-11  1.59834392180612E-01
 cg2d: Sum(rhs),rhsMax =  -1.69713409992056E-11  1.58966259849723E-01
 cg2d: Sum(rhs),rhsMax =  -1.70166658541859E-11  1.58012131618992E-01
 cg2d: Sum(rhs),rhsMax =  -1.70670699795039E-11  1.57048572457470E-01
 cg2d: Sum(rhs),rhsMax =  -1.71311853591760E-11  1.56036530275988E-01
 cg2d: Sum(rhs),rhsMax =  -1.71931635595257E-11  1.54975579803684E-01
 cg2d: Sum(rhs),rhsMax =  -1.72443725965366E-11  1.53878603527999E-01
 cg2d: Sum(rhs),rhsMax =  -1.73129843794584E-11  1.52726273188490E-01
 cg2d: Sum(rhs),rhsMax =  -1.73653036394938E-11  1.51553601391374E-01
 cg2d: Sum(rhs),rhsMax =  -1.74417147391637E-11  1.50352776224009E-01
 cg2d: Sum(rhs),rhsMax =  -1.74924519313890E-11  1.49098494800134E-01
 cg2d: Sum(rhs),rhsMax =  -1.75586767348079E-11  1.47793032708917E-01
 cg2d: Sum(rhs),rhsMax =  -1.76258452277978E-11  1.46465456861865E-01
 cg2d: Sum(rhs),rhsMax =  -1.77044490179412E-11  1.45093290878129E-01
 cg2d: Sum(rhs),rhsMax =  -1.78020931329570E-11  1.43692090495702E-01
 cg2d: Sum(rhs),rhsMax =  -1.79077863649013E-11  1.42240923867909E-01
 cg2d: Sum(rhs),rhsMax =  -1.79934400712511E-11  1.40752179636351E-01
 cg2d: Sum(rhs),rhsMax =  -1.81111237118614E-11  1.39232782069895E-01
 cg2d: Sum(rhs),rhsMax =  -1.82505677237543E-11  1.37683472321876E-01
 cg2d: Sum(rhs),rhsMax =  -1.83921211593940E-11  1.36110295305218E-01
 cg2d: Sum(rhs),rhsMax =  -1.86106685617915E-11  1.34526900970993E-01
 cg2d: Sum(rhs),rhsMax =  -1.87687643204981E-11  1.32935006541180E-01
 cg2d: Sum(rhs),rhsMax =  -1.88616344765080E-11  1.31336963236069E-01
 cg2d: Sum(rhs),rhsMax =  -1.89540050321568E-11  1.29712845966008E-01
 cg2d: Sum(rhs),rhsMax =  -1.90907289976394E-11  1.28109325909790E-01
 cg2d: Sum(rhs),rhsMax =  -1.91991422759941E-11  1.26501329646154E-01
 cg2d: Sum(rhs),rhsMax =  -1.93263738346161E-11  1.24898726029365E-01
 cg2d: Sum(rhs),rhsMax =  -1.94586013968490E-11  1.23300094469902E-01
 cg2d: Sum(rhs),rhsMax =  -1.95973792749271E-11  1.21719015364853E-01
 cg2d: Sum(rhs),rhsMax =  -1.97093452669606E-11  1.20140259091889E-01
 cg2d: Sum(rhs),rhsMax =  -1.98352445579530E-11  1.18568908038481E-01
 cg2d: Sum(rhs),rhsMax =  -1.99730232353090E-11  1.17007873944404E-01
 cg2d: Sum(rhs),rhsMax =  -1.98374094928511E-11  1.17125207709918E-01
 cg2d: Sum(rhs),rhsMax =  -1.92189597569836E-11  1.20034117516274E-01
 cg2d: Sum(rhs),rhsMax =  -1.86339277341574E-11  1.22839936200719E-01
 cg2d: Sum(rhs),rhsMax =  -1.81153980705062E-11  1.25569173104048E-01
 cg2d: Sum(rhs),rhsMax =  -1.76169079324495E-11  1.28257352280488E-01
 cg2d: Sum(rhs),rhsMax =  -1.71366254519967E-11  1.30889906593372E-01
 cg2d: Sum(rhs),rhsMax =  -1.66829328129836E-11  1.33425253761337E-01
 cg2d: Sum(rhs),rhsMax =  -1.62767022082733E-11  1.35874921833408E-01
 cg2d: Sum(rhs),rhsMax =  -1.58686952467235E-11  1.38241042807648E-01
 cg2d: Sum(rhs),rhsMax =  -1.55231938414602E-11  1.40510412184152E-01
 cg2d: Sum(rhs),rhsMax =  -1.52446943957329E-11  1.42703776963795E-01
 cg2d: Sum(rhs),rhsMax =  -1.51054724284450E-11  1.44805039782039E-01
 cg2d: Sum(rhs),rhsMax =  -1.48651091436136E-11  1.46824716284036E-01
 cg2d: Sum(rhs),rhsMax =  -1.46144207846532E-11  1.48740122052688E-01
 cg2d: Sum(rhs),rhsMax =  -1.43893785775617E-11  1.50530732484829E-01
 cg2d: Sum(rhs),rhsMax =  -1.41736622438771E-11  1.52240031725203E-01
 cg2d: Sum(rhs),rhsMax =  -1.39618872019298E-11  1.53872414602943E-01
 cg2d: Sum(rhs),rhsMax =  -1.37444500225570E-11  1.55419365133537E-01
 cg2d: Sum(rhs),rhsMax =  -1.35406685863870E-11  1.56867264880017E-01
 cg2d: Sum(rhs),rhsMax =  -1.33791311363041E-11  1.58243158434518E-01
 cg2d: Sum(rhs),rhsMax =  -1.32461819291052E-11  1.59513059126096E-01
 cg2d: Sum(rhs),rhsMax =  -1.31176736140048E-11  1.60686584515140E-01
 cg2d: Sum(rhs),rhsMax =  -1.30182531421497E-11  1.61744372749505E-01
 cg2d: Sum(rhs),rhsMax =  -1.29959376593547E-11  1.62726356909199E-01
 cg2d: Sum(rhs),rhsMax =  -1.28511090657923E-11  1.63597007843053E-01
 cg2d: Sum(rhs),rhsMax =  -1.27076127398595E-11  1.64397027298792E-01
 cg2d: Sum(rhs),rhsMax =  -1.25831567387991E-11  1.65141113875041E-01
 cg2d: Sum(rhs),rhsMax =  -1.24513732657761E-11  1.65794282898715E-01
 cg2d: Sum(rhs),rhsMax =  -1.23153709452595E-11  1.66344785957017E-01
 cg2d: Sum(rhs),rhsMax =  -1.21730958646538E-11  1.66831985054991E-01
 cg2d: Sum(rhs),rhsMax =  -1.20513599100036E-11  1.67275217680452E-01
 cg2d: Sum(rhs),rhsMax =  -1.19511622820312E-11  1.67643105707029E-01
 cg2d: Sum(rhs),rhsMax =  -1.18341447752357E-11  1.67938629425314E-01
 cg2d: Sum(rhs),rhsMax =  -1.17292286994086E-11  1.68149029840430E-01
 cg2d: Sum(rhs),rhsMax =  -1.16159859508969E-11  1.68300562949798E-01
 cg2d: Sum(rhs),rhsMax =  -1.15191189919983E-11  1.68372023366266E-01
 cg2d: Sum(rhs),rhsMax =  -1.14415699137282E-11  1.68373786182958E-01
 cg2d: Sum(rhs),rhsMax =  -1.13518638933385E-11  1.68316661163878E-01
 cg2d: Sum(rhs),rhsMax =  -1.12720388578680E-11  1.68202534106189E-01
 cg2d: Sum(rhs),rhsMax =  -1.12057585432979E-11  1.68014939740863E-01
 cg2d: Sum(rhs),rhsMax =  -1.11473053010513E-11  1.67751212373684E-01
 cg2d: Sum(rhs),rhsMax =  -1.11202713704017E-11  1.67411995207104E-01
 cg2d: Sum(rhs),rhsMax =  -1.10704778677473E-11  1.67029603795519E-01
 cg2d: Sum(rhs),rhsMax =  -1.10182973855899E-11  1.66615129947135E-01
 cg2d: Sum(rhs),rhsMax =  -1.09522391156247E-11  1.66117857559408E-01
 cg2d: Sum(rhs),rhsMax =  -1.09124376201919E-11  1.65593601614567E-01
 cg2d: Sum(rhs),rhsMax =  -1.08744679927497E-11  1.65004992689503E-01
 cg2d: Sum(rhs),rhsMax =  -1.08424935696405E-11  1.64378251698050E-01
 cg2d: Sum(rhs),rhsMax =  -1.08260622688761E-11  1.63684726334403E-01
 cg2d: Sum(rhs),rhsMax =  -1.08175135515864E-11  1.62960912999480E-01
 cg2d: Sum(rhs),rhsMax =  -1.07666653370586E-11  1.62223159917577E-01
 cg2d: Sum(rhs),rhsMax =  -1.07430175866341E-11  1.61419408183902E-01
 cg2d: Sum(rhs),rhsMax =  -1.07502895474454E-11  1.60597615584157E-01
 cg2d: Sum(rhs),rhsMax =  -1.08008602062171E-11  1.59740688299350E-01
 cg2d: Sum(rhs),rhsMax =  -1.09097175737816E-11  1.58830651344573E-01
 cg2d: Sum(rhs),rhsMax =  -1.10286224597189E-11  1.57888463768691E-01
 cg2d: Sum(rhs),rhsMax =  -1.11212150599727E-11  1.56954721083317E-01
 cg2d: Sum(rhs),rhsMax =  -1.11766151889015E-11  1.55959836247611E-01
 cg2d: Sum(rhs),rhsMax =  -1.11933795565733E-11  1.54926984051534E-01
 cg2d: Sum(rhs),rhsMax =  -1.12001519170235E-11  1.53863978878917E-01
 cg2d: Sum(rhs),rhsMax =  -1.12245768235653E-11  1.52742765225841E-01
 cg2d: Sum(rhs),rhsMax =  -1.12397868790026E-11  1.51618615982906E-01
 cg2d: Sum(rhs),rhsMax =  -1.12689302333990E-11  1.50463599046313E-01
 cg2d: Sum(rhs),rhsMax =  -1.13044573701870E-11  1.49276802328020E-01
 cg2d: Sum(rhs),rhsMax =  -1.13241638288741E-11  1.48056900301308E-01
 cg2d: Sum(rhs),rhsMax =  -1.13538622947829E-11  1.46822094812569E-01
 cg2d: Sum(rhs),rhsMax =  -1.13704046178498E-11  1.45565391553817E-01
 cg2d: Sum(rhs),rhsMax =  -1.14044884647058E-11  1.44324551835076E-01
 cg2d: Sum(rhs),rhsMax =  -1.14294684827598E-11  1.43086886410329E-01
 cg2d: Sum(rhs),rhsMax =  -1.14572795695267E-11  1.41801769371141E-01
 cg2d: Sum(rhs),rhsMax =  -1.14939169293393E-11  1.40512125964470E-01
 cg2d: Sum(rhs),rhsMax =  -1.15307763337569E-11  1.39212191348227E-01
 cg2d: Sum(rhs),rhsMax =  -1.15669140932084E-11  1.37915193778456E-01
 cg2d: Sum(rhs),rhsMax =  -1.15795706356892E-11  1.36598746248392E-01
 cg2d: Sum(rhs),rhsMax =  -1.16104348357737E-11  1.35270831505765E-01
 cg2d: Sum(rhs),rhsMax =  -1.16436860153613E-11  1.33954984332419E-01
 cg2d: Sum(rhs),rhsMax =  -1.16709975017670E-11  1.32640412534926E-01
 cg2d: Sum(rhs),rhsMax =  -1.16966991647871E-11  1.31296408544900E-01
 cg2d: Sum(rhs),rhsMax =  -1.17525988940770E-11  1.29930601726693E-01
 cg2d: Sum(rhs),rhsMax =  -1.18087761791230E-11  1.28572407536055E-01
 cg2d: Sum(rhs),rhsMax =  -1.14811493645561E-11  1.31226795241191E-01
 cg2d: Sum(rhs),rhsMax =  -1.11594622431710E-11  1.33934826215105E-01
 cg2d: Sum(rhs),rhsMax =  -1.08891229366748E-11  1.36558359732379E-01
 cg2d: Sum(rhs),rhsMax =  -1.06129549592993E-11  1.39097307906434E-01
 cg2d: Sum(rhs),rhsMax =  -1.03546060614690E-11  1.41560627945269E-01
 cg2d: Sum(rhs),rhsMax =  -1.01205155367268E-11  1.43938143873133E-01
 cg2d: Sum(rhs),rhsMax =  -9.89869297640666E-12  1.46211411883386E-01
 cg2d: Sum(rhs),rhsMax =  -9.67220747938313E-12  1.48357588189370E-01
 cg2d: Sum(rhs),rhsMax =  -9.47275591300922E-12  1.50419235257193E-01
 cg2d: Sum(rhs),rhsMax =  -9.29450960640565E-12  1.52395710934827E-01
 cg2d: Sum(rhs),rhsMax =  -9.12098174765674E-12  1.54261832256595E-01
 cg2d: Sum(rhs),rhsMax =  -8.97459884185992E-12  1.56039496438235E-01
 cg2d: Sum(rhs),rhsMax =  -8.82660611267738E-12  1.57718493253384E-01
 cg2d: Sum(rhs),rhsMax =  -8.68399796516428E-12  1.59318615185019E-01
 cg2d: Sum(rhs),rhsMax =  -8.56231752166536E-12  1.60832874327634E-01
 cg2d: Sum(rhs),rhsMax =  -8.43053404864236E-12  1.62256163822155E-01
 cg2d: Sum(rhs),rhsMax =  -8.30285840081046E-12  1.63590594747413E-01
 cg2d: Sum(rhs),rhsMax =  -8.18195511342878E-12  1.64818476061300E-01
 cg2d: Sum(rhs),rhsMax =  -8.08519917683270E-12  1.65966026078448E-01
 cg2d: Sum(rhs),rhsMax =  -7.98477950425536E-12  1.67018923504442E-01
 cg2d: Sum(rhs),rhsMax =  -7.88324960865339E-12  1.67980729029635E-01
 cg2d: Sum(rhs),rhsMax =  -7.79831754726956E-12  1.68819367732958E-01
 cg2d: Sum(rhs),rhsMax =  -7.72248931468766E-12  1.69601871178782E-01
 cg2d: Sum(rhs),rhsMax =  -7.65065788499442E-12  1.70305366164629E-01
 cg2d: Sum(rhs),rhsMax =  -7.68435315379179E-12  1.70935901416704E-01
 cg2d: Sum(rhs),rhsMax =  -7.63100693745855E-12  1.71469600277661E-01
 cg2d: Sum(rhs),rhsMax =  -7.59325935462130E-12  1.71927427170169E-01
 cg2d: Sum(rhs),rhsMax =  -7.51548823174630E-12  1.72307854172140E-01
 cg2d: Sum(rhs),rhsMax =  -7.47407691292779E-12  1.72605926382145E-01
 cg2d: Sum(rhs),rhsMax =  -7.41789962788175E-12  1.72804515545495E-01
 cg2d: Sum(rhs),rhsMax =  -7.36799510292485E-12  1.72928499216593E-01
 cg2d: Sum(rhs),rhsMax =  -7.32192084740291E-12  1.72965501733182E-01
 cg2d: Sum(rhs),rhsMax =  -7.28828108975677E-12  1.72929603516626E-01
 cg2d: Sum(rhs),rhsMax =  -7.24986737310473E-12  1.72832701413523E-01
 cg2d: Sum(rhs),rhsMax =  -7.20362658412910E-12  1.72656439506246E-01
 cg2d: Sum(rhs),rhsMax =  -7.19785342440105E-12  1.72369994214761E-01
 cg2d: Sum(rhs),rhsMax =  -7.18503034846663E-12  1.72025504136854E-01
 cg2d: Sum(rhs),rhsMax =  -7.16071646422733E-12  1.71629869277700E-01
 cg2d: Sum(rhs),rhsMax =  -7.18763937257449E-12  1.71167033607632E-01
 cg2d: Sum(rhs),rhsMax =  -7.18747283912080E-12  1.70672525223315E-01
 cg2d: Sum(rhs),rhsMax =  -7.23576754069200E-12  1.70122085573831E-01
 cg2d: Sum(rhs),rhsMax =  -7.24120763351266E-12  1.69507747349834E-01
 cg2d: Sum(rhs),rhsMax =  -7.23482385112106E-12  1.68847694784782E-01
 cg2d: Sum(rhs),rhsMax =  -7.27667925914943E-12  1.68107105239340E-01
 cg2d: Sum(rhs),rhsMax =  -7.27945481671100E-12  1.67301922534242E-01
 cg2d: Sum(rhs),rhsMax =  -7.30770999268771E-12  1.66457083152681E-01
 cg2d: Sum(rhs),rhsMax =  -7.32613969489648E-12  1.65572011325906E-01
 cg2d: Sum(rhs),rhsMax =  -7.36327665507019E-12  1.64652037117048E-01
 cg2d: Sum(rhs),rhsMax =  -7.41079420052415E-12  1.63676535085601E-01
 cg2d: Sum(rhs),rhsMax =  -7.46208650426183E-12  1.62646001828735E-01
 cg2d: Sum(rhs),rhsMax =  -7.51559925404877E-12  1.61558027596560E-01
 cg2d: Sum(rhs),rhsMax =  -7.55995266388254E-12  1.60443537815678E-01
 cg2d: Sum(rhs),rhsMax =  -7.60552731904340E-12  1.59286413736195E-01
 cg2d: Sum(rhs),rhsMax =  -7.64976970657472E-12  1.58079754242417E-01
 cg2d: Sum(rhs),rhsMax =  -7.70228325563949E-12  1.56820335138356E-01
 cg2d: Sum(rhs),rhsMax =  -7.77050646050270E-12  1.55517172263414E-01
 cg2d: Sum(rhs),rhsMax =  -7.81924525128375E-12  1.54200833349795E-01
 cg2d: Sum(rhs),rhsMax =  -7.83884068766838E-12  1.52798802009119E-01
 cg2d: Sum(rhs),rhsMax =  -7.82118814157684E-12  1.51367252926136E-01
 cg2d: Sum(rhs),rhsMax =  -7.86559706256185E-12  1.49900713953202E-01
 cg2d: Sum(rhs),rhsMax =  -7.85649323375992E-12  1.48386158622984E-01
 cg2d: Sum(rhs),rhsMax =  -7.86082310355596E-12  1.46836845474342E-01
 cg2d: Sum(rhs),rhsMax =  -7.87514498057362E-12  1.45265004024548E-01
 cg2d: Sum(rhs),rhsMax =  -7.89102116982576E-12  1.43664828091806E-01
 cg2d: Sum(rhs),rhsMax =  -7.98572319382629E-12  1.42035462117446E-01
 cg2d: Sum(rhs),rhsMax =  -8.07909295019726E-12  1.40388803527728E-01
 cg2d: Sum(rhs),rhsMax =  -8.18534129365389E-12  1.38710397925711E-01
 cg2d: Sum(rhs),rhsMax =  -8.27371504641405E-12  1.37016212426821E-01
 cg2d: Sum(rhs),rhsMax =  -8.33588753579306E-12  1.35303161143967E-01
 cg2d: Sum(rhs),rhsMax =  -8.45434833252057E-12  1.33572077353219E-01
 cg2d: Sum(rhs),rhsMax =  -8.52573567300396E-12  1.31831628270804E-01
 cg2d: Sum(rhs),rhsMax =  -8.50430836862870E-12  1.31714897910342E-01
 cg2d: Sum(rhs),rhsMax =  -8.26128054853825E-12  1.34807085572127E-01
 cg2d: Sum(rhs),rhsMax =  -8.04545319255112E-12  1.37809675424477E-01
 cg2d: Sum(rhs),rhsMax =  -7.88813458996174E-12  1.40736511186856E-01
 cg2d: Sum(rhs),rhsMax =  -7.75246533635254E-12  1.43548031097002E-01
 cg2d: Sum(rhs),rhsMax =  -7.55906448546284E-12  1.46268061949851E-01
 cg2d: Sum(rhs),rhsMax =  -7.40330019510793E-12  1.48888499545807E-01
 cg2d: Sum(rhs),rhsMax =  -7.23332505003782E-12  1.51411293536897E-01
 cg2d: Sum(rhs),rhsMax =  -7.12174763606299E-12  1.53796971822374E-01
 cg2d: Sum(rhs),rhsMax =  -6.94921897803624E-12  1.56084727409187E-01
 cg2d: Sum(rhs),rhsMax =  -6.81393830248567E-12  1.58272502078717E-01
 cg2d: Sum(rhs),rhsMax =  -6.69680977338771E-12  1.60348738122199E-01
 cg2d: Sum(rhs),rhsMax =  -6.56558141187702E-12  1.62303402557746E-01
 cg2d: Sum(rhs),rhsMax =  -6.48336939690353E-12  1.64143658001525E-01
 cg2d: Sum(rhs),rhsMax =  -6.41270370138614E-12  1.65876167512575E-01
 cg2d: Sum(rhs),rhsMax =  -6.31478203061420E-12  1.67505613474145E-01
 cg2d: Sum(rhs),rhsMax =  -6.23184837067470E-12  1.69044787667660E-01
 cg2d: Sum(rhs),rhsMax =  -6.16406925502133E-12  1.70434309643931E-01
 cg2d: Sum(rhs),rhsMax =  -6.04766237088938E-12  1.71725795603109E-01
 cg2d: Sum(rhs),rhsMax =  -5.86458659412870E-12  1.72899133028019E-01
 cg2d: Sum(rhs),rhsMax =  -5.73524561175986E-12  1.73966310873971E-01
 cg2d: Sum(rhs),rhsMax =  -5.66685587344296E-12  1.74934194256669E-01
 cg2d: Sum(rhs),rhsMax =  -5.60251844916593E-12  1.75783090305445E-01
 cg2d: Sum(rhs),rhsMax =  -5.58364465774730E-12  1.76543592128123E-01
 cg2d: Sum(rhs),rhsMax =  -5.46990230887445E-12  1.77221523546932E-01
 cg2d: Sum(rhs),rhsMax =  -5.34045030420316E-12  1.77810897324132E-01
 cg2d: Sum(rhs),rhsMax =  -5.21349630133727E-12  1.78273476477993E-01
 cg2d: Sum(rhs),rhsMax =  -5.17524911813894E-12  1.78648899890708E-01
 cg2d: Sum(rhs),rhsMax =  -5.17413889511431E-12  1.78938531354369E-01
 cg2d: Sum(rhs),rhsMax =  -5.19767562323636E-12  1.79134555569631E-01
 cg2d: Sum(rhs),rhsMax =  -5.24197352191891E-12  1.79228304609205E-01
 cg2d: Sum(rhs),rhsMax =  -5.27816679252169E-12  1.79236918852599E-01
 cg2d: Sum(rhs),rhsMax =  -5.32268673580916E-12  1.79164404826241E-01
 cg2d: Sum(rhs),rhsMax =  -5.35660404921146E-12  1.78996174432128E-01
 cg2d: Sum(rhs),rhsMax =  -5.40362199430433E-12  1.78741336164542E-01
 cg2d: Sum(rhs),rhsMax =  -5.46263034806316E-12  1.78396989866015E-01
 cg2d: Sum(rhs),rhsMax =  -5.50032241974918E-12  1.77974339000006E-01
 cg2d: Sum(rhs),rhsMax =  -5.57431878434045E-12  1.77463430102768E-01
 cg2d: Sum(rhs),rhsMax =  -5.63632474026576E-12  1.76889801520059E-01
 cg2d: Sum(rhs),rhsMax =  -5.70116176490387E-12  1.76266109072000E-01
 cg2d: Sum(rhs),rhsMax =  -5.78820325003448E-12  1.75544665972886E-01
 cg2d: Sum(rhs),rhsMax =  -5.91293680685112E-12  1.74747628104374E-01
 cg2d: Sum(rhs),rhsMax =  -6.01291239021862E-12  1.73886536951846E-01
 cg2d: Sum(rhs),rhsMax =  -6.09884365232460E-12  1.72965056056778E-01
 cg2d: Sum(rhs),rhsMax =  -6.20031803677534E-12  1.71986213548781E-01
 cg2d: Sum(rhs),rhsMax =  -6.27176088840997E-12  1.70961509551335E-01
 cg2d: Sum(rhs),rhsMax =  -6.39910346933448E-12  1.69872798357921E-01
 cg2d: Sum(rhs),rhsMax =  -6.48658904367494E-12  1.68704826548857E-01
 cg2d: Sum(rhs),rhsMax =  -6.59938770297686E-12  1.67493670736393E-01
 cg2d: Sum(rhs),rhsMax =  -6.70635769139949E-12  1.66221382962348E-01
 cg2d: Sum(rhs),rhsMax =  -6.80483447368374E-12  1.64888999551313E-01
 cg2d: Sum(rhs),rhsMax =  -6.91735557722950E-12  1.63518257911673E-01
 cg2d: Sum(rhs),rhsMax =  -7.04025726605551E-12  1.62076678989065E-01
 cg2d: Sum(rhs),rhsMax =  -7.17242931713713E-12  1.60574629502647E-01
 cg2d: Sum(rhs),rhsMax =  -7.29322158221635E-12  1.59017635341673E-01
 cg2d: Sum(rhs),rhsMax =  -7.42328420955118E-12  1.57413059708251E-01
 cg2d: Sum(rhs),rhsMax =  -7.54840634442644E-12  1.55745519359797E-01
 cg2d: Sum(rhs),rhsMax =  -7.70333796751288E-12  1.54015470310073E-01
 cg2d: Sum(rhs),rhsMax =  -7.81769093904927E-12  1.52250270935255E-01
 cg2d: Sum(rhs),rhsMax =  -7.98716648375830E-12  1.50423521273778E-01
 cg2d: Sum(rhs),rhsMax =  -8.13732414783885E-12  1.48578585935422E-01
 cg2d: Sum(rhs),rhsMax =  -8.26755330862738E-12  1.46672988753419E-01
 cg2d: Sum(rhs),rhsMax =  -8.40161273885087E-12  1.44736843644557E-01
 cg2d: Sum(rhs),rhsMax =  -8.53905834929947E-12  1.42768083695652E-01
 cg2d: Sum(rhs),rhsMax =  -8.66984262160031E-12  1.40774225490584E-01
 cg2d: Sum(rhs),rhsMax =  -8.81139605724002E-12  1.38755796697482E-01
 cg2d: Sum(rhs),rhsMax =  -8.98248142533475E-12  1.36714355357317E-01
 cg2d: Sum(rhs),rhsMax =  -8.98320307030076E-12  1.34669446010610E-01
 cg2d: Sum(rhs),rhsMax =  -9.12736553004834E-12  1.32594284888212E-01
 cg2d: Sum(rhs),rhsMax =  -9.32637300721240E-12  1.30505402744855E-01
 cg2d: Sum(rhs),rhsMax =  -9.27907750636336E-12  1.32171625525621E-01
 cg2d: Sum(rhs),rhsMax =  -9.11809516779272E-12  1.35557522183553E-01
 cg2d: Sum(rhs),rhsMax =  -8.97776297748010E-12  1.38855611220304E-01
 cg2d: Sum(rhs),rhsMax =  -8.81772432848038E-12  1.42057562661501E-01
 cg2d: Sum(rhs),rhsMax =  -8.67650395974806E-12  1.45168972982214E-01
 cg2d: Sum(rhs),rhsMax =  -8.54483150902752E-12  1.48169668713497E-01
 cg2d: Sum(rhs),rhsMax =  -8.39595060142528E-12  1.51062546457582E-01
 cg2d: Sum(rhs),rhsMax =  -8.24329493553932E-12  1.53852897403484E-01
 cg2d: Sum(rhs),rhsMax =  -8.09585731786910E-12  1.56556105772223E-01
 cg2d: Sum(rhs),rhsMax =  -7.95330468150723E-12  1.59139298195243E-01
 cg2d: Sum(rhs),rhsMax =  -7.70844499342616E-12  1.61609781774760E-01
 cg2d: Sum(rhs),rhsMax =  -7.59181606468928E-12  1.63984582436130E-01
 cg2d: Sum(rhs),rhsMax =  -7.57049978261648E-12  1.66241153566023E-01
 cg2d: Sum(rhs),rhsMax =  -7.56550377900567E-12  1.68377056312728E-01
 cg2d: Sum(rhs),rhsMax =  -7.58260121358489E-12  1.70408889837285E-01
 cg2d: Sum(rhs),rhsMax =  -7.57638396464699E-12  1.72349937236100E-01
 cg2d: Sum(rhs),rhsMax =  -7.57705009846177E-12  1.74185227619483E-01
 cg2d: Sum(rhs),rhsMax =  -7.57516271931991E-12  1.75907516697985E-01
 cg2d: Sum(rhs),rhsMax =  -7.55617790559882E-12  1.77517598786231E-01
 cg2d: Sum(rhs),rhsMax =  -7.59503571146070E-12  1.79013454503767E-01
 cg2d: Sum(rhs),rhsMax =  -7.54279971815208E-12  1.80407701063942E-01
 cg2d: Sum(rhs),rhsMax =  -7.39885930300943E-12  1.81677306673347E-01
 cg2d: Sum(rhs),rhsMax =  -7.36344318852389E-12  1.82846796338116E-01
 cg2d: Sum(rhs),rhsMax =  -7.33357818916147E-12  1.83897047481035E-01
 cg2d: Sum(rhs),rhsMax =  -7.34373672983679E-12  1.84847085545665E-01
 cg2d: Sum(rhs),rhsMax =  -7.32636173950141E-12  1.85676995476801E-01
 cg2d: Sum(rhs),rhsMax =  -7.32619520604771E-12  1.86406032068833E-01
 cg2d: Sum(rhs),rhsMax =  -7.32158778049552E-12  1.87014329143318E-01
 cg2d: Sum(rhs),rhsMax =  -7.31009697219065E-12  1.87522103182865E-01
 cg2d: Sum(rhs),rhsMax =  -7.32486293841816E-12  1.87945618771059E-01
 cg2d: Sum(rhs),rhsMax =  -7.34079463882154E-12  1.88231022887152E-01
 cg2d: Sum(rhs),rhsMax =  -7.35705940613229E-12  1.88425171773135E-01
 cg2d: Sum(rhs),rhsMax =  -7.39153183104690E-12  1.88535349896766E-01
 cg2d: Sum(rhs),rhsMax =  -7.42511607754182E-12  1.88566978013533E-01
 cg2d: Sum(rhs),rhsMax =  -7.47829576042136E-12  1.88492567685287E-01
 cg2d: Sum(rhs),rhsMax =  -7.53763718108758E-12  1.88322484892001E-01
 cg2d: Sum(rhs),rhsMax =  -7.58954010748880E-12  1.88048080809439E-01
 cg2d: Sum(rhs),rhsMax =  -7.64421859145159E-12  1.87697065720190E-01
 cg2d: Sum(rhs),rhsMax =  -7.70444819053751E-12  1.87257407561452E-01
 cg2d: Sum(rhs),rhsMax =  -7.73636710249548E-12  1.86742896972425E-01
 cg2d: Sum(rhs),rhsMax =  -7.65759677889832E-12  1.86132808900531E-01
 cg2d: Sum(rhs),rhsMax =  -7.76761988063868E-12  1.85447329986256E-01
 cg2d: Sum(rhs),rhsMax =  -7.87347964603669E-12  1.84710119910729E-01
 cg2d: Sum(rhs),rhsMax =  -7.96390731139240E-12  1.83891966516218E-01
 cg2d: Sum(rhs),rhsMax =  -8.05289168681611E-12  1.83003632639698E-01
 cg2d: Sum(rhs),rhsMax =  -8.15048029068066E-12  1.82023116623399E-01
(PID.TID 0000.0001)      cg2d_init_res =   5.16505496547166E-02
(PID.TID 0000.0001)      cg2d_iters(min,last) =      -1      29
(PID.TID 0000.0001)      cg2d_last_res =   4.57957867445598E-14
(PID.TID 0000.0001) // =======================================================
(PID.TID 0000.0001) // Begin MONITOR dynamic field statistics
(PID.TID 0000.0001) // =======================================================
(PID.TID 0000.0001) %MON time_tsnumber                =                  2400
(PID.TID 0000.0001) %MON time_secondsf                =   3.6000000000000E+04
(PID.TID 0000.0001) %MON dynstat_eta_max              =   5.5012476759799E-03
(PID.TID 0000.0001) %MON dynstat_eta_min              =  -1.6894619873012E-02
(PID.TID 0000.0001) %MON dynstat_eta_mean             =   1.7295700408837E-15
(PID.TID 0000.0001) %MON dynstat_eta_sd               =   4.3117289340320E-03
(PID.TID 0000.0001) %MON dynstat_eta_del2             =   1.1818798367725E-04
(PID.TID 0000.0001) %MON dynstat_uvel_max             =   9.9288321058312E-01
(PID.TID 0000.0001) %MON dynstat_uvel_min             =  -4.8777735266019E-01
(PID.TID 0000.0001) %MON dynstat_uvel_mean            =  -2.1604103061144E-04
(PID.TID 0000.0001) %MON dynstat_uvel_sd              =   7.3809429104671E-02
(PID.TID 0000.0001) %MON dynstat_uvel_del2            =   4.4823852304768E-04
(PID.TID 0000.0001) %MON dynstat_vvel_max             =   0.0000000000000E+00
(PID.TID 0000.0001) %MON dynstat_vvel_min             =   0.0000000000000E+00
(PID.TID 0000.0001) %MON dynstat_vvel_mean            =   0.0000000000000E+00
(PID.TID 0000.0001) %MON dynstat_vvel_sd              =   0.0000000000000E+00
(PID.TID 0000.0001) %MON dynstat_vvel_del2            =   0.0000000000000E+00
(PID.TID 0000.0001) %MON dynstat_wvel_max             =   5.7382800625029E-02
(PID.TID 0000.0001) %MON dynstat_wvel_min             =  -2.0794139174074E-02
(PID.TID 0000.0001) %MON dynstat_wvel_mean            =  -3.2878543924673E-20
(PID.TID 0000.0001) %MON dynstat_wvel_sd              =   2.9535070295239E-03
(PID.TID 0000.0001) %MON dynstat_wvel_del2            =   6.1557744248041E-05
(PID.TID 0000.0001) %MON dynstat_theta_max            =   1.5000000000339E+01
(PID.TID 0000.0001) %MON dynstat_theta_min            =   9.9999999999949E+00
(PID.TID 0000.0001) %MON dynstat_theta_mean           =   1.3087503419592E+01
(PID.TID 0000.0001) %MON dynstat_theta_sd             =   2.3774120129373E+00
(PID.TID 0000.0001) %MON dynstat_theta_del2           =   1.5576496789767E-03
(PID.TID 0000.0001) %MON dynstat_salt_max             =   3.5000000000000E+01
(PID.TID 0000.0001) %MON dynstat_salt_min             =   3.5000000000000E+01
(PID.TID 0000.0001) %MON dynstat_salt_mean            =   3.5000000000000E+01
(PID.TID 0000.0001) %MON dynstat_salt_sd              =   7.1054273576010E-15
(PID.TID 0000.0001) %MON dynstat_salt_del2            =   0.0000000000000E+00
(PID.TID 0000.0001) %MON dynstat_sst_max              =   1.5000000000004E+01
(PID.TID 0000.0001) %MON dynstat_sst_min              =   1.4999999997991E+01
(PID.TID 0000.0001) %MON dynstat_sst_mean             =   1.4999999999991E+01
(PID.TID 0000.0001) %MON dynstat_sst_sd               =   1.2248409981878E-10
(PID.TID 0000.0001) %MON dynstat_sst_del2             =   1.4459819788823E-11
(PID.TID 0000.0001) %MON dynstat_sss_max              =   3.5000000000000E+01
(PID.TID 0000.0001) %MON dynstat_sss_min              =   3.5000000000000E+01
(PID.TID 0000.0001) %MON dynstat_sss_mean             =   3.5000000000000E+01
(PID.TID 0000.0001) %MON dynstat_sss_sd               =   0.0000000000000E+00
(PID.TID 0000.0001) %MON dynstat_sss_del2             =   0.0000000000000E+00
(PID.TID 0000.0001) %MON forcing_qnet_max             =   0.0000000000000E+00
(PID.TID 0000.0001) %MON forcing_qnet_min             =   0.0000000000000E+00
(PID.TID 0000.0001) %MON forcing_qnet_mean            =   0.0000000000000E+00
(PID.TID 0000.0001) %MON forcing_qnet_sd              =   0.0000000000000E+00
(PID.TID 0000.0001) %MON forcing_qnet_del2            =   0.0000000000000E+00
(PID.TID 0000.0001) %MON forcing_qsw_max              =   0.0000000000000E+00
(PID.TID 0000.0001) %MON forcing_qsw_min              =   0.0000000000000E+00
(PID.TID 0000.0001) %MON forcing_qsw_mean             =   0.0000000000000E+00
(PID.TID 0000.0001) %MON forcing_qsw_sd               =   0.0000000000000E+00
(PID.TID 0000.0001) %MON forcing_qsw_del2             =   0.0000000000000E+00
(PID.TID 0000.0001) %MON forcing_empmr_max            =   0.0000000000000E+00
(PID.TID 0000.0001) %MON forcing_empmr_min            =   0.0000000000000E+00
(PID.TID 0000.0001) %MON forcing_empmr_mean           =   0.0000000000000E+00
(PID.TID 0000.0001) %MON forcing_empmr_sd             =   0.0000000000000E+00
(PID.TID 0000.0001) %MON forcing_empmr_del2           =   0.0000000000000E+00
(PID.TID 0000.0001) %MON forcing_fu_max               =   0.0000000000000E+00
(PID.TID 0000.0001) %MON forcing_fu_min               =   0.0000000000000E+00
(PID.TID 0000.0001) %MON forcing_fu_mean              =   0.0000000000000E+00
(PID.TID 0000.0001) %MON forcing_fu_sd                =   0.0000000000000E+00
(PID.TID 0000.0001) %MON forcing_fu_del2              =   0.0000000000000E+00
(PID.TID 0000.0001) %MON forcing_fv_max               =   0.0000000000000E+00
(PID.TID 0000.0001) %MON forcing_fv_min               =   0.0000000000000E+00
(PID.TID 0000.0001) %MON forcing_fv_mean              =   0.0000000000000E+00
(PID.TID 0000.0001) %MON forcing_fv_sd                =   0.0000000000000E+00
(PID.TID 0000.0001) %MON forcing_fv_del2              =   0.0000000000000E+00
(PID.TID 0000.0001) %MON advcfl_uvel_max              =   6.8664943984224E-02
(PID.TID 0000.0001) %MON advcfl_vvel_max              =   0.0000000000000E+00
(PID.TID 0000.0001) %MON advcfl_wvel_max              =   3.5828941472425E-01
(PID.TID 0000.0001) %MON advcfl_W_hf_max              =   3.6270100893155E-01
(PID.TID 0000.0001) %MON pe_b_mean                    =   5.2189629814405E-07
(PID.TID 0000.0001) %MON ke_max                       =   3.5417953140448E-01
(PID.TID 0000.0001) %MON ke_mean                      =   2.7540916602864E-03
(PID.TID 0000.0001) %MON ke_vol                       =   8.5336562999261E+10
(PID.TID 0000.0001) %MON vort_r_min                   =   0.0000000000000E+00
(PID.TID 0000.0001) %MON vort_r_max                   =   0.0000000000000E+00
(PID.TID 0000.0001) %MON vort_a_mean                  =   0.0000000000000E+00
(PID.TID 0000.0001) %MON vort_a_sd                    =   0.0000000000000E+00
(PID.TID 0000.0001) %MON vort_p_mean                  =   0.0000000000000E+00
(PID.TID 0000.0001) %MON vort_p_sd                    =   0.0000000000000E+00
(PID.TID 0000.0001) %MON surfExpan_theta_mean         =  -3.2632340328148E-17
(PID.TID 0000.0001) %MON surfExpan_salt_mean          =  -8.7045489610212E-19
(PID.TID 0000.0001) // =======================================================
(PID.TID 0000.0001) // End MONITOR dynamic field statistics
(PID.TID 0000.0001) // =======================================================
(PID.TID 0000.0001) // =======================================================
(PID.TID 0000.0001) // Begin OBCS MONITOR field statistics
(PID.TID 0000.0001) // =======================================================
(PID.TID 0000.0001) %MON obc_E_uVel_max               =   0.0000000000000E+00
(PID.TID 0000.0001) %MON obc_E_uVel_min               =   0.0000000000000E+00
(PID.TID 0000.0001) %MON obc_E_uVel_mean              =   0.0000000000000E+00
(PID.TID 0000.0001) %MON obc_E_uVel_sd                =   0.0000000000000E+00
(PID.TID 0000.0001) %MON obc_E_uVel_Int               =   0.0000000000000E+00
(PID.TID 0000.0001) %MON obc_W_uVel_max               =   0.0000000000000E+00
(PID.TID 0000.0001) %MON obc_W_uVel_min               =   0.0000000000000E+00
(PID.TID 0000.0001) %MON obc_W_uVel_mean              =   0.0000000000000E+00
(PID.TID 0000.0001) %MON obc_W_uVel_sd                =   0.0000000000000E+00
(PID.TID 0000.0001) %MON obc_W_uVel_Int               =   0.0000000000000E+00
(PID.TID 0000.0001) // =======================================================
(PID.TID 0000.0001) // End OBCS MONITOR field statistics
(PID.TID 0000.0001) // =======================================================
 cg2d: Sum(rhs),rhsMax =  -8.26499979567075E-12  1.80971197132373E-01
 cg2d: Sum(rhs),rhsMax =  -8.36747338084365E-12  1.79880111209297E-01
 cg2d: Sum(rhs),rhsMax =  -8.45462588827672E-12  1.78729373363908E-01
 cg2d: Sum(rhs),rhsMax =  -8.55954196410380E-12  1.77489653406425E-01
 cg2d: Sum(rhs),rhsMax =  -8.65107985248414E-12  1.76192780381738E-01
 cg2d: Sum(rhs),rhsMax =  -8.74933459016347E-12  1.74855094372138E-01
 cg2d: Sum(rhs),rhsMax =  -8.86812845379836E-12  1.73433543591360E-01
 cg2d: Sum(rhs),rhsMax =  -8.90870710534841E-12  1.71962041687345E-01
 cg2d: Sum(rhs),rhsMax =  -8.90187923374697E-12  1.70457198459901E-01
 cg2d: Sum(rhs),rhsMax =  -8.96044349829594E-12  1.68881487473370E-01
 cg2d: Sum(rhs),rhsMax =  -9.04254449096697E-12  1.67211353131079E-01
 cg2d: Sum(rhs),rhsMax =  -9.14779363370144E-12  1.65496422015826E-01
 cg2d: Sum(rhs),rhsMax =  -9.24987864081572E-12  1.63744801910145E-01
 cg2d: Sum(rhs),rhsMax =  -9.36162258824424E-12  1.61941990409441E-01
 cg2d: Sum(rhs),rhsMax =  -9.46087652664573E-12  1.60077578968892E-01
 cg2d: Sum(rhs),rhsMax =  -9.56079659886200E-12  1.58380372408670E-01
 cg2d: Sum(rhs),rhsMax =  -9.65760804660931E-12  1.56406784226418E-01
 cg2d: Sum(rhs),rhsMax =  -9.79349934482343E-12  1.54354139492838E-01
 cg2d: Sum(rhs),rhsMax =  -9.94387905350891E-12  1.52300304529922E-01
 cg2d: Sum(rhs),rhsMax =  -1.00813801751087E-11  1.50215598426435E-01
 cg2d: Sum(rhs),rhsMax =  -1.02272634805445E-11  1.48074320943023E-01
 cg2d: Sum(rhs),rhsMax =  -1.04244946008691E-11  1.45927342632181E-01
 cg2d: Sum(rhs),rhsMax =  -1.06148978495924E-11  1.43763688328037E-01
 cg2d: Sum(rhs),rhsMax =  -1.08336672965947E-11  1.41577851188857E-01
 cg2d: Sum(rhs),rhsMax =  -1.10378928219745E-11  1.39373799792693E-01
 cg2d: Sum(rhs),rhsMax =  -1.12256870465899E-11  1.37141382048145E-01
 cg2d: Sum(rhs),rhsMax =  -1.14315779065066E-11  1.34916395375853E-01
 cg2d: Sum(rhs),rhsMax =  -1.16199272426343E-11  1.32712672000624E-01
 cg2d: Sum(rhs),rhsMax =  -1.18380305558219E-11  1.30501024194435E-01
 cg2d: Sum(rhs),rhsMax =  -1.19712018076257E-11  1.29498802015637E-01
 cg2d: Sum(rhs),rhsMax =  -1.16858189791458E-11  1.32668961673190E-01
 cg2d: Sum(rhs),rhsMax =  -1.14557252572922E-11  1.35732257762244E-01
 cg2d: Sum(rhs),rhsMax =  -1.12704845456335E-11  1.38720355597961E-01
 cg2d: Sum(rhs),rhsMax =  -1.10229603222933E-11  1.41622296029485E-01
 cg2d: Sum(rhs),rhsMax =  -1.08007491839146E-11  1.44442938211965E-01
 cg2d: Sum(rhs),rhsMax =  -1.06418762690907E-11  1.47174407964899E-01
 cg2d: Sum(rhs),rhsMax =  -1.05275788087056E-11  1.49823427088951E-01
 cg2d: Sum(rhs),rhsMax =  -1.03980157817318E-11  1.52371405801810E-01
 cg2d: Sum(rhs),rhsMax =  -1.02544639446478E-11  1.54805515048861E-01
 cg2d: Sum(rhs),rhsMax =  -1.01118557971347E-11  1.57170183881730E-01
 cg2d: Sum(rhs),rhsMax =  -9.99117455435794E-12  1.59440883680685E-01
 cg2d: Sum(rhs),rhsMax =  -9.87449011446984E-12  1.61596467655612E-01
 cg2d: Sum(rhs),rhsMax =  -9.71667191151937E-12  1.63668714821590E-01
 cg2d: Sum(rhs),rhsMax =  -9.57828261149984E-12  1.65656589503219E-01
 cg2d: Sum(rhs),rhsMax =  -9.44355704746158E-12  1.67554059774550E-01
 cg2d: Sum(rhs),rhsMax =  -9.33544908043871E-12  1.69343989156213E-01
 cg2d: Sum(rhs),rhsMax =  -9.24399445878521E-12  1.71042159063611E-01
 cg2d: Sum(rhs),rhsMax =  -9.16502984615875E-12  1.72645706192630E-01
 cg2d: Sum(rhs),rhsMax =  -9.06175134929299E-12  1.74149074973359E-01
 cg2d: Sum(rhs),rhsMax =  -8.96258067761835E-12  1.75556862164246E-01
 cg2d: Sum(rhs),rhsMax =  -8.92966256493821E-12  1.76908603000451E-01
 cg2d: Sum(rhs),rhsMax =  -8.91295370841760E-12  1.78145705801616E-01
 cg2d: Sum(rhs),rhsMax =  -8.91550722137424E-12  1.79253568399546E-01
 cg2d: Sum(rhs),rhsMax =  -8.93812801550098E-12  1.80279637003567E-01
 cg2d: Sum(rhs),rhsMax =  -8.95072904683047E-12  1.81417368513710E-01
 cg2d: Sum(rhs),rhsMax =  -8.98345287048130E-12  1.82146676860326E-01
 cg2d: Sum(rhs),rhsMax =  -8.98725538434064E-12  1.82855051400779E-01
 cg2d: Sum(rhs),rhsMax =  -8.99633145756695E-12  1.83503963217305E-01
 cg2d: Sum(rhs),rhsMax =  -8.97706908808971E-12  1.84146747463663E-01
 cg2d: Sum(rhs),rhsMax =  -8.97434904167937E-12  1.84590653106419E-01
 cg2d: Sum(rhs),rhsMax =  -8.96993590515649E-12  1.84952878056526E-01
 cg2d: Sum(rhs),rhsMax =  -8.95705731807084E-12  1.85228208108057E-01
 cg2d: Sum(rhs),rhsMax =  -8.96405172312598E-12  1.85414233967703E-01
 cg2d: Sum(rhs),rhsMax =  -8.90712503753832E-12  1.85670469072643E-01
 cg2d: Sum(rhs),rhsMax =  -8.87750983835645E-12  1.85626352527015E-01
 cg2d: Sum(rhs),rhsMax =  -8.83043638211234E-12  1.85530932234237E-01
 cg2d: Sum(rhs),rhsMax =  -8.76249073300528E-12  1.85396412252736E-01
 cg2d: Sum(rhs),rhsMax =  -8.70439831324177E-12  1.85191363198777E-01
 cg2d: Sum(rhs),rhsMax =  -8.68666250042338E-12  1.84906361262507E-01
 cg2d: Sum(rhs),rhsMax =  -8.70803429364742E-12  1.84536306510297E-01
 cg2d: Sum(rhs),rhsMax =  -8.73237593346232E-12  1.84114172309578E-01
 cg2d: Sum(rhs),rhsMax =  -8.74458838673320E-12  1.83620432048022E-01
 cg2d: Sum(rhs),rhsMax =  -8.78253025859976E-12  1.83047078812882E-01
 cg2d: Sum(rhs),rhsMax =  -8.81486550419197E-12  1.82404011455309E-01
 cg2d: Sum(rhs),rhsMax =  -8.86082873741145E-12  1.81670916769065E-01
 cg2d: Sum(rhs),rhsMax =  -8.89607831844330E-12  1.80880878278517E-01
 cg2d: Sum(rhs),rhsMax =  -8.92608209568380E-12  1.80026341423830E-01
 cg2d: Sum(rhs),rhsMax =  -9.05928110306320E-12  1.79121445694237E-01
 cg2d: Sum(rhs),rhsMax =  -9.12853126422419E-12  1.78159953008259E-01
 cg2d: Sum(rhs),rhsMax =  -9.20696852091396E-12  1.77130075986086E-01
 cg2d: Sum(rhs),rhsMax =  -9.30186483394380E-12  1.76032744244518E-01
 cg2d: Sum(rhs),rhsMax =  -9.39862077053988E-12  1.74885901929669E-01
 cg2d: Sum(rhs),rhsMax =  -9.54777923389827E-12  1.73679878145823E-01
 cg2d: Sum(rhs),rhsMax =  -9.66310365058121E-12  1.72442107052200E-01
 cg2d: Sum(rhs),rhsMax =  -9.72638636298484E-12  1.71159354028173E-01
 cg2d: Sum(rhs),rhsMax =  -9.75797220803543E-12  1.69820983683494E-01
 cg2d: Sum(rhs),rhsMax =  -9.81142944667113E-12  1.68456341984396E-01
 cg2d: Sum(rhs),rhsMax =  -9.87449011446984E-12  1.67073221665063E-01
 cg2d: Sum(rhs),rhsMax =  -9.91795534588391E-12  1.65632123388385E-01
 cg2d: Sum(rhs),rhsMax =  -9.97663063273535E-12  1.64147531740030E-01
 cg2d: Sum(rhs),rhsMax =  -1.00535135771906E-11  1.62629716616268E-01
 cg2d: Sum(rhs),rhsMax =  -1.01417763076483E-11  1.61051823467830E-01
 cg2d: Sum(rhs),rhsMax =  -1.02487462960710E-11  1.59413932690966E-01
 cg2d: Sum(rhs),rhsMax =  -1.03421715635932E-11  1.57734476281980E-01
 cg2d: Sum(rhs),rhsMax =  -1.04582453808177E-11  1.56017707181110E-01
 cg2d: Sum(rhs),rhsMax =  -1.05710440401197E-11  1.54259219372666E-01
 cg2d: Sum(rhs),rhsMax =  -1.06948894185166E-11  1.52443726339464E-01
 cg2d: Sum(rhs),rhsMax =  -1.07979736263530E-11  1.50596240030577E-01
 cg2d: Sum(rhs),rhsMax =  -1.09086073507569E-11  1.48728031375628E-01
 cg2d: Sum(rhs),rhsMax =  -1.10298992161972E-11  1.46652934766948E-01
 cg2d: Sum(rhs),rhsMax =  -1.11349818254780E-11  1.44798676436169E-01
 cg2d: Sum(rhs),rhsMax =  -1.12816977981822E-11  1.42877198409944E-01
 cg2d: Sum(rhs),rhsMax =  -1.14323550626239E-11  1.40915176152753E-01
 cg2d: Sum(rhs),rhsMax =  -1.15887299756423E-11  1.38943526587474E-01
 cg2d: Sum(rhs),rhsMax =  -1.17676424160607E-11  1.36982935677669E-01
 cg2d: Sum(rhs),rhsMax =  -1.19076970506171E-11  1.35026956797962E-01
 cg2d: Sum(rhs),rhsMax =  -1.20638499190306E-11  1.33049848983044E-01
 cg2d: Sum(rhs),rhsMax =  -1.22366006216623E-11  1.31037404932697E-01
 cg2d: Sum(rhs),rhsMax =  -1.24129595491240E-11  1.29020381672209E-01
 cg2d: Sum(rhs),rhsMax =  -1.25812693596572E-11  1.27015181013351E-01
 cg2d: Sum(rhs),rhsMax =  -1.27515220604835E-11  1.24976718616423E-01
 cg2d: Sum(rhs),rhsMax =  -1.29324329023461E-11  1.22935809380111E-01
 cg2d: Sum(rhs),rhsMax =  -1.27829413720804E-11  1.23990745514460E-01
 cg2d: Sum(rhs),rhsMax =  -1.24784071964257E-11  1.26649970888205E-01
 cg2d: Sum(rhs),rhsMax =  -1.21674892383794E-11  1.29249900163086E-01
 cg2d: Sum(rhs),rhsMax =  -1.18757781386591E-11  1.31791561073412E-01
 cg2d: Sum(rhs),rhsMax =  -1.15976117598393E-11  1.34256511044975E-01
 cg2d: Sum(rhs),rhsMax =  -1.13358211706327E-11  1.36603419096780E-01
 cg2d: Sum(rhs),rhsMax =  -1.11118891865658E-11  1.38878390773411E-01
 cg2d: Sum(rhs),rhsMax =  -1.08940079179831E-11  1.41103565826502E-01
 cg2d: Sum(rhs),rhsMax =  -1.06921138609550E-11  1.43262436847019E-01
 cg2d: Sum(rhs),rhsMax =  -1.05163100450056E-11  1.45327613197594E-01
 cg2d: Sum(rhs),rhsMax =  -1.03395070283341E-11  1.47335078840658E-01
 cg2d: Sum(rhs),rhsMax =  -1.01803010466028E-11  1.49242528420063E-01
 cg2d: Sum(rhs),rhsMax =  -1.00128239033381E-11  1.51078442361273E-01
 cg2d: Sum(rhs),rhsMax =  -9.83496617479318E-12  1.52832701224943E-01
 cg2d: Sum(rhs),rhsMax =  -9.69663238592489E-12  1.54492051951410E-01
 cg2d: Sum(rhs),rhsMax =  -9.53459533548084E-12  1.56064766644161E-01
 cg2d: Sum(rhs),rhsMax =  -9.39959221568643E-12  1.57525133149213E-01
 cg2d: Sum(rhs),rhsMax =  -9.26880794338558E-12  1.58911635910310E-01
 cg2d: Sum(rhs),rhsMax =  -9.13241704481038E-12  1.60233780326454E-01
 cg2d: Sum(rhs),rhsMax =  -8.99441632284947E-12  1.61482682601591E-01
 cg2d: Sum(rhs),rhsMax =  -8.86307693903632E-12  1.62659013005219E-01
 cg2d: Sum(rhs),rhsMax =  -8.74056382826893E-12  1.63748208140068E-01
 cg2d: Sum(rhs),rhsMax =  -8.63176197185567E-12  1.64745529367204E-01
 cg2d: Sum(rhs),rhsMax =  -8.52201642587147E-12  1.65680429475570E-01
 cg2d: Sum(rhs),rhsMax =  -8.43342062850638E-12  1.66526279600139E-01
 cg2d: Sum(rhs),rhsMax =  -8.34210478473096E-12  1.67305761660367E-01
 cg2d: Sum(rhs),rhsMax =  -8.26594348524168E-12  1.68012978633394E-01
 cg2d: Sum(rhs),rhsMax =  -8.17257372887070E-12  1.68648033002188E-01
 cg2d: Sum(rhs),rhsMax =  -8.09857736427944E-12  1.69196125879299E-01
 cg2d: Sum(rhs),rhsMax =  -8.02008459643844E-12  1.69677087942064E-01
 cg2d: Sum(rhs),rhsMax =  -7.94880827825750E-12  1.70088643843909E-01
 cg2d: Sum(rhs),rhsMax =  -7.86021248089241E-12  1.70432853816104E-01
 cg2d: Sum(rhs),rhsMax =  -7.91916532350001E-12  1.70691429437049E-01
 cg2d: Sum(rhs),rhsMax =  -7.90811860440499E-12  1.70880095137546E-01
 cg2d: Sum(rhs),rhsMax =  -7.88624721081987E-12  1.71009881957549E-01
 cg2d: Sum(rhs),rhsMax =  -7.85621567800376E-12  1.71068662688485E-01
 cg2d: Sum(rhs),rhsMax =  -7.83401121751126E-12  1.71050800427174E-01
 cg2d: Sum(rhs),rhsMax =  -7.81186226816999E-12  1.70968594199098E-01
 cg2d: Sum(rhs),rhsMax =  -7.79881714763064E-12  1.70821557655946E-01
 cg2d: Sum(rhs),rhsMax =  -7.78638264975484E-12  1.70615914873775E-01
 cg2d: Sum(rhs),rhsMax =  -7.76484432307711E-12  1.70349757154305E-01
 cg2d: Sum(rhs),rhsMax =  -7.77472530799628E-12  1.70032139891524E-01
 cg2d: Sum(rhs),rhsMax =  -7.77528041950859E-12  1.69656774976543E-01
 cg2d: Sum(rhs),rhsMax =  -7.77677922059183E-12  1.69224307275206E-01
 cg2d: Sum(rhs),rhsMax =  -7.77200526158595E-12  1.68737510889941E-01
 cg2d: Sum(rhs),rhsMax =  -7.78371811449574E-12  1.68202619680887E-01
 cg2d: Sum(rhs),rhsMax =  -7.79576403431292E-12  1.67617079140184E-01
 cg2d: Sum(rhs),rhsMax =  -7.81119613435521E-12  1.66981458783613E-01
 cg2d: Sum(rhs),rhsMax =  -7.84255993480087E-12  1.66295494138033E-01
 cg2d: Sum(rhs),rhsMax =  -7.87808707158888E-12  1.65551804110880E-01
 cg2d: Sum(rhs),rhsMax =  -7.91844367853400E-12  1.64765884189100E-01
 cg2d: Sum(rhs),rhsMax =  -7.96646082434904E-12  1.63932123491986E-01
 cg2d: Sum(rhs),rhsMax =  -8.01575472664240E-12  1.63046995507599E-01
 cg2d: Sum(rhs),rhsMax =  -8.08469957647162E-12  1.62119335289453E-01
 cg2d: Sum(rhs),rhsMax =  -8.15247869212499E-12  1.61157397165529E-01
 cg2d: Sum(rhs),rhsMax =  -8.23047185960490E-12  1.60168130660980E-01
 cg2d: Sum(rhs),rhsMax =  -8.32955926455270E-12  1.59136452924237E-01
 cg2d: Sum(rhs),rhsMax =  -8.42076408602566E-12  1.58073206357458E-01
 cg2d: Sum(rhs),rhsMax =  -8.51663184420204E-12  1.56981772757229E-01
 cg2d: Sum(rhs),rhsMax =  -8.59801119190706E-12  1.55858374339334E-01
 cg2d: Sum(rhs),rhsMax =  -8.67272920146434E-12  1.54590287845390E-01
 cg2d: Sum(rhs),rhsMax =  -8.75799432975555E-12  1.53372597669669E-01
 cg2d: Sum(rhs),rhsMax =  -8.83126904938081E-12  1.52153489314973E-01
 cg2d: Sum(rhs),rhsMax =  -8.88372708729435E-12  1.50902429584519E-01
 cg2d: Sum(rhs),rhsMax =  -8.95056251337678E-12  1.49629372542493E-01
 cg2d: Sum(rhs),rhsMax =  -9.00907126677453E-12  1.48320054397261E-01
 cg2d: Sum(rhs),rhsMax =  -9.08439989899534E-12  1.46972415070652E-01
 cg2d: Sum(rhs),rhsMax =  -9.13141784408822E-12  1.45596503576738E-01
 cg2d: Sum(rhs),rhsMax =  -9.21307474754940E-12  1.44181398620782E-01
 cg2d: Sum(rhs),rhsMax =  -9.28512822184757E-12  1.42732902203246E-01
 cg2d: Sum(rhs),rhsMax =  -9.34385901985024E-12  1.41234692151996E-01
 cg2d: Sum(rhs),rhsMax =  -9.41480227112379E-12  1.39716742222082E-01
 cg2d: Sum(rhs),rhsMax =  -9.47064648926244E-12  1.38169457132603E-01
 cg2d: Sum(rhs),rhsMax =  -9.56368317872602E-12  1.36591076542800E-01
 cg2d: Sum(rhs),rhsMax =  -9.65338919911574E-12  1.34978742116426E-01
 cg2d: Sum(rhs),rhsMax =  -9.74087477345620E-12  1.33345628163041E-01
 cg2d: Sum(rhs),rhsMax =  -9.83257919529024E-12  1.31697087674716E-01
 cg2d: Sum(rhs),rhsMax =  -9.94138105170350E-12  1.30049145985710E-01
 cg2d: Sum(rhs),rhsMax =  -1.00481845066724E-11  1.28372517935827E-01
 cg2d: Sum(rhs),rhsMax =  -1.01352259918031E-11  1.26679149740048E-01
 cg2d: Sum(rhs),rhsMax =  -1.02837738324979E-11  1.24990495170497E-01
 cg2d: Sum(rhs),rhsMax =  -1.04055652982993E-11  1.23298739802860E-01
 cg2d: Sum(rhs),rhsMax =  -1.05428998864454E-11  1.21601760962321E-01
 cg2d: Sum(rhs),rhsMax =  -1.06709086011847E-11  1.19899133132452E-01
 cg2d: Sum(rhs),rhsMax =  -1.08016928734855E-11  1.18201152910566E-01
 cg2d: Sum(rhs),rhsMax =  -1.09618980559389E-11  1.16502182454359E-01
 cg2d: Sum(rhs),rhsMax =  -1.11242126621391E-11  1.14798650586902E-01
 cg2d: Sum(rhs),rhsMax =  -1.09853237617585E-11  1.16240436632526E-01
 cg2d: Sum(rhs),rhsMax =  -1.08206776872066E-11  1.18643739043285E-01
 cg2d: Sum(rhs),rhsMax =  -1.05986330822816E-11  1.20977586263003E-01
 cg2d: Sum(rhs),rhsMax =  -1.04064534767190E-11  1.23239358254607E-01
 cg2d: Sum(rhs),rhsMax =  -1.02760022713255E-11  1.25428693602939E-01
 cg2d: Sum(rhs),rhsMax =  -1.01381125716671E-11  1.27544980920284E-01
 cg2d: Sum(rhs),rhsMax =  -1.00381924994508E-11  1.29593193456916E-01
 cg2d: Sum(rhs),rhsMax =  -9.88753523500918E-12  1.31586003937675E-01
 cg2d: Sum(rhs),rhsMax =  -9.72688596334592E-12  1.33511246132950E-01
 cg2d: Sum(rhs),rhsMax =  -9.57300905213287E-12  1.35378361562332E-01
 cg2d: Sum(rhs),rhsMax =  -9.52593559588877E-12  1.37186973771989E-01
 cg2d: Sum(rhs),rhsMax =  -9.43511935247443E-12  1.38918939417013E-01
 cg2d: Sum(rhs),rhsMax =  -9.36606348034275E-12  1.40574521594216E-01
 cg2d: Sum(rhs),rhsMax =  -9.26969612180528E-12  1.42173593413604E-01
 cg2d: Sum(rhs),rhsMax =  -9.18409792660668E-12  1.43706399087572E-01
 cg2d: Sum(rhs),rhsMax =  -9.19186948777906E-12  1.45148024304974E-01
 cg2d: Sum(rhs),rhsMax =  -9.05819863561419E-12  1.46525024441142E-01
 cg2d: Sum(rhs),rhsMax =  -8.96172025477426E-12  1.47838218960212E-01
 cg2d: Sum(rhs),rhsMax =  -8.90099105532727E-12  1.49084376268565E-01
 cg2d: Sum(rhs),rhsMax =  -8.80895356658584E-12  1.50252175718525E-01
 cg2d: Sum(rhs),rhsMax =  -8.74689209950930E-12  1.51344432190259E-01
 cg2d: Sum(rhs),rhsMax =  -8.64996962945952E-12  1.52365454571046E-01
 cg2d: Sum(rhs),rhsMax =  -8.57153237276975E-12  1.53311553124475E-01
 cg2d: Sum(rhs),rhsMax =  -8.49087467003073E-12  1.54184902294259E-01
 cg2d: Sum(rhs),rhsMax =  -8.33128011024087E-12  1.54985415889362E-01
 cg2d: Sum(rhs),rhsMax =  -8.20526979694591E-12  1.55710259908558E-01
 cg2d: Sum(rhs),rhsMax =  -8.13649148057038E-12  1.56361504555564E-01
 cg2d: Sum(rhs),rhsMax =  -8.08675348906718E-12  1.56944808388041E-01
 cg2d: Sum(rhs),rhsMax =  -8.07975908401204E-12  1.57461418552821E-01
 cg2d: Sum(rhs),rhsMax =  -8.05966404726632E-12  1.57910770912153E-01
 cg2d: Sum(rhs),rhsMax =  -8.05117084112794E-12  1.58301725066946E-01
 cg2d: Sum(rhs),rhsMax =  -8.02274913169754E-12  1.58624315434396E-01
 cg2d: Sum(rhs),rhsMax =  -8.01531063743255E-12  1.58883877932506E-01
 cg2d: Sum(rhs),rhsMax =  -7.97878429992238E-12  1.59092594243162E-01
 cg2d: Sum(rhs),rhsMax =  -7.93143328792212E-12  1.59235805031388E-01
 cg2d: Sum(rhs),rhsMax =  -7.88114018490660E-12  1.59318629372255E-01
 cg2d: Sum(rhs),rhsMax =  -7.82496289986057E-12  1.59349646027314E-01
 cg2d: Sum(rhs),rhsMax =  -7.75468578240179E-12  1.59320049831385E-01
 cg2d: Sum(rhs),rhsMax =  -7.72926167513788E-12  1.59225060966428E-01
 cg2d: Sum(rhs),rhsMax =  -7.63905605438708E-12  1.59072028610473E-01
 cg2d: Sum(rhs),rhsMax =  -7.63222818278564E-12  1.58871072020509E-01
 cg2d: Sum(rhs),rhsMax =  -7.65087992959934E-12  1.58611491554795E-01
 cg2d: Sum(rhs),rhsMax =  -7.66009478070373E-12  1.58302645623987E-01
 cg2d: Sum(rhs),rhsMax =  -7.66864349799334E-12  1.57942758814275E-01
 cg2d: Sum(rhs),rhsMax =  -7.67041985483274E-12  1.57529752036002E-01
 cg2d: Sum(rhs),rhsMax =  -7.72637509527385E-12  1.57065545272394E-01
 cg2d: Sum(rhs),rhsMax =  -7.75157715793284E-12  1.56552077933467E-01
 cg2d: Sum(rhs),rhsMax =  -7.78788145083809E-12  1.55991519919294E-01
 cg2d: Sum(rhs),rhsMax =  -7.81674724947834E-12  1.55374559798896E-01
 cg2d: Sum(rhs),rhsMax =  -7.88286103059477E-12  1.54711922631724E-01
 cg2d: Sum(rhs),rhsMax =  -7.91333665262073E-12  1.54008495947564E-01
 cg2d: Sum(rhs),rhsMax =  -8.00221000574197E-12  1.53265146378085E-01
 cg2d: Sum(rhs),rhsMax =  -8.04872835047377E-12  1.52485641245586E-01
 cg2d: Sum(rhs),rhsMax =  -8.13032974278372E-12  1.51668115791612E-01
 cg2d: Sum(rhs),rhsMax =  -8.19888601455432E-12  1.50832378565423E-01
 cg2d: Sum(rhs),rhsMax =  -8.27893309462979E-12  1.49963093775931E-01
 cg2d: Sum(rhs),rhsMax =  -8.33838553759847E-12  1.49062488178636E-01
 cg2d: Sum(rhs),rhsMax =  -8.42081959717689E-12  1.48126789558665E-01
 cg2d: Sum(rhs),rhsMax =  -8.49259551571890E-12  1.47161657847633E-01
 cg2d: Sum(rhs),rhsMax =  -8.58313420337709E-12  1.46164151085946E-01
 cg2d: Sum(rhs),rhsMax =  -8.68904947992633E-12  1.45149109286754E-01
 cg2d: Sum(rhs),rhsMax =  -8.78663808379088E-12  1.44102339376616E-01
 cg2d: Sum(rhs),rhsMax =  -8.84892159547235E-12  1.43026494867078E-01
 cg2d: Sum(rhs),rhsMax =  -8.97393270804514E-12  1.41923731519850E-01
 cg2d: Sum(rhs),rhsMax =  -9.07973696229192E-12  1.40800871256463E-01
 cg2d: Sum(rhs),rhsMax =  -9.19375686692092E-12  1.39641717614610E-01
 cg2d: Sum(rhs),rhsMax =  -9.30022725498247E-12  1.38439878945591E-01
 cg2d: Sum(rhs),rhsMax =  -9.40147959482829E-12  1.37217680105975E-01
 cg2d: Sum(rhs),rhsMax =  -9.48718881232935E-12  1.35961255253035E-01
 cg2d: Sum(rhs),rhsMax =  -9.56335011181864E-12  1.34683964397573E-01
 cg2d: Sum(rhs),rhsMax =  -9.69990754384753E-12  1.33374580868119E-01
 cg2d: Sum(rhs),rhsMax =  -9.89042181487321E-12  1.32053714133178E-01
 cg2d: Sum(rhs),rhsMax =  -1.00749408815659E-11  1.30721519533538E-01
 cg2d: Sum(rhs),rhsMax =  -1.02683417324556E-11  1.29337956309124E-01
 cg2d: Sum(rhs),rhsMax =  -1.04521946653335E-11  1.27940415078389E-01
 cg2d: Sum(rhs),rhsMax =  -1.06147313161387E-11  1.26517133687797E-01
 cg2d: Sum(rhs),rhsMax =  -1.08030251411151E-11  1.25069162178251E-01
 cg2d: Sum(rhs),rhsMax =  -1.09925402114186E-11  1.23609100314146E-01
 cg2d: Sum(rhs),rhsMax =  -1.11753939435744E-11  1.22116871161179E-01
 cg2d: Sum(rhs),rhsMax =  -1.13922205002837E-11  1.20619147856232E-01
 cg2d: Sum(rhs),rhsMax =  -1.15906173547842E-11  1.19117471340294E-01
 cg2d: Sum(rhs),rhsMax =  -1.18095533352403E-11  1.17593224339493E-01
 cg2d: Sum(rhs),rhsMax =  -1.19916299112788E-11  1.16069656678127E-01
 cg2d: Sum(rhs),rhsMax =  -1.22475363184549E-11  1.14540482375794E-01
 cg2d: Sum(rhs),rhsMax =  -1.25008892126743E-11  1.13007190854586E-01
 cg2d: Sum(rhs),rhsMax =  -1.27516885939372E-11  1.11478322647307E-01
 cg2d: Sum(rhs),rhsMax =  -1.30568889034066E-11  1.09943862656006E-01
 cg2d: Sum(rhs),rhsMax =  -1.28741461935533E-11  1.12294504777585E-01
 cg2d: Sum(rhs),rhsMax =  -1.26828547664104E-11  1.14616112407277E-01
 cg2d: Sum(rhs),rhsMax =  -1.24801280421138E-11  1.16871009048415E-01
 cg2d: Sum(rhs),rhsMax =  -1.23318022460239E-11  1.19065024825973E-01
 cg2d: Sum(rhs),rhsMax =  -1.21919141449212E-11  1.21196535416389E-01
 cg2d: Sum(rhs),rhsMax =  -1.20462528840903E-11  1.23249350978129E-01
 cg2d: Sum(rhs),rhsMax =  -1.19505516593676E-11  1.25256685792007E-01
 cg2d: Sum(rhs),rhsMax =  -1.18548504346450E-11  1.27207478309832E-01
 cg2d: Sum(rhs),rhsMax =  -1.17849063840936E-11  1.29095102675617E-01
 cg2d: Sum(rhs),rhsMax =  -1.16806009309300E-11  1.30913118716473E-01
 cg2d: Sum(rhs),rhsMax =  -1.16129328375791E-11  1.32665117721473E-01
 cg2d: Sum(rhs),rhsMax =  -1.15222831276185E-11  1.34351478739096E-01
 cg2d: Sum(rhs),rhsMax =  -1.13993814387925E-11  1.35961745987377E-01
 cg2d: Sum(rhs),rhsMax =  -1.12843623334413E-11  1.37499830623303E-01
 cg2d: Sum(rhs),rhsMax =  -1.12118092587821E-11  1.38967318999098E-01
 cg2d: Sum(rhs),rhsMax =  -1.11608500219518E-11  1.40368793175569E-01
 cg2d: Sum(rhs),rhsMax =  -1.11284870207840E-11  1.41702025519511E-01
 cg2d: Sum(rhs),rhsMax =  -1.10756404048118E-11  1.42964000208155E-01
 cg2d: Sum(rhs),rhsMax =  -1.10573772360567E-11  1.44156333448575E-01
 cg2d: Sum(rhs),rhsMax =  -1.10070286218900E-11  1.45277884796062E-01
 cg2d: Sum(rhs),rhsMax =  -1.09722786412192E-11  1.46329075159674E-01
 cg2d: Sum(rhs),rhsMax =  -1.09258158076386E-11  1.47306978256926E-01
 cg2d: Sum(rhs),rhsMax =  -1.08808517751413E-11  1.48217002505717E-01
 cg2d: Sum(rhs),rhsMax =  -1.08735798143300E-11  1.49054702430564E-01
 cg2d: Sum(rhs),rhsMax =  -1.08345554750144E-11  1.49819354794532E-01
 cg2d: Sum(rhs),rhsMax =  -1.08175135515864E-11  1.50512090436480E-01
 cg2d: Sum(rhs),rhsMax =  -1.07889808198536E-11  1.51138083925611E-01
 cg2d: Sum(rhs),rhsMax =  -1.07232001056445E-11  1.51693868918772E-01
 cg2d: Sum(rhs),rhsMax =  -1.06348818640356E-11  1.52182151538843E-01
 cg2d: Sum(rhs),rhsMax =  -1.05886965862112E-11  1.52608379655859E-01
 cg2d: Sum(rhs),rhsMax =  -1.05420117080257E-11  1.52966039541266E-01
 cg2d: Sum(rhs),rhsMax =  -1.05470632227878E-11  1.53261291947842E-01
 cg2d: Sum(rhs),rhsMax =  -1.05216391155238E-11  1.53495368542105E-01
 cg2d: Sum(rhs),rhsMax =  -1.04664055200487E-11  1.53666816201841E-01
 cg2d: Sum(rhs),rhsMax =  -1.04766750830265E-11  1.53778546147596E-01
 cg2d: Sum(rhs),rhsMax =  -1.05079833723210E-11  1.53831331050615E-01
 cg2d: Sum(rhs),rhsMax =  -1.05549458062626E-11  1.53823122454051E-01
 cg2d: Sum(rhs),rhsMax =  -1.05955799689639E-11  1.53755323437671E-01
 cg2d: Sum(rhs),rhsMax =  -1.06470388061553E-11  1.53636706389323E-01
 cg2d: Sum(rhs),rhsMax =  -1.06903930152669E-11  1.53464485093201E-01
 cg2d: Sum(rhs),rhsMax =  -1.07129305426668E-11  1.53239566068169E-01
 cg2d: Sum(rhs),rhsMax =  -1.07477360344888E-11  1.52964678983391E-01
 cg2d: Sum(rhs),rhsMax =  -1.08034137191737E-11  1.52637846225631E-01
 cg2d: Sum(rhs),rhsMax =  -1.09032782802387E-11  1.52267046055786E-01
 cg2d: Sum(rhs),rhsMax =  -1.09089959288156E-11  1.51825380679683E-01
 cg2d: Sum(rhs),rhsMax =  -1.09365294598263E-11  1.51338711374370E-01
 cg2d: Sum(rhs),rhsMax =  -1.09230402500771E-11  1.50809590021360E-01
 cg2d: Sum(rhs),rhsMax =  -1.09269260306633E-11  1.50236653519728E-01
 cg2d: Sum(rhs),rhsMax =  -1.09098285960840E-11  1.49616160216809E-01
 cg2d: Sum(rhs),rhsMax =  -1.08954512079151E-11  1.48955603057072E-01
 cg2d: Sum(rhs),rhsMax =  -1.09071085496737E-11  1.48256870923308E-01
 cg2d: Sum(rhs),rhsMax =  -1.08947850741004E-11  1.47515849836070E-01
 cg2d: Sum(rhs),rhsMax =  -1.09309783447031E-11  1.46734175071678E-01
 cg2d: Sum(rhs),rhsMax =  -1.10018105736742E-11  1.45929767352807E-01
 cg2d: Sum(rhs),rhsMax =  -1.11401998736937E-11  1.45086738179173E-01
 cg2d: Sum(rhs),rhsMax =  -1.12442277711011E-11  1.44176614048132E-01
 cg2d: Sum(rhs),rhsMax =  -1.13418163749657E-11  1.43252995204428E-01
 cg2d: Sum(rhs),rhsMax =  -1.13604126106281E-11  1.42294130484548E-01
 cg2d: Sum(rhs),rhsMax =  -1.14136478046589E-11  1.41296786509829E-01
 cg2d: Sum(rhs),rhsMax =  -1.14814824314635E-11  1.40263399483153E-01
 cg2d: Sum(rhs),rhsMax =  -1.15350506924017E-11  1.39148621506527E-01
 cg2d: Sum(rhs),rhsMax =  -1.16144871498136E-11  1.38063157575844E-01
 cg2d: Sum(rhs),rhsMax =  -1.17035270363886E-11  1.36952369959534E-01
 cg2d: Sum(rhs),rhsMax =  -1.17730269977301E-11  1.35797435656364E-01
 cg2d: Sum(rhs),rhsMax =  -1.18832721440754E-11  1.34614728308429E-01
 cg2d: Sum(rhs),rhsMax =  -1.19864673742143E-11  1.33404060896083E-01
 cg2d: Sum(rhs),rhsMax =  -1.20854992680108E-11  1.32161504408467E-01
 cg2d: Sum(rhs),rhsMax =  -1.21783139128695E-11  1.30898245992094E-01
 cg2d: Sum(rhs),rhsMax =  -1.23747678770769E-11  1.29590725260480E-01
 cg2d: Sum(rhs),rhsMax =  -1.25169319353802E-11  1.28244555753700E-01
 cg2d: Sum(rhs),rhsMax =  -1.26088584018191E-11  1.26876017637198E-01
 cg2d: Sum(rhs),rhsMax =  -1.27141075445536E-11  1.25488854039910E-01
 cg2d: Sum(rhs),rhsMax =  -1.29486976696569E-11  1.24084152255451E-01
 cg2d: Sum(rhs),rhsMax =  -1.30750965610105E-11  1.22665645755109E-01
 cg2d: Sum(rhs),rhsMax =  -1.31921695789572E-11  1.21231394245367E-01
 cg2d: Sum(rhs),rhsMax =  -1.32988620116237E-11  1.19784258337909E-01
 cg2d: Sum(rhs),rhsMax =  -1.33979494165715E-11  1.18332323167724E-01
 cg2d: Sum(rhs),rhsMax =  -1.35234046183541E-11  1.16867907763974E-01
 cg2d: Sum(rhs),rhsMax =  -1.36547995133185E-11  1.15382166777540E-01
 cg2d: Sum(rhs),rhsMax =  -1.37794775589839E-11  1.13889747826919E-01
 cg2d: Sum(rhs),rhsMax =  -1.39174782809448E-11  1.12377422038840E-01
 cg2d: Sum(rhs),rhsMax =  -1.41379130624841E-11  1.10859260326581E-01
 cg2d: Sum(rhs),rhsMax =  -1.43154932352729E-11  1.09339775019038E-01
 cg2d: Sum(rhs),rhsMax =  -1.44611544961037E-11  1.07817597336913E-01
 cg2d: Sum(rhs),rhsMax =  -1.46277989721000E-11  1.06301739026520E-01
 cg2d: Sum(rhs),rhsMax =  -1.47726275656623E-11  1.05842851834981E-01
 cg2d: Sum(rhs),rhsMax =  -1.44522727119067E-11  1.08109654615031E-01
 cg2d: Sum(rhs),rhsMax =  -1.41674449949392E-11  1.10337104496154E-01
 cg2d: Sum(rhs),rhsMax =  -1.39032119150784E-11  1.12494206805679E-01
 cg2d: Sum(rhs),rhsMax =  -1.36609057399539E-11  1.14593632266660E-01
 cg2d: Sum(rhs),rhsMax =  -1.34019462194601E-11  1.16636099153484E-01
 cg2d: Sum(rhs),rhsMax =  -1.31650801371563E-11  1.18625498112762E-01
 cg2d: Sum(rhs),rhsMax =  -1.29818378269420E-11  1.20513702055606E-01
 cg2d: Sum(rhs),rhsMax =  -1.27774457681085E-11  1.22344447348512E-01
 cg2d: Sum(rhs),rhsMax =  -1.25602861444918E-11  1.24129139076036E-01
 cg2d: Sum(rhs),rhsMax =  -1.23501764370815E-11  1.25855891050456E-01
 cg2d: Sum(rhs),rhsMax =  -1.21644361250617E-11  1.27526653650554E-01
 cg2d: Sum(rhs),rhsMax =  -1.19884657756586E-11  1.29136415901897E-01
 cg2d: Sum(rhs),rhsMax =  -1.18221543665697E-11  1.30684807333840E-01
 cg2d: Sum(rhs),rhsMax =  -1.16144871498136E-11  1.32172127576811E-01
 cg2d: Sum(rhs),rhsMax =  -1.14857567901083E-11  1.33593164508691E-01
 cg2d: Sum(rhs),rhsMax =  -1.13891673869659E-11  1.34945871034934E-01
 cg2d: Sum(rhs),rhsMax =  -1.12876374913640E-11  1.36224171050412E-01
 cg2d: Sum(rhs),rhsMax =  -1.11921583112462E-11  1.37436931251084E-01
 cg2d: Sum(rhs),rhsMax =  -1.11013975789831E-11  1.38585342529113E-01
 cg2d: Sum(rhs),rhsMax =  -1.09970366146683E-11  1.39670466172818E-01
 cg2d: Sum(rhs),rhsMax =  -1.09430242645203E-11  1.40694378123088E-01
 cg2d: Sum(rhs),rhsMax =  -1.08340558746534E-11  1.41656292819390E-01
 cg2d: Sum(rhs),rhsMax =  -1.07729936082990E-11  1.42556478675786E-01
 cg2d: Sum(rhs),rhsMax =  -1.07085451617195E-11  1.43395048328206E-01
 cg2d: Sum(rhs),rhsMax =  -1.06264441690485E-11  1.44171999901297E-01
 cg2d: Sum(rhs),rhsMax =  -1.05544462059015E-11  1.44885149861858E-01
 cg2d: Sum(rhs),rhsMax =  -1.04913300269516E-11  1.45537272102022E-01
 cg2d: Sum(rhs),rhsMax =  -1.04208308648879E-11  1.46129233785554E-01
 cg2d: Sum(rhs),rhsMax =  -1.03679287377645E-11  1.46659866959516E-01
 cg2d: Sum(rhs),rhsMax =  -1.03124730976845E-11  1.47128863884578E-01
 cg2d: Sum(rhs),rhsMax =  -1.02456376716020E-11  1.47533648365590E-01
 cg2d: Sum(rhs),rhsMax =  -1.01840202937353E-11  1.47882103472657E-01
 cg2d: Sum(rhs),rhsMax =  -1.01335606572661E-11  1.48175900496305E-01
 cg2d: Sum(rhs),rhsMax =  -1.00947583625555E-11  1.48411096797242E-01
 cg2d: Sum(rhs),rhsMax =  -1.00566222016596E-11  1.48584728765609E-01
 cg2d: Sum(rhs),rhsMax =  -1.00124353252795E-11  1.48703442150924E-01
 cg2d: Sum(rhs),rhsMax =  -9.99517135724659E-12  1.48765126726175E-01
 cg2d: Sum(rhs),rhsMax =  -9.98140459174124E-12  1.48766524835740E-01
 cg2d: Sum(rhs),rhsMax =  -9.95842297513150E-12  1.48712048136299E-01
 cg2d: Sum(rhs),rhsMax =  -9.96197568881030E-12  1.48603031519430E-01
 cg2d: Sum(rhs),rhsMax =  -1.00132124813967E-11  1.48443154429405E-01
 cg2d: Sum(rhs),rhsMax =  -1.00112695911037E-11  1.48230253196414E-01
 cg2d: Sum(rhs),rhsMax =  -9.99461624573428E-12  1.47965723235942E-01
 cg2d: Sum(rhs),rhsMax =  -9.98084948022893E-12  1.47648907938781E-01
 cg2d: Sum(rhs),rhsMax =  -9.97651961043289E-12  1.47284289359629E-01
 cg2d: Sum(rhs),rhsMax =  -9.96253080032261E-12  1.46872575546722E-01
 cg2d: Sum(rhs),rhsMax =  -1.00046637641071E-11  1.46409737954598E-01
 cg2d: Sum(rhs),rhsMax =  -1.00240371558868E-11  1.45901905268525E-01
 cg2d: Sum(rhs),rhsMax =  -1.00244812450967E-11  1.45343993785321E-01
 cg2d: Sum(rhs),rhsMax =  -1.00098263011716E-11  1.44738170635382E-01
 cg2d: Sum(rhs),rhsMax =  -1.00347508080745E-11  1.44089536113389E-01
 cg2d: Sum(rhs),rhsMax =  -1.00718877682482E-11  1.43393982952637E-01
 cg2d: Sum(rhs),rhsMax =  -1.01336716795686E-11  1.42658153576979E-01
 cg2d: Sum(rhs),rhsMax =  -1.01775254890413E-11  1.41877664291317E-01
 cg2d: Sum(rhs),rhsMax =  -1.02255981460075E-11  1.41060845193291E-01
 cg2d: Sum(rhs),rhsMax =  -1.02859942785472E-11  1.40205146775229E-01
 cg2d: Sum(rhs),rhsMax =  -1.03482222790774E-11  1.39314585673802E-01
 cg2d: Sum(rhs),rhsMax =  -1.04131703260180E-11  1.38392148787661E-01
 cg2d: Sum(rhs),rhsMax =  -1.04463104833030E-11  1.37438697474469E-01
 cg2d: Sum(rhs),rhsMax =  -1.04912190046491E-11  1.36456469725560E-01
 cg2d: Sum(rhs),rhsMax =  -1.05383479720444E-11  1.35445213724135E-01
 cg2d: Sum(rhs),rhsMax =  -1.05679354156507E-11  1.34405266154774E-01
 cg2d: Sum(rhs),rhsMax =  -1.06289421708539E-11  1.33337775011384E-01
 cg2d: Sum(rhs),rhsMax =  -1.06926689724673E-11  1.32243361244625E-01
 cg2d: Sum(rhs),rhsMax =  -1.07275854865918E-11  1.31124178543773E-01
 cg2d: Sum(rhs),rhsMax =  -1.07631681345310E-11  1.29979257578705E-01
 cg2d: Sum(rhs),rhsMax =  -1.07678865823857E-11  1.28809802574637E-01
 cg2d: Sum(rhs),rhsMax =  -1.07712727626108E-11  1.27613864073248E-01
 cg2d: Sum(rhs),rhsMax =  -1.07659992032438E-11  1.26389851498672E-01
 cg2d: Sum(rhs),rhsMax =  -1.07753250766507E-11  1.25139489813647E-01
 cg2d: Sum(rhs),rhsMax =  -1.08121844810682E-11  1.23865462971055E-01
 cg2d: Sum(rhs),rhsMax =  -1.08707487456172E-11  1.22564760660322E-01
 cg2d: Sum(rhs),rhsMax =  -1.08863473791132E-11  1.21237958365346E-01
 cg2d: Sum(rhs),rhsMax =  -1.09481312904336E-11  1.19888430558268E-01
 cg2d: Sum(rhs),rhsMax =  -1.09754427768394E-11  1.18512539103440E-01
 cg2d: Sum(rhs),rhsMax =  -1.10397802011164E-11  1.17108985616446E-01
 cg2d: Sum(rhs),rhsMax =  -1.11269327085495E-11  1.15681800355188E-01
 cg2d: Sum(rhs),rhsMax =  -1.12680420549793E-11  1.14235988009416E-01
 cg2d: Sum(rhs),rhsMax =  -1.14486198299346E-11  1.12769690180165E-01
 cg2d: Sum(rhs),rhsMax =  -1.16063825217338E-11  1.11283886267980E-01
 cg2d: Sum(rhs),rhsMax =  -1.17522658271696E-11  1.09781121739967E-01
 cg2d: Sum(rhs),rhsMax =  -1.19220744387860E-11  1.08270124857776E-01
 cg2d: Sum(rhs),rhsMax =  -1.20456422614268E-11  1.06747600424344E-01
 cg2d: Sum(rhs),rhsMax =  -1.22006849068157E-11  1.05219561746233E-01
 cg2d: Sum(rhs),rhsMax =  -1.23734356094474E-11  1.03703403328845E-01
 cg2d: Sum(rhs),rhsMax =  -1.25897070546444E-11  1.02172337270082E-01
 cg2d: Sum(rhs),rhsMax =  -1.27550192630110E-11  1.00646735489891E-01
 cg2d: Sum(rhs),rhsMax =  -1.28989041670025E-11  9.94798675484136E-02
 cg2d: Sum(rhs),rhsMax =  -1.28984600777926E-11  9.97086553434259E-02
 cg2d: Sum(rhs),rhsMax =  -1.28204113991615E-11  1.00264557774613E-01
 cg2d: Sum(rhs),rhsMax =  -1.26182397863772E-11  1.02300968467957E-01
 cg2d: Sum(rhs),rhsMax =  -1.23914212224463E-11  1.04276189827768E-01
 cg2d: Sum(rhs),rhsMax =  -1.21579413203676E-11  1.06208362261787E-01
 cg2d: Sum(rhs),rhsMax =  -1.19508847262750E-11  1.08094326894566E-01
 cg2d: Sum(rhs),rhsMax =  -1.17348353256830E-11  1.09930390924736E-01
 cg2d: Sum(rhs),rhsMax =  -1.15418785640031E-11  1.11712536175462E-01
 cg2d: Sum(rhs),rhsMax =  -1.13626330566774E-11  1.13435594707279E-01
 cg2d: Sum(rhs),rhsMax =  -1.11504139255203E-11  1.15102686730786E-01
 cg2d: Sum(rhs),rhsMax =  -1.10108033801737E-11  1.16716543003309E-01
 cg2d: Sum(rhs),rhsMax =  -1.08206776872066E-11  1.18278487603532E-01
 cg2d: Sum(rhs),rhsMax =  -1.06656350418177E-11  1.19785940320032E-01
 cg2d: Sum(rhs),rhsMax =  -1.05192521360209E-11  1.21233274613979E-01
 cg2d: Sum(rhs),rhsMax =  -1.03556052621911E-11  1.22623497627827E-01
 cg2d: Sum(rhs),rhsMax =  -1.02138852930977E-11  1.23956038875700E-01
 cg2d: Sum(rhs),rhsMax =  -1.00596753149773E-11  1.25227631997258E-01
 cg2d: Sum(rhs),rhsMax =  -9.94310189739167E-12  1.26435050644938E-01
 cg2d: Sum(rhs),rhsMax =  -9.79788472577070E-12  1.27584495556013E-01
 cg2d: Sum(rhs),rhsMax =  -9.65760804660931E-12  1.28676388406050E-01
(PID.TID 0000.0001)      cg2d_init_res =   7.13863176183544E-02
(PID.TID 0000.0001)      cg2d_iters(min,last) =      -1      29
(PID.TID 0000.0001)      cg2d_last_res =   8.90027432882647E-14
(PID.TID 0000.0001) // =======================================================
(PID.TID 0000.0001) // Begin MONITOR dynamic field statistics
(PID.TID 0000.0001) // =======================================================
(PID.TID 0000.0001) %MON time_tsnumber                =                  2880
(PID.TID 0000.0001) %MON time_secondsf                =   4.3200000000000E+04
(PID.TID 0000.0001) %MON dynstat_eta_max              =   6.5073739222514E-03
(PID.TID 0000.0001) %MON dynstat_eta_min              =  -1.1664922203513E-02
(PID.TID 0000.0001) %MON dynstat_eta_mean             =   1.4310615410346E-15
(PID.TID 0000.0001) %MON dynstat_eta_sd               =   5.0573016744382E-03
(PID.TID 0000.0001) %MON dynstat_eta_del2             =   1.1538356424992E-04
(PID.TID 0000.0001) %MON dynstat_uvel_max             =   1.0089937398128E+00
(PID.TID 0000.0001) %MON dynstat_uvel_min             =  -4.6503788125936E-01
(PID.TID 0000.0001) %MON dynstat_uvel_mean            =   2.4295320806727E-04
(PID.TID 0000.0001) %MON dynstat_uvel_sd              =   8.6318534551390E-02
(PID.TID 0000.0001) %MON dynstat_uvel_del2            =   5.1104151528963E-04
(PID.TID 0000.0001) %MON dynstat_vvel_max             =   0.0000000000000E+00
(PID.TID 0000.0001) %MON dynstat_vvel_min             =   0.0000000000000E+00
(PID.TID 0000.0001) %MON dynstat_vvel_mean            =   0.0000000000000E+00
(PID.TID 0000.0001) %MON dynstat_vvel_sd              =   0.0000000000000E+00
(PID.TID 0000.0001) %MON dynstat_vvel_del2            =   0.0000000000000E+00
(PID.TID 0000.0001) %MON dynstat_wvel_max             =   4.9437953118300E-02
(PID.TID 0000.0001) %MON dynstat_wvel_min             =  -2.6117641371403E-02
(PID.TID 0000.0001) %MON dynstat_wvel_mean            =   2.4772842092188E-20
(PID.TID 0000.0001) %MON dynstat_wvel_sd              =   3.0940383487420E-03
(PID.TID 0000.0001) %MON dynstat_wvel_del2            =   7.6163559754690E-05
(PID.TID 0000.0001) %MON dynstat_theta_max            =   1.5000000000577E+01
(PID.TID 0000.0001) %MON dynstat_theta_min            =   9.9999999999941E+00
(PID.TID 0000.0001) %MON dynstat_theta_mean           =   1.3087501503206E+01
(PID.TID 0000.0001) %MON dynstat_theta_sd             =   2.3702413850900E+00
(PID.TID 0000.0001) %MON dynstat_theta_del2           =   1.4888921749418E-03
(PID.TID 0000.0001) %MON dynstat_salt_max             =   3.5000000000000E+01
(PID.TID 0000.0001) %MON dynstat_salt_min             =   3.5000000000000E+01
(PID.TID 0000.0001) %MON dynstat_salt_mean            =   3.5000000000000E+01
(PID.TID 0000.0001) %MON dynstat_salt_sd              =   7.1054273576010E-15
(PID.TID 0000.0001) %MON dynstat_salt_del2            =   0.0000000000000E+00
(PID.TID 0000.0001) %MON dynstat_sst_max              =   1.5000000000005E+01
(PID.TID 0000.0001) %MON dynstat_sst_min              =   1.4999999985203E+01
(PID.TID 0000.0001) %MON dynstat_sst_mean             =   1.4999999999912E+01
(PID.TID 0000.0001) %MON dynstat_sst_sd               =   9.6125071928887E-10
(PID.TID 0000.0001) %MON dynstat_sst_del2             =   6.3071193593818E-11
(PID.TID 0000.0001) %MON dynstat_sss_max              =   3.5000000000000E+01
(PID.TID 0000.0001) %MON dynstat_sss_min              =   3.5000000000000E+01
(PID.TID 0000.0001) %MON dynstat_sss_mean             =   3.5000000000000E+01
(PID.TID 0000.0001) %MON dynstat_sss_sd               =   0.0000000000000E+00
(PID.TID 0000.0001) %MON dynstat_sss_del2             =   0.0000000000000E+00
(PID.TID 0000.0001) %MON forcing_qnet_max             =   0.0000000000000E+00
(PID.TID 0000.0001) %MON forcing_qnet_min             =   0.0000000000000E+00
(PID.TID 0000.0001) %MON forcing_qnet_mean            =   0.0000000000000E+00
(PID.TID 0000.0001) %MON forcing_qnet_sd              =   0.0000000000000E+00
(PID.TID 0000.0001) %MON forcing_qnet_del2            =   0.0000000000000E+00
(PID.TID 0000.0001) %MON forcing_qsw_max              =   0.0000000000000E+00
(PID.TID 0000.0001) %MON forcing_qsw_min              =   0.0000000000000E+00
(PID.TID 0000.0001) %MON forcing_qsw_mean             =   0.0000000000000E+00
(PID.TID 0000.0001) %MON forcing_qsw_sd               =   0.0000000000000E+00
(PID.TID 0000.0001) %MON forcing_qsw_del2             =   0.0000000000000E+00
(PID.TID 0000.0001) %MON forcing_empmr_max            =   0.0000000000000E+00
(PID.TID 0000.0001) %MON forcing_empmr_min            =   0.0000000000000E+00
(PID.TID 0000.0001) %MON forcing_empmr_mean           =   0.0000000000000E+00
(PID.TID 0000.0001) %MON forcing_empmr_sd             =   0.0000000000000E+00
(PID.TID 0000.0001) %MON forcing_empmr_del2           =   0.0000000000000E+00
(PID.TID 0000.0001) %MON forcing_fu_max               =   0.0000000000000E+00
(PID.TID 0000.0001) %MON forcing_fu_min               =   0.0000000000000E+00
(PID.TID 0000.0001) %MON forcing_fu_mean              =   0.0000000000000E+00
(PID.TID 0000.0001) %MON forcing_fu_sd                =   0.0000000000000E+00
(PID.TID 0000.0001) %MON forcing_fu_del2              =   0.0000000000000E+00
(PID.TID 0000.0001) %MON forcing_fv_max               =   0.0000000000000E+00
(PID.TID 0000.0001) %MON forcing_fv_min               =   0.0000000000000E+00
(PID.TID 0000.0001) %MON forcing_fv_mean              =   0.0000000000000E+00
(PID.TID 0000.0001) %MON forcing_fv_sd                =   0.0000000000000E+00
(PID.TID 0000.0001) %MON forcing_fv_del2              =   0.0000000000000E+00
(PID.TID 0000.0001) %MON advcfl_uvel_max              =   6.6636843124733E-02
(PID.TID 0000.0001) %MON advcfl_vvel_max              =   0.0000000000000E+00
(PID.TID 0000.0001) %MON advcfl_wvel_max              =   4.0953967704409E-01
(PID.TID 0000.0001) %MON advcfl_W_hf_max              =   4.1458231239042E-01
(PID.TID 0000.0001) %MON pe_b_mean                    =   7.1799106087694E-07
(PID.TID 0000.0001) %MON ke_max                       =   3.6838632108923E-01
(PID.TID 0000.0001) %MON ke_mean                      =   3.7667130328351E-03
(PID.TID 0000.0001) %MON ke_vol                       =   8.5336562999261E+10
(PID.TID 0000.0001) %MON vort_r_min                   =   0.0000000000000E+00
(PID.TID 0000.0001) %MON vort_r_max                   =   0.0000000000000E+00
(PID.TID 0000.0001) %MON vort_a_mean                  =   0.0000000000000E+00
(PID.TID 0000.0001) %MON vort_a_sd                    =   0.0000000000000E+00
(PID.TID 0000.0001) %MON vort_p_mean                  =   0.0000000000000E+00
(PID.TID 0000.0001) %MON vort_p_sd                    =   0.0000000000000E+00
(PID.TID 0000.0001) %MON surfExpan_theta_mean         =  -2.3848357556913E-17
(PID.TID 0000.0001) %MON surfExpan_salt_mean          =   1.3682401067758E-18
(PID.TID 0000.0001) // =======================================================
(PID.TID 0000.0001) // End MONITOR dynamic field statistics
(PID.TID 0000.0001) // =======================================================
(PID.TID 0000.0001) // =======================================================
(PID.TID 0000.0001) // Begin OBCS MONITOR field statistics
(PID.TID 0000.0001) // =======================================================
(PID.TID 0000.0001) %MON obc_E_uVel_max               =   0.0000000000000E+00
(PID.TID 0000.0001) %MON obc_E_uVel_min               =   0.0000000000000E+00
(PID.TID 0000.0001) %MON obc_E_uVel_mean              =   0.0000000000000E+00
(PID.TID 0000.0001) %MON obc_E_uVel_sd                =   0.0000000000000E+00
(PID.TID 0000.0001) %MON obc_E_uVel_Int               =   0.0000000000000E+00
(PID.TID 0000.0001) %MON obc_W_uVel_max               =   0.0000000000000E+00
(PID.TID 0000.0001) %MON obc_W_uVel_min               =   0.0000000000000E+00
(PID.TID 0000.0001) %MON obc_W_uVel_mean              =   0.0000000000000E+00
(PID.TID 0000.0001) %MON obc_W_uVel_sd                =   0.0000000000000E+00
(PID.TID 0000.0001) %MON obc_W_uVel_Int               =   0.0000000000000E+00
(PID.TID 0000.0001) // =======================================================
(PID.TID 0000.0001) // End OBCS MONITOR field statistics
(PID.TID 0000.0001) // =======================================================
(PID.TID 0000.0001) %CHECKPOINT      2880 0000002880
 cg2d: Sum(rhs),rhsMax =  -9.53409573511976E-12  1.29711228815499E-01
 cg2d: Sum(rhs),rhsMax =  -9.44122557910987E-12  1.30691131067573E-01
 cg2d: Sum(rhs),rhsMax =  -9.32726118563210E-12  1.31616370203435E-01
 cg2d: Sum(rhs),rhsMax =  -9.25043375232804E-12  1.32481368999798E-01
 cg2d: Sum(rhs),rhsMax =  -9.18431997121161E-12  1.33289152907572E-01
 cg2d: Sum(rhs),rhsMax =  -9.16855480426193E-12  1.34040985317061E-01
 cg2d: Sum(rhs),rhsMax =  -9.08051411840916E-12  1.34734580336819E-01
 cg2d: Sum(rhs),rhsMax =  -8.95344909324081E-12  1.35372874535156E-01
 cg2d: Sum(rhs),rhsMax =  -8.84020634472904E-12  1.35953087866255E-01
 cg2d: Sum(rhs),rhsMax =  -8.75594041715999E-12  1.36490875711112E-01
 cg2d: Sum(rhs),rhsMax =  -8.67239613455695E-12  1.36977081935543E-01
 cg2d: Sum(rhs),rhsMax =  -8.59928794838538E-12  1.37407106321782E-01
 cg2d: Sum(rhs),rhsMax =  -8.51879677910006E-12  1.37780667792677E-01
 cg2d: Sum(rhs),rhsMax =  -8.44868619509498E-12  1.38099328835634E-01
 cg2d: Sum(rhs),rhsMax =  -8.37679925425050E-12  1.38364503505859E-01
 cg2d: Sum(rhs),rhsMax =  -8.30763235981635E-12  1.38575342137913E-01
 cg2d: Sum(rhs),rhsMax =  -8.19233569870903E-12  1.38732771019233E-01
 cg2d: Sum(rhs),rhsMax =  -8.13515921294083E-12  1.38834694782000E-01
 cg2d: Sum(rhs),rhsMax =  -8.05439048789935E-12  1.38888010485326E-01
 cg2d: Sum(rhs),rhsMax =  -7.99238453197404E-12  1.38894065358262E-01
 cg2d: Sum(rhs),rhsMax =  -7.93237697749305E-12  1.38855383235508E-01
 cg2d: Sum(rhs),rhsMax =  -7.87675480395933E-12  1.38769605747379E-01
 cg2d: Sum(rhs),rhsMax =  -7.83600961895559E-12  1.38642904723975E-01
 cg2d: Sum(rhs),rhsMax =  -7.79276643214644E-12  1.38473069350207E-01
 cg2d: Sum(rhs),rhsMax =  -7.74380559676047E-12  1.38256942420910E-01
 cg2d: Sum(rhs),rhsMax =  -7.69767583008729E-12  1.38002588042589E-01
 cg2d: Sum(rhs),rhsMax =  -7.64738272707177E-12  1.37706920218825E-01
 cg2d: Sum(rhs),rhsMax =  -7.61074536725914E-12  1.37367997331925E-01
 cg2d: Sum(rhs),rhsMax =  -7.55318030343233E-12  1.36985743571323E-01
 cg2d: Sum(rhs),rhsMax =  -7.48123785143662E-12  1.36566227396853E-01
 cg2d: Sum(rhs),rhsMax =  -7.41340322463202E-12  1.36107119126372E-01
 cg2d: Sum(rhs),rhsMax =  -7.38537009326024E-12  1.35603939832161E-01
 cg2d: Sum(rhs),rhsMax =  -7.35139726870671E-12  1.35065569281782E-01
 cg2d: Sum(rhs),rhsMax =  -7.30981941643449E-12  1.34489775785380E-01
 cg2d: Sum(rhs),rhsMax =  -7.26696480768396E-12  1.33878924607432E-01
 cg2d: Sum(rhs),rhsMax =  -7.24376114646930E-12  1.33221233884452E-01
 cg2d: Sum(rhs),rhsMax =  -7.21434023631673E-12  1.32525946971458E-01
 cg2d: Sum(rhs),rhsMax =  -7.18158865709029E-12  1.31796205661026E-01
 cg2d: Sum(rhs),rhsMax =  -7.19369008805870E-12  1.31025988657271E-01
 cg2d: Sum(rhs),rhsMax =  -7.18558545997894E-12  1.30224289937040E-01
 cg2d: Sum(rhs),rhsMax =  -7.20878912119360E-12  1.29391102178428E-01
 cg2d: Sum(rhs),rhsMax =  -7.21489534782904E-12  1.28525920749318E-01
 cg2d: Sum(rhs),rhsMax =  -7.27951032786223E-12  1.27631164611962E-01
 cg2d: Sum(rhs),rhsMax =  -7.30970839413203E-12  1.26718242683924E-01
 cg2d: Sum(rhs),rhsMax =  -7.33080263159991E-12  1.25763031394636E-01
 cg2d: Sum(rhs),rhsMax =  -7.39586170084294E-12  1.24793156498580E-01
 cg2d: Sum(rhs),rhsMax =  -7.48523465432527E-12  1.23895084187418E-01
 cg2d: Sum(rhs),rhsMax =  -7.45070671825943E-12  1.22853381967962E-01
 cg2d: Sum(rhs),rhsMax =  -7.48479056511542E-12  1.21782508592991E-01
 cg2d: Sum(rhs),rhsMax =  -7.50122186587987E-12  1.20701798680505E-01
 cg2d: Sum(rhs),rhsMax =  -7.54929452284614E-12  1.19598373042753E-01
 cg2d: Sum(rhs),rhsMax =  -7.56306128835149E-12  1.18475151140737E-01
 cg2d: Sum(rhs),rhsMax =  -7.64166507849495E-12  1.17322498468781E-01
 cg2d: Sum(rhs),rhsMax =  -7.67075292174013E-12  1.16144980839094E-01
 cg2d: Sum(rhs),rhsMax =  -7.72926167513788E-12  1.14948276380641E-01
 cg2d: Sum(rhs),rhsMax =  -7.75879360759291E-12  1.13728044297761E-01
 cg2d: Sum(rhs),rhsMax =  -7.82085507466945E-12  1.12490285611492E-01
 cg2d: Sum(rhs),rhsMax =  -7.83095810419354E-12  1.11238371634965E-01
 cg2d: Sum(rhs),rhsMax =  -7.83240139412555E-12  1.09972847059789E-01
 cg2d: Sum(rhs),rhsMax =  -7.84605713732844E-12  1.08693339108153E-01
 cg2d: Sum(rhs),rhsMax =  -7.92277354833004E-12  1.07399502468400E-01
 cg2d: Sum(rhs),rhsMax =  -7.95497001604417E-12  1.06091925679679E-01
 cg2d: Sum(rhs),rhsMax =  -8.09075029195583E-12  1.04772849448896E-01
 cg2d: Sum(rhs),rhsMax =  -8.27071744424757E-12  1.03439125687638E-01
 cg2d: Sum(rhs),rhsMax =  -8.35664870635355E-12  1.02293965808879E-01
 cg2d: Sum(rhs),rhsMax =  -8.39428526688835E-12  1.02201410564407E-01
 cg2d: Sum(rhs),rhsMax =  -8.39839309207946E-12  1.02073103318665E-01
 cg2d: Sum(rhs),rhsMax =  -8.45468139942795E-12  1.01907584494547E-01
 cg2d: Sum(rhs),rhsMax =  -8.46145375987817E-12  1.01702544071125E-01
 cg2d: Sum(rhs),rhsMax =  -8.48776604556178E-12  1.01460081195736E-01
 cg2d: Sum(rhs),rhsMax =  -8.57802717746381E-12  1.01173500630140E-01
 cg2d: Sum(rhs),rhsMax =  -8.62998561501627E-12  1.00846395148992E-01
 cg2d: Sum(rhs),rhsMax =  -8.68471961013029E-12  1.00480366660717E-01
 cg2d: Sum(rhs),rhsMax =  -8.69848637563564E-12  1.00069083874422E-01
 cg2d: Sum(rhs),rhsMax =  -8.75777228515062E-12  9.96152844221325E-02
 cg2d: Sum(rhs),rhsMax =  -8.88789042363669E-12  9.91173673455933E-02
 cg2d: Sum(rhs),rhsMax =  -8.96993590515649E-12  9.85770979498733E-02
 cg2d: Sum(rhs),rhsMax =  -9.02400376645573E-12  9.79887206878826E-02
 cg2d: Sum(rhs),rhsMax =  -9.04287755787436E-12  9.81667130446040E-02
 cg2d: Sum(rhs),rhsMax =  -8.87556694806335E-12  9.99940506756437E-02
 cg2d: Sum(rhs),rhsMax =  -8.75510774989152E-12  1.01772438200651E-01
 cg2d: Sum(rhs),rhsMax =  -8.57702797674165E-12  1.03504946349539E-01
 cg2d: Sum(rhs),rhsMax =  -8.51518855427003E-12  1.05191467525576E-01
 cg2d: Sum(rhs),rhsMax =  -8.39228686544402E-12  1.06829547883695E-01
 cg2d: Sum(rhs),rhsMax =  -8.32955926455270E-12  1.08465002442272E-01
 cg2d: Sum(rhs),rhsMax =  -8.20388201816513E-12  1.09994390429229E-01
 cg2d: Sum(rhs),rhsMax =  -8.04123434505755E-12  1.11471341676120E-01
 cg2d: Sum(rhs),rhsMax =  -7.92232945912019E-12  1.12895062650795E-01
 cg2d: Sum(rhs),rhsMax =  -7.79143416451689E-12  1.14264004688579E-01
 cg2d: Sum(rhs),rhsMax =  -7.66753327496872E-12  1.15583527808346E-01
 cg2d: Sum(rhs),rhsMax =  -7.58415552581937E-12  1.16851778475512E-01
 cg2d: Sum(rhs),rhsMax =  -7.51898543427387E-12  1.18077339676148E-01
 cg2d: Sum(rhs),rhsMax =  -7.41640082679851E-12  1.19263916883954E-01
 cg2d: Sum(rhs),rhsMax =  -7.33968441579691E-12  1.20403244103113E-01
 cg2d: Sum(rhs),rhsMax =  -7.25952631341897E-12  1.21492906872070E-01
 cg2d: Sum(rhs),rhsMax =  -7.14872605556138E-12  1.22535443089596E-01
 cg2d: Sum(rhs),rhsMax =  -7.17625958657209E-12  1.23524540527101E-01
 cg2d: Sum(rhs),rhsMax =  -7.12596648355657E-12  1.24462185359057E-01
 cg2d: Sum(rhs),rhsMax =  -7.05280278623377E-12  1.25347577636179E-01
 cg2d: Sum(rhs),rhsMax =  -7.01527724800144E-12  1.26180182894312E-01
 cg2d: Sum(rhs),rhsMax =  -6.95710156151108E-12  1.26960285173167E-01
 cg2d: Sum(rhs),rhsMax =  -6.88527013181783E-12  1.27688540461154E-01
 cg2d: Sum(rhs),rhsMax =  -6.83320067196291E-12  1.28365423319519E-01
 cg2d: Sum(rhs),rhsMax =  -6.81332767982212E-12  1.28989831095902E-01
 cg2d: Sum(rhs),rhsMax =  -6.76014799694258E-12  1.29567026872578E-01
 cg2d: Sum(rhs),rhsMax =  -6.76403377752877E-12  1.30097664556334E-01
 cg2d: Sum(rhs),rhsMax =  -6.72850664074076E-12  1.30579506213538E-01
 cg2d: Sum(rhs),rhsMax =  -6.70985489392706E-12  1.31014550104399E-01
 cg2d: Sum(rhs),rhsMax =  -6.71673827667973E-12  1.31407939413978E-01
 cg2d: Sum(rhs),rhsMax =  -6.71362965221078E-12  1.31754386539814E-01
 cg2d: Sum(rhs),rhsMax =  -6.68265442982374E-12  1.32054514720232E-01
 cg2d: Sum(rhs),rhsMax =  -6.69098110250843E-12  1.32306206250614E-01
 cg2d: Sum(rhs),rhsMax =  -6.71762645509943E-12  1.32517624530052E-01
 cg2d: Sum(rhs),rhsMax =  -6.74693634294954E-12  1.32683883789920E-01
 cg2d: Sum(rhs),rhsMax =  -6.71951383424130E-12  1.32803753435204E-01
 cg2d: Sum(rhs),rhsMax =  -6.73672229112299E-12  1.32880539786624E-01
 cg2d: Sum(rhs),rhsMax =  -6.77002898186174E-12  1.32913937323390E-01
 cg2d: Sum(rhs),rhsMax =  -6.79223344235425E-12  1.32906172278279E-01
 cg2d: Sum(rhs),rhsMax =  -6.81010803305071E-12  1.32856922722102E-01
 cg2d: Sum(rhs),rhsMax =  -6.82021106257480E-12  1.32767077597287E-01
 cg2d: Sum(rhs),rhsMax =  -6.83531009570970E-12  1.32639123575845E-01
 cg2d: Sum(rhs),rhsMax =  -6.84130530004268E-12  1.32472934840679E-01
 cg2d: Sum(rhs),rhsMax =  -6.85740353389974E-12  1.32267202852415E-01
 cg2d: Sum(rhs),rhsMax =  -6.86550816197951E-12  1.32024851260390E-01
 cg2d: Sum(rhs),rhsMax =  -6.86894985335584E-12  1.31745916067158E-01
 cg2d: Sum(rhs),rhsMax =  -6.88016310590456E-12  1.31431204666470E-01
 cg2d: Sum(rhs),rhsMax =  -6.88260559655873E-12  1.31077201935128E-01
 cg2d: Sum(rhs),rhsMax =  -6.89581725055177E-12  1.30682677632138E-01
 cg2d: Sum(rhs),rhsMax =  -6.92490509379695E-12  1.30248007455633E-01
 cg2d: Sum(rhs),rhsMax =  -6.97175650543613E-12  1.29776225482377E-01
 cg2d: Sum(rhs),rhsMax =  -7.01882996168024E-12  1.29270865098509E-01
 cg2d: Sum(rhs),rhsMax =  -7.06745773015882E-12  1.28735869901887E-01
 cg2d: Sum(rhs),rhsMax =  -7.16271486567166E-12  1.28172371258700E-01
 cg2d: Sum(rhs),rhsMax =  -7.21100956724285E-12  1.27581282318483E-01
 cg2d: Sum(rhs),rhsMax =  -7.28250793002871E-12  1.26964514592520E-01
 cg2d: Sum(rhs),rhsMax =  -7.32769400713096E-12  1.26324325520998E-01
 cg2d: Sum(rhs),rhsMax =  -7.37720995402924E-12  1.25660206994063E-01
 cg2d: Sum(rhs),rhsMax =  -7.44748707148801E-12  1.24969963904725E-01
 cg2d: Sum(rhs),rhsMax =  -7.49278417089272E-12  1.24254875454639E-01
 cg2d: Sum(rhs),rhsMax =  -7.56217310993179E-12  1.23514717796663E-01
 cg2d: Sum(rhs),rhsMax =  -7.58004770062826E-12  1.22749392542755E-01
 cg2d: Sum(rhs),rhsMax =  -7.60824736545374E-12  1.21959220096486E-01
 cg2d: Sum(rhs),rhsMax =  -7.66631202964163E-12  1.21147538928392E-01
 cg2d: Sum(rhs),rhsMax =  -7.72715225139109E-12  1.20316076972333E-01
 cg2d: Sum(rhs),rhsMax =  -7.80786546528134E-12  1.19463010940889E-01
 cg2d: Sum(rhs),rhsMax =  -7.85493892152545E-12  1.18591579380813E-01
 cg2d: Sum(rhs),rhsMax =  -7.87658827050564E-12  1.17701231428517E-01
 cg2d: Sum(rhs),rhsMax =  -7.93798360376741E-12  1.16791607309568E-01
 cg2d: Sum(rhs),rhsMax =  -7.97761856574652E-12  1.15861734115690E-01
 cg2d: Sum(rhs),rhsMax =  -8.03856980979845E-12  1.14910519345979E-01
 cg2d: Sum(rhs),rhsMax =  -8.08486610992531E-12  1.13941883355096E-01
 cg2d: Sum(rhs),rhsMax =  -8.12894196400293E-12  1.12955671006774E-01
 cg2d: Sum(rhs),rhsMax =  -8.20310486204789E-12  1.11951777290282E-01
 cg2d: Sum(rhs),rhsMax =  -8.28836999033911E-12  1.10932232389309E-01
 cg2d: Sum(rhs),rhsMax =  -8.36020142003235E-12  1.09896242137068E-01
 cg2d: Sum(rhs),rhsMax =  -8.40338909569027E-12  1.08845653271198E-01
 cg2d: Sum(rhs),rhsMax =  -8.48610071102485E-12  1.07780594089271E-01
 cg2d: Sum(rhs),rhsMax =  -8.54794013349647E-12  1.06697203355314E-01
 cg2d: Sum(rhs),rhsMax =  -8.61488658188136E-12  1.05596409154456E-01
 cg2d: Sum(rhs),rhsMax =  -8.67794724968007E-12  1.04466109773776E-01
 cg2d: Sum(rhs),rhsMax =  -8.75000072397825E-12  1.03324912663808E-01
 cg2d: Sum(rhs),rhsMax =  -8.84270434653445E-12  1.02175362307346E-01
 cg2d: Sum(rhs),rhsMax =  -8.93385365685617E-12  1.01018482684331E-01
 cg2d: Sum(rhs),rhsMax =  -9.05753250179941E-12  9.98523757198624E-02
 cg2d: Sum(rhs),rhsMax =  -9.17266262945304E-12  9.86763893258868E-02
 cg2d: Sum(rhs),rhsMax =  -9.25970411458366E-12  9.75886147761150E-02
 cg2d: Sum(rhs),rhsMax =  -9.30044929958740E-12  9.72823288973814E-02
 cg2d: Sum(rhs),rhsMax =  -9.34952115727583E-12  9.69420254314445E-02
 cg2d: Sum(rhs),rhsMax =  -9.43145561649317E-12  9.65677470090351E-02
 cg2d: Sum(rhs),rhsMax =  -9.51760892320408E-12  9.61639895156785E-02
 cg2d: Sum(rhs),rhsMax =  -9.66338120633736E-12  9.57189702495636E-02
 cg2d: Sum(rhs),rhsMax =  -9.69013758123083E-12  9.52323258108894E-02
 cg2d: Sum(rhs),rhsMax =  -9.79782921461947E-12  9.47031373344004E-02
 cg2d: Sum(rhs),rhsMax =  -9.89663906381111E-12  9.41313535218448E-02
 cg2d: Sum(rhs),rhsMax =  -9.84823333993745E-12  9.50185235498912E-02
 cg2d: Sum(rhs),rhsMax =  -9.67537161500331E-12  9.68335094952203E-02
 cg2d: Sum(rhs),rhsMax =  -9.52571355128384E-12  9.86115247650981E-02
 cg2d: Sum(rhs),rhsMax =  -9.40880706679081E-12  1.00340300926115E-01
 cg2d: Sum(rhs),rhsMax =  -9.25370891025068E-12  1.02028347335927E-01
 cg2d: Sum(rhs),rhsMax =  -9.08761954576676E-12  1.03678767107019E-01
 cg2d: Sum(rhs),rhsMax =  -8.93995988349161E-12  1.05286786107221E-01
 cg2d: Sum(rhs),rhsMax =  -8.78430661543916E-12  1.06849476662935E-01
 cg2d: Sum(rhs),rhsMax =  -8.68383143171059E-12  1.08369976580677E-01
 cg2d: Sum(rhs),rhsMax =  -8.57547366450717E-12  1.09845086665344E-01
 cg2d: Sum(rhs),rhsMax =  -8.47188985630964E-12  1.11275787721616E-01
 cg2d: Sum(rhs),rhsMax =  -8.37674374309927E-12  1.12659458922300E-01
 cg2d: Sum(rhs),rhsMax =  -8.31335000839317E-12  1.13995134797339E-01
 cg2d: Sum(rhs),rhsMax =  -8.25794987946438E-12  1.15288024810148E-01
 cg2d: Sum(rhs),rhsMax =  -8.19944112606663E-12  1.16537983967823E-01
 cg2d: Sum(rhs),rhsMax =  -8.14653899894324E-12  1.17742917137029E-01
 cg2d: Sum(rhs),rhsMax =  -8.09979860960652E-12  1.18904177932909E-01
 cg2d: Sum(rhs),rhsMax =  -8.01009258921681E-12  1.20016514431746E-01
 cg2d: Sum(rhs),rhsMax =  -7.91894327889509E-12  1.21082697465814E-01
 cg2d: Sum(rhs),rhsMax =  -7.83284548333540E-12  1.22101306061423E-01
 cg2d: Sum(rhs),rhsMax =  -7.75363107052840E-12  1.23067013925236E-01
 cg2d: Sum(rhs),rhsMax =  -7.66775531957364E-12  1.23984039751742E-01
 cg2d: Sum(rhs),rhsMax =  -7.60153051615475E-12  1.24847724313649E-01
 cg2d: Sum(rhs),rhsMax =  -7.58493268193661E-12  1.25659072987188E-01
 cg2d: Sum(rhs),rhsMax =  -7.56367191101504E-12  1.26421694505518E-01
 cg2d: Sum(rhs),rhsMax =  -7.51010365007687E-12  1.27141044893677E-01
 cg2d: Sum(rhs),rhsMax =  -7.44493355853137E-12  1.27814792860992E-01
 cg2d: Sum(rhs),rhsMax =  -7.47368833486917E-12  1.28440496553039E-01
 cg2d: Sum(rhs),rhsMax =  -7.50011164285525E-12  1.29021592313726E-01
 cg2d: Sum(rhs),rhsMax =  -7.48973105757500E-12  1.29555337654697E-01
 cg2d: Sum(rhs),rhsMax =  -7.46025463627120E-12  1.30041013506308E-01
 cg2d: Sum(rhs),rhsMax =  -7.42084171889701E-12  1.30479210675602E-01
 cg2d: Sum(rhs),rhsMax =  -7.42456096602950E-12  1.30870635087117E-01
 cg2d: Sum(rhs),rhsMax =  -7.32675031756003E-12  1.31221176634050E-01
 cg2d: Sum(rhs),rhsMax =  -7.32913729706297E-12  1.31528929080043E-01
 cg2d: Sum(rhs),rhsMax =  -7.33257898843931E-12  1.31802536244404E-01
 cg2d: Sum(rhs),rhsMax =  -7.33713090284027E-12  1.32041640210587E-01
 cg2d: Sum(rhs),rhsMax =  -7.37165883890611E-12  1.32244644370074E-01
 cg2d: Sum(rhs),rhsMax =  -7.37299110653566E-12  1.32412088907158E-01
 cg2d: Sum(rhs),rhsMax =  -7.41084971167538E-12  1.32542942703463E-01
 cg2d: Sum(rhs),rhsMax =  -7.46003259166628E-12  1.32635424049178E-01
 cg2d: Sum(rhs),rhsMax =  -7.50394191229020E-12  1.32687476536199E-01
 cg2d: Sum(rhs),rhsMax =  -7.52825579652949E-12  1.32699689406960E-01
 cg2d: Sum(rhs),rhsMax =  -7.56156248726825E-12  1.32673647695834E-01
 cg2d: Sum(rhs),rhsMax =  -7.61135598992269E-12  1.32609761693170E-01
 cg2d: Sum(rhs),rhsMax =  -7.63766827560630E-12  1.32508835159688E-01
 cg2d: Sum(rhs),rhsMax =  -7.67286234548692E-12  1.32369402246225E-01
 cg2d: Sum(rhs),rhsMax =  -7.69423413871095E-12  1.32192520242100E-01
 cg2d: Sum(rhs),rhsMax =  -7.70650210313306E-12  1.31981675176112E-01
 cg2d: Sum(rhs),rhsMax =  -7.70361552326904E-12  1.31736664856805E-01
 cg2d: Sum(rhs),rhsMax =  -7.70389307902519E-12  1.31458002975830E-01
 cg2d: Sum(rhs),rhsMax =  -7.69556640634050E-12  1.31149036596056E-01
 cg2d: Sum(rhs),rhsMax =  -7.70361552326904E-12  1.30810718781319E-01
 cg2d: Sum(rhs),rhsMax =  -7.68352048652332E-12  1.30442069708180E-01
 cg2d: Sum(rhs),rhsMax =  -7.67114149979875E-12  1.30043455889609E-01
 cg2d: Sum(rhs),rhsMax =  -7.66264829366037E-12  1.29614907352016E-01
 cg2d: Sum(rhs),rhsMax =  -7.65276730874120E-12  1.29155748670736E-01
 cg2d: Sum(rhs),rhsMax =  -7.65465468788307E-12  1.28669078849301E-01
 cg2d: Sum(rhs),rhsMax =  -7.66192664869436E-12  1.28154617779904E-01
 cg2d: Sum(rhs),rhsMax =  -7.72026886863841E-12  1.27613781301206E-01
 cg2d: Sum(rhs),rhsMax =  -7.77650166483568E-12  1.27048374636015E-01
 cg2d: Sum(rhs),rhsMax =  -7.84777798301661E-12  1.26459665667323E-01
 cg2d: Sum(rhs),rhsMax =  -7.93282106670290E-12  1.25850252082663E-01
 cg2d: Sum(rhs),rhsMax =  -8.03007660366006E-12  1.25219079748062E-01
 cg2d: Sum(rhs),rhsMax =  -8.12588885068521E-12  1.24569384969581E-01
 cg2d: Sum(rhs),rhsMax =  -8.20765677644886E-12  1.23899824086838E-01
 cg2d: Sum(rhs),rhsMax =  -8.27060642194510E-12  1.23209677130487E-01
 cg2d: Sum(rhs),rhsMax =  -8.32289792640495E-12  1.22498039071550E-01
 cg2d: Sum(rhs),rhsMax =  -8.38878966291645E-12  1.21765158814102E-01
 cg2d: Sum(rhs),rhsMax =  -8.48682235599085E-12  1.21012039121839E-01
 cg2d: Sum(rhs),rhsMax =  -8.57658388753180E-12  1.20239639135986E-01
 cg2d: Sum(rhs),rhsMax =  -8.69204708209281E-12  1.19450132694668E-01
 cg2d: Sum(rhs),rhsMax =  -8.79368799999725E-12  1.18645398108050E-01
 cg2d: Sum(rhs),rhsMax =  -8.87895312828846E-12  1.17823592849866E-01
 cg2d: Sum(rhs),rhsMax =  -8.98009444583181E-12  1.16985084265846E-01
 cg2d: Sum(rhs),rhsMax =  -9.08906283569877E-12  1.16132773139786E-01
 cg2d: Sum(rhs),rhsMax =  -9.18709552877317E-12  1.15268903594893E-01
 cg2d: Sum(rhs),rhsMax =  -9.29378796143965E-12  1.14387695230622E-01
 cg2d: Sum(rhs),rhsMax =  -9.39026634227957E-12  1.13490327309054E-01
 cg2d: Sum(rhs),rhsMax =  -9.49490486235050E-12  1.12579909436746E-01
 cg2d: Sum(rhs),rhsMax =  -9.63518154151188E-12  1.11652565074561E-01
 cg2d: Sum(rhs),rhsMax =  -9.75902691990882E-12  1.10710601165383E-01
 cg2d: Sum(rhs),rhsMax =  -9.86566384142407E-12  1.09754420462669E-01
 cg2d: Sum(rhs),rhsMax =  -9.95697968519949E-12  1.08786077418336E-01
 cg2d: Sum(rhs),rhsMax =  -1.00568442462645E-11  1.07803509030642E-01
 cg2d: Sum(rhs),rhsMax =  -1.02050035089007E-11  1.06805315633064E-01
 cg2d: Sum(rhs),rhsMax =  -1.02989283767840E-11  1.05794887960199E-01
 cg2d: Sum(rhs),rhsMax =  -1.04432573699853E-11  1.04773901082798E-01
 cg2d: Sum(rhs),rhsMax =  -1.05611075440493E-11  1.03748611711438E-01
 cg2d: Sum(rhs),rhsMax =  -1.06966102642048E-11  1.02710500953993E-01
 cg2d: Sum(rhs),rhsMax =  -1.08261177800273E-11  1.01664676349008E-01
 cg2d: Sum(rhs),rhsMax =  -1.09383058166657E-11  1.00609987606290E-01
 cg2d: Sum(rhs),rhsMax =  -1.10648712414729E-11  9.95532247778630E-02
 cg2d: Sum(rhs),rhsMax =  -1.12026499188289E-11  9.84983260829122E-02
 cg2d: Sum(rhs),rhsMax =  -1.13488662911720E-11  9.74400389012741E-02
 cg2d: Sum(rhs),rhsMax =  -1.14840359444202E-11  9.63821681325717E-02
 cg2d: Sum(rhs),rhsMax =  -1.16115450587984E-11  9.53265297190575E-02
 cg2d: Sum(rhs),rhsMax =  -1.17524878717745E-11  9.42698371442163E-02
 cg2d: Sum(rhs),rhsMax =  -1.18932641512970E-11  9.32147346814182E-02
 cg2d: Sum(rhs),rhsMax =  -1.20274901149742E-11  9.21688464730394E-02
 cg2d: Sum(rhs),rhsMax =  -1.18325904630012E-11  9.37493964424206E-02
 cg2d: Sum(rhs),rhsMax =  -1.16699983010449E-11  9.53940913928283E-02
 cg2d: Sum(rhs),rhsMax =  -1.15277787315904E-11  9.70046887539590E-02
 cg2d: Sum(rhs),rhsMax =  -1.13803966250714E-11  9.85753835677363E-02
 cg2d: Sum(rhs),rhsMax =  -1.12103659688501E-11  1.00108314442734E-01
 cg2d: Sum(rhs),rhsMax =  -1.11176068351426E-11  1.01601425201112E-01
 cg2d: Sum(rhs),rhsMax =  -1.09285913652002E-11  1.03058146423096E-01
 cg2d: Sum(rhs),rhsMax =  -1.07652775582778E-11  1.04476287711746E-01
 cg2d: Sum(rhs),rhsMax =  -1.06186726078761E-11  1.05853776183614E-01
 cg2d: Sum(rhs),rhsMax =  -1.04583564031202E-11  1.07191606316786E-01
 cg2d: Sum(rhs),rhsMax =  -1.03015374008919E-11  1.08490910746538E-01
 cg2d: Sum(rhs),rhsMax =  -1.01827435372570E-11  1.09745506191096E-01
 cg2d: Sum(rhs),rhsMax =  -1.00999208996200E-11  1.10954822093451E-01
 cg2d: Sum(rhs),rhsMax =  -1.00436881034227E-11  1.12117001608670E-01
 cg2d: Sum(rhs),rhsMax =  -9.96880356041174E-12  1.13233307923895E-01
 cg2d: Sum(rhs),rhsMax =  -9.94332394199660E-12  1.14307479762818E-01
 cg2d: Sum(rhs),rhsMax =  -9.86261072810635E-12  1.15339646780177E-01
 cg2d: Sum(rhs),rhsMax =  -9.79827330382932E-12  1.16321919942665E-01
 cg2d: Sum(rhs),rhsMax =  -9.70462599170219E-12  1.17264732634175E-01
 cg2d: Sum(rhs),rhsMax =  -9.62435686702179E-12  1.18168629816630E-01
 cg2d: Sum(rhs),rhsMax =  -9.55491241683148E-12  1.19032997848766E-01
 cg2d: Sum(rhs),rhsMax =  -9.49496037350173E-12  1.19858644640968E-01
 cg2d: Sum(rhs),rhsMax =  -9.41258182507454E-12  1.20641530167366E-01
 cg2d: Sum(rhs),rhsMax =  -9.36062338752208E-12  1.21381091920767E-01
 cg2d: Sum(rhs),rhsMax =  -9.29845089814307E-12  1.22079478789565E-01
 cg2d: Sum(rhs),rhsMax =  -9.26042575954966E-12  1.22734827961466E-01
 cg2d: Sum(rhs),rhsMax =  -9.19714304714603E-12  1.23347624901294E-01
 cg2d: Sum(rhs),rhsMax =  -9.12614428472125E-12  1.23918594521686E-01
 cg2d: Sum(rhs),rhsMax =  -9.10982400625926E-12  1.24448415340855E-01
 cg2d: Sum(rhs),rhsMax =  -9.12148134801782E-12  1.24934253999424E-01
 cg2d: Sum(rhs),rhsMax =  -9.11465347641638E-12  1.25380980682327E-01
 cg2d: Sum(rhs),rhsMax =  -9.01395624808288E-12  1.25785367107643E-01
 cg2d: Sum(rhs),rhsMax =  -8.92347307157593E-12  1.26149940147189E-01
 cg2d: Sum(rhs),rhsMax =  -8.85364004332700E-12  1.26471214112810E-01
 cg2d: Sum(rhs),rhsMax =  -8.78086492406283E-12  1.26751078414288E-01
 cg2d: Sum(rhs),rhsMax =  -8.71130945157006E-12  1.26989639215722E-01
 cg2d: Sum(rhs),rhsMax =  -8.67111937807863E-12  1.27188706822381E-01
 cg2d: Sum(rhs),rhsMax =  -8.59456950053072E-12  1.27347989915270E-01
 cg2d: Sum(rhs),rhsMax =  -8.51740900031928E-12  1.27467279590175E-01
 cg2d: Sum(rhs),rhsMax =  -8.44002645550290E-12  1.27549659836716E-01
 cg2d: Sum(rhs),rhsMax =  -8.39384117767850E-12  1.27594461249150E-01
 cg2d: Sum(rhs),rhsMax =  -8.34488034229253E-12  1.27608804516954E-01
 cg2d: Sum(rhs),rhsMax =  -8.31879010121384E-12  1.27587998290756E-01
 cg2d: Sum(rhs),rhsMax =  -8.30996382816807E-12  1.27535568450045E-01
 cg2d: Sum(rhs),rhsMax =  -8.27932167268841E-12  1.27450183822221E-01
 cg2d: Sum(rhs),rhsMax =  -8.28531687702139E-12  1.27329782865444E-01
 cg2d: Sum(rhs),rhsMax =  -8.27610202591700E-12  1.27175014658907E-01
 cg2d: Sum(rhs),rhsMax =  -8.30263635620554E-12  1.26989232212862E-01
 cg2d: Sum(rhs),rhsMax =  -8.32761637425961E-12  1.26775048744921E-01
 cg2d: Sum(rhs),rhsMax =  -8.35476132721169E-12  1.26533527067596E-01
 cg2d: Sum(rhs),rhsMax =  -8.37507840856233E-12  1.26265840983246E-01
 cg2d: Sum(rhs),rhsMax =  -8.38606961650612E-12  1.25974247890787E-01
 cg2d: Sum(rhs),rhsMax =  -8.37102609452245E-12  1.25658984787227E-01
 cg2d: Sum(rhs),rhsMax =  -8.32273139295125E-12  1.25316793234536E-01
 cg2d: Sum(rhs),rhsMax =  -8.31734681128182E-12  1.24948233582282E-01
 cg2d: Sum(rhs),rhsMax =  -8.31101854004146E-12  1.24553541648842E-01
 cg2d: Sum(rhs),rhsMax =  -8.26672064135892E-12  1.24133861809551E-01
 cg2d: Sum(rhs),rhsMax =  -8.28997981372481E-12  1.23690083708023E-01
 cg2d: Sum(rhs),rhsMax =  -8.28437318745046E-12  1.23223865190789E-01
 cg2d: Sum(rhs),rhsMax =  -8.25578494456636E-12  1.22733513920425E-01
 cg2d: Sum(rhs),rhsMax =  -8.23013879269752E-12  1.22219200982733E-01
 cg2d: Sum(rhs),rhsMax =  -8.24346146899302E-12  1.21681852068407E-01
 cg2d: Sum(rhs),rhsMax =  -8.24884605066245E-12  1.21122571690736E-01
 cg2d: Sum(rhs),rhsMax =  -8.26971824352540E-12  1.20543173033881E-01
 cg2d: Sum(rhs),rhsMax =  -8.33511037967583E-12  1.19944389124846E-01
 cg2d: Sum(rhs),rhsMax =  -8.46944736565547E-12  1.19326049213780E-01
 cg2d: Sum(rhs),rhsMax =  -8.56592574649540E-12  1.18692044738595E-01
 cg2d: Sum(rhs),rhsMax =  -8.69115890367311E-12  1.18043122307278E-01
 cg2d: Sum(rhs),rhsMax =  -8.81372752559173E-12  1.17382155607299E-01
 cg2d: Sum(rhs),rhsMax =  -8.92508289496163E-12  1.16709522163048E-01
 cg2d: Sum(rhs),rhsMax =  -9.03999097801034E-12  1.16024508722206E-01
 cg2d: Sum(rhs),rhsMax =  -9.16744458123731E-12  1.15328065532512E-01
 cg2d: Sum(rhs),rhsMax =  -9.25276522067975E-12  1.14619819777561E-01
 cg2d: Sum(rhs),rhsMax =  -9.31127397407749E-12  1.13900526486875E-01
 cg2d: Sum(rhs),rhsMax =  -9.34496924287487E-12  1.13169937917104E-01
 cg2d: Sum(rhs),rhsMax =  -9.39898159302288E-12  1.12429216199342E-01
 cg2d: Sum(rhs),rhsMax =  -9.44538891545221E-12  1.11679506249450E-01
 cg2d: Sum(rhs),rhsMax =  -9.52060652537057E-12  1.10922989877059E-01
 cg2d: Sum(rhs),rhsMax =  -9.59654578025493E-12  1.10154455184371E-01
 cg2d: Sum(rhs),rhsMax =  -9.73565672524046E-12  1.09377916120669E-01
 cg2d: Sum(rhs),rhsMax =  -9.74731406699902E-12  1.08589539419252E-01
 cg2d: Sum(rhs),rhsMax =  -9.80604486500170E-12  1.07789681931710E-01
 cg2d: Sum(rhs),rhsMax =  -9.83735315429612E-12  1.06978300933825E-01
 cg2d: Sum(rhs),rhsMax =  -9.87909754002203E-12  1.06156746236041E-01
 cg2d: Sum(rhs),rhsMax =  -9.93871651644440E-12  1.05328051276614E-01
 cg2d: Sum(rhs),rhsMax =  -1.00094377231130E-11  1.04489721980880E-01
 cg2d: Sum(rhs),rhsMax =  -1.00579544692891E-11  1.03640788823377E-01
 cg2d: Sum(rhs),rhsMax =  -1.01083585946071E-11  1.02779137718405E-01
 cg2d: Sum(rhs),rhsMax =  -1.01468833335616E-11  1.01913973858995E-01
 cg2d: Sum(rhs),rhsMax =  -1.01801900243004E-11  1.01034489768197E-01
 cg2d: Sum(rhs),rhsMax =  -1.02131636481317E-11  1.00145988855619E-01
 cg2d: Sum(rhs),rhsMax =  -1.02510222532715E-11  9.92525070572491E-02
 cg2d: Sum(rhs),rhsMax =  -1.03529407269320E-11  9.83552109157008E-02
 cg2d: Sum(rhs),rhsMax =  -1.04124486810520E-11  9.74539448981648E-02
 cg2d: Sum(rhs),rhsMax =  -1.05222497381874E-11  9.65487913191134E-02
 cg2d: Sum(rhs),rhsMax =  -1.05762065771842E-11  9.61402179610483E-02
 cg2d: Sum(rhs),rhsMax =  -1.05889741419674E-11  9.59911290998713E-02
 cg2d: Sum(rhs),rhsMax =  -1.05678799044995E-11  9.58117599872474E-02
 cg2d: Sum(rhs),rhsMax =  -1.05588870980000E-11  9.55986135360219E-02
 cg2d: Sum(rhs),rhsMax =  -1.05701003505487E-11  9.53562067093206E-02
 cg2d: Sum(rhs),rhsMax =  -1.06865627458319E-11  9.50800165903771E-02
 cg2d: Sum(rhs),rhsMax =  -1.08322240066627E-11  9.47727667471838E-02
 cg2d: Sum(rhs),rhsMax =  -1.09241504731017E-11  9.44329729032580E-02
 cg2d: Sum(rhs),rhsMax =  -1.10530473662607E-11  9.40564208796677E-02
 cg2d: Sum(rhs),rhsMax =  -1.12092557458254E-11  9.36426893314044E-02
 cg2d: Sum(rhs),rhsMax =  -1.13546949620513E-11  9.31924446108907E-02
 cg2d: Sum(rhs),rhsMax =  -1.14963594199935E-11  9.27059036249790E-02
 cg2d: Sum(rhs),rhsMax =  -1.16179288411900E-11  9.21829596723982E-02
 cg2d: Sum(rhs),rhsMax =  -1.17150733558447E-11  9.16246143074289E-02
 cg2d: Sum(rhs),rhsMax =  -1.14690479335877E-11  9.28447555388664E-02
 cg2d: Sum(rhs),rhsMax =  -1.12609921387730E-11  9.42352176037145E-02
 cg2d: Sum(rhs),rhsMax =  -1.11040066030910E-11  9.55932272549560E-02
 cg2d: Sum(rhs),rhsMax =  -1.09658948588276E-11  9.69207700543540E-02
 cg2d: Sum(rhs),rhsMax =  -1.08315578728480E-11  9.82141293303149E-02
 cg2d: Sum(rhs),rhsMax =  -1.07295283768849E-11  9.94736704845977E-02
 cg2d: Sum(rhs),rhsMax =  -1.06161746060707E-11  1.00701073878359E-01
 cg2d: Sum(rhs),rhsMax =  -1.04820596646960E-11  1.01890260067007E-01
 cg2d: Sum(rhs),rhsMax =  -1.03396180506365E-11  1.03042928714587E-01
 cg2d: Sum(rhs),rhsMax =  -1.02386987776981E-11  1.04162595635535E-01
 cg2d: Sum(rhs),rhsMax =  -1.00859320895097E-11  1.05355732078338E-01
 cg2d: Sum(rhs),rhsMax =  -9.83679804278381E-12  1.07993740848415E-01
 cg2d: Sum(rhs),rhsMax =  -9.58122470251510E-12  1.10284378151241E-01
 cg2d: Sum(rhs),rhsMax =  -9.35129751411523E-12  1.12248780417791E-01
 cg2d: Sum(rhs),rhsMax =  -9.14479603153495E-12  1.13998898407730E-01
 cg2d: Sum(rhs),rhsMax =  -8.99114116492683E-12  1.15298169951795E-01
 cg2d: Sum(rhs),rhsMax =  -8.83149109398573E-12  1.16252745670556E-01
 cg2d: Sum(rhs),rhsMax =  -8.72035776922075E-12  1.16861871199324E-01
 cg2d: Sum(rhs),rhsMax =  -8.67650395974806E-12  1.17136217849884E-01
 cg2d: Sum(rhs),rhsMax =  -8.64874838413243E-12  1.17065361315391E-01
 cg2d: Sum(rhs),rhsMax =  -8.64541771505856E-12  1.16605458352330E-01
 cg2d: Sum(rhs),rhsMax =  -8.74300631892311E-12  1.15732123446082E-01
 cg2d: Sum(rhs),rhsMax =  -8.77165007295844E-12  1.15267108382273E-01
 cg2d: Sum(rhs),rhsMax =  -8.73612293617043E-12  1.15859196816388E-01
 cg2d: Sum(rhs),rhsMax =  -8.72635297355373E-12  1.16414239152557E-01
 cg2d: Sum(rhs),rhsMax =  -8.68494165473521E-12  1.16933365565865E-01
 cg2d: Sum(rhs),rhsMax =  -8.66695604173628E-12  1.17417662494622E-01
 cg2d: Sum(rhs),rhsMax =  -8.60223003940064E-12  1.17868854806625E-01
 cg2d: Sum(rhs),rhsMax =  -8.53261905575664E-12  1.18291873726736E-01
 cg2d: Sum(rhs),rhsMax =  -8.51263504131339E-12  1.18681083608743E-01
 cg2d: Sum(rhs),rhsMax =  -8.53050963200985E-12  1.19036459006662E-01
 cg2d: Sum(rhs),rhsMax =  -8.53561665792313E-12  1.19369890934960E-01
 cg2d: Sum(rhs),rhsMax =  -8.49076364772827E-12  1.19667283437348E-01
 cg2d: Sum(rhs),rhsMax =  -8.43780600945365E-12  1.19934221725281E-01
 cg2d: Sum(rhs),rhsMax =  -8.42115266408427E-12  1.20174571636750E-01
 cg2d: Sum(rhs),rhsMax =  -8.39894820359177E-12  1.20388238525244E-01
 cg2d: Sum(rhs),rhsMax =  -8.40083558273363E-12  1.20570649127471E-01
 cg2d: Sum(rhs),rhsMax =  -8.43136671591083E-12  1.20726368630780E-01
 cg2d: Sum(rhs),rhsMax =  -8.43725089794134E-12  1.20853180905956E-01
 cg2d: Sum(rhs),rhsMax =  -8.39794900286961E-12  1.20951162727365E-01
 cg2d: Sum(rhs),rhsMax =  -8.43070058209605E-12  1.21020981421353E-01
 cg2d: Sum(rhs),rhsMax =  -8.40594260864691E-12  1.21062798860736E-01
 cg2d: Sum(rhs),rhsMax =  -8.39095459781447E-12  1.21076654046229E-01
 cg2d: Sum(rhs),rhsMax =  -8.39195379853663E-12  1.21060984326081E-01
 cg2d: Sum(rhs),rhsMax =  -8.38418223736426E-12  1.21019040728529E-01
 cg2d: Sum(rhs),rhsMax =  -8.39339708846865E-12  1.20948966951498E-01
 cg2d: Sum(rhs),rhsMax =  -8.39872615898685E-12  1.20845200746867E-01
 cg2d: Sum(rhs),rhsMax =  -8.41271496909712E-12  1.20713780897991E-01
 cg2d: Sum(rhs),rhsMax =  -8.39595060142528E-12  1.20558101430905E-01
 cg2d: Sum(rhs),rhsMax =  -8.41682279428824E-12  1.20376012643746E-01
 cg2d: Sum(rhs),rhsMax =  -8.37052649416137E-12  1.20173938390821E-01
 cg2d: Sum(rhs),rhsMax =  -8.32878210843546E-12  1.19953429321981E-01
 cg2d: Sum(rhs),rhsMax =  -8.29891710907305E-12  1.19712811877179E-01
 cg2d: Sum(rhs),rhsMax =  -8.20044032678879E-12  1.19926807670588E-01
 cg2d: Sum(rhs),rhsMax =  -8.00848276583110E-12  1.21747011460607E-01
 cg2d: Sum(rhs),rhsMax =  -7.88691334463465E-12  1.23174899301107E-01
 cg2d: Sum(rhs),rhsMax =  -7.76823050330222E-12  1.24267776746201E-01
 cg2d: Sum(rhs),rhsMax =  -7.68074492896176E-12  1.25025264844486E-01
 cg2d: Sum(rhs),rhsMax =  -7.60802532084881E-12  1.25325109479116E-01
 cg2d: Sum(rhs),rhsMax =  -7.58493268193661E-12  1.25274811240759E-01
 cg2d: Sum(rhs),rhsMax =  -7.58537677114646E-12  1.24815965310693E-01
 cg2d: Sum(rhs),rhsMax =  -7.63222818278564E-12  1.24011780349491E-01
 cg2d: Sum(rhs),rhsMax =  -7.69162511460308E-12  1.22881929799638E-01
 cg2d: Sum(rhs),rhsMax =  -7.77800046591892E-12  1.21423974577909E-01
 cg2d: Sum(rhs),rhsMax =  -7.87259146761699E-12  1.19960469893190E-01
 cg2d: Sum(rhs),rhsMax =  -7.98494603770905E-12  1.17802662550510E-01
 cg2d: Sum(rhs),rhsMax =  -8.20588041960946E-12  1.15299880200949E-01
 cg2d: Sum(rhs),rhsMax =  -8.30380209038140E-12  1.13793138283369E-01
 cg2d: Sum(rhs),rhsMax =  -8.37174773948846E-12  1.13297419257748E-01
 cg2d: Sum(rhs),rhsMax =  -8.40005842661640E-12  1.12792934409275E-01
 cg2d: Sum(rhs),rhsMax =  -8.45534753324273E-12  1.12277659774773E-01
 cg2d: Sum(rhs),rhsMax =  -8.45279402028609E-12  1.11748984078944E-01
 cg2d: Sum(rhs),rhsMax =  -8.45812309080429E-12  1.11200170503470E-01
 cg2d: Sum(rhs),rhsMax =  -8.50264303409176E-12  1.10637454376656E-01
 cg2d: Sum(rhs),rhsMax =  -8.51652082189958E-12  1.10057216600355E-01
 cg2d: Sum(rhs),rhsMax =  -8.52762305214583E-12  1.09463914971203E-01
 cg2d: Sum(rhs),rhsMax =  -8.52706794063351E-12  1.08851773439432E-01
 cg2d: Sum(rhs),rhsMax =  -8.53439541259604E-12  1.08220989695550E-01
 cg2d: Sum(rhs),rhsMax =  -8.57003357168651E-12  1.07580098409577E-01
 cg2d: Sum(rhs),rhsMax =  -8.57991455660567E-12  1.06932842293482E-01
 cg2d: Sum(rhs),rhsMax =  -8.64863736182997E-12  1.06276860633556E-01
 cg2d: Sum(rhs),rhsMax =  -8.66873239857568E-12  1.05615150233454E-01
 cg2d: Sum(rhs),rhsMax =  -8.64830429492258E-12  1.04944061663514E-01
 cg2d: Sum(rhs),rhsMax =  -8.63997762223789E-12  1.04353747434424E-01
 cg2d: Sum(rhs),rhsMax =  -8.59801119190706E-12  1.04392053130454E-01
 cg2d: Sum(rhs),rhsMax =  -8.55238102559497E-12  1.04398406084388E-01
 cg2d: Sum(rhs),rhsMax =  -8.50586268086317E-12  1.04369793580391E-01
 cg2d: Sum(rhs),rhsMax =  -8.45568060015012E-12  1.04309889481471E-01
 cg2d: Sum(rhs),rhsMax =  -8.38795699564798E-12  1.04219091938420E-01
 cg2d: Sum(rhs),rhsMax =  -8.39062153090708E-12  1.04096474834155E-01
 cg2d: Sum(rhs),rhsMax =  -8.37740987691404E-12  1.03937594895646E-01
 cg2d: Sum(rhs),rhsMax =  -8.29791790835088E-12  1.03745293105929E-01
 cg2d: Sum(rhs),rhsMax =  -8.18944911884500E-12  1.03519545100721E-01
 cg2d: Sum(rhs),rhsMax =  -8.12305778197242E-12  1.03252747905902E-01
 cg2d: Sum(rhs),rhsMax =  -8.02913291408913E-12  1.02942515587910E-01
 cg2d: Sum(rhs),rhsMax =  -7.93753951455756E-12  1.02587778829390E-01
 cg2d: Sum(rhs),rhsMax =  -7.85183029705649E-12  1.02187688999334E-01
(PID.TID 0000.0001)      cg2d_init_res =   9.96612033690175E-02
(PID.TID 0000.0001)      cg2d_iters(min,last) =      -1      29
(PID.TID 0000.0001)      cg2d_last_res =   6.86014515832847E-14
(PID.TID 0000.0001) // =======================================================
(PID.TID 0000.0001) // Begin MONITOR dynamic field statistics
(PID.TID 0000.0001) // =======================================================
(PID.TID 0000.0001) %MON time_tsnumber                =                  3360
(PID.TID 0000.0001) %MON time_secondsf                =   5.0400000000000E+04
(PID.TID 0000.0001) %MON dynstat_eta_max              =   7.8239405176820E-03
(PID.TID 0000.0001) %MON dynstat_eta_min              =  -1.3833685356424E-02
(PID.TID 0000.0001) %MON dynstat_eta_mean             =   9.1382151549040E-16
(PID.TID 0000.0001) %MON dynstat_eta_sd               =   5.8795606410929E-03
(PID.TID 0000.0001) %MON dynstat_eta_del2             =   1.2744112806715E-04
(PID.TID 0000.0001) %MON dynstat_uvel_max             =   1.1436989942506E+00
(PID.TID 0000.0001) %MON dynstat_uvel_min             =  -4.9484294023198E-01
(PID.TID 0000.0001) %MON dynstat_uvel_mean            =  -1.1333663697792E-04
(PID.TID 0000.0001) %MON dynstat_uvel_sd              =   9.8877320076614E-02
(PID.TID 0000.0001) %MON dynstat_uvel_del2            =   5.6198621335187E-04
(PID.TID 0000.0001) %MON dynstat_vvel_max             =   0.0000000000000E+00
(PID.TID 0000.0001) %MON dynstat_vvel_min             =   0.0000000000000E+00
(PID.TID 0000.0001) %MON dynstat_vvel_mean            =   0.0000000000000E+00
(PID.TID 0000.0001) %MON dynstat_vvel_sd              =   0.0000000000000E+00
(PID.TID 0000.0001) %MON dynstat_vvel_del2            =   0.0000000000000E+00
(PID.TID 0000.0001) %MON dynstat_wvel_max             =   4.1262392069988E-02
(PID.TID 0000.0001) %MON dynstat_wvel_min             =  -3.6513833687323E-02
(PID.TID 0000.0001) %MON dynstat_wvel_mean            =  -2.5101339374982E-20
(PID.TID 0000.0001) %MON dynstat_wvel_sd              =   3.4379465667377E-03
(PID.TID 0000.0001) %MON dynstat_wvel_del2            =   7.3587443582859E-05
(PID.TID 0000.0001) %MON dynstat_theta_max            =   1.5000000000249E+01
(PID.TID 0000.0001) %MON dynstat_theta_min            =   9.9999999999933E+00
(PID.TID 0000.0001) %MON dynstat_theta_mean           =   1.3087495287761E+01
(PID.TID 0000.0001) %MON dynstat_theta_sd             =   2.3632979793137E+00
(PID.TID 0000.0001) %MON dynstat_theta_del2           =   1.7526340198824E-03
(PID.TID 0000.0001) %MON dynstat_salt_max             =   3.5000000000000E+01
(PID.TID 0000.0001) %MON dynstat_salt_min             =   3.5000000000000E+01
(PID.TID 0000.0001) %MON dynstat_salt_mean            =   3.5000000000000E+01
(PID.TID 0000.0001) %MON dynstat_salt_sd              =   7.1054273576010E-15
(PID.TID 0000.0001) %MON dynstat_salt_del2            =   0.0000000000000E+00
(PID.TID 0000.0001) %MON dynstat_sst_max              =   1.5000000000006E+01
(PID.TID 0000.0001) %MON dynstat_sst_min              =   1.4999983449967E+01
(PID.TID 0000.0001) %MON dynstat_sst_mean             =   1.4999999957852E+01
(PID.TID 0000.0001) %MON dynstat_sst_sd               =   7.8211642749964E-07
(PID.TID 0000.0001) %MON dynstat_sst_del2             =   1.8931085389391E-07
(PID.TID 0000.0001) %MON dynstat_sss_max              =   3.5000000000000E+01
(PID.TID 0000.0001) %MON dynstat_sss_min              =   3.5000000000000E+01
(PID.TID 0000.0001) %MON dynstat_sss_mean             =   3.5000000000000E+01
(PID.TID 0000.0001) %MON dynstat_sss_sd               =   0.0000000000000E+00
(PID.TID 0000.0001) %MON dynstat_sss_del2             =   0.0000000000000E+00
(PID.TID 0000.0001) %MON forcing_qnet_max             =   0.0000000000000E+00
(PID.TID 0000.0001) %MON forcing_qnet_min             =   0.0000000000000E+00
(PID.TID 0000.0001) %MON forcing_qnet_mean            =   0.0000000000000E+00
(PID.TID 0000.0001) %MON forcing_qnet_sd              =   0.0000000000000E+00
(PID.TID 0000.0001) %MON forcing_qnet_del2            =   0.0000000000000E+00
(PID.TID 0000.0001) %MON forcing_qsw_max              =   0.0000000000000E+00
(PID.TID 0000.0001) %MON forcing_qsw_min              =   0.0000000000000E+00
(PID.TID 0000.0001) %MON forcing_qsw_mean             =   0.0000000000000E+00
(PID.TID 0000.0001) %MON forcing_qsw_sd               =   0.0000000000000E+00
(PID.TID 0000.0001) %MON forcing_qsw_del2             =   0.0000000000000E+00
(PID.TID 0000.0001) %MON forcing_empmr_max            =   0.0000000000000E+00
(PID.TID 0000.0001) %MON forcing_empmr_min            =   0.0000000000000E+00
(PID.TID 0000.0001) %MON forcing_empmr_mean           =   0.0000000000000E+00
(PID.TID 0000.0001) %MON forcing_empmr_sd             =   0.0000000000000E+00
(PID.TID 0000.0001) %MON forcing_empmr_del2           =   0.0000000000000E+00
(PID.TID 0000.0001) %MON forcing_fu_max               =   0.0000000000000E+00
(PID.TID 0000.0001) %MON forcing_fu_min               =   0.0000000000000E+00
(PID.TID 0000.0001) %MON forcing_fu_mean              =   0.0000000000000E+00
(PID.TID 0000.0001) %MON forcing_fu_sd                =   0.0000000000000E+00
(PID.TID 0000.0001) %MON forcing_fu_del2              =   0.0000000000000E+00
(PID.TID 0000.0001) %MON forcing_fv_max               =   0.0000000000000E+00
(PID.TID 0000.0001) %MON forcing_fv_min               =   0.0000000000000E+00
(PID.TID 0000.0001) %MON forcing_fv_mean              =   0.0000000000000E+00
(PID.TID 0000.0001) %MON forcing_fv_sd                =   0.0000000000000E+00
(PID.TID 0000.0001) %MON forcing_fv_del2              =   0.0000000000000E+00
(PID.TID 0000.0001) %MON advcfl_uvel_max              =   7.3436431282365E-02
(PID.TID 0000.0001) %MON advcfl_vvel_max              =   0.0000000000000E+00
(PID.TID 0000.0001) %MON advcfl_wvel_max              =   4.2734435361923E-01
(PID.TID 0000.0001) %MON advcfl_W_hf_max              =   4.3341652515306E-01
(PID.TID 0000.0001) %MON pe_b_mean                    =   9.7044530656757E-07
(PID.TID 0000.0001) %MON ke_max                       =   4.4782132652437E-01
(PID.TID 0000.0001) %MON ke_mean                      =   4.9424800111842E-03
(PID.TID 0000.0001) %MON ke_vol                       =   8.5336562999261E+10
(PID.TID 0000.0001) %MON vort_r_min                   =   0.0000000000000E+00
(PID.TID 0000.0001) %MON vort_r_max                   =   0.0000000000000E+00
(PID.TID 0000.0001) %MON vort_a_mean                  =   0.0000000000000E+00
(PID.TID 0000.0001) %MON vort_a_sd                    =   0.0000000000000E+00
(PID.TID 0000.0001) %MON vort_p_mean                  =   0.0000000000000E+00
(PID.TID 0000.0001) %MON vort_p_sd                    =   0.0000000000000E+00
(PID.TID 0000.0001) %MON surfExpan_theta_mean         =   3.0464807049790E-13
(PID.TID 0000.0001) %MON surfExpan_salt_mean          =  -2.6294627945163E-18
(PID.TID 0000.0001) // =======================================================
(PID.TID 0000.0001) // End MONITOR dynamic field statistics
(PID.TID 0000.0001) // =======================================================
(PID.TID 0000.0001) // =======================================================
(PID.TID 0000.0001) // Begin OBCS MONITOR field statistics
(PID.TID 0000.0001) // =======================================================
(PID.TID 0000.0001) %MON obc_E_uVel_max               =   0.0000000000000E+00
(PID.TID 0000.0001) %MON obc_E_uVel_min               =   0.0000000000000E+00
(PID.TID 0000.0001) %MON obc_E_uVel_mean              =   0.0000000000000E+00
(PID.TID 0000.0001) %MON obc_E_uVel_sd                =   0.0000000000000E+00
(PID.TID 0000.0001) %MON obc_E_uVel_Int               =   0.0000000000000E+00
(PID.TID 0000.0001) %MON obc_W_uVel_max               =   0.0000000000000E+00
(PID.TID 0000.0001) %MON obc_W_uVel_min               =   0.0000000000000E+00
(PID.TID 0000.0001) %MON obc_W_uVel_mean              =   0.0000000000000E+00
(PID.TID 0000.0001) %MON obc_W_uVel_sd                =   0.0000000000000E+00
(PID.TID 0000.0001) %MON obc_W_uVel_Int               =   0.0000000000000E+00
(PID.TID 0000.0001) // =======================================================
(PID.TID 0000.0001) // End OBCS MONITOR field statistics
(PID.TID 0000.0001) // =======================================================
 cg2d: Sum(rhs),rhsMax =  -7.74424968597032E-12  1.01741186506621E-01
 cg2d: Sum(rhs),rhsMax =  -7.70716823694784E-12  1.01249986032930E-01
 cg2d: Sum(rhs),rhsMax =  -7.67375052390662E-12  1.00715232561526E-01
 cg2d: Sum(rhs),rhsMax =  -7.62900853601423E-12  1.00137663788651E-01
 cg2d: Sum(rhs),rhsMax =  -7.65587593321015E-12  9.95172053057577E-02
 cg2d: Sum(rhs),rhsMax =  -7.63478169574228E-12  9.88581613116506E-02
 cg2d: Sum(rhs),rhsMax =  -7.58704210568339E-12  9.81610908848336E-02
 cg2d: Sum(rhs),rhsMax =  -7.55351337033972E-12  9.74247903506528E-02
 cg2d: Sum(rhs),rhsMax =  -7.36954941515933E-12  9.88392296067017E-02
 cg2d: Sum(rhs),rhsMax =  -7.23732185292647E-12  1.00496584306775E-01
 cg2d: Sum(rhs),rhsMax =  -7.03315183869790E-12  1.02118818426120E-01
 cg2d: Sum(rhs),rhsMax =  -6.86262158211548E-12  1.03685610917922E-01
 cg2d: Sum(rhs),rhsMax =  -6.71407374142063E-12  1.05216961020926E-01
 cg2d: Sum(rhs),rhsMax =  -6.59072796338478E-12  1.06717914726492E-01
 cg2d: Sum(rhs),rhsMax =  -6.53477272294367E-12  1.08177076608296E-01
 cg2d: Sum(rhs),rhsMax =  -6.46505071699721E-12  1.09594269646564E-01
 cg2d: Sum(rhs),rhsMax =  -6.40143493768619E-12  1.10971583424250E-01
 cg2d: Sum(rhs),rhsMax =  -6.35957952965782E-12  1.12318259781901E-01
 cg2d: Sum(rhs),rhsMax =  -6.28008756109466E-12  1.13630885440942E-01
 cg2d: Sum(rhs),rhsMax =  -6.21092066666051E-12  1.14901629427513E-01
 cg2d: Sum(rhs),rhsMax =  -6.18582962630398E-12  1.16136642879903E-01
 cg2d: Sum(rhs),rhsMax =  -6.13742390243033E-12  1.17329916545096E-01
 cg2d: Sum(rhs),rhsMax =  -6.05626659933023E-12  1.18479546057626E-01
 cg2d: Sum(rhs),rhsMax =  -5.95101745659576E-12  1.19593825982978E-01
 cg2d: Sum(rhs),rhsMax =  -5.76394487694643E-12  1.20670839800140E-01
 cg2d: Sum(rhs),rhsMax =  -5.63804558595393E-12  1.21712545766272E-01
 cg2d: Sum(rhs),rhsMax =  -5.54489787418788E-12  1.22719477917532E-01
 cg2d: Sum(rhs),rhsMax =  -5.44431166815684E-12  1.23688831190782E-01
 cg2d: Sum(rhs),rhsMax =  -5.37059285932173E-12  1.24620259140059E-01
 cg2d: Sum(rhs),rhsMax =  -5.29087884615365E-12  1.25512018626835E-01
 cg2d: Sum(rhs),rhsMax =  -5.21416243515205E-12  1.26354015331873E-01
 cg2d: Sum(rhs),rhsMax =  -5.15820719471094E-12  1.27163976757616E-01
 cg2d: Sum(rhs),rhsMax =  -5.08681985422754E-12  1.27932405586852E-01
 cg2d: Sum(rhs),rhsMax =  -5.01665375907123E-12  1.28665560942494E-01
 cg2d: Sum(rhs),rhsMax =  -4.96691576756803E-12  1.29357682148398E-01
 cg2d: Sum(rhs),rhsMax =  -4.97268892729608E-12  1.30016819716348E-01
 cg2d: Sum(rhs),rhsMax =  -4.95803398337102E-12  1.30638131273835E-01
 cg2d: Sum(rhs),rhsMax =  -5.00438579464912E-12  1.31210550476850E-01
 cg2d: Sum(rhs),rhsMax =  -4.98201480070293E-12  1.31757479430828E-01
 cg2d: Sum(rhs),rhsMax =  -4.90280038789592E-12  1.32270915093065E-01
 cg2d: Sum(rhs),rhsMax =  -4.75192107884936E-12  1.32745895600344E-01
 cg2d: Sum(rhs),rhsMax =  -4.67320626640344E-12  1.33183343741015E-01
 cg2d: Sum(rhs),rhsMax =  -4.59787763418262E-12  1.33588092398875E-01
 cg2d: Sum(rhs),rhsMax =  -4.53509452214007E-12  1.33956722648171E-01
 cg2d: Sum(rhs),rhsMax =  -4.47947234860635E-12  1.34285256120618E-01
 cg2d: Sum(rhs),rhsMax =  -4.40802949697172E-12  1.34562332835351E-01
 cg2d: Sum(rhs),rhsMax =  -4.36400915404533E-12  1.34811412121823E-01
 cg2d: Sum(rhs),rhsMax =  -4.24099644291687E-12  1.35029800872777E-01
 cg2d: Sum(rhs),rhsMax =  -4.24466017889813E-12  1.35213711751776E-01
 cg2d: Sum(rhs),rhsMax =  -4.26320090340937E-12  1.35359241200043E-01
 cg2d: Sum(rhs),rhsMax =  -4.32065494493372E-12  1.35475099785619E-01
 cg2d: Sum(rhs),rhsMax =  -4.29944968516338E-12  1.35559658459753E-01
 cg2d: Sum(rhs),rhsMax =  -4.33103553021397E-12  1.35602008050076E-01
 cg2d: Sum(rhs),rhsMax =  -4.31937818845540E-12  1.35619053836672E-01
 cg2d: Sum(rhs),rhsMax =  -4.31898961039678E-12  1.35597597192745E-01
 cg2d: Sum(rhs),rhsMax =  -4.31282787261011E-12  1.35559074929155E-01
 cg2d: Sum(rhs),rhsMax =  -4.32437419206622E-12  1.35492420549513E-01
 cg2d: Sum(rhs),rhsMax =  -4.33192370863367E-12  1.35394793431037E-01
 cg2d: Sum(rhs),rhsMax =  -4.33469926619523E-12  1.35271782729250E-01
 cg2d: Sum(rhs),rhsMax =  -4.31804592082585E-12  1.35122028551010E-01
 cg2d: Sum(rhs),rhsMax =  -4.32520685933468E-12  1.34925189646739E-01
 cg2d: Sum(rhs),rhsMax =  -4.35201874537938E-12  1.34706860433465E-01
 cg2d: Sum(rhs),rhsMax =  -4.35601554826803E-12  1.34474978769421E-01
 cg2d: Sum(rhs),rhsMax =  -4.37894165372654E-12  1.34225171598699E-01
 cg2d: Sum(rhs),rhsMax =  -4.42956782364945E-12  1.33948820301426E-01
 cg2d: Sum(rhs),rhsMax =  -4.48824311050089E-12  1.33653789675209E-01
 cg2d: Sum(rhs),rhsMax =  -4.49923431844468E-12  1.33334502168311E-01
 cg2d: Sum(rhs),rhsMax =  -4.53242998688097E-12  1.33000653235226E-01
 cg2d: Sum(rhs),rhsMax =  -4.57067717007931E-12  1.32650340803346E-01
 cg2d: Sum(rhs),rhsMax =  -4.57478499527042E-12  1.32283653243030E-01
 cg2d: Sum(rhs),rhsMax =  -4.57084370353300E-12  1.31897162720091E-01
 cg2d: Sum(rhs),rhsMax =  -4.45221637335180E-12  1.31493096174182E-01
 cg2d: Sum(rhs),rhsMax =  -4.51338966200865E-12  1.31066613861491E-01
 cg2d: Sum(rhs),rhsMax =  -4.61120031047813E-12  1.30621159121704E-01
 cg2d: Sum(rhs),rhsMax =  -4.67909044843395E-12  1.30161928670592E-01
 cg2d: Sum(rhs),rhsMax =  -4.70501415605895E-12  1.29682209689210E-01
 cg2d: Sum(rhs),rhsMax =  -4.61591875833278E-12  1.29182846325128E-01
 cg2d: Sum(rhs),rhsMax =  -4.56146231897492E-12  1.28665744814330E-01
 cg2d: Sum(rhs),rhsMax =  -4.52454740340613E-12  1.28135123555788E-01
 cg2d: Sum(rhs),rhsMax =  -4.53903581387749E-12  1.27589000123188E-01
 cg2d: Sum(rhs),rhsMax =  -4.51921833288793E-12  1.27027623788880E-01
 cg2d: Sum(rhs),rhsMax =  -4.49490444864864E-12  1.26444268508088E-01
 cg2d: Sum(rhs),rhsMax =  -4.51372272891604E-12  1.25845732265254E-01
 cg2d: Sum(rhs),rhsMax =  -4.52732296096769E-12  1.25230086158417E-01
 cg2d: Sum(rhs),rhsMax =  -4.53542758904746E-12  1.24591936490640E-01
 cg2d: Sum(rhs),rhsMax =  -4.51960691094655E-12  1.23935910788905E-01
 cg2d: Sum(rhs),rhsMax =  -4.58361126831619E-12  1.23270628106507E-01
 cg2d: Sum(rhs),rhsMax =  -4.66343630378674E-12  1.22596585640833E-01
 cg2d: Sum(rhs),rhsMax =  -4.68208805060044E-12  1.21911459739652E-01
 cg2d: Sum(rhs),rhsMax =  -4.72849537302977E-12  1.21217128175850E-01
 cg2d: Sum(rhs),rhsMax =  -4.76191308607099E-12  1.20513261088319E-01
 cg2d: Sum(rhs),rhsMax =  -4.77162753753646E-12  1.19802238300959E-01
 cg2d: Sum(rhs),rhsMax =  -4.77828887568421E-12  1.19082054366339E-01
 cg2d: Sum(rhs),rhsMax =  -4.79594142177575E-12  1.18353003102946E-01
 cg2d: Sum(rhs),rhsMax =  -4.81797934881456E-12  1.17620094600403E-01
 cg2d: Sum(rhs),rhsMax =  -4.85256279603163E-12  1.16894872162035E-01
 cg2d: Sum(rhs),rhsMax =  -4.91989782247515E-12  1.16164802568731E-01
 cg2d: Sum(rhs),rhsMax =  -4.98212582300539E-12  1.15432588232248E-01
 cg2d: Sum(rhs),rhsMax =  -5.04246644439377E-12  1.14697646996775E-01
 cg2d: Sum(rhs),rhsMax =  -5.04768449260951E-12  1.13968063501056E-01
 cg2d: Sum(rhs),rhsMax =  -5.14882581015286E-12  1.13239177462299E-01
 cg2d: Sum(rhs),rhsMax =  -5.21604981429391E-12  1.12505298104659E-01
 cg2d: Sum(rhs),rhsMax =  -5.23303622657068E-12  1.11770897542368E-01
 cg2d: Sum(rhs),rhsMax =  -5.26056975758138E-12  1.11039663239176E-01
 cg2d: Sum(rhs),rhsMax =  -5.31674704262741E-12  1.10307212784743E-01
 cg2d: Sum(rhs),rhsMax =  -5.37103694853158E-12  1.09578587936944E-01
 cg2d: Sum(rhs),rhsMax =  -5.43926015339480E-12  1.08853190237826E-01
 cg2d: Sum(rhs),rhsMax =  -5.43548539511107E-12  1.09886527768268E-01
 cg2d: Sum(rhs),rhsMax =  -5.38569189245663E-12  1.11778943598831E-01
 cg2d: Sum(rhs),rhsMax =  -5.29026822349010E-12  1.13635205224808E-01
 cg2d: Sum(rhs),rhsMax =  -5.15210096807550E-12  1.15451485954054E-01
 cg2d: Sum(rhs),rhsMax =  -5.08371122975859E-12  1.17229873694082E-01
 cg2d: Sum(rhs),rhsMax =  -5.05417929730356E-12  1.18960160725882E-01
 cg2d: Sum(rhs),rhsMax =  -5.00360863853189E-12  1.20649688014089E-01
 cg2d: Sum(rhs),rhsMax =  -4.92383911421257E-12  1.22286173146822E-01
 cg2d: Sum(rhs),rhsMax =  -4.85139706185578E-12  1.23863166923658E-01
 cg2d: Sum(rhs),rhsMax =  -4.77251571595616E-12  1.25398394101326E-01
 cg2d: Sum(rhs),rhsMax =  -4.73787675758786E-12  1.26893382326730E-01
 cg2d: Sum(rhs),rhsMax =  -4.71450656291950E-12  1.28340504140418E-01
 cg2d: Sum(rhs),rhsMax =  -4.68031169376104E-12  1.29743458896268E-01
 cg2d: Sum(rhs),rhsMax =  -4.59654536655307E-12  1.31101895472530E-01
 cg2d: Sum(rhs),rhsMax =  -4.53859172466764E-12  1.32420334631096E-01
 cg2d: Sum(rhs),rhsMax =  -4.34702274176857E-12  1.33699915286362E-01
 cg2d: Sum(rhs),rhsMax =  -4.24998924941633E-12  1.34927272968377E-01
 cg2d: Sum(rhs),rhsMax =  -4.16272571968079E-12  1.36109898162209E-01
 cg2d: Sum(rhs),rhsMax =  -4.10294020980473E-12  1.37254225182394E-01
 cg2d: Sum(rhs),rhsMax =  -4.01478850164949E-12  1.38360138789794E-01
 cg2d: Sum(rhs),rhsMax =  -3.95300459032910E-12  1.39421555728165E-01
 cg2d: Sum(rhs),rhsMax =  -4.00929289767760E-12  1.40437678611157E-01
 cg2d: Sum(rhs),rhsMax =  -4.02461397541742E-12  1.41407036187559E-01
 cg2d: Sum(rhs),rhsMax =  -4.05075972764735E-12  1.42330672539211E-01
 cg2d: Sum(rhs),rhsMax =  -4.08267863960532E-12  1.43210025445260E-01
 cg2d: Sum(rhs),rhsMax =  -4.10571576736629E-12  1.44034105823705E-01
 cg2d: Sum(rhs),rhsMax =  -4.12814227246372E-12  1.44815714895237E-01
 cg2d: Sum(rhs),rhsMax =  -4.08523215256196E-12  1.45549610085211E-01
 cg2d: Sum(rhs),rhsMax =  -4.04365430028975E-12  1.46230976072138E-01
 cg2d: Sum(rhs),rhsMax =  -4.01151334372685E-12  1.46866649904199E-01
 cg2d: Sum(rhs),rhsMax =  -3.94723143060105E-12  1.47450939743152E-01
 cg2d: Sum(rhs),rhsMax =  -3.89355214736042E-12  1.47985965762010E-01
 cg2d: Sum(rhs),rhsMax =  -3.86446430411524E-12  1.48478556498615E-01
 cg2d: Sum(rhs),rhsMax =  -3.84470233427692E-12  1.48924083013397E-01
 cg2d: Sum(rhs),rhsMax =  -3.81078502087462E-12  1.49327737790584E-01
 cg2d: Sum(rhs),rhsMax =  -3.80362408236579E-12  1.49685030233210E-01
 cg2d: Sum(rhs),rhsMax =  -3.77903264237034E-12  1.49995933195209E-01
 cg2d: Sum(rhs),rhsMax =  -3.74583697393405E-12  1.50260877586224E-01
 cg2d: Sum(rhs),rhsMax =  -3.69476671480129E-12  1.50478511687375E-01
 cg2d: Sum(rhs),rhsMax =  -3.67778030252452E-12  1.50647700179107E-01
 cg2d: Sum(rhs),rhsMax =  -3.70764530188694E-12  1.50771158876219E-01
 cg2d: Sum(rhs),rhsMax =  -3.66023877873545E-12  1.50855947803470E-01
 cg2d: Sum(rhs),rhsMax =  -3.64080987580451E-12  1.50898988815311E-01
 cg2d: Sum(rhs),rhsMax =  -3.62138097287357E-12  1.50912709740771E-01
 cg2d: Sum(rhs),rhsMax =  -3.59262619653578E-12  1.50895138756256E-01
 cg2d: Sum(rhs),rhsMax =  -3.50675044558102E-12  1.50841842754124E-01
 cg2d: Sum(rhs),rhsMax =  -3.49070772287519E-12  1.50761561177875E-01
 cg2d: Sum(rhs),rhsMax =  -3.47166739800286E-12  1.50652225950309E-01
 cg2d: Sum(rhs),rhsMax =  -3.46139783502508E-12  1.50503884762089E-01
 cg2d: Sum(rhs),rhsMax =  -3.43425288207300E-12  1.50326413742695E-01
 cg2d: Sum(rhs),rhsMax =  -3.41110473200956E-12  1.50117281858169E-01
 cg2d: Sum(rhs),rhsMax =  -3.37985195386636E-12  1.49881343234724E-01
 cg2d: Sum(rhs),rhsMax =  -3.34893224263055E-12  1.49616922080433E-01
 cg2d: Sum(rhs),rhsMax =  -3.31440430656471E-12  1.49318689310743E-01
 cg2d: Sum(rhs),rhsMax =  -3.27649019027376E-12  1.48993691766430E-01
 cg2d: Sum(rhs),rhsMax =  -3.23352455922077E-12  1.48644724207137E-01
 cg2d: Sum(rhs),rhsMax =  -3.21886961529572E-12  1.48269990113914E-01
 cg2d: Sum(rhs),rhsMax =  -3.19871906739877E-12  1.47868608941697E-01
 cg2d: Sum(rhs),rhsMax =  -3.17967874252645E-12  1.47442292779521E-01
 cg2d: Sum(rhs),rhsMax =  -3.12622150389075E-12  1.46991765051829E-01
 cg2d: Sum(rhs),rhsMax =  -3.08547631888700E-12  1.46516587327720E-01
 cg2d: Sum(rhs),rhsMax =  -3.05605540873444E-12  1.46017903033144E-01
 cg2d: Sum(rhs),rhsMax =  -3.03196356910007E-12  1.45498887777295E-01
 cg2d: Sum(rhs),rhsMax =  -2.97434299412203E-12  1.44956249053051E-01
 cg2d: Sum(rhs),rhsMax =  -2.91611179648044E-12  1.44389965741638E-01
 cg2d: Sum(rhs),rhsMax =  -2.86093371215657E-12  1.43800316101849E-01
 cg2d: Sum(rhs),rhsMax =  -2.83312262538971E-12  1.43188495534784E-01
 cg2d: Sum(rhs),rhsMax =  -2.77639022883136E-12  1.42556925400807E-01
 cg2d: Sum(rhs),rhsMax =  -2.70833355742184E-12  1.41907772824630E-01
 cg2d: Sum(rhs),rhsMax =  -2.65942823318710E-12  1.41245470926636E-01
 cg2d: Sum(rhs),rhsMax =  -2.61651811328534E-12  1.40568962054581E-01
 cg2d: Sum(rhs),rhsMax =  -2.57333043762742E-12  1.39879213205606E-01
 cg2d: Sum(rhs),rhsMax =  -2.49722464928936E-12  1.39179955877947E-01
 cg2d: Sum(rhs),rhsMax =  -2.45375941787529E-12  1.38470006995436E-01
 cg2d: Sum(rhs),rhsMax =  -2.40729658429473E-12  1.37749593698793E-01
 cg2d: Sum(rhs),rhsMax =  -2.35922392732846E-12  1.37019415259534E-01
 cg2d: Sum(rhs),rhsMax =  -2.30854224625432E-12  1.36277769534381E-01
 cg2d: Sum(rhs),rhsMax =  -2.28245200517563E-12  1.35522999798355E-01
 cg2d: Sum(rhs),rhsMax =  -2.20878870749175E-12  1.34760501333494E-01
 cg2d: Sum(rhs),rhsMax =  -2.12191375581483E-12  1.33980107201705E-01
 cg2d: Sum(rhs),rhsMax =  -2.06229477939246E-12  1.33185319558164E-01
 cg2d: Sum(rhs),rhsMax =  -1.98047134247759E-12  1.32376388027026E-01
 cg2d: Sum(rhs),rhsMax =  -1.91840987540104E-12  1.31570858096099E-01
 cg2d: Sum(rhs),rhsMax =  -1.87294624254264E-12  1.30753540031298E-01
 cg2d: Sum(rhs),rhsMax =  -1.77968750847413E-12  1.29922430097521E-01
 cg2d: Sum(rhs),rhsMax =  -1.73422387561573E-12  1.29083424672896E-01
 cg2d: Sum(rhs),rhsMax =  -1.69342317946075E-12  1.28236633350350E-01
 cg2d: Sum(rhs),rhsMax =  -1.60499391554936E-12  1.27383853215881E-01
 cg2d: Sum(rhs),rhsMax =  -1.57396318201108E-12  1.26523584839831E-01
 cg2d: Sum(rhs),rhsMax =  -1.52494683547388E-12  1.25658747685048E-01
 cg2d: Sum(rhs),rhsMax =  -1.47842849074209E-12  1.24793707781078E-01
 cg2d: Sum(rhs),rhsMax =  -1.43363099169846E-12  1.23924253599090E-01
 cg2d: Sum(rhs),rhsMax =  -1.38078437572631E-12  1.23050942306135E-01
 cg2d: Sum(rhs),rhsMax =  -1.33620892128761E-12  1.22185723233128E-01
 cg2d: Sum(rhs),rhsMax =  -1.30268018594393E-12  1.21319736164121E-01
 cg2d: Sum(rhs),rhsMax =  -1.30367938666609E-12  1.20449753733658E-01
 cg2d: Sum(rhs),rhsMax =  -1.38089539802877E-12  1.19583893493905E-01
 cg2d: Sum(rhs),rhsMax =  -1.46904710618401E-12  1.18725839593125E-01
 cg2d: Sum(rhs),rhsMax =  -1.52622359195220E-12  1.17875384696957E-01
 cg2d: Sum(rhs),rhsMax =  -1.53632662147629E-12  1.18601822226576E-01
 cg2d: Sum(rhs),rhsMax =  -1.49719125985825E-12  1.20482845461971E-01
 cg2d: Sum(rhs),rhsMax =  -1.47043488496479E-12  1.22326050782327E-01
 cg2d: Sum(rhs),rhsMax =  -1.38283828832186E-12  1.24124441421512E-01
 cg2d: Sum(rhs),rhsMax =  -1.34137145835211E-12  1.25881688358789E-01
 cg2d: Sum(rhs),rhsMax =  -1.28153043732482E-12  1.27587367005913E-01
 cg2d: Sum(rhs),rhsMax =  -1.20903287381680E-12  1.29246672043281E-01
 cg2d: Sum(rhs),rhsMax =  -1.14647180637917E-12  1.30856631125823E-01
 cg2d: Sum(rhs),rhsMax =  -1.08762998607403E-12  1.32418200295935E-01
 cg2d: Sum(rhs),rhsMax =  -1.03989039601515E-12  1.33941566405150E-01
 cg2d: Sum(rhs),rhsMax =  -9.77218306275063E-13  1.35424243134520E-01
 cg2d: Sum(rhs),rhsMax =  -9.36584143573782E-13  1.36853468662159E-01
 cg2d: Sum(rhs),rhsMax =  -9.00335361819771E-13  1.38242255173529E-01
 cg2d: Sum(rhs),rhsMax =  -9.12547815090647E-13  1.39590372958660E-01
 cg2d: Sum(rhs),rhsMax =  -9.38693567320570E-13  1.40889722171691E-01
 cg2d: Sum(rhs),rhsMax =  -1.00369712541237E-12  1.42141233036031E-01
 cg2d: Sum(rhs),rhsMax =  -1.05077058165648E-12  1.43348604415289E-01
 cg2d: Sum(rhs),rhsMax =  -1.08718589686418E-12  1.44507223848738E-01
 cg2d: Sum(rhs),rhsMax =  -1.13603570994769E-12  1.45614872470896E-01
 cg2d: Sum(rhs),rhsMax =  -1.18899334822231E-12  1.46675935544992E-01
 cg2d: Sum(rhs),rhsMax =  -1.22940546631867E-12  1.47683090550423E-01
 cg2d: Sum(rhs),rhsMax =  -1.28025368084650E-12  1.48639914665335E-01
 cg2d: Sum(rhs),rhsMax =  -1.30223609673408E-12  1.49549170122095E-01
 cg2d: Sum(rhs),rhsMax =  -1.33437705329698E-12  1.50407958681061E-01
 cg2d: Sum(rhs),rhsMax =  -1.36501920877663E-12  1.51216930450968E-01
 cg2d: Sum(rhs),rhsMax =  -1.40154554628680E-12  1.51978261854259E-01
 cg2d: Sum(rhs),rhsMax =  -1.42547085246747E-12  1.52684977250564E-01
 cg2d: Sum(rhs),rhsMax =  -1.45061740397523E-12  1.53344752948919E-01
 cg2d: Sum(rhs),rhsMax =  -1.45311540578064E-12  1.53962750733473E-01
 cg2d: Sum(rhs),rhsMax =  -1.46804790546184E-12  1.54535858884446E-01
 cg2d: Sum(rhs),rhsMax =  -1.52078349913154E-12  1.55060306606734E-01
 cg2d: Sum(rhs),rhsMax =  -1.59949831157746E-12  1.55543122204704E-01
 cg2d: Sum(rhs),rhsMax =  -1.64845914696343E-12  1.55982882459711E-01
 cg2d: Sum(rhs),rhsMax =  -1.71945790938821E-12  1.56377835433669E-01
 cg2d: Sum(rhs),rhsMax =  -1.76725301059832E-12  1.56731273210105E-01
 cg2d: Sum(rhs),rhsMax =  -1.81049619740747E-12  1.57043291760404E-01
 cg2d: Sum(rhs),rhsMax =  -1.75737202567916E-12  1.57315264339233E-01
 cg2d: Sum(rhs),rhsMax =  -1.79567472002873E-12  1.57545317803907E-01
 cg2d: Sum(rhs),rhsMax =  -1.82392989600544E-12  1.57730203787055E-01
 cg2d: Sum(rhs),rhsMax =  -1.86828330583921E-12  1.57868338222610E-01
 cg2d: Sum(rhs),rhsMax =  -1.91502369517593E-12  1.57966393497969E-01
 cg2d: Sum(rhs),rhsMax =  -1.96548333164515E-12  1.58024926420823E-01
 cg2d: Sum(rhs),rhsMax =  -1.99096295006029E-12  1.58044370072695E-01
 cg2d: Sum(rhs),rhsMax =  -1.99967820080360E-12  1.58029004114737E-01
 cg2d: Sum(rhs),rhsMax =  -2.00622851664889E-12  1.57982414217100E-01
 cg2d: Sum(rhs),rhsMax =  -2.03709271673347E-12  1.57906373346187E-01
 cg2d: Sum(rhs),rhsMax =  -2.07311945388255E-12  1.57797895552417E-01
 cg2d: Sum(rhs),rhsMax =  -2.17192930307419E-12  1.57661212526935E-01
 cg2d: Sum(rhs),rhsMax =  -2.21933582622569E-12  1.57493876871540E-01
 cg2d: Sum(rhs),rhsMax =  -2.24276153204528E-12  1.57297019700848E-01
 cg2d: Sum(rhs),rhsMax =  -2.21334062189271E-12  1.57070921758356E-01
 cg2d: Sum(rhs),rhsMax =  -2.22805107696900E-12  1.56813972715576E-01
 cg2d: Sum(rhs),rhsMax =  -2.24525953385069E-12  1.56530780309306E-01
 cg2d: Sum(rhs),rhsMax =  -2.37138086944810E-12  1.56224225624741E-01
 cg2d: Sum(rhs),rhsMax =  -2.42994513399708E-12  1.55894375477746E-01
 cg2d: Sum(rhs),rhsMax =  -2.46913600676635E-12  1.55542304265478E-01
 cg2d: Sum(rhs),rhsMax =  -2.53497223212662E-12  1.55170241480426E-01
 cg2d: Sum(rhs),rhsMax =  -2.60824695175188E-12  1.54772068088030E-01
 cg2d: Sum(rhs),rhsMax =  -2.67630362316140E-12  1.54352789106729E-01
 cg2d: Sum(rhs),rhsMax =  -2.66797695047671E-12  1.53910607204982E-01
 cg2d: Sum(rhs),rhsMax =  -2.64416266659850E-12  1.53441645446210E-01
 cg2d: Sum(rhs),rhsMax =  -2.60469423807308E-12  1.52956034709092E-01
 cg2d: Sum(rhs),rhsMax =  -2.58260079988304E-12  1.52445248774503E-01
 cg2d: Sum(rhs),rhsMax =  -2.56616949911859E-12  1.51918831416033E-01
 cg2d: Sum(rhs),rhsMax =  -2.55390153469648E-12  1.51375577336480E-01
 cg2d: Sum(rhs),rhsMax =  -2.52847742743256E-12  1.50812512367081E-01
 cg2d: Sum(rhs),rhsMax =  -2.51332288314643E-12  1.50235665488309E-01
 cg2d: Sum(rhs),rhsMax =  -2.53597143284878E-12  1.49641876121668E-01
 cg2d: Sum(rhs),rhsMax =  -2.54585241776795E-12  1.49029251035469E-01
 cg2d: Sum(rhs),rhsMax =  -2.53502774327785E-12  1.48406415319290E-01
 cg2d: Sum(rhs),rhsMax =  -2.54679610733888E-12  1.47762931254434E-01
 cg2d: Sum(rhs),rhsMax =  -2.54563037316302E-12  1.47094950720374E-01
 cg2d: Sum(rhs),rhsMax =  -2.53935761307389E-12  1.46416032100636E-01
 cg2d: Sum(rhs),rhsMax =  -2.55029330986645E-12  1.45715834480798E-01
 cg2d: Sum(rhs),rhsMax =  -2.55739873722405E-12  1.44989314480530E-01
 cg2d: Sum(rhs),rhsMax =  -2.53497223212662E-12  1.44257160758637E-01
 cg2d: Sum(rhs),rhsMax =  -2.54729570769996E-12  1.43503794308313E-01
 cg2d: Sum(rhs),rhsMax =  -2.54662957388518E-12  1.42730766160342E-01
 cg2d: Sum(rhs),rhsMax =  -2.54807286381720E-12  1.41941524812822E-01
 cg2d: Sum(rhs),rhsMax =  -2.52486920260253E-12  1.41142764226453E-01
 cg2d: Sum(rhs),rhsMax =  -2.55329091203294E-12  1.40330431064618E-01
 cg2d: Sum(rhs),rhsMax =  -2.57760479627223E-12  1.39502641908803E-01
 cg2d: Sum(rhs),rhsMax =  -2.62290189567693E-12  1.38665330055480E-01
 cg2d: Sum(rhs),rhsMax =  -2.65465427418121E-12  1.37817203694761E-01
 cg2d: Sum(rhs),rhsMax =  -2.69240185701847E-12  1.36960830589259E-01
 cg2d: Sum(rhs),rhsMax =  -2.75357514567531E-12  1.36097811758803E-01
 cg2d: Sum(rhs),rhsMax =  -2.80764300697456E-12  1.35220513060904E-01
 cg2d: Sum(rhs),rhsMax =  -2.82818213293012E-12  1.34353915579102E-01
 cg2d: Sum(rhs),rhsMax =  -2.85249601716941E-12  1.33484358675509E-01
 cg2d: Sum(rhs),rhsMax =  -2.87503354456931E-12  1.32618736071340E-01
 cg2d: Sum(rhs),rhsMax =  -2.90378832090710E-12  1.31743680960338E-01
 cg2d: Sum(rhs),rhsMax =  -2.90167889716031E-12  1.30868531085307E-01
 cg2d: Sum(rhs),rhsMax =  -2.93343127566459E-12  1.29991129092848E-01
 cg2d: Sum(rhs),rhsMax =  -2.89568369282733E-12  1.29109438334175E-01
 cg2d: Sum(rhs),rhsMax =  -2.88602475251309E-12  1.28231348324466E-01
 cg2d: Sum(rhs),rhsMax =  -2.91533464036320E-12  1.27357433277998E-01
 cg2d: Sum(rhs),rhsMax =  -2.97095681389692E-12  1.26489473917623E-01
 cg2d: Sum(rhs),rhsMax =  -3.02269320684445E-12  1.27044708199711E-01
 cg2d: Sum(rhs),rhsMax =  -3.06721315013192E-12  1.29169032447824E-01
 cg2d: Sum(rhs),rhsMax =  -3.08453262931607E-12  1.31260390828912E-01
 cg2d: Sum(rhs),rhsMax =  -3.14959169855911E-12  1.33314672925634E-01
 cg2d: Sum(rhs),rhsMax =  -3.17779136338459E-12  1.35324371979680E-01
 cg2d: Sum(rhs),rhsMax =  -3.20310444834604E-12  1.37290427102125E-01
 cg2d: Sum(rhs),rhsMax =  -3.24229532111531E-12  1.39211612933523E-01
 cg2d: Sum(rhs),rhsMax =  -3.27216032047772E-12  1.41093425251697E-01
 cg2d: Sum(rhs),rhsMax =  -3.32522898105481E-12  1.42929718892359E-01
 cg2d: Sum(rhs),rhsMax =  -3.33866267965277E-12  1.44719438164466E-01
 cg2d: Sum(rhs),rhsMax =  -3.38529204668703E-12  1.46466042504844E-01
 cg2d: Sum(rhs),rhsMax =  -3.39833716722637E-12  1.48167002047887E-01
 cg2d: Sum(rhs),rhsMax =  -3.44901884830051E-12  1.49822717624509E-01
 cg2d: Sum(rhs),rhsMax =  -3.48382434012251E-12  1.51425474965504E-01
 cg2d: Sum(rhs),rhsMax =  -3.51391138408985E-12  1.52979725115002E-01
 cg2d: Sum(rhs),rhsMax =  -3.51918494345682E-12  1.54491616635919E-01
 cg2d: Sum(rhs),rhsMax =  -3.54422047266212E-12  1.55953541515879E-01
 cg2d: Sum(rhs),rhsMax =  -3.54127838164686E-12  1.57372355936537E-01
 cg2d: Sum(rhs),rhsMax =  -3.52179396756469E-12  1.58737515089719E-01
 cg2d: Sum(rhs),rhsMax =  -3.52678997117550E-12  1.60064070818952E-01
 cg2d: Sum(rhs),rhsMax =  -3.53223006399617E-12  1.61335601317655E-01
 cg2d: Sum(rhs),rhsMax =  -3.52712303808289E-12  1.62561874858718E-01
 cg2d: Sum(rhs),rhsMax =  -3.52312623519424E-12  1.63737611406732E-01
 cg2d: Sum(rhs),rhsMax =  -3.52690099347797E-12  1.64861979813974E-01
 cg2d: Sum(rhs),rhsMax =  -3.53322926471833E-12  1.65945212160070E-01
 cg2d: Sum(rhs),rhsMax =  -3.54166695970548E-12  1.66981979092517E-01
 cg2d: Sum(rhs),rhsMax =  -3.54993812123894E-12  1.67972543045550E-01
 cg2d: Sum(rhs),rhsMax =  -3.54866136476062E-12  1.68913405604215E-01
 cg2d: Sum(rhs),rhsMax =  -3.55754314895762E-12  1.69804939942371E-01
 cg2d: Sum(rhs),rhsMax =  -3.55565576981576E-12  1.70654070789349E-01
 cg2d: Sum(rhs),rhsMax =  -3.52395890246271E-12  1.71458434491282E-01
 cg2d: Sum(rhs),rhsMax =  -3.54233309352026E-12  1.72225508068323E-01
 cg2d: Sum(rhs),rhsMax =  -3.54227758236902E-12  1.72937229727812E-01
 cg2d: Sum(rhs),rhsMax =  -3.56997764683342E-12  1.73621599608647E-01
 cg2d: Sum(rhs),rhsMax =  -3.58818530443727E-12  1.74263178571953E-01
 cg2d: Sum(rhs),rhsMax =  -3.59678953287812E-12  1.74847926022163E-01
 cg2d: Sum(rhs),rhsMax =  -3.58835183789097E-12  1.75410234262244E-01
 cg2d: Sum(rhs),rhsMax =  -3.61416452321350E-12  1.75935984243937E-01
 cg2d: Sum(rhs),rhsMax =  -3.66096042370145E-12  1.76418689351583E-01
 cg2d: Sum(rhs),rhsMax =  -3.68444164067228E-12  1.76862756292403E-01
 cg2d: Sum(rhs),rhsMax =  -3.75172115596456E-12  1.77248244399756E-01
 cg2d: Sum(rhs),rhsMax =  -3.79213327406092E-12  1.77627663531221E-01
 cg2d: Sum(rhs),rhsMax =  -3.85091958321482E-12  1.77963865840342E-01
 cg2d: Sum(rhs),rhsMax =  -3.90054655241556E-12  1.78257505015513E-01
 cg2d: Sum(rhs),rhsMax =  -3.96532806590244E-12  1.78516957729692E-01
 cg2d: Sum(rhs),rhsMax =  -4.01684241424505E-12  1.78742251762522E-01
 cg2d: Sum(rhs),rhsMax =  -4.06874534064627E-12  1.78933173997488E-01
 cg2d: Sum(rhs),rhsMax =  -4.11992662208149E-12  1.79090288949571E-01
 cg2d: Sum(rhs),rhsMax =  -4.16583434414974E-12  1.79211530645664E-01
 cg2d: Sum(rhs),rhsMax =  -4.22262225185932E-12  1.79297577320950E-01
 cg2d: Sum(rhs),rhsMax =  -4.28385105166740E-12  1.79350305353364E-01
 cg2d: Sum(rhs),rhsMax =  -4.33897362484004E-12  1.79371152490156E-01
 cg2d: Sum(rhs),rhsMax =  -4.39043246203141E-12  1.79359647665230E-01
 cg2d: Sum(rhs),rhsMax =  -4.62446747562240E-12  1.79316591497498E-01
 cg2d: Sum(rhs),rhsMax =  -4.57117677044039E-12  1.79243478019840E-01
 cg2d: Sum(rhs),rhsMax =  -4.60681492953086E-12  1.79141587283240E-01
 cg2d: Sum(rhs),rhsMax =  -4.64572824654397E-12  1.79011663437993E-01
 cg2d: Sum(rhs),rhsMax =  -4.68364236283492E-12  1.78853431937187E-01
 cg2d: Sum(rhs),rhsMax =  -4.73227013131350E-12  1.78669214148486E-01
 cg2d: Sum(rhs),rhsMax =  -4.76246819758330E-12  1.78460389156132E-01
 cg2d: Sum(rhs),rhsMax =  -4.82175410709829E-12  1.78225451614061E-01
 cg2d: Sum(rhs),rhsMax =  -4.89958074112451E-12  1.77968269682076E-01
 cg2d: Sum(rhs),rhsMax =  -4.96763741253403E-12  1.77691558107293E-01
 cg2d: Sum(rhs),rhsMax =  -5.02775598931748E-12  1.77386899999393E-01
 cg2d: Sum(rhs),rhsMax =  -5.08643127616892E-12  1.77050173669371E-01
 cg2d: Sum(rhs),rhsMax =  -5.14704945331346E-12  1.76684220745104E-01
 cg2d: Sum(rhs),rhsMax =  -5.19029264012261E-12  1.76305600834325E-01
 cg2d: Sum(rhs),rhsMax =  -5.24191801076768E-12  1.75895300434271E-01
 cg2d: Sum(rhs),rhsMax =  -5.30669952425455E-12  1.75452830652253E-01
 cg2d: Sum(rhs),rhsMax =  -5.36110045246119E-12  1.74979903547861E-01
 cg2d: Sum(rhs),rhsMax =  -5.40262279358217E-12  1.74476317064732E-01
 cg2d: Sum(rhs),rhsMax =  -5.45075096169967E-12  1.73943517466663E-01
 cg2d: Sum(rhs),rhsMax =  -5.51225731726390E-12  1.73391390766727E-01
 cg2d: Sum(rhs),rhsMax =  -5.58436630271331E-12  1.72803218166764E-01
 cg2d: Sum(rhs),rhsMax =  -5.65703039967502E-12  1.72184099732032E-01
 cg2d: Sum(rhs),rhsMax =  -5.69627678359552E-12  1.71537861782859E-01
 cg2d: Sum(rhs),rhsMax =  -5.77221603847988E-12  1.70863325665547E-01
 cg2d: Sum(rhs),rhsMax =  -5.82317527531018E-12  1.70161108123579E-01
 cg2d: Sum(rhs),rhsMax =  -5.87663251394588E-12  1.69432339883213E-01
 cg2d: Sum(rhs),rhsMax =  -5.96039884115385E-12  1.68679692618963E-01
 cg2d: Sum(rhs),rhsMax =  -6.03161964818355E-12  1.67901141801986E-01
 cg2d: Sum(rhs),rhsMax =  -6.10345107787680E-12  1.67103445978870E-01
 cg2d: Sum(rhs),rhsMax =  -6.15657524960511E-12  1.66281357817910E-01
 cg2d: Sum(rhs),rhsMax =  -6.21158680047529E-12  1.65437972922061E-01
 cg2d: Sum(rhs),rhsMax =  -6.28003204994343E-12  1.64577351959921E-01
 cg2d: Sum(rhs),rhsMax =  -6.33915142600472E-12  1.63700354530241E-01
 cg2d: Sum(rhs),rhsMax =  -6.39444053263105E-12  1.62802193973501E-01
 cg2d: Sum(rhs),rhsMax =  -6.44462261334411E-12  1.61890410238294E-01
 cg2d: Sum(rhs),rhsMax =  -6.50246523292708E-12  1.60956316889831E-01
 cg2d: Sum(rhs),rhsMax =  -6.56086296402236E-12  1.60009045110590E-01
 cg2d: Sum(rhs),rhsMax =  -6.63913368725844E-12  1.59037745311171E-01
 cg2d: Sum(rhs),rhsMax =  -6.69558852806063E-12  1.58059475146017E-01
 cg2d: Sum(rhs),rhsMax =  -6.78307410240109E-12  1.57060468163857E-01
 cg2d: Sum(rhs),rhsMax =  -6.83608725182694E-12  1.56067157963974E-01
 cg2d: Sum(rhs),rhsMax =  -6.90825174842757E-12  1.55033155422552E-01
 cg2d: Sum(rhs),rhsMax =  -6.97514268566124E-12  1.54006220166847E-01
 cg2d: Sum(rhs),rhsMax =  -7.08183511832772E-12  1.52957902747263E-01
 cg2d: Sum(rhs),rhsMax =  -7.17392811822037E-12  1.51907399445606E-01
 cg2d: Sum(rhs),rhsMax =  -7.25836057924312E-12  1.50886156810990E-01
 cg2d: Sum(rhs),rhsMax =  -7.36088967556725E-12  1.49795724373907E-01
 cg2d: Sum(rhs),rhsMax =  -7.49589279536167E-12  1.48729405208910E-01
 cg2d: Sum(rhs),rhsMax =  -7.47957251689968E-12  1.50027633079379E-01
 cg2d: Sum(rhs),rhsMax =  -7.39397432170108E-12  1.52347483643813E-01
 cg2d: Sum(rhs),rhsMax =  -7.32286453697384E-12  1.54629295530236E-01
 cg2d: Sum(rhs),rhsMax =  -7.22039095180094E-12  1.56862349016440E-01
 cg2d: Sum(rhs),rhsMax =  -7.08999525755871E-12  1.59054105658965E-01
 cg2d: Sum(rhs),rhsMax =  -7.07905956076615E-12  1.61196639067328E-01
 cg2d: Sum(rhs),rhsMax =  -7.02765623472601E-12  1.63316666418346E-01
 cg2d: Sum(rhs),rhsMax =  -7.01427804727928E-12  1.65363000817441E-01
 cg2d: Sum(rhs),rhsMax =  -7.00456359581381E-12  1.67366259315202E-01
 cg2d: Sum(rhs),rhsMax =  -6.99079683030845E-12  1.69325817723524E-01
 cg2d: Sum(rhs),rhsMax =  -6.98907598462029E-12  1.71235905032597E-01
 cg2d: Sum(rhs),rhsMax =  -6.99323932096263E-12  1.73091594128316E-01
 cg2d: Sum(rhs),rhsMax =  -7.01494418109405E-12  1.74898486960944E-01
 cg2d: Sum(rhs),rhsMax =  -7.00728364222414E-12  1.76658901610886E-01
 cg2d: Sum(rhs),rhsMax =  -6.99978963680792E-12  1.78352475607711E-01
 cg2d: Sum(rhs),rhsMax =  -6.99235114254293E-12  1.79995761022531E-01
 cg2d: Sum(rhs),rhsMax =  -7.00339786163795E-12  1.81590343900288E-01
 cg2d: Sum(rhs),rhsMax =  -7.00955959942462E-12  1.83132192411754E-01
 cg2d: Sum(rhs),rhsMax =  -6.98940905152767E-12  1.84619927287540E-01
 cg2d: Sum(rhs),rhsMax =  -7.00317581703302E-12  1.86058980703005E-01
 cg2d: Sum(rhs),rhsMax =  -7.00889346560984E-12  1.87448094509728E-01
 cg2d: Sum(rhs),rhsMax =  -7.01949609549501E-12  1.88790785472299E-01
 cg2d: Sum(rhs),rhsMax =  -7.03204161567328E-12  1.90085178197799E-01
 cg2d: Sum(rhs),rhsMax =  -7.03925806533334E-12  1.91331873303104E-01
 cg2d: Sum(rhs),rhsMax =  -7.05213665241899E-12  1.92532351299969E-01
 cg2d: Sum(rhs),rhsMax =  -7.06307234921155E-12  1.93683998677090E-01
 cg2d: Sum(rhs),rhsMax =  -7.09393654929613E-12  1.94786770610164E-01
 cg2d: Sum(rhs),rhsMax =  -7.10304037809806E-12  1.95841662177326E-01
 cg2d: Sum(rhs),rhsMax =  -7.13690218034913E-12  1.96828152727713E-01
 cg2d: Sum(rhs),rhsMax =  -7.15960624120271E-12  1.97771662778677E-01
 cg2d: Sum(rhs),rhsMax =  -7.18869408444789E-12  1.98667791257880E-01
 cg2d: Sum(rhs),rhsMax =  -7.23437976191121E-12  1.99514385237527E-01
 cg2d: Sum(rhs),rhsMax =  -7.25952631341897E-12  2.00314612008075E-01
 cg2d: Sum(rhs),rhsMax =  -7.30199234411089E-12  2.01067220015938E-01
 cg2d: Sum(rhs),rhsMax =  -7.42117478580440E-12  2.01770500089255E-01
 cg2d: Sum(rhs),rhsMax =  -7.54274420700085E-12  2.02423361830288E-01
 cg2d: Sum(rhs),rhsMax =  -7.65804086810817E-12  2.03028977390031E-01
 cg2d: Sum(rhs),rhsMax =  -7.79282194329767E-12  2.03586659356007E-01
 cg2d: Sum(rhs),rhsMax =  -7.93448640123984E-12  2.04094393870937E-01
 cg2d: Sum(rhs),rhsMax =  -8.00021160429765E-12  2.04554856344309E-01
 cg2d: Sum(rhs),rhsMax =  -8.03085375977730E-12  2.04969315274729E-01
 cg2d: Sum(rhs),rhsMax =  -8.04517563679497E-12  2.05342068450727E-01
 cg2d: Sum(rhs),rhsMax =  -8.06271716058404E-12  2.05669215156818E-01
 cg2d: Sum(rhs),rhsMax =  -8.09302624915631E-12  2.05954769929634E-01
 cg2d: Sum(rhs),rhsMax =  -8.11983813520101E-12  2.06190040873116E-01
 cg2d: Sum(rhs),rhsMax =  -8.27649060397562E-12  2.06377360300954E-01
 cg2d: Sum(rhs),rhsMax =  -8.31679169976951E-12  2.06515809125666E-01
 cg2d: Sum(rhs),rhsMax =  -8.27940493941526E-12  2.06605995232256E-01
 cg2d: Sum(rhs),rhsMax =  -8.27493629174114E-12  2.06648443362712E-01
 cg2d: Sum(rhs),rhsMax =  -8.28950796893935E-12  2.06642481236975E-01
 cg2d: Sum(rhs),rhsMax =  -8.28703772270956E-12  2.06587024191731E-01
 cg2d: Sum(rhs),rhsMax =  -8.20804535450748E-12  2.06486688921072E-01
 cg2d: Sum(rhs),rhsMax =  -8.15211786964198E-12  2.06347532870817E-01
 cg2d: Sum(rhs),rhsMax =  -8.09771694143535E-12  2.06171651709167E-01
 cg2d: Sum(rhs),rhsMax =  -8.11151146251632E-12  2.05951111306898E-01
 cg2d: Sum(rhs),rhsMax =  -8.15308931478853E-12  2.05692065762904E-01
 cg2d: Sum(rhs),rhsMax =  -8.19933010376417E-12  2.05397365454025E-01
 cg2d: Sum(rhs),rhsMax =  -8.24881829508683E-12  2.05063951337786E-01
 cg2d: Sum(rhs),rhsMax =  -8.27732327124409E-12  2.04690555848991E-01
 cg2d: Sum(rhs),rhsMax =  -8.31579249904735E-12  2.04283514385194E-01
 cg2d: Sum(rhs),rhsMax =  -8.36289371086707E-12  2.03831072095474E-01
 cg2d: Sum(rhs),rhsMax =  -8.39614489045459E-12  2.03331310025768E-01
 cg2d: Sum(rhs),rhsMax =  -8.43236591663299E-12  2.02809889557260E-01
 cg2d: Sum(rhs),rhsMax =  -8.46578362967421E-12  2.02244326912042E-01
 cg2d: Sum(rhs),rhsMax =  -8.50036707689128E-12  2.01638145228769E-01
 cg2d: Sum(rhs),rhsMax =  -8.52373727155964E-12  2.00993077848446E-01
 cg2d: Sum(rhs),rhsMax =  -8.54699644392554E-12  2.00306192868877E-01
 cg2d: Sum(rhs),rhsMax =  -8.56803517024218E-12  1.99578299829725E-01
 cg2d: Sum(rhs),rhsMax =  -8.59512461204304E-12  1.98808496578543E-01
 cg2d: Sum(rhs),rhsMax =  -8.56920090441804E-12  1.98001303357451E-01
 cg2d: Sum(rhs),rhsMax =  -8.56315018893383E-12  1.97152059435791E-01
 cg2d: Sum(rhs),rhsMax =  -8.54713522180361E-12  1.96261855949215E-01
 cg2d: Sum(rhs),rhsMax =  -8.53769832609430E-12  1.95335382178907E-01
 cg2d: Sum(rhs),rhsMax =  -8.53955794966055E-12  1.94370529225245E-01
 cg2d: Sum(rhs),rhsMax =  -8.54780135561839E-12  1.93379610116796E-01
 cg2d: Sum(rhs),rhsMax =  -8.56431592310969E-12  1.92342619091918E-01
(PID.TID 0000.0001)      cg2d_init_res =   5.16948930597438E-02
(PID.TID 0000.0001)      cg2d_iters(min,last) =      -1      29
(PID.TID 0000.0001)      cg2d_last_res =   4.46059355101496E-14
(PID.TID 0000.0001) // =======================================================
(PID.TID 0000.0001) // Begin MONITOR dynamic field statistics
(PID.TID 0000.0001) // =======================================================
(PID.TID 0000.0001) %MON time_tsnumber                =                  3840
(PID.TID 0000.0001) %MON time_secondsf                =   5.7600000000000E+04
(PID.TID 0000.0001) %MON dynstat_eta_max              =   5.6758374336585E-03
(PID.TID 0000.0001) %MON dynstat_eta_min              =  -2.0403000614858E-02
(PID.TID 0000.0001) %MON dynstat_eta_mean             =   1.9005788261617E-15
(PID.TID 0000.0001) %MON dynstat_eta_sd               =   4.6076359920670E-03
(PID.TID 0000.0001) %MON dynstat_eta_del2             =   1.5425121502740E-04
(PID.TID 0000.0001) %MON dynstat_uvel_max             =   1.1156627460038E+00
(PID.TID 0000.0001) %MON dynstat_uvel_min             =  -5.4449673754900E-01
(PID.TID 0000.0001) %MON dynstat_uvel_mean            =  -5.0937937124402E-05
(PID.TID 0000.0001) %MON dynstat_uvel_sd              =   1.0920378367776E-01
(PID.TID 0000.0001) %MON dynstat_uvel_del2            =   5.9671141737311E-04
(PID.TID 0000.0001) %MON dynstat_vvel_max             =   0.0000000000000E+00
(PID.TID 0000.0001) %MON dynstat_vvel_min             =   0.0000000000000E+00
(PID.TID 0000.0001) %MON dynstat_vvel_mean            =   0.0000000000000E+00
(PID.TID 0000.0001) %MON dynstat_vvel_sd              =   0.0000000000000E+00
(PID.TID 0000.0001) %MON dynstat_vvel_del2            =   0.0000000000000E+00
(PID.TID 0000.0001) %MON dynstat_wvel_max             =   4.6607007538958E-02
(PID.TID 0000.0001) %MON dynstat_wvel_min             =  -3.6908456441104E-02
(PID.TID 0000.0001) %MON dynstat_wvel_mean            =   7.4553301252308E-20
(PID.TID 0000.0001) %MON dynstat_wvel_sd              =   3.9934003130392E-03
(PID.TID 0000.0001) %MON dynstat_wvel_del2            =   7.4938997613373E-05
(PID.TID 0000.0001) %MON dynstat_theta_max            =   1.5000000000395E+01
(PID.TID 0000.0001) %MON dynstat_theta_min            =   9.9999999999925E+00
(PID.TID 0000.0001) %MON dynstat_theta_mean           =   1.3087494925968E+01
(PID.TID 0000.0001) %MON dynstat_theta_sd             =   2.3558491097862E+00
(PID.TID 0000.0001) %MON dynstat_theta_del2           =   1.7826757151792E-03
(PID.TID 0000.0001) %MON dynstat_salt_max             =   3.5000000000000E+01
(PID.TID 0000.0001) %MON dynstat_salt_min             =   3.5000000000000E+01
(PID.TID 0000.0001) %MON dynstat_salt_mean            =   3.5000000000000E+01
(PID.TID 0000.0001) %MON dynstat_salt_sd              =   7.1054273576010E-15
(PID.TID 0000.0001) %MON dynstat_salt_del2            =   0.0000000000000E+00
(PID.TID 0000.0001) %MON dynstat_sst_max              =   1.5000000000007E+01
(PID.TID 0000.0001) %MON dynstat_sst_min              =   1.4999946929628E+01
(PID.TID 0000.0001) %MON dynstat_sst_mean             =   1.4999999670929E+01
(PID.TID 0000.0001) %MON dynstat_sst_sd               =   3.6363876568321E-06
(PID.TID 0000.0001) %MON dynstat_sst_del2             =   2.5605406318033E-07
(PID.TID 0000.0001) %MON dynstat_sss_max              =   3.5000000000000E+01
(PID.TID 0000.0001) %MON dynstat_sss_min              =   3.5000000000000E+01
(PID.TID 0000.0001) %MON dynstat_sss_mean             =   3.5000000000000E+01
(PID.TID 0000.0001) %MON dynstat_sss_sd               =   0.0000000000000E+00
(PID.TID 0000.0001) %MON dynstat_sss_del2             =   0.0000000000000E+00
(PID.TID 0000.0001) %MON forcing_qnet_max             =   0.0000000000000E+00
(PID.TID 0000.0001) %MON forcing_qnet_min             =   0.0000000000000E+00
(PID.TID 0000.0001) %MON forcing_qnet_mean            =   0.0000000000000E+00
(PID.TID 0000.0001) %MON forcing_qnet_sd              =   0.0000000000000E+00
(PID.TID 0000.0001) %MON forcing_qnet_del2            =   0.0000000000000E+00
(PID.TID 0000.0001) %MON forcing_qsw_max              =   0.0000000000000E+00
(PID.TID 0000.0001) %MON forcing_qsw_min              =   0.0000000000000E+00
(PID.TID 0000.0001) %MON forcing_qsw_mean             =   0.0000000000000E+00
(PID.TID 0000.0001) %MON forcing_qsw_sd               =   0.0000000000000E+00
(PID.TID 0000.0001) %MON forcing_qsw_del2             =   0.0000000000000E+00
(PID.TID 0000.0001) %MON forcing_empmr_max            =   0.0000000000000E+00
(PID.TID 0000.0001) %MON forcing_empmr_min            =   0.0000000000000E+00
(PID.TID 0000.0001) %MON forcing_empmr_mean           =   0.0000000000000E+00
(PID.TID 0000.0001) %MON forcing_empmr_sd             =   0.0000000000000E+00
(PID.TID 0000.0001) %MON forcing_empmr_del2           =   0.0000000000000E+00
(PID.TID 0000.0001) %MON forcing_fu_max               =   0.0000000000000E+00
(PID.TID 0000.0001) %MON forcing_fu_min               =   0.0000000000000E+00
(PID.TID 0000.0001) %MON forcing_fu_mean              =   0.0000000000000E+00
(PID.TID 0000.0001) %MON forcing_fu_sd                =   0.0000000000000E+00
(PID.TID 0000.0001) %MON forcing_fu_del2              =   0.0000000000000E+00
(PID.TID 0000.0001) %MON forcing_fv_max               =   0.0000000000000E+00
(PID.TID 0000.0001) %MON forcing_fv_min               =   0.0000000000000E+00
(PID.TID 0000.0001) %MON forcing_fv_mean              =   0.0000000000000E+00
(PID.TID 0000.0001) %MON forcing_fv_sd                =   0.0000000000000E+00
(PID.TID 0000.0001) %MON forcing_fv_del2              =   0.0000000000000E+00
(PID.TID 0000.0001) %MON advcfl_uvel_max              =   7.2182846172454E-02
(PID.TID 0000.0001) %MON advcfl_vvel_max              =   0.0000000000000E+00
(PID.TID 0000.0001) %MON advcfl_wvel_max              =   4.5897371846614E-01
(PID.TID 0000.0001) %MON advcfl_W_hf_max              =   4.6549531428094E-01
(PID.TID 0000.0001) %MON pe_b_mean                    =   5.9598817105697E-07
(PID.TID 0000.0001) %MON ke_max                       =   4.6380806485470E-01
(PID.TID 0000.0001) %MON ke_mean                      =   6.0287384581870E-03
(PID.TID 0000.0001) %MON ke_vol                       =   8.5336562999261E+10
(PID.TID 0000.0001) %MON vort_r_min                   =   0.0000000000000E+00
(PID.TID 0000.0001) %MON vort_r_max                   =   0.0000000000000E+00
(PID.TID 0000.0001) %MON vort_a_mean                  =   0.0000000000000E+00
(PID.TID 0000.0001) %MON vort_a_sd                    =   0.0000000000000E+00
(PID.TID 0000.0001) %MON vort_p_mean                  =   0.0000000000000E+00
(PID.TID 0000.0001) %MON vort_p_sd                    =   0.0000000000000E+00
(PID.TID 0000.0001) %MON surfExpan_theta_mean         =  -3.3645558633307E-13
(PID.TID 0000.0001) %MON surfExpan_salt_mean          =   4.1323330257828E-18
(PID.TID 0000.0001) // =======================================================
(PID.TID 0000.0001) // End MONITOR dynamic field statistics
(PID.TID 0000.0001) // =======================================================
(PID.TID 0000.0001) // =======================================================
(PID.TID 0000.0001) // Begin OBCS MONITOR field statistics
(PID.TID 0000.0001) // =======================================================
(PID.TID 0000.0001) %MON obc_E_uVel_max               =   0.0000000000000E+00
(PID.TID 0000.0001) %MON obc_E_uVel_min               =   0.0000000000000E+00
(PID.TID 0000.0001) %MON obc_E_uVel_mean              =   0.0000000000000E+00
(PID.TID 0000.0001) %MON obc_E_uVel_sd                =   0.0000000000000E+00
(PID.TID 0000.0001) %MON obc_E_uVel_Int               =   0.0000000000000E+00
(PID.TID 0000.0001) %MON obc_W_uVel_max               =   0.0000000000000E+00
(PID.TID 0000.0001) %MON obc_W_uVel_min               =   0.0000000000000E+00
(PID.TID 0000.0001) %MON obc_W_uVel_mean              =   0.0000000000000E+00
(PID.TID 0000.0001) %MON obc_W_uVel_sd                =   0.0000000000000E+00
(PID.TID 0000.0001) %MON obc_W_uVel_Int               =   0.0000000000000E+00
(PID.TID 0000.0001) // =======================================================
(PID.TID 0000.0001) // End OBCS MONITOR field statistics
(PID.TID 0000.0001) // =======================================================
 cg2d: Sum(rhs),rhsMax =  -8.59784465845337E-12  1.91270184195827E-01
 cg2d: Sum(rhs),rhsMax =  -8.59862181457061E-12  1.90164387586176E-01
 cg2d: Sum(rhs),rhsMax =  -8.61771765059416E-12  1.89015332725487E-01
 cg2d: Sum(rhs),rhsMax =  -8.67372840218650E-12  1.87829443736051E-01
 cg2d: Sum(rhs),rhsMax =  -8.81350548098681E-12  1.86605290679112E-01
 cg2d: Sum(rhs),rhsMax =  -8.90215678950312E-12  1.85350308624218E-01
 cg2d: Sum(rhs),rhsMax =  -8.99924579300659E-12  1.84020275007002E-01
 cg2d: Sum(rhs),rhsMax =  -8.99208485449776E-12  1.82700539132983E-01
 cg2d: Sum(rhs),rhsMax =  -9.05431285502800E-12  1.81355976372637E-01
 cg2d: Sum(rhs),rhsMax =  -9.12253605989122E-12  1.79985054973757E-01
 cg2d: Sum(rhs),rhsMax =  -9.19025966439335E-12  1.78533170590801E-01
 cg2d: Sum(rhs),rhsMax =  -9.27441456965994E-12  1.77106154355147E-01
 cg2d: Sum(rhs),rhsMax =  -9.34580191014334E-12  1.75662333306458E-01
 cg2d: Sum(rhs),rhsMax =  -9.41430267076271E-12  1.74192128697134E-01
 cg2d: Sum(rhs),rhsMax =  -9.49268441630124E-12  1.72636093881718E-01
 cg2d: Sum(rhs),rhsMax =  -9.57384171940134E-12  1.71094122488502E-01
 cg2d: Sum(rhs),rhsMax =  -9.62346868860209E-12  1.69565261298743E-01
 cg2d: Sum(rhs),rhsMax =  -9.68064517437028E-12  1.68019512093536E-01
 cg2d: Sum(rhs),rhsMax =  -9.73182645580550E-12  1.66456679157320E-01
 cg2d: Sum(rhs),rhsMax =  -9.82064429777552E-12  1.64803527328111E-01
 cg2d: Sum(rhs),rhsMax =  -9.89958115482636E-12  1.63138654739489E-01
 cg2d: Sum(rhs),rhsMax =  -1.00054964313756E-11  1.61526010209831E-01
 cg2d: Sum(rhs),rhsMax =  -1.00482400178237E-11  1.59902932282053E-01
 cg2d: Sum(rhs),rhsMax =  -1.01116892636810E-11  1.58276844270854E-01
 cg2d: Sum(rhs),rhsMax =  -9.98279237052202E-12  1.59675073877985E-01
 cg2d: Sum(rhs),rhsMax =  -9.81065229055389E-12  1.61902536674560E-01
 cg2d: Sum(rhs),rhsMax =  -9.60564960905685E-12  1.64018332114309E-01
 cg2d: Sum(rhs),rhsMax =  -9.44766487265269E-12  1.66094690642642E-01
 cg2d: Sum(rhs),rhsMax =  -9.28251919773970E-12  1.68116973843717E-01
 cg2d: Sum(rhs),rhsMax =  -9.13302766747393E-12  1.70096747751906E-01
 cg2d: Sum(rhs),rhsMax =  -8.98975338614605E-12  1.72020541989159E-01
 cg2d: Sum(rhs),rhsMax =  -8.85413964368809E-12  1.73895264689943E-01
 cg2d: Sum(rhs),rhsMax =  -8.71464012064394E-12  1.75712533119865E-01
 cg2d: Sum(rhs),rhsMax =  -8.53173087733694E-12  1.77474152783573E-01
 cg2d: Sum(rhs),rhsMax =  -8.43786152060488E-12  1.79180590961214E-01
 cg2d: Sum(rhs),rhsMax =  -8.35609359484124E-12  1.80830886706449E-01
 cg2d: Sum(rhs),rhsMax =  -8.26966273237417E-12  1.82467488995732E-01
 cg2d: Sum(rhs),rhsMax =  -8.17956813392584E-12  1.83977916470742E-01
 cg2d: Sum(rhs),rhsMax =  -8.06998912139534E-12  1.85439549923015E-01
 cg2d: Sum(rhs),rhsMax =  -7.99471600032575E-12  1.86857245636435E-01
 cg2d: Sum(rhs),rhsMax =  -7.92882426381425E-12  1.88223731449665E-01
 cg2d: Sum(rhs),rhsMax =  -7.86981591005542E-12  1.89534792633428E-01
 cg2d: Sum(rhs),rhsMax =  -7.78871411810655E-12  1.90786020052862E-01
 cg2d: Sum(rhs),rhsMax =  -7.72398811577091E-12  1.91977940055481E-01
 cg2d: Sum(rhs),rhsMax =  -7.68674013329473E-12  1.93114527115245E-01
 cg2d: Sum(rhs),rhsMax =  -7.60885798811728E-12  1.94194866832656E-01
 cg2d: Sum(rhs),rhsMax =  -7.56777973620615E-12  1.95217623519643E-01
 cg2d: Sum(rhs),rhsMax =  -7.59214913159667E-12  1.96182858868649E-01
 cg2d: Sum(rhs),rhsMax =  -7.53563877964325E-12  1.97091820258833E-01
 cg2d: Sum(rhs),rhsMax =  -7.58437757042429E-12  1.97949081067921E-01
 cg2d: Sum(rhs),rhsMax =  -7.55340234803725E-12  1.98752051251360E-01
 cg2d: Sum(rhs),rhsMax =  -7.45647987798748E-12  1.99499285695825E-01
 cg2d: Sum(rhs),rhsMax =  -7.37770955439032E-12  2.00191984905382E-01
 cg2d: Sum(rhs),rhsMax =  -7.30454585706752E-12  2.00829170433099E-01
 cg2d: Sum(rhs),rhsMax =  -7.24953430619735E-12  2.01415996690702E-01
 cg2d: Sum(rhs),rhsMax =  -7.21428472516550E-12  2.01946199071172E-01
 cg2d: Sum(rhs),rhsMax =  -7.16726678007262E-12  2.02420702501628E-01
 cg2d: Sum(rhs),rhsMax =  -7.10775882595271E-12  2.02838137479723E-01
 cg2d: Sum(rhs),rhsMax =  -7.06551483986573E-12  2.03198841313362E-01
 cg2d: Sum(rhs),rhsMax =  -7.05757674523966E-12  2.03505666346189E-01
 cg2d: Sum(rhs),rhsMax =  -7.01994018470486E-12  2.03759291009518E-01
 cg2d: Sum(rhs),rhsMax =  -6.96714907988394E-12  2.03957304338754E-01
 cg2d: Sum(rhs),rhsMax =  -6.93722856937029E-12  2.04101929200781E-01
 cg2d: Sum(rhs),rhsMax =  -6.90192347718721E-12  2.04195626222464E-01
 cg2d: Sum(rhs),rhsMax =  -6.88366030843213E-12  2.04241232368039E-01
 cg2d: Sum(rhs),rhsMax =  -6.86772860802876E-12  2.04236296695446E-01
 cg2d: Sum(rhs),rhsMax =  -6.87716550373807E-12  2.04180380066121E-01
 cg2d: Sum(rhs),rhsMax =  -6.87250256703464E-12  2.04074255792739E-01
 cg2d: Sum(rhs),rhsMax =  -6.86550816197951E-12  2.03916559250311E-01
 cg2d: Sum(rhs),rhsMax =  -6.86667389615536E-12  2.03712913068053E-01
 cg2d: Sum(rhs),rhsMax =  -6.87616630301591E-12  2.03457727978926E-01
 cg2d: Sum(rhs),rhsMax =  -6.87816470446023E-12  2.03151270955691E-01
 cg2d: Sum(rhs),rhsMax =  -6.87022660983416E-12  2.02800145423678E-01
 cg2d: Sum(rhs),rhsMax =  -6.87211398897603E-12  2.02393222565929E-01
 cg2d: Sum(rhs),rhsMax =  -6.84652334825842E-12  2.01942081516759E-01
 cg2d: Sum(rhs),rhsMax =  -6.82781609029348E-12  2.01447973785845E-01
 cg2d: Sum(rhs),rhsMax =  -6.81416034709059E-12  2.00916361323771E-01
 cg2d: Sum(rhs),rhsMax =  -6.75215439116528E-12  2.00343018030995E-01
 cg2d: Sum(rhs),rhsMax =  -6.67449429059275E-12  1.99727396243938E-01
 cg2d: Sum(rhs),rhsMax =  -6.63924470956090E-12  1.99073972036410E-01
 cg2d: Sum(rhs),rhsMax =  -6.61604104834623E-12  1.98383466451243E-01
 cg2d: Sum(rhs),rhsMax =  -6.61865007245410E-12  1.97653863440855E-01
 cg2d: Sum(rhs),rhsMax =  -6.60393961737782E-12  1.96887834286379E-01
 cg2d: Sum(rhs),rhsMax =  -6.56968923706813E-12  1.96086253297670E-01
 cg2d: Sum(rhs),rhsMax =  -6.54692966506332E-12  1.95249185764656E-01
 cg2d: Sum(rhs),rhsMax =  -6.50546283509357E-12  1.94377551864421E-01
 cg2d: Sum(rhs),rhsMax =  -6.45261621912141E-12  1.93469205009049E-01
 cg2d: Sum(rhs),rhsMax =  -6.40532071827238E-12  1.92527100067515E-01
 cg2d: Sum(rhs),rhsMax =  -6.35064223430959E-12  1.91550919658925E-01
 cg2d: Sum(rhs),rhsMax =  -6.29629681725419E-12  1.90542008692238E-01
 cg2d: Sum(rhs),rhsMax =  -6.23379126096779E-12  1.89495024172375E-01
 cg2d: Sum(rhs),rhsMax =  -6.16401374387010E-12  1.88425273938906E-01
 cg2d: Sum(rhs),rhsMax =  -6.09229333647932E-12  1.87315451166659E-01
 cg2d: Sum(rhs),rhsMax =  -6.01241278985754E-12  1.86166752476521E-01
 cg2d: Sum(rhs),rhsMax =  -5.93403104431900E-12  1.84983685687481E-01
 cg2d: Sum(rhs),rhsMax =  -5.87380144523308E-12  1.83767798376277E-01
 cg2d: Sum(rhs),rhsMax =  -5.81351633499594E-12  1.82514437682572E-01
 cg2d: Sum(rhs),rhsMax =  -5.75844927297453E-12  1.81223824813928E-01
 cg2d: Sum(rhs),rhsMax =  -5.71820368833187E-12  1.79894718910127E-01
 cg2d: Sum(rhs),rhsMax =  -5.68878277817930E-12  1.78534357150601E-01
 cg2d: Sum(rhs),rhsMax =  -5.64986946116619E-12  1.77136903739429E-01
 cg2d: Sum(rhs),rhsMax =  -5.62605517728798E-12  1.75701779902608E-01
 cg2d: Sum(rhs),rhsMax =  -5.61345414595849E-12  1.74234191378366E-01
 cg2d: Sum(rhs),rhsMax =  -5.62405677584366E-12  1.72728739076640E-01
 cg2d: Sum(rhs),rhsMax =  -5.64281954495982E-12  1.71192444250414E-01
 cg2d: Sum(rhs),rhsMax =  -5.64226443344751E-12  1.69619659599207E-01
 cg2d: Sum(rhs),rhsMax =  -5.64448487949676E-12  1.68021028883461E-01
 cg2d: Sum(rhs),rhsMax =  -5.67790259253798E-12  1.66390311642445E-01
 cg2d: Sum(rhs),rhsMax =  -5.68134428391431E-12  1.64743897448225E-01
 cg2d: Sum(rhs),rhsMax =  -5.69244651416057E-12  1.63081782052288E-01
 cg2d: Sum(rhs),rhsMax =  -5.70921088183240E-12  1.61409022474350E-01
 cg2d: Sum(rhs),rhsMax =  -5.71181990594027E-12  1.59722197114316E-01
 cg2d: Sum(rhs),rhsMax =  -5.73530112291110E-12  1.57944312422735E-01
 cg2d: Sum(rhs),rhsMax =  -5.76017011866270E-12  1.56242584055300E-01
 cg2d: Sum(rhs),rhsMax =  -5.79286618673791E-12  1.54531040498392E-01
 cg2d: Sum(rhs),rhsMax =  -5.75040015604600E-12  1.52817017537685E-01
 cg2d: Sum(rhs),rhsMax =  -5.79430947666992E-12  1.51081837944612E-01
 cg2d: Sum(rhs),rhsMax =  -5.78492809211184E-12  1.49977877726325E-01
 cg2d: Sum(rhs),rhsMax =  -5.72031311207866E-12  1.50780720088217E-01
 cg2d: Sum(rhs),rhsMax =  -5.64026603200318E-12  1.51345415207243E-01
 cg2d: Sum(rhs),rhsMax =  -5.55949730696170E-12  1.51668122698796E-01
 cg2d: Sum(rhs),rhsMax =  -5.47140110995770E-12  1.51757668555974E-01
 cg2d: Sum(rhs),rhsMax =  -5.37958566582120E-12  1.51614152024663E-01
 cg2d: Sum(rhs),rhsMax =  -5.30608890159101E-12  1.51233813944985E-01
 cg2d: Sum(rhs),rhsMax =  -5.18379783542855E-12  1.51496475895961E-01
 cg2d: Sum(rhs),rhsMax =  -5.01299002308997E-12  1.53417504083862E-01
 cg2d: Sum(rhs),rhsMax =  -4.87793139214432E-12  1.55294392755198E-01
 cg2d: Sum(rhs),rhsMax =  -4.77617945193742E-12  1.57092613772554E-01
 cg2d: Sum(rhs),rhsMax =  -4.64206451056270E-12  1.58839856242115E-01
 cg2d: Sum(rhs),rhsMax =  -4.55396831355870E-12  1.60538129792628E-01
 cg2d: Sum(rhs),rhsMax =  -4.48113768314329E-12  1.62176371759399E-01
 cg2d: Sum(rhs),rhsMax =  -4.39948077968211E-12  1.63757716137270E-01
 cg2d: Sum(rhs),rhsMax =  -4.38821201598216E-12  1.65280642532766E-01
 cg2d: Sum(rhs),rhsMax =  -4.27446966710932E-12  1.66743342120177E-01
 cg2d: Sum(rhs),rhsMax =  -4.17549328446398E-12  1.68147692600835E-01
 cg2d: Sum(rhs),rhsMax =  -4.11104483788449E-12  1.69495124419347E-01
 cg2d: Sum(rhs),rhsMax =  -4.02444744196373E-12  1.70788785818461E-01
 cg2d: Sum(rhs),rhsMax =  -3.97165633714280E-12  1.72028077468921E-01
 cg2d: Sum(rhs),rhsMax =  -3.90243393155743E-12  1.73212508391982E-01
 cg2d: Sum(rhs),rhsMax =  -3.84364762240352E-12  1.74510492940261E-01
 cg2d: Sum(rhs),rhsMax =  -3.79618558810080E-12  1.75522888491181E-01
 cg2d: Sum(rhs),rhsMax =  -3.75760533799507E-12  1.76508281104864E-01
 cg2d: Sum(rhs),rhsMax =  -3.70031782992442E-12  1.77476400224087E-01
 cg2d: Sum(rhs),rhsMax =  -3.67950114821269E-12  1.78393909909474E-01
 cg2d: Sum(rhs),rhsMax =  -3.66162655751623E-12  1.79253757539828E-01
 cg2d: Sum(rhs),rhsMax =  -3.62260221820065E-12  1.80068654723416E-01
 cg2d: Sum(rhs),rhsMax =  -3.60556029477266E-12  1.80821013879455E-01
 cg2d: Sum(rhs),rhsMax =  -3.57563978425901E-12  1.81520249355577E-01
 cg2d: Sum(rhs),rhsMax =  -3.51824125388589E-12  1.82168020651823E-01
 cg2d: Sum(rhs),rhsMax =  -3.49048567827026E-12  1.82766996011547E-01
 cg2d: Sum(rhs),rhsMax =  -3.43725048423948E-12  1.83312117288476E-01
 cg2d: Sum(rhs),rhsMax =  -3.40760752948199E-12  1.83806594196148E-01
 cg2d: Sum(rhs),rhsMax =  -3.38767902618997E-12  1.84253824114797E-01
 cg2d: Sum(rhs),rhsMax =  -3.35853567179356E-12  1.84651090132360E-01
 cg2d: Sum(rhs),rhsMax =  -3.32545102565973E-12  1.84997458595898E-01
 cg2d: Sum(rhs),rhsMax =  -3.36097816244774E-12  1.85293936985535E-01
 cg2d: Sum(rhs),rhsMax =  -3.41660033598146E-12  1.85539933167239E-01
 cg2d: Sum(rhs),rhsMax =  -3.47727402427722E-12  1.85747752006517E-01
 cg2d: Sum(rhs),rhsMax =  -3.45046213823252E-12  1.85902030184470E-01
 cg2d: Sum(rhs),rhsMax =  -3.39878125643622E-12  1.86004493653045E-01
 cg2d: Sum(rhs),rhsMax =  -3.36425332037038E-12  1.86058266817818E-01
 cg2d: Sum(rhs),rhsMax =  -3.32939231739715E-12  1.86065076629127E-01
 cg2d: Sum(rhs),rhsMax =  -3.29886118421996E-12  1.86024654460092E-01
 cg2d: Sum(rhs),rhsMax =  -3.25234283948816E-12  1.85937831827771E-01
 cg2d: Sum(rhs),rhsMax =  -3.21681570270016E-12  1.85807584510301E-01
 cg2d: Sum(rhs),rhsMax =  -3.21354054477752E-12  1.85632345337094E-01
 cg2d: Sum(rhs),rhsMax =  -3.19511084256874E-12  1.85414121892388E-01
 cg2d: Sum(rhs),rhsMax =  -3.07115444186934E-12  1.85154210308836E-01
 cg2d: Sum(rhs),rhsMax =  -3.03357339248578E-12  1.84854071573873E-01
 cg2d: Sum(rhs),rhsMax =  -2.96135338473391E-12  1.84509047626569E-01
 cg2d: Sum(rhs),rhsMax =  -2.95624635882064E-12  1.84122224988975E-01
 cg2d: Sum(rhs),rhsMax =  -2.93803870121678E-12  1.83691784948419E-01
 cg2d: Sum(rhs),rhsMax =  -2.91450197309473E-12  1.83219687531455E-01
 cg2d: Sum(rhs),rhsMax =  -2.92016411052032E-12  1.82722549024665E-01
 cg2d: Sum(rhs),rhsMax =  -2.83228995812124E-12  1.82186226091631E-01
 cg2d: Sum(rhs),rhsMax =  -2.79631873212338E-12  1.81612458932329E-01
 cg2d: Sum(rhs),rhsMax =  -2.82096568327006E-12  1.81003640801906E-01
 cg2d: Sum(rhs),rhsMax =  -2.85832468804870E-12  1.80361228588414E-01
 cg2d: Sum(rhs),rhsMax =  -2.90678592307358E-12  1.79685512672868E-01
 cg2d: Sum(rhs),rhsMax =  -2.95496960234232E-12  1.78980548145317E-01
 cg2d: Sum(rhs),rhsMax =  -3.01508817912577E-12  1.78240723848704E-01
 cg2d: Sum(rhs),rhsMax =  -3.01803027014103E-12  1.77470153504044E-01
 cg2d: Sum(rhs),rhsMax =  -2.97911695312791E-12  1.76673413358488E-01
 cg2d: Sum(rhs),rhsMax =  -2.96052071746544E-12  1.75868938361269E-01
 cg2d: Sum(rhs),rhsMax =  -2.96662694410088E-12  1.75034706116256E-01
 cg2d: Sum(rhs),rhsMax =  -2.96951352396491E-12  1.74170038088347E-01
 cg2d: Sum(rhs),rhsMax =  -3.04051228638968E-12  1.73282431010086E-01
 cg2d: Sum(rhs),rhsMax =  -3.02258218454199E-12  1.72365892896928E-01
 cg2d: Sum(rhs),rhsMax =  -3.03401748169563E-12  1.71422510565749E-01
 cg2d: Sum(rhs),rhsMax =  -3.05733216521276E-12  1.70445296095009E-01
 cg2d: Sum(rhs),rhsMax =  -3.10168557504653E-12  1.69439957052749E-01
 cg2d: Sum(rhs),rhsMax =  -3.16324744176200E-12  1.68407765773361E-01
 cg2d: Sum(rhs),rhsMax =  -3.20043991308694E-12  1.67350349475834E-01
 cg2d: Sum(rhs),rhsMax =  -3.24751336933105E-12  1.66879150255325E-01
 cg2d: Sum(rhs),rhsMax =  -3.21143112103073E-12  1.69817211591927E-01
 cg2d: Sum(rhs),rhsMax =  -3.16247028564476E-12  1.72546692769749E-01
 cg2d: Sum(rhs),rhsMax =  -3.12028181070900E-12  1.75024279958912E-01
 cg2d: Sum(rhs),rhsMax =  -3.06071834543786E-12  1.77270515993857E-01
 cg2d: Sum(rhs),rhsMax =  -3.02097236115628E-12  1.79240943841126E-01
 cg2d: Sum(rhs),rhsMax =  -2.95502511349355E-12  1.80960613980514E-01
 cg2d: Sum(rhs),rhsMax =  -2.87020407441219E-12  1.82460891266913E-01
 cg2d: Sum(rhs),rhsMax =  -2.81469292318093E-12  1.83695638700273E-01
 cg2d: Sum(rhs),rhsMax =  -2.79426481952783E-12  1.84659992909233E-01
 cg2d: Sum(rhs),rhsMax =  -2.78693734756530E-12  1.85366503654229E-01
 cg2d: Sum(rhs),rhsMax =  -2.75929279425213E-12  1.85814231785963E-01
 cg2d: Sum(rhs),rhsMax =  -2.74757994134234E-12  1.86001822694642E-01
 cg2d: Sum(rhs),rhsMax =  -2.73431277619807E-12  1.85963364995079E-01
 cg2d: Sum(rhs),rhsMax =  -2.69695377141943E-12  1.85637577103508E-01
 cg2d: Sum(rhs),rhsMax =  -2.68030042605005E-12  1.85055952840022E-01
 cg2d: Sum(rhs),rhsMax =  -2.68834954297859E-12  1.84234909419959E-01
 cg2d: Sum(rhs),rhsMax =  -2.68796096491997E-12  1.83173184768224E-01
 cg2d: Sum(rhs),rhsMax =  -2.71932476536563E-12  1.81873781517007E-01
 cg2d: Sum(rhs),rhsMax =  -2.74197331506798E-12  1.80333202128024E-01
 cg2d: Sum(rhs),rhsMax =  -2.78205236625695E-12  1.78549558017700E-01
 cg2d: Sum(rhs),rhsMax =  -2.87342372118360E-12  1.76564116818019E-01
 cg2d: Sum(rhs),rhsMax =  -2.94159141489558E-12  1.74362001656260E-01
 cg2d: Sum(rhs),rhsMax =  -3.00764968486078E-12  1.71929321786391E-01
 cg2d: Sum(rhs),rhsMax =  -3.12300185711933E-12  1.69323385781885E-01
 cg2d: Sum(rhs),rhsMax =  -3.22564197574593E-12  1.66507343994073E-01
 cg2d: Sum(rhs),rhsMax =  -3.32073257780507E-12  1.63530112770861E-01
 cg2d: Sum(rhs),rhsMax =  -3.51102480422583E-12  1.60421449726235E-01
 cg2d: Sum(rhs),rhsMax =  -3.62398999698144E-12  1.57104748183713E-01
 cg2d: Sum(rhs),rhsMax =  -3.70059538568057E-12  1.53630097840955E-01
 cg2d: Sum(rhs),rhsMax =  -3.76881859054379E-12  1.50026632582748E-01
 cg2d: Sum(rhs),rhsMax =  -3.78341802331761E-12  1.49453540677480E-01
 cg2d: Sum(rhs),rhsMax =  -3.72712971596911E-12  1.51433810960841E-01
 cg2d: Sum(rhs),rhsMax =  -3.72346597998785E-12  1.53141095871093E-01
 cg2d: Sum(rhs),rhsMax =  -3.69670960509438E-12  1.54550966716670E-01
 cg2d: Sum(rhs),rhsMax =  -3.66912056293245E-12  1.55651401632787E-01
 cg2d: Sum(rhs),rhsMax =  -3.62682106569423E-12  1.56490773043634E-01
 cg2d: Sum(rhs),rhsMax =  -3.61183305486179E-12  1.57019401502965E-01
 cg2d: Sum(rhs),rhsMax =  -3.70231623136874E-12  1.57228751096403E-01
 cg2d: Sum(rhs),rhsMax =  -3.76310094196697E-12  1.57169618000429E-01
 cg2d: Sum(rhs),rhsMax =  -3.82766041084892E-12  1.56817635360804E-01
 cg2d: Sum(rhs),rhsMax =  -3.87617715702504E-12  1.56121503584581E-01
 cg2d: Sum(rhs),rhsMax =  -3.84464682312569E-12  1.57487979836241E-01
 cg2d: Sum(rhs),rhsMax =  -3.83221232524988E-12  1.58883011763177E-01
 cg2d: Sum(rhs),rhsMax =  -3.83726384001193E-12  1.60231767995184E-01
 cg2d: Sum(rhs),rhsMax =  -3.79885012335990E-12  1.63543323148414E-01
 cg2d: Sum(rhs),rhsMax =  -3.74367203903603E-12  1.66963560962867E-01
 cg2d: Sum(rhs),rhsMax =  -3.69543284861606E-12  1.70160690593484E-01
 cg2d: Sum(rhs),rhsMax =  -3.65080188302613E-12  1.73124281799379E-01
 cg2d: Sum(rhs),rhsMax =  -3.60306229296725E-12  1.75864569000641E-01
 cg2d: Sum(rhs),rhsMax =  -3.57741614109841E-12  1.78400658358344E-01
 cg2d: Sum(rhs),rhsMax =  -3.57452956123439E-12  1.80673213556095E-01
 cg2d: Sum(rhs),rhsMax =  -3.55476759139606E-12  1.82704284729429E-01
 cg2d: Sum(rhs),rhsMax =  -3.55987461730933E-12  1.84492106016620E-01
 cg2d: Sum(rhs),rhsMax =  -3.54993812123894E-12  1.86061803234766E-01
 cg2d: Sum(rhs),rhsMax =  -3.56692453351570E-12  1.87364958253254E-01
 cg2d: Sum(rhs),rhsMax =  -3.59112739545253E-12  1.88430121635352E-01
 cg2d: Sum(rhs),rhsMax =  -3.61888297106816E-12  1.89250038677954E-01
 cg2d: Sum(rhs),rhsMax =  -3.70919961412142E-12  1.89844055421242E-01
 cg2d: Sum(rhs),rhsMax =  -3.72785136093512E-12  1.90172530309400E-01
 cg2d: Sum(rhs),rhsMax =  -3.73279185339470E-12  1.90243950093419E-01
 cg2d: Sum(rhs),rhsMax =  -3.76837450133394E-12  1.90049304697723E-01
 cg2d: Sum(rhs),rhsMax =  -3.82510689789228E-12  1.89676964348562E-01
 cg2d: Sum(rhs),rhsMax =  -3.86768395088666E-12  1.89044873500913E-01
 cg2d: Sum(rhs),rhsMax =  -3.90387722148944E-12  1.88167067874255E-01
 cg2d: Sum(rhs),rhsMax =  -3.96221944143349E-12  1.87106984250263E-01
 cg2d: Sum(rhs),rhsMax =  -4.00263155952985E-12  1.85812251829104E-01
 cg2d: Sum(rhs),rhsMax =  -4.06130684638129E-12  1.84294718645688E-01
 cg2d: Sum(rhs),rhsMax =  -4.10099731951163E-12  1.82621895823748E-01
 cg2d: Sum(rhs),rhsMax =  -4.16960910243347E-12  1.80723520863876E-01
 cg2d: Sum(rhs),rhsMax =  -4.22917256770461E-12  1.79276445688679E-01
 cg2d: Sum(rhs),rhsMax =  -4.21712664788743E-12  1.79410933364502E-01
 cg2d: Sum(rhs),rhsMax =  -4.23089341339278E-12  1.79509991316636E-01
 cg2d: Sum(rhs),rhsMax =  -4.25914858936949E-12  1.79667274541932E-01
 cg2d: Sum(rhs),rhsMax =  -4.25981472318426E-12  1.79669937233430E-01
 cg2d: Sum(rhs),rhsMax =  -4.27474722286547E-12  1.79637936520987E-01
 cg2d: Sum(rhs),rhsMax =  -4.29711821681167E-12  1.79579985180683E-01
 cg2d: Sum(rhs),rhsMax =  -4.31843449888447E-12  1.79489181111910E-01
 cg2d: Sum(rhs),rhsMax =  -4.35235181228677E-12  1.79363564856617E-01
 cg2d: Sum(rhs),rhsMax =  -4.38654668144522E-12  1.79202926818510E-01
 cg2d: Sum(rhs),rhsMax =  -4.40186775918505E-12  1.79006454943237E-01
 cg2d: Sum(rhs),rhsMax =  -4.41563452469040E-12  1.78775462481435E-01
 cg2d: Sum(rhs),rhsMax =  -4.44888570427793E-12  1.78510017466513E-01
 cg2d: Sum(rhs),rhsMax =  -4.49934534074714E-12  1.78208594175518E-01
 cg2d: Sum(rhs),rhsMax =  -4.51960691094655E-12  1.77871203927113E-01
 cg2d: Sum(rhs),rhsMax =  -4.54886128764542E-12  1.77498054282701E-01
 cg2d: Sum(rhs),rhsMax =  -4.58733051544868E-12  1.77241926216616E-01
 cg2d: Sum(rhs),rhsMax =  -4.64145388789916E-12  1.76763362313515E-01
 cg2d: Sum(rhs),rhsMax =  -4.67109684265665E-12  1.76250222264968E-01
 cg2d: Sum(rhs),rhsMax =  -4.72960559605440E-12  1.75733793341272E-01
 cg2d: Sum(rhs),rhsMax =  -4.74742467559963E-12  1.75196408646407E-01
 cg2d: Sum(rhs),rhsMax =  -4.80249173762104E-12  1.74629469243324E-01
 cg2d: Sum(rhs),rhsMax =  -4.86094497986755E-12  1.74042171303525E-01
 cg2d: Sum(rhs),rhsMax =  -4.93011187430170E-12  1.73447697166074E-01
 cg2d: Sum(rhs),rhsMax =  -5.02031749505250E-12  1.72798513016492E-01
 cg2d: Sum(rhs),rhsMax =  -5.10841369205650E-12  1.72115947550997E-01
 cg2d: Sum(rhs),rhsMax =  -5.19617682215312E-12  1.71410687440141E-01
 cg2d: Sum(rhs),rhsMax =  -5.26684251767051E-12  1.70690284550251E-01
 cg2d: Sum(rhs),rhsMax =  -5.34677857544352E-12  1.69939964121821E-01
 cg2d: Sum(rhs),rhsMax =  -5.40933964288115E-12  1.69167848205784E-01
 cg2d: Sum(rhs),rhsMax =  -5.35643751575776E-12  1.71224533325407E-01
 cg2d: Sum(rhs),rhsMax =  -5.33922905887607E-12  1.73266906801609E-01
 cg2d: Sum(rhs),rhsMax =  -5.31330535125107E-12  1.75093206047361E-01
 cg2d: Sum(rhs),rhsMax =  -5.28738164362608E-12  1.76673695526204E-01
 cg2d: Sum(rhs),rhsMax =  -5.30020471956050E-12  1.78056451570713E-01
 cg2d: Sum(rhs),rhsMax =  -5.28604937599653E-12  1.79223854759317E-01
 cg2d: Sum(rhs),rhsMax =  -5.31130694980675E-12  1.80170447738503E-01
 cg2d: Sum(rhs),rhsMax =  -5.34378097327703E-12  1.80898723306257E-01
 cg2d: Sum(rhs),rhsMax =  -5.29010169003641E-12  1.81391025591379E-01
 cg2d: Sum(rhs),rhsMax =  -5.33262323187955E-12  1.81667509905468E-01
 cg2d: Sum(rhs),rhsMax =  -5.35588240424545E-12  1.81729106737477E-01
 cg2d: Sum(rhs),rhsMax =  -5.37830890934288E-12  1.81577473275148E-01
 cg2d: Sum(rhs),rhsMax =  -5.40878453136884E-12  1.81205678029678E-01
 cg2d: Sum(rhs),rhsMax =  -5.46734879591781E-12  1.80615701617013E-01
 cg2d: Sum(rhs),rhsMax =  -5.52230483563676E-12  1.80012614260051E-01
 cg2d: Sum(rhs),rhsMax =  -5.56571455589960E-12  1.79047593897820E-01
 cg2d: Sum(rhs),rhsMax =  -5.61606317006635E-12  1.78097660197001E-01
 cg2d: Sum(rhs),rhsMax =  -5.69932989691324E-12  1.76843714653484E-01
 cg2d: Sum(rhs),rhsMax =  -5.77743408669562E-12  1.75297405462211E-01
 cg2d: Sum(rhs),rhsMax =  -5.83177950375102E-12  1.73497646207777E-01
 cg2d: Sum(rhs),rhsMax =  -5.89744919565760E-12  1.71570669948760E-01
 cg2d: Sum(rhs),rhsMax =  -5.97644156385968E-12  1.69479352125054E-01
 cg2d: Sum(rhs),rhsMax =  -6.07841554867150E-12  1.67160129087214E-01
 cg2d: Sum(rhs),rhsMax =  -6.18172180111287E-12  1.64757015716322E-01
 cg2d: Sum(rhs),rhsMax =  -6.28752605535965E-12  1.62223220428695E-01
 cg2d: Sum(rhs),rhsMax =  -6.40698605280932E-12  1.59488561299446E-01
 cg2d: Sum(rhs),rhsMax =  -6.53027631969394E-12  1.56683236981433E-01
 cg2d: Sum(rhs),rhsMax =  -6.65367760888103E-12  1.53730042237114E-01
 cg2d: Sum(rhs),rhsMax =  -6.80433487332266E-12  1.50682811363717E-01
 cg2d: Sum(rhs),rhsMax =  -6.96753765794256E-12  1.47573235771777E-01
 cg2d: Sum(rhs),rhsMax =  -7.13562542387081E-12  1.44313685876643E-01
 cg2d: Sum(rhs),rhsMax =  -7.30870919340987E-12  1.40997368335650E-01
 cg2d: Sum(rhs),rhsMax =  -7.51765316664432E-12  1.37379308648468E-01
 cg2d: Sum(rhs),rhsMax =  -7.66980923216920E-12  1.33910375010129E-01
 cg2d: Sum(rhs),rhsMax =  -7.92227394796896E-12  1.30375242209283E-01
 cg2d: Sum(rhs),rhsMax =  -7.94275756277329E-12  1.30709069142843E-01
 cg2d: Sum(rhs),rhsMax =  -7.87364617949038E-12  1.32576482783967E-01
 cg2d: Sum(rhs),rhsMax =  -7.84056153335655E-12  1.34400058959126E-01
 cg2d: Sum(rhs),rhsMax =  -7.79265540984397E-12  1.36158454089694E-01
 cg2d: Sum(rhs),rhsMax =  -7.71482877581775E-12  1.37912671719913E-01
 cg2d: Sum(rhs),rhsMax =  -7.67780283794650E-12  1.39614015208338E-01
 cg2d: Sum(rhs),rhsMax =  -7.65770780120079E-12  1.41281422935285E-01
 cg2d: Sum(rhs),rhsMax =  -7.60058682658382E-12  1.43221744743678E-01
 cg2d: Sum(rhs),rhsMax =  -7.45087325171312E-12  1.46380034134864E-01
 cg2d: Sum(rhs),rhsMax =  -7.31831262257288E-12  1.49359813232700E-01
 cg2d: Sum(rhs),rhsMax =  -7.19324599884885E-12  1.52171116446305E-01
 cg2d: Sum(rhs),rhsMax =  -7.06140701467461E-12  1.54814889774023E-01
 cg2d: Sum(rhs),rhsMax =  -6.96065427518988E-12  1.57271317036844E-01
 cg2d: Sum(rhs),rhsMax =  -6.87938594978732E-12  1.59536250797814E-01
 cg2d: Sum(rhs),rhsMax =  -6.89676094012270E-12  1.61457953196771E-01
 cg2d: Sum(rhs),rhsMax =  -6.84730050437565E-12  1.63304085768992E-01
 cg2d: Sum(rhs),rhsMax =  -6.78590517111388E-12  1.64980580825385E-01
 cg2d: Sum(rhs),rhsMax =  -6.84863277200520E-12  1.66464580503770E-01
 cg2d: Sum(rhs),rhsMax =  -6.78312961355232E-12  1.67772130085927E-01
 cg2d: Sum(rhs),rhsMax =  -6.76497746709970E-12  1.68927971838740E-01
 cg2d: Sum(rhs),rhsMax =  -6.85101975150815E-12  1.69902985327589E-01
 cg2d: Sum(rhs),rhsMax =  -6.83120227051859E-12  1.70691454396333E-01
 cg2d: Sum(rhs),rhsMax =  -6.82132128559942E-12  1.71294448951074E-01
 cg2d: Sum(rhs),rhsMax =  -6.80305811684434E-12  1.71710160094481E-01
 cg2d: Sum(rhs),rhsMax =  -6.80427936217143E-12  1.71950034589476E-01
 cg2d: Sum(rhs),rhsMax =  -6.81665834889600E-12  1.71953973047317E-01
 cg2d: Sum(rhs),rhsMax =  -6.80716594203545E-12  1.71761917481576E-01
 cg2d: Sum(rhs),rhsMax =  -6.79262202041286E-12  1.71379360023906E-01
 cg2d: Sum(rhs),rhsMax =  -6.79029055206115E-12  1.70782545001062E-01
 cg2d: Sum(rhs),rhsMax =  -6.89831525235718E-12  1.69988943648710E-01
 cg2d: Sum(rhs),rhsMax =  -6.96853685866472E-12  1.68859262062403E-01
 cg2d: Sum(rhs),rhsMax =  -6.95576929388153E-12  1.69353566325435E-01
 cg2d: Sum(rhs),rhsMax =  -6.95660196115000E-12  1.69961742733108E-01
 cg2d: Sum(rhs),rhsMax =  -6.93528567907720E-12  1.70499552119264E-01
 cg2d: Sum(rhs),rhsMax =  -6.90042467610397E-12  1.70995769369511E-01
 cg2d: Sum(rhs),rhsMax =  -6.88060719511441E-12  1.71460719623922E-01
 cg2d: Sum(rhs),rhsMax =  -6.91408041930686E-12  1.71884174916647E-01
 cg2d: Sum(rhs),rhsMax =  -7.01461111418666E-12  1.72268208025286E-01
 cg2d: Sum(rhs),rhsMax =  -7.03453961747869E-12  1.72618069467904E-01
 cg2d: Sum(rhs),rhsMax =  -7.04669655959833E-12  1.72930084320410E-01
 cg2d: Sum(rhs),rhsMax =  -7.07650604780952E-12  1.73204975895647E-01
 cg2d: Sum(rhs),rhsMax =  -7.11464220870539E-12  1.73444390561570E-01
 cg2d: Sum(rhs),rhsMax =  -7.15044690124955E-12  1.73807065556549E-01
 cg2d: Sum(rhs),rhsMax =  -7.18952675171636E-12  1.73962799754182E-01
 cg2d: Sum(rhs),rhsMax =  -7.34634575394466E-12  1.74063396381731E-01
 cg2d: Sum(rhs),rhsMax =  -7.40590921921580E-12  1.74148678427360E-01
 cg2d: Sum(rhs),rhsMax =  -7.53058726488121E-12  1.74221439558251E-01
 cg2d: Sum(rhs),rhsMax =  -7.66847696453965E-12  1.74268952211127E-01
 cg2d: Sum(rhs),rhsMax =  -7.68196617428885E-12  1.74298975959411E-01
 cg2d: Sum(rhs),rhsMax =  -7.69467822792080E-12  1.74274369957412E-01
 cg2d: Sum(rhs),rhsMax =  -7.70311592290795E-12  1.74211302799629E-01
 cg2d: Sum(rhs),rhsMax =  -7.70433716823504E-12  1.74117180463962E-01
 cg2d: Sum(rhs),rhsMax =  -7.72859554132310E-12  1.73996500815598E-01
 cg2d: Sum(rhs),rhsMax =  -7.73714425861272E-12  1.73845985483710E-01
 cg2d: Sum(rhs),rhsMax =  -7.74863506691759E-12  1.73664247769934E-01
 cg2d: Sum(rhs),rhsMax =  -7.76090303133969E-12  1.73432428237584E-01
 cg2d: Sum(rhs),rhsMax =  -7.76029240867615E-12  1.73192905664829E-01
 cg2d: Sum(rhs),rhsMax =  -7.77877762203616E-12  1.72914682434101E-01
 cg2d: Sum(rhs),rhsMax =  -7.79826203611833E-12  1.72619158276529E-01
 cg2d: Sum(rhs),rhsMax =  -7.78388464794944E-12  1.72280613400506E-01
 cg2d: Sum(rhs),rhsMax =  -7.81924525128375E-12  1.71889734383204E-01
 cg2d: Sum(rhs),rhsMax =  -7.85677078951608E-12  1.71487386483100E-01
 cg2d: Sum(rhs),rhsMax =  -7.89290854896763E-12  1.71061613800997E-01
 cg2d: Sum(rhs),rhsMax =  -7.93526355735708E-12  1.70598595922183E-01
 cg2d: Sum(rhs),rhsMax =  -7.99921240357548E-12  1.70110866822455E-01
 cg2d: Sum(rhs),rhsMax =  -8.04067923354523E-12  1.69600396092791E-01
 cg2d: Sum(rhs),rhsMax =  -8.09752265240604E-12  1.69054461213933E-01
 cg2d: Sum(rhs),rhsMax =  -8.15919554142397E-12  1.68492381400643E-01
 cg2d: Sum(rhs),rhsMax =  -8.24168511215362E-12  1.67900253438689E-01
 cg2d: Sum(rhs),rhsMax =  -8.38518143808642E-12  1.67289618214521E-01
 cg2d: Sum(rhs),rhsMax =  -8.52645731796997E-12  1.66660543051725E-01
 cg2d: Sum(rhs),rhsMax =  -8.68310978674458E-12  1.66008559188543E-01
 cg2d: Sum(rhs),rhsMax =  -8.81306139177696E-12  1.65338359323888E-01
 cg2d: Sum(rhs),rhsMax =  -8.91026141758289E-12  1.64647974178075E-01
 cg2d: Sum(rhs),rhsMax =  -8.87917517289338E-12  1.63938709123469E-01
 cg2d: Sum(rhs),rhsMax =  -8.91475782083262E-12  1.63217136289736E-01
 cg2d: Sum(rhs),rhsMax =  -8.94256890759948E-12  1.62474770346976E-01
 cg2d: Sum(rhs),rhsMax =  -8.94273544105317E-12  1.61712755797226E-01
 cg2d: Sum(rhs),rhsMax =  -8.93213281116800E-12  1.60930208814435E-01
 cg2d: Sum(rhs),rhsMax =  -8.93085605468968E-12  1.60133324278860E-01
 cg2d: Sum(rhs),rhsMax =  -8.93468632412464E-12  1.59316249121150E-01
 cg2d: Sum(rhs),rhsMax =  -8.91675622227694E-12  1.58475197836347E-01
 cg2d: Sum(rhs),rhsMax =  -8.95145069179648E-12  1.57617905610743E-01
 cg2d: Sum(rhs),rhsMax =  -8.97526497567469E-12  1.56745645348139E-01
 cg2d: Sum(rhs),rhsMax =  -8.98631169476971E-12  1.55854236157230E-01
 cg2d: Sum(rhs),rhsMax =  -9.00013397142629E-12  1.54949586406440E-01
 cg2d: Sum(rhs),rhsMax =  -9.03943586649802E-12  1.54032902672040E-01
 cg2d: Sum(rhs),rhsMax =  -9.09033959217709E-12  1.53101707469583E-01
 cg2d: Sum(rhs),rhsMax =  -9.16827724850577E-12  1.52153600329434E-01
 cg2d: Sum(rhs),rhsMax =  -9.25565180054377E-12  1.51190585163770E-01
 cg2d: Sum(rhs),rhsMax =  -9.35335142671079E-12  1.50211046358414E-01
 cg2d: Sum(rhs),rhsMax =  -9.44877509567732E-12  1.49210372213264E-01
 cg2d: Sum(rhs),rhsMax =  -9.53814804915964E-12  1.48194806135061E-01
 cg2d: Sum(rhs),rhsMax =  -9.63346069582371E-12  1.47165965989921E-01
 cg2d: Sum(rhs),rhsMax =  -9.73754410438232E-12  1.46121843914636E-01
 cg2d: Sum(rhs),rhsMax =  -9.84140546833601E-12  1.45057507643658E-01
 cg2d: Sum(rhs),rhsMax =  -9.93372051283359E-12  1.43985880039643E-01
 cg2d: Sum(rhs),rhsMax =  -9.99927918243770E-12  1.42906424716557E-01
 cg2d: Sum(rhs),rhsMax =  -1.00697228333502E-11  1.41819607328580E-01
 cg2d: Sum(rhs),rhsMax =  -1.01054720147431E-11  1.40725075898403E-01
 cg2d: Sum(rhs),rhsMax =  -1.01261221630011E-11  1.39623231442935E-01
 cg2d: Sum(rhs),rhsMax =  -1.01537112051631E-11  1.38516092753652E-01
 cg2d: Sum(rhs),rhsMax =  -1.01724184631280E-11  1.37383587195763E-01
 cg2d: Sum(rhs),rhsMax =  -1.02352015751705E-11  1.36259418771389E-01
 cg2d: Sum(rhs),rhsMax =  -1.02652331079867E-11  1.35133978191898E-01
 cg2d: Sum(rhs),rhsMax =  -1.03162478559682E-11  1.34004589344816E-01
 cg2d: Sum(rhs),rhsMax =  -1.03601571765921E-11  1.32874608742403E-01
 cg2d: Sum(rhs),rhsMax =  -1.04145581047987E-11  1.31748596504557E-01
 cg2d: Sum(rhs),rhsMax =  -1.04765085495728E-11  1.30618604333757E-01
 cg2d: Sum(rhs),rhsMax =  -1.05676023487433E-11  1.29490105074359E-01
 cg2d: Sum(rhs),rhsMax =  -1.06258335463849E-11  1.28353398795500E-01
 cg2d: Sum(rhs),rhsMax =  -1.07104325408613E-11  1.27212073696169E-01
 cg2d: Sum(rhs),rhsMax =  -1.07685527162005E-11  1.26068602145509E-01
 cg2d: Sum(rhs),rhsMax =  -1.08601461157321E-11  1.24927922677435E-01
 cg2d: Sum(rhs),rhsMax =  -1.09330877684499E-11  1.23783274787968E-01
 cg2d: Sum(rhs),rhsMax =  -1.08386077890543E-11  1.24712390823540E-01
 cg2d: Sum(rhs),rhsMax =  -1.07199249477219E-11  1.26033743963918E-01
 cg2d: Sum(rhs),rhsMax =  -1.05744302203448E-11  1.27231286216090E-01
 cg2d: Sum(rhs),rhsMax =  -1.04563024905246E-11  1.28268576955723E-01
 cg2d: Sum(rhs),rhsMax =  -1.03944630680530E-11  1.29181333020625E-01
 cg2d: Sum(rhs),rhsMax =  -1.03242969728967E-11  1.29979504986487E-01
 cg2d: Sum(rhs),rhsMax =  -1.02906017040993E-11  1.30658364017671E-01
 cg2d: Sum(rhs),rhsMax =  -1.03027031350678E-11  1.31208295515138E-01
 cg2d: Sum(rhs),rhsMax =  -1.02649555522305E-11  1.31619391335226E-01
 cg2d: Sum(rhs),rhsMax =  -1.02323705064578E-11  1.31903554136029E-01
 cg2d: Sum(rhs),rhsMax =  -1.02775010724088E-11  1.32056609474739E-01
 cg2d: Sum(rhs),rhsMax =  -1.02932662393584E-11  1.32097425325233E-01
 cg2d: Sum(rhs),rhsMax =  -1.03128616757431E-11  1.32013035126461E-01
 cg2d: Sum(rhs),rhsMax =  -1.03059782929904E-11  1.31749777806554E-01
 cg2d: Sum(rhs),rhsMax =  -1.03143049656751E-11  1.31345780340518E-01
 cg2d: Sum(rhs),rhsMax =  -1.03270725304583E-11  1.30863184380095E-01
 cg2d: Sum(rhs),rhsMax =  -1.02671759982798E-11  1.31416515645132E-01
 cg2d: Sum(rhs),rhsMax =  -1.01798014462418E-11  1.32373733846595E-01
 cg2d: Sum(rhs),rhsMax =  -1.01145203323938E-11  1.33297969646298E-01
 cg2d: Sum(rhs),rhsMax =  -9.95148408122759E-12  1.34828413983849E-01
 cg2d: Sum(rhs),rhsMax =  -9.73082725508334E-12  1.36867872947619E-01
 cg2d: Sum(rhs),rhsMax =  -9.53931378333550E-12  1.38668898025255E-01
 cg2d: Sum(rhs),rhsMax =  -9.38443767140029E-12  1.40208354479707E-01
 cg2d: Sum(rhs),rhsMax =  -9.26925203259543E-12  1.41486368015139E-01
 cg2d: Sum(rhs),rhsMax =  -9.16161591035802E-12  1.42542788243513E-01
 cg2d: Sum(rhs),rhsMax =  -9.16106079884571E-12  1.43347869059480E-01
 cg2d: Sum(rhs),rhsMax =  -9.25404197715807E-12  1.43926859433166E-01
 cg2d: Sum(rhs),rhsMax =  -9.27119492288853E-12  1.44246538680971E-01
 cg2d: Sum(rhs),rhsMax =  -9.27696808261658E-12  1.44302148128786E-01
 cg2d: Sum(rhs),rhsMax =  -9.32059984748435E-12  1.44114033670069E-01
 cg2d: Sum(rhs),rhsMax =  -9.38088495772149E-12  1.43710057335653E-01
 cg2d: Sum(rhs),rhsMax =  -9.40653110959033E-12  1.43059901973506E-01
 cg2d: Sum(rhs),rhsMax =  -9.42301792150602E-12  1.43029112763984E-01
 cg2d: Sum(rhs),rhsMax =  -9.39776034769579E-12  1.43512589966165E-01
 cg2d: Sum(rhs),rhsMax =  -9.36817290408953E-12  1.43969657174827E-01
 cg2d: Sum(rhs),rhsMax =  -9.35301835980340E-12  1.44397909716505E-01
 cg2d: Sum(rhs),rhsMax =  -9.32132149245035E-12  1.44796770093650E-01
(PID.TID 0000.0001)      cg2d_init_res =   7.72412882900975E-02
(PID.TID 0000.0001)      cg2d_iters(min,last) =      -1      29
(PID.TID 0000.0001)      cg2d_last_res =   4.34466156933366E-14
(PID.TID 0000.0001) // =======================================================
(PID.TID 0000.0001) // Begin MONITOR dynamic field statistics
(PID.TID 0000.0001) // =======================================================
(PID.TID 0000.0001) %MON time_tsnumber                =                  4320
(PID.TID 0000.0001) %MON time_secondsf                =   6.4800000000000E+04
(PID.TID 0000.0001) %MON dynstat_eta_max              =   7.5894538110747E-03
(PID.TID 0000.0001) %MON dynstat_eta_min              =  -1.4902214453915E-02
(PID.TID 0000.0001) %MON dynstat_eta_mean             =   1.5559958134908E-15
(PID.TID 0000.0001) %MON dynstat_eta_sd               =   5.4414552593817E-03
(PID.TID 0000.0001) %MON dynstat_eta_del2             =   1.5514792068606E-04
(PID.TID 0000.0001) %MON dynstat_uvel_max             =   9.2569878903267E-01
(PID.TID 0000.0001) %MON dynstat_uvel_min             =  -5.0201459022269E-01
(PID.TID 0000.0001) %MON dynstat_uvel_mean            =   1.6000515112703E-04
(PID.TID 0000.0001) %MON dynstat_uvel_sd              =   1.1742112263620E-01
(PID.TID 0000.0001) %MON dynstat_uvel_del2            =   6.0109267048312E-04
(PID.TID 0000.0001) %MON dynstat_vvel_max             =   0.0000000000000E+00
(PID.TID 0000.0001) %MON dynstat_vvel_min             =   0.0000000000000E+00
(PID.TID 0000.0001) %MON dynstat_vvel_mean            =   0.0000000000000E+00
(PID.TID 0000.0001) %MON dynstat_vvel_sd              =   0.0000000000000E+00
(PID.TID 0000.0001) %MON dynstat_vvel_del2            =   0.0000000000000E+00
(PID.TID 0000.0001) %MON dynstat_wvel_max             =   5.1095768636463E-02
(PID.TID 0000.0001) %MON dynstat_wvel_min             =  -3.3969332219587E-02
(PID.TID 0000.0001) %MON dynstat_wvel_mean            =   1.3306851821400E-19
(PID.TID 0000.0001) %MON dynstat_wvel_sd              =   4.0518617772214E-03
(PID.TID 0000.0001) %MON dynstat_wvel_del2            =   7.3812260798134E-05
(PID.TID 0000.0001) %MON dynstat_theta_max            =   1.5000000000346E+01
(PID.TID 0000.0001) %MON dynstat_theta_min            =   9.9999999999928E+00
(PID.TID 0000.0001) %MON dynstat_theta_mean           =   1.3087491432689E+01
(PID.TID 0000.0001) %MON dynstat_theta_sd             =   2.3471917485207E+00
(PID.TID 0000.0001) %MON dynstat_theta_del2           =   1.6094983648491E-03
(PID.TID 0000.0001) %MON dynstat_salt_max             =   3.5000000000000E+01
(PID.TID 0000.0001) %MON dynstat_salt_min             =   3.5000000000000E+01
(PID.TID 0000.0001) %MON dynstat_salt_mean            =   3.5000000000000E+01
(PID.TID 0000.0001) %MON dynstat_salt_sd              =   7.1054273576010E-15
(PID.TID 0000.0001) %MON dynstat_salt_del2            =   0.0000000000000E+00
(PID.TID 0000.0001) %MON dynstat_sst_max              =   1.5000000000008E+01
(PID.TID 0000.0001) %MON dynstat_sst_min              =   1.4999834792415E+01
(PID.TID 0000.0001) %MON dynstat_sst_mean             =   1.4999998618993E+01
(PID.TID 0000.0001) %MON dynstat_sst_sd               =   1.2580058127486E-05
(PID.TID 0000.0001) %MON dynstat_sst_del2             =   1.2082492880454E-06
(PID.TID 0000.0001) %MON dynstat_sss_max              =   3.5000000000000E+01
(PID.TID 0000.0001) %MON dynstat_sss_min              =   3.5000000000000E+01
(PID.TID 0000.0001) %MON dynstat_sss_mean             =   3.5000000000000E+01
(PID.TID 0000.0001) %MON dynstat_sss_sd               =   0.0000000000000E+00
(PID.TID 0000.0001) %MON dynstat_sss_del2             =   0.0000000000000E+00
(PID.TID 0000.0001) %MON forcing_qnet_max             =   0.0000000000000E+00
(PID.TID 0000.0001) %MON forcing_qnet_min             =   0.0000000000000E+00
(PID.TID 0000.0001) %MON forcing_qnet_mean            =   0.0000000000000E+00
(PID.TID 0000.0001) %MON forcing_qnet_sd              =   0.0000000000000E+00
(PID.TID 0000.0001) %MON forcing_qnet_del2            =   0.0000000000000E+00
(PID.TID 0000.0001) %MON forcing_qsw_max              =   0.0000000000000E+00
(PID.TID 0000.0001) %MON forcing_qsw_min              =   0.0000000000000E+00
(PID.TID 0000.0001) %MON forcing_qsw_mean             =   0.0000000000000E+00
(PID.TID 0000.0001) %MON forcing_qsw_sd               =   0.0000000000000E+00
(PID.TID 0000.0001) %MON forcing_qsw_del2             =   0.0000000000000E+00
(PID.TID 0000.0001) %MON forcing_empmr_max            =   0.0000000000000E+00
(PID.TID 0000.0001) %MON forcing_empmr_min            =   0.0000000000000E+00
(PID.TID 0000.0001) %MON forcing_empmr_mean           =   0.0000000000000E+00
(PID.TID 0000.0001) %MON forcing_empmr_sd             =   0.0000000000000E+00
(PID.TID 0000.0001) %MON forcing_empmr_del2           =   0.0000000000000E+00
(PID.TID 0000.0001) %MON forcing_fu_max               =   0.0000000000000E+00
(PID.TID 0000.0001) %MON forcing_fu_min               =   0.0000000000000E+00
(PID.TID 0000.0001) %MON forcing_fu_mean              =   0.0000000000000E+00
(PID.TID 0000.0001) %MON forcing_fu_sd                =   0.0000000000000E+00
(PID.TID 0000.0001) %MON forcing_fu_del2              =   0.0000000000000E+00
(PID.TID 0000.0001) %MON forcing_fv_max               =   0.0000000000000E+00
(PID.TID 0000.0001) %MON forcing_fv_min               =   0.0000000000000E+00
(PID.TID 0000.0001) %MON forcing_fv_mean              =   0.0000000000000E+00
(PID.TID 0000.0001) %MON forcing_fv_sd                =   0.0000000000000E+00
(PID.TID 0000.0001) %MON forcing_fv_del2              =   0.0000000000000E+00
(PID.TID 0000.0001) %MON advcfl_uvel_max              =   6.5386134738242E-02
(PID.TID 0000.0001) %MON advcfl_vvel_max              =   0.0000000000000E+00
(PID.TID 0000.0001) %MON advcfl_wvel_max              =   4.4927251082440E-01
(PID.TID 0000.0001) %MON advcfl_W_hf_max              =   4.5565626137136E-01
(PID.TID 0000.0001) %MON pe_b_mean                    =   8.3121130513582E-07
(PID.TID 0000.0001) %MON ke_max                       =   3.5085027600287E-01
(PID.TID 0000.0001) %MON ke_mean                      =   6.9701839531721E-03
(PID.TID 0000.0001) %MON ke_vol                       =   8.5336562999261E+10
(PID.TID 0000.0001) %MON vort_r_min                   =   0.0000000000000E+00
(PID.TID 0000.0001) %MON vort_r_max                   =   0.0000000000000E+00
(PID.TID 0000.0001) %MON vort_a_mean                  =   0.0000000000000E+00
(PID.TID 0000.0001) %MON vort_a_sd                    =   0.0000000000000E+00
(PID.TID 0000.0001) %MON vort_p_mean                  =   0.0000000000000E+00
(PID.TID 0000.0001) %MON vort_p_sd                    =   0.0000000000000E+00
(PID.TID 0000.0001) %MON surfExpan_theta_mean         =   5.1332049455172E-12
(PID.TID 0000.0001) %MON surfExpan_salt_mean          =   8.2383045013628E-18
(PID.TID 0000.0001) // =======================================================
(PID.TID 0000.0001) // End MONITOR dynamic field statistics
(PID.TID 0000.0001) // =======================================================
(PID.TID 0000.0001) // =======================================================
(PID.TID 0000.0001) // Begin OBCS MONITOR field statistics
(PID.TID 0000.0001) // =======================================================
(PID.TID 0000.0001) %MON obc_E_uVel_max               =   0.0000000000000E+00
(PID.TID 0000.0001) %MON obc_E_uVel_min               =   0.0000000000000E+00
(PID.TID 0000.0001) %MON obc_E_uVel_mean              =   0.0000000000000E+00
(PID.TID 0000.0001) %MON obc_E_uVel_sd                =   0.0000000000000E+00
(PID.TID 0000.0001) %MON obc_E_uVel_Int               =   0.0000000000000E+00
(PID.TID 0000.0001) %MON obc_W_uVel_max               =   0.0000000000000E+00
(PID.TID 0000.0001) %MON obc_W_uVel_min               =   0.0000000000000E+00
(PID.TID 0000.0001) %MON obc_W_uVel_mean              =   0.0000000000000E+00
(PID.TID 0000.0001) %MON obc_W_uVel_sd                =   0.0000000000000E+00
(PID.TID 0000.0001) %MON obc_W_uVel_Int               =   0.0000000000000E+00
(PID.TID 0000.0001) // =======================================================
(PID.TID 0000.0001) // End OBCS MONITOR field statistics
(PID.TID 0000.0001) // =======================================================
(PID.TID 0000.0001) %CHECKPOINT      4320 0000004320
 cg2d: Sum(rhs),rhsMax =  -9.25776122429056E-12  1.45166990817015E-01
 cg2d: Sum(rhs),rhsMax =  -9.25920451422257E-12  1.45506922397528E-01
 cg2d: Sum(rhs),rhsMax =  -9.26547727431171E-12  1.45820664410880E-01
 cg2d: Sum(rhs),rhsMax =  -9.27824483909490E-12  1.46107533833221E-01
 cg2d: Sum(rhs),rhsMax =  -9.27474763656733E-12  1.46369744725651E-01
 cg2d: Sum(rhs),rhsMax =  -9.26436705128708E-12  1.46609486541033E-01
 cg2d: Sum(rhs),rhsMax =  -9.23228160587541E-12  1.46824608694631E-01
 cg2d: Sum(rhs),rhsMax =  -9.21168696876862E-12  1.47015809287798E-01
 cg2d: Sum(rhs),rhsMax =  -9.18581877229485E-12  1.47185553156468E-01
 cg2d: Sum(rhs),rhsMax =  -9.16089426539202E-12  1.47334112332515E-01
 cg2d: Sum(rhs),rhsMax =  -9.13835673799213E-12  1.47458802438710E-01
 cg2d: Sum(rhs),rhsMax =  -9.11204445230851E-12  1.47561157238526E-01
 cg2d: Sum(rhs),rhsMax =  -9.10560515876568E-12  1.47641941759685E-01
 cg2d: Sum(rhs),rhsMax =  -9.14668341067681E-12  1.47702188990396E-01
 cg2d: Sum(rhs),rhsMax =  -9.15229003695117E-12  1.47738956677360E-01
 cg2d: Sum(rhs),rhsMax =  -9.13780162647981E-12  1.47753862967765E-01
 cg2d: Sum(rhs),rhsMax =  -9.13602526964041E-12  1.47745147993191E-01
 cg2d: Sum(rhs),rhsMax =  -9.21512866014496E-12  1.47713853620336E-01
 cg2d: Sum(rhs),rhsMax =  -9.21551723820357E-12  1.47661684768299E-01
 cg2d: Sum(rhs),rhsMax =  -9.08750852346429E-12  1.47589207020567E-01
 cg2d: Sum(rhs),rhsMax =  -9.03954688880049E-12  1.47494819550500E-01
 cg2d: Sum(rhs),rhsMax =  -9.00490793043218E-12  1.47380007110330E-01
 cg2d: Sum(rhs),rhsMax =  -9.00746144338882E-12  1.47244837634412E-01
 cg2d: Sum(rhs),rhsMax =  -8.99780250307458E-12  1.47087683499381E-01
 cg2d: Sum(rhs),rhsMax =  -8.98869867427265E-12  1.46910770065030E-01
 cg2d: Sum(rhs),rhsMax =  -9.01867469593753E-12  1.46714938621288E-01
 cg2d: Sum(rhs),rhsMax =  -9.04698538306548E-12  1.46499384160594E-01
 cg2d: Sum(rhs),rhsMax =  -9.10305164580905E-12  1.46264136328105E-01
 cg2d: Sum(rhs),rhsMax =  -9.18010112371803E-12  1.46009540641843E-01
 cg2d: Sum(rhs),rhsMax =  -9.23039422673355E-12  1.45733758238206E-01
 cg2d: Sum(rhs),rhsMax =  -9.27347088008901E-12  1.45436946129768E-01
 cg2d: Sum(rhs),rhsMax =  -9.33841892702958E-12  1.45119684110570E-01
 cg2d: Sum(rhs),rhsMax =  -9.41868805170998E-12  1.44785883412698E-01
 cg2d: Sum(rhs),rhsMax =  -9.47253386840430E-12  1.44435232466961E-01
 cg2d: Sum(rhs),rhsMax =  -9.50584055914305E-12  1.44068909962826E-01
 cg2d: Sum(rhs),rhsMax =  -9.44422318127636E-12  1.45202671855731E-01
 cg2d: Sum(rhs),rhsMax =  -9.34297084143054E-12  1.46518687514676E-01
 cg2d: Sum(rhs),rhsMax =  -9.22584231233259E-12  1.47593366404855E-01
 cg2d: Sum(rhs),rhsMax =  -9.21018816768537E-12  1.48474265932975E-01
 cg2d: Sum(rhs),rhsMax =  -9.15867381934277E-12  1.49134653349409E-01
 cg2d: Sum(rhs),rhsMax =  -9.11593023289470E-12  1.49593954409366E-01
 cg2d: Sum(rhs),rhsMax =  -9.09716746377853E-12  1.49834973539443E-01
 cg2d: Sum(rhs),rhsMax =  -9.11404285375284E-12  1.49851806380133E-01
 cg2d: Sum(rhs),rhsMax =  -9.13458197970840E-12  1.49654877063305E-01
 cg2d: Sum(rhs),rhsMax =  -9.15967302006493E-12  1.49249194518466E-01
 cg2d: Sum(rhs),rhsMax =  -9.22295573246856E-12  1.48644268853119E-01
 cg2d: Sum(rhs),rhsMax =  -9.26092535991074E-12  1.47834412058248E-01
 cg2d: Sum(rhs),rhsMax =  -9.35052035799799E-12  1.46815100903368E-01
 cg2d: Sum(rhs),rhsMax =  -9.48896516916875E-12  1.45582174954432E-01
 cg2d: Sum(rhs),rhsMax =  -9.59798907018694E-12  1.44149464174237E-01
 cg2d: Sum(rhs),rhsMax =  -9.74742508930149E-12  1.42518045450735E-01
 cg2d: Sum(rhs),rhsMax =  -9.89253123861999E-12  1.40873555037376E-01
 cg2d: Sum(rhs),rhsMax =  -1.00435215699690E-11  1.38838128352959E-01
 cg2d: Sum(rhs),rhsMax =  -1.02070574214963E-11  1.36680066662257E-01
 cg2d: Sum(rhs),rhsMax =  -1.03876907076028E-11  1.34275333970502E-01
 cg2d: Sum(rhs),rhsMax =  -1.04769526387827E-11  1.33513815495207E-01
 cg2d: Sum(rhs),rhsMax =  -1.05437880648651E-11  1.32909256638071E-01
 cg2d: Sum(rhs),rhsMax =  -1.05724318189004E-11  1.32297334370895E-01
 cg2d: Sum(rhs),rhsMax =  -1.06491482299020E-11  1.31677932667064E-01
 cg2d: Sum(rhs),rhsMax =  -1.07389652725942E-11  1.31050556552479E-01
 cg2d: Sum(rhs),rhsMax =  -1.08163478174106E-11  1.30415872699452E-01
 cg2d: Sum(rhs),rhsMax =  -1.08739683923886E-11  1.29774815218445E-01
 cg2d: Sum(rhs),rhsMax =  -1.09748876653271E-11  1.29127611875273E-01
 cg2d: Sum(rhs),rhsMax =  -1.10897957483758E-11  1.28473651425947E-01
 cg2d: Sum(rhs),rhsMax =  -1.11949338688078E-11  1.27814221776115E-01
 cg2d: Sum(rhs),rhsMax =  -1.13062892381777E-11  1.27147145176853E-01
 cg2d: Sum(rhs),rhsMax =  -1.14369624881761E-11  1.26473538514510E-01
 cg2d: Sum(rhs),rhsMax =  -1.15671916489646E-11  1.25794893177354E-01
 cg2d: Sum(rhs),rhsMax =  -1.16735510147237E-11  1.25109569658496E-01
 cg2d: Sum(rhs),rhsMax =  -1.18132170712215E-11  1.24419089737140E-01
 cg2d: Sum(rhs),rhsMax =  -1.19715348745331E-11  1.23722210274289E-01
 cg2d: Sum(rhs),rhsMax =  -1.20901066935630E-11  1.23020148044134E-01
 cg2d: Sum(rhs),rhsMax =  -1.22198917651417E-11  1.22314430111589E-01
 cg2d: Sum(rhs),rhsMax =  -1.23641097360405E-11  1.21604812268026E-01
 cg2d: Sum(rhs),rhsMax =  -1.25307542120368E-11  1.20892849481643E-01
 cg2d: Sum(rhs),rhsMax =  -1.26703092462321E-11  1.20178845313283E-01
 cg2d: Sum(rhs),rhsMax =  -1.27886590206572E-11  1.19464131753731E-01
 cg2d: Sum(rhs),rhsMax =  -1.29505295376475E-11  1.18754169346928E-01
 cg2d: Sum(rhs),rhsMax =  -1.31104016531935E-11  1.18046404539088E-01
 cg2d: Sum(rhs),rhsMax =  -1.32653887874312E-11  1.17341093745627E-01
 cg2d: Sum(rhs),rhsMax =  -1.33977273719665E-11  1.16639616113395E-01
 cg2d: Sum(rhs),rhsMax =  -1.35531585954141E-11  1.15943581550132E-01
 cg2d: Sum(rhs),rhsMax =  -1.34426914044639E-11  1.17370692758456E-01
 cg2d: Sum(rhs),rhsMax =  -1.32327482305072E-11  1.19688868474190E-01
 cg2d: Sum(rhs),rhsMax =  -1.30243593687851E-11  1.21844683040772E-01
 cg2d: Sum(rhs),rhsMax =  -1.28672628108006E-11  1.23843226867365E-01
 cg2d: Sum(rhs),rhsMax =  -1.26851862347621E-11  1.25673055568953E-01
 cg2d: Sum(rhs),rhsMax =  -1.25814914042621E-11  1.27332416840046E-01
 cg2d: Sum(rhs),rhsMax =  -1.24543708679425E-11  1.28827265771178E-01
 cg2d: Sum(rhs),rhsMax =  -1.23822063713419E-11  1.30141470744503E-01
 cg2d: Sum(rhs),rhsMax =  -1.22928334178596E-11  1.31279965665154E-01
 cg2d: Sum(rhs),rhsMax =  -1.21962440147172E-11  1.32418757569433E-01
 cg2d: Sum(rhs),rhsMax =  -1.22000187730009E-11  1.33105783788857E-01
 cg2d: Sum(rhs),rhsMax =  -1.21820331600020E-11  1.33670212062421E-01
 cg2d: Sum(rhs),rhsMax =  -1.21851417844709E-11  1.34117094976248E-01
 cg2d: Sum(rhs),rhsMax =  -1.21652687923302E-11  1.34369415324571E-01
 cg2d: Sum(rhs),rhsMax =  -1.20788934410143E-11  1.34440538296279E-01
 cg2d: Sum(rhs),rhsMax =  -1.20385923452204E-11  1.34321896818607E-01
 cg2d: Sum(rhs),rhsMax =  -1.20636833855770E-11  1.34020650451343E-01
 cg2d: Sum(rhs),rhsMax =  -1.20952137194763E-11  1.33539449697945E-01
 cg2d: Sum(rhs),rhsMax =  -1.20965459871059E-11  1.32881147403852E-01
 cg2d: Sum(rhs),rhsMax =  -1.20385923452204E-11  1.32044406718264E-01
 cg2d: Sum(rhs),rhsMax =  -1.21458398893992E-11  1.31047708862737E-01
 cg2d: Sum(rhs),rhsMax =  -1.22913901279276E-11  1.29892500105208E-01
 cg2d: Sum(rhs),rhsMax =  -1.24653620758863E-11  1.28584455344400E-01
 cg2d: Sum(rhs),rhsMax =  -1.26707533354420E-11  1.27127165271330E-01
 cg2d: Sum(rhs),rhsMax =  -1.28956845202310E-11  1.25488824647024E-01
 cg2d: Sum(rhs),rhsMax =  -1.31380462065067E-11  1.23719276364319E-01
 cg2d: Sum(rhs),rhsMax =  -1.33772992683134E-11  1.21826849648284E-01
 cg2d: Sum(rhs),rhsMax =  -1.36004540962631E-11  1.19810917314841E-01
 cg2d: Sum(rhs),rhsMax =  -1.39105393870409E-11  1.17664288598991E-01
 cg2d: Sum(rhs),rhsMax =  -1.42709177808342E-11  1.15441972746893E-01
 cg2d: Sum(rhs),rhsMax =  -1.46219703012207E-11  1.13096638250106E-01
 cg2d: Sum(rhs),rhsMax =  -1.50408574484118E-11  1.10634181043000E-01
 cg2d: Sum(rhs),rhsMax =  -1.53489443377453E-11  1.08689025516665E-01
 cg2d: Sum(rhs),rhsMax =  -1.53465018470911E-11  1.09434242347916E-01
 cg2d: Sum(rhs),rhsMax =  -1.53358437060547E-11  1.10161237350698E-01
 cg2d: Sum(rhs),rhsMax =  -1.53166368477287E-11  1.10870309194952E-01
 cg2d: Sum(rhs),rhsMax =  -1.52982071455199E-11  1.11561958774681E-01
 cg2d: Sum(rhs),rhsMax =  -1.52464707525723E-11  1.12235657038712E-01
 cg2d: Sum(rhs),rhsMax =  -1.52220458460306E-11  1.12892320908733E-01
 cg2d: Sum(rhs),rhsMax =  -1.52009516085627E-11  1.13532147858252E-01
 cg2d: Sum(rhs),rhsMax =  -1.51525458846891E-11  1.14155304820841E-01
 cg2d: Sum(rhs),rhsMax =  -1.51448853458191E-11  1.14761036498564E-01
 cg2d: Sum(rhs),rhsMax =  -1.51100243428459E-11  1.15348737465681E-01
 cg2d: Sum(rhs),rhsMax =  -1.51015866478588E-11  1.15919435469037E-01
 cg2d: Sum(rhs),rhsMax =  -1.50675028010028E-11  1.16473542863829E-01
 cg2d: Sum(rhs),rhsMax =  -1.50507384333309E-11  1.17011262636277E-01
 cg2d: Sum(rhs),rhsMax =  -1.51045842500253E-11  1.17532484443233E-01
 cg2d: Sum(rhs),rhsMax =  -1.51801904380022E-11  1.18038099804425E-01
 cg2d: Sum(rhs),rhsMax =  -1.52128309949262E-11  1.18527388470239E-01
 cg2d: Sum(rhs),rhsMax =  -1.52763357519348E-11  1.18999933545359E-01
 cg2d: Sum(rhs),rhsMax =  -1.53065338182046E-11  1.19457339278492E-01
 cg2d: Sum(rhs),rhsMax =  -1.53781432032929E-11  1.19899297011134E-01
 cg2d: Sum(rhs),rhsMax =  -1.54322110645921E-11  1.20326316281964E-01
 cg2d: Sum(rhs),rhsMax =  -1.54407597818818E-11  1.20738471511320E-01
 cg2d: Sum(rhs),rhsMax =  -1.54285473286109E-11  1.21134163065333E-01
 cg2d: Sum(rhs),rhsMax =  -1.54395385365547E-11  1.21514702817802E-01
 cg2d: Sum(rhs),rhsMax =  -1.53963508608967E-11  1.21879700596732E-01
 cg2d: Sum(rhs),rhsMax =  -1.54164458976425E-11  1.22228109527089E-01
 cg2d: Sum(rhs),rhsMax =  -1.54027901544396E-11  1.22559748417484E-01
 cg2d: Sum(rhs),rhsMax =  -1.54425361387212E-11  1.22875556454605E-01
 cg2d: Sum(rhs),rhsMax =  -1.54783963424165E-11  1.23175171211509E-01
 cg2d: Sum(rhs),rhsMax =  -1.55406798540980E-11  1.23457823062117E-01
 cg2d: Sum(rhs),rhsMax =  -1.55984114513785E-11  1.23723666685005E-01
 cg2d: Sum(rhs),rhsMax =  -1.56761270631023E-11  1.23974513615474E-01
 cg2d: Sum(rhs),rhsMax =  -1.57850399418180E-11  1.24211413175867E-01
 cg2d: Sum(rhs),rhsMax =  -1.58536517247398E-11  1.24434394925887E-01
 cg2d: Sum(rhs),rhsMax =  -1.59703361646280E-11  1.24643765897617E-01
 cg2d: Sum(rhs),rhsMax =  -1.61014535038362E-11  1.24839782919891E-01
 cg2d: Sum(rhs),rhsMax =  -1.61912705465284E-11  1.25022375517928E-01
 cg2d: Sum(rhs),rhsMax =  -1.62462265862473E-11  1.25191675299995E-01
 cg2d: Sum(rhs),rhsMax =  -1.62206914566809E-11  1.25347977119078E-01
 cg2d: Sum(rhs),rhsMax =  -1.61692881306408E-11  1.25491487224207E-01
 cg2d: Sum(rhs),rhsMax =  -1.61660684838694E-11  1.25621269803282E-01
 cg2d: Sum(rhs),rhsMax =  -1.62006519310864E-11  1.25738923231287E-01
 cg2d: Sum(rhs),rhsMax =  -1.62485025434478E-11  1.25842473144388E-01
 cg2d: Sum(rhs),rhsMax =  -1.63328239821681E-11  1.25933163582790E-01
 cg2d: Sum(rhs),rhsMax =  -1.63829505517299E-11  1.26010842095980E-01
 cg2d: Sum(rhs),rhsMax =  -1.64603886076975E-11  1.26076260322925E-01
 cg2d: Sum(rhs),rhsMax =  -1.65703006871354E-11  1.26128144325172E-01
 cg2d: Sum(rhs),rhsMax =  -1.66737734730305E-11  1.26164677789085E-01
 cg2d: Sum(rhs),rhsMax =  -1.68012270762574E-11  1.26185590876320E-01
 cg2d: Sum(rhs),rhsMax =  -1.68989267024244E-11  1.26191609991646E-01
 cg2d: Sum(rhs),rhsMax =  -1.69547709205631E-11  1.26183410244594E-01
 cg2d: Sum(rhs),rhsMax =  -1.69687597306734E-11  1.26161339014761E-01
 cg2d: Sum(rhs),rhsMax =  -1.70511937902518E-11  1.26124241424164E-01
 cg2d: Sum(rhs),rhsMax =  -1.70983782687983E-11  1.26072761385025E-01
 cg2d: Sum(rhs),rhsMax =  -1.71443415020178E-11  1.26007828885903E-01
 cg2d: Sum(rhs),rhsMax =  -1.71895830902713E-11  1.25930992626247E-01
 cg2d: Sum(rhs),rhsMax =  -1.72514780238942E-11  1.25839828513990E-01
 cg2d: Sum(rhs),rhsMax =  -1.73160930039273E-11  1.25734318305854E-01
 cg2d: Sum(rhs),rhsMax =  -1.73920322588117E-11  1.25614289664871E-01
 cg2d: Sum(rhs),rhsMax =  -1.74411596276514E-11  1.25480586077776E-01
 cg2d: Sum(rhs),rhsMax =  -1.75148229253352E-11  1.25334418557170E-01
 cg2d: Sum(rhs),rhsMax =  -1.75919834255467E-11  1.25176680583813E-01
 cg2d: Sum(rhs),rhsMax =  -1.76945125218708E-11  1.25007795987265E-01
 cg2d: Sum(rhs),rhsMax =  -1.77746151130975E-11  1.24828571036563E-01
 cg2d: Sum(rhs),rhsMax =  -1.78457804089760E-11  1.24640076690155E-01
 cg2d: Sum(rhs),rhsMax =  -1.79096182328919E-11  1.24442349468980E-01
 cg2d: Sum(rhs),rhsMax =  -1.79137260580831E-11  1.24236472156361E-01
 cg2d: Sum(rhs),rhsMax =  -1.79019576940220E-11  1.24023261914264E-01
 cg2d: Sum(rhs),rhsMax =  -1.79669612521138E-11  1.23802636069603E-01
 cg2d: Sum(rhs),rhsMax =  -1.80775949765177E-11  1.23575286022190E-01
 cg2d: Sum(rhs),rhsMax =  -1.81928916376251E-11  1.23340730670451E-01
 cg2d: Sum(rhs),rhsMax =  -1.83375536977337E-11  1.23099129838287E-01
 cg2d: Sum(rhs),rhsMax =  -1.84574022732420E-11  1.22850954635846E-01
 cg2d: Sum(rhs),rhsMax =  -1.85441662026165E-11  1.22596217532876E-01
 cg2d: Sum(rhs),rhsMax =  -1.86204385244082E-11  1.22334957431908E-01
 cg2d: Sum(rhs),rhsMax =  -1.86204385244082E-11  1.22071130379246E-01
 cg2d: Sum(rhs),rhsMax =  -1.86206605690131E-11  1.21801560467970E-01
 cg2d: Sum(rhs),rhsMax =  -1.86112791844550E-11  1.21524589926239E-01
 cg2d: Sum(rhs),rhsMax =  -1.86100024279767E-11  1.21242006661420E-01
 cg2d: Sum(rhs),rhsMax =  -1.86175519445442E-11  1.20955701267728E-01
 cg2d: Sum(rhs),rhsMax =  -1.86636817112174E-11  1.20665436787451E-01
 cg2d: Sum(rhs),rhsMax =  -1.87165838383407E-11  1.20370390144606E-01
 cg2d: Sum(rhs),rhsMax =  -1.88060678141255E-11  1.20070250457106E-01
 cg2d: Sum(rhs),rhsMax =  -1.88947191226418E-11  1.19765226982673E-01
 cg2d: Sum(rhs),rhsMax =  -1.90255033949427E-11  1.19454893868071E-01
 cg2d: Sum(rhs),rhsMax =  -1.91367477420101E-11  1.19138754042219E-01
 cg2d: Sum(rhs),rhsMax =  -1.92348914573870E-11  1.18817594943426E-01
 cg2d: Sum(rhs),rhsMax =  -1.93089988442807E-11  1.18490803214538E-01
 cg2d: Sum(rhs),rhsMax =  -1.93805527182178E-11  1.18158065468173E-01
 cg2d: Sum(rhs),rhsMax =  -1.94008697995685E-11  1.17820158487609E-01
 cg2d: Sum(rhs),rhsMax =  -1.94002036657537E-11  1.17477954635941E-01
 cg2d: Sum(rhs),rhsMax =  -1.94291249755452E-11  1.17130923882436E-01
 cg2d: Sum(rhs),rhsMax =  -1.94648741569381E-11  1.16778466901662E-01
 cg2d: Sum(rhs),rhsMax =  -1.95310989603570E-11  1.16423961790986E-01
 cg2d: Sum(rhs),rhsMax =  -1.96231364490984E-11  1.16069541847027E-01
 cg2d: Sum(rhs),rhsMax =  -1.97161176274108E-11  1.15708517195174E-01
 cg2d: Sum(rhs),rhsMax =  -1.98086547165133E-11  1.15343611187886E-01
 cg2d: Sum(rhs),rhsMax =  -1.99146255042137E-11  1.14977124139142E-01
 cg2d: Sum(rhs),rhsMax =  -2.00162109109669E-11  1.14608443838646E-01
 cg2d: Sum(rhs),rhsMax =  -2.01112460018749E-11  1.14235941279241E-01
 cg2d: Sum(rhs),rhsMax =  -2.01940686395119E-11  1.13860350447343E-01
 cg2d: Sum(rhs),rhsMax =  -2.02187155906586E-11  1.13481349036275E-01
 cg2d: Sum(rhs),rhsMax =  -2.02775018998125E-11  1.13097505904289E-01
 cg2d: Sum(rhs),rhsMax =  -2.03558836453510E-11  1.12710379332267E-01
 cg2d: Sum(rhs),rhsMax =  -2.03639882734308E-11  1.12321435852189E-01
 cg2d: Sum(rhs),rhsMax =  -2.04386507718368E-11  1.11930744210811E-01
 cg2d: Sum(rhs),rhsMax =  -2.05154782051409E-11  1.11538148539319E-01
 cg2d: Sum(rhs),rhsMax =  -2.06452077655683E-11  1.11142740333897E-01
 cg2d: Sum(rhs),rhsMax =  -2.06586969753175E-11  1.10744776878197E-01
 cg2d: Sum(rhs),rhsMax =  -2.07098782567527E-11  1.10345223073847E-01
 cg2d: Sum(rhs),rhsMax =  -2.07505679306053E-11  1.09944925259563E-01
 cg2d: Sum(rhs),rhsMax =  -2.08082440167345E-11  1.09544484538173E-01
 cg2d: Sum(rhs),rhsMax =  -2.08761896658416E-11  1.09143804363334E-01
 cg2d: Sum(rhs),rhsMax =  -2.09498529635255E-11  1.08741946984749E-01
 cg2d: Sum(rhs),rhsMax =  -2.10111927856360E-11  1.08337067541969E-01
 cg2d: Sum(rhs),rhsMax =  -2.10795270128017E-11  1.07928972580457E-01
 cg2d: Sum(rhs),rhsMax =  -2.11238249114842E-11  1.07518835220927E-01
 cg2d: Sum(rhs),rhsMax =  -2.11781703285396E-11  1.07109520077833E-01
 cg2d: Sum(rhs),rhsMax =  -2.12173056901577E-11  1.06696236043040E-01
 cg2d: Sum(rhs),rhsMax =  -2.12884709860361E-11  1.06277219702157E-01
 cg2d: Sum(rhs),rhsMax =  -2.15061302100139E-11  1.05854047560980E-01
 cg2d: Sum(rhs),rhsMax =  -2.16462958668728E-11  1.05658423052591E-01
 cg2d: Sum(rhs),rhsMax =  -2.14871453962928E-11  1.06882309172469E-01
 cg2d: Sum(rhs),rhsMax =  -2.12300732549409E-11  1.08084905311025E-01
 cg2d: Sum(rhs),rhsMax =  -2.09825490316007E-11  1.09263393414163E-01
 cg2d: Sum(rhs),rhsMax =  -2.07396877449639E-11  1.10418873826366E-01
 cg2d: Sum(rhs),rhsMax =  -2.05617745052677E-11  1.11551985208473E-01
 cg2d: Sum(rhs),rhsMax =  -2.03793648623218E-11  1.12665450612461E-01
 cg2d: Sum(rhs),rhsMax =  -2.01827998758120E-11  1.13754015789409E-01
 cg2d: Sum(rhs),rhsMax =  -2.00274241635157E-11  1.14819994770562E-01
 cg2d: Sum(rhs),rhsMax =  -1.98684402263893E-11  1.15864126972399E-01
 cg2d: Sum(rhs),rhsMax =  -1.97054594863744E-11  1.16886868244305E-01
 cg2d: Sum(rhs),rhsMax =  -1.95394811441929E-11  1.17887844916911E-01
 cg2d: Sum(rhs),rhsMax =  -1.93472460274791E-11  1.18865308997649E-01
 cg2d: Sum(rhs),rhsMax =  -1.91608950927957E-11  1.19818328329628E-01
 cg2d: Sum(rhs),rhsMax =  -1.89648852177982E-11  1.20746259121247E-01
 cg2d: Sum(rhs),rhsMax =  -1.87760917924606E-11  1.21652133158418E-01
 cg2d: Sum(rhs),rhsMax =  -1.86526349921223E-11  1.22534482124648E-01
 cg2d: Sum(rhs),rhsMax =  -1.84872117614532E-11  1.23392718685196E-01
 cg2d: Sum(rhs),rhsMax =  -1.83576487344794E-11  1.24226279067070E-01
 cg2d: Sum(rhs),rhsMax =  -1.82569515061459E-11  1.25033997591614E-01
 cg2d: Sum(rhs),rhsMax =  -1.81838988311256E-11  1.25818082874175E-01
 cg2d: Sum(rhs),rhsMax =  -1.81406556443164E-11  1.26576991164438E-01
 cg2d: Sum(rhs),rhsMax =  -1.80565562502011E-11  1.27307427879146E-01
 cg2d: Sum(rhs),rhsMax =  -1.79077863649013E-11  1.28010170742438E-01
 cg2d: Sum(rhs),rhsMax =  -1.77980963300683E-11  1.28685909292852E-01
 cg2d: Sum(rhs),rhsMax =  -1.76619274760981E-11  1.29331682214556E-01
 cg2d: Sum(rhs),rhsMax =  -1.75536807311971E-11  1.29950022267241E-01
 cg2d: Sum(rhs),rhsMax =  -1.74684156029059E-11  1.30540824928546E-01
 cg2d: Sum(rhs),rhsMax =  -1.74548153708542E-11  1.31104091209462E-01
 cg2d: Sum(rhs),rhsMax =  -1.74052994239560E-11  1.31638269849607E-01
 cg2d: Sum(rhs),rhsMax =  -1.73824843407999E-11  1.32143964645874E-01
 cg2d: Sum(rhs),rhsMax =  -1.73366876410341E-11  1.32621261513963E-01
 cg2d: Sum(rhs),rhsMax =  -1.73165370931372E-11  1.33070558473339E-01
 cg2d: Sum(rhs),rhsMax =  -1.72745151516551E-11  1.33491302012382E-01
 cg2d: Sum(rhs),rhsMax =  -1.72508118900794E-11  1.33882552037286E-01
 cg2d: Sum(rhs),rhsMax =  -1.72024616773570E-11  1.34244231626360E-01
 cg2d: Sum(rhs),rhsMax =  -1.71900271794811E-11  1.34573885699288E-01
 cg2d: Sum(rhs),rhsMax =  -1.71436198570518E-11  1.34873283329623E-01
 cg2d: Sum(rhs),rhsMax =  -1.71206382404421E-11  1.35143003963423E-01
 cg2d: Sum(rhs),rhsMax =  -1.71209713073495E-11  1.35382430608558E-01
 cg2d: Sum(rhs),rhsMax =  -1.71120895231525E-11  1.35591155811556E-01
 cg2d: Sum(rhs),rhsMax =  -1.71258562886578E-11  1.35770358368636E-01
 cg2d: Sum(rhs),rhsMax =  -1.71220260192229E-11  1.35921800971805E-01
 cg2d: Sum(rhs),rhsMax =  -1.71436753682030E-11  1.36047000676923E-01
 cg2d: Sum(rhs),rhsMax =  -1.71626601819241E-11  1.36147311503429E-01
 cg2d: Sum(rhs),rhsMax =  -1.72069580806067E-11  1.36220946328777E-01
 cg2d: Sum(rhs),rhsMax =  -1.72208913795657E-11  1.36275138077721E-01
 cg2d: Sum(rhs),rhsMax =  -1.72596936742764E-11  1.36308273942580E-01
 cg2d: Sum(rhs),rhsMax =  -1.72556413602365E-11  1.36322439658250E-01
 cg2d: Sum(rhs),rhsMax =  -1.72866165826235E-11  1.36317008165492E-01
 cg2d: Sum(rhs),rhsMax =  -1.73293601690716E-11  1.36292850964177E-01
 cg2d: Sum(rhs),rhsMax =  -1.73717706886123E-11  1.36251110063183E-01
 cg2d: Sum(rhs),rhsMax =  -1.74174563660756E-11  1.36190260615067E-01
 cg2d: Sum(rhs),rhsMax =  -1.74715797385261E-11  1.36110569555576E-01
 cg2d: Sum(rhs),rhsMax =  -1.75160441706623E-11  1.36013484467641E-01
 cg2d: Sum(rhs),rhsMax =  -1.75526260193237E-11  1.35891584550085E-01
 cg2d: Sum(rhs),rhsMax =  -1.75752190578748E-11  1.35754363565238E-01
 cg2d: Sum(rhs),rhsMax =  -1.75985892525432E-11  1.35597777933053E-01
 cg2d: Sum(rhs),rhsMax =  -1.75900960464048E-11  1.35417958987739E-01
 cg2d: Sum(rhs),rhsMax =  -1.75705006100202E-11  1.35218089000081E-01
 cg2d: Sum(rhs),rhsMax =  -1.75852665762477E-11  1.34998189431301E-01
 cg2d: Sum(rhs),rhsMax =  -1.75881531561117E-11  1.34759429899139E-01
 cg2d: Sum(rhs),rhsMax =  -1.75537917534996E-11  1.34498953328673E-01
 cg2d: Sum(rhs),rhsMax =  -1.75157111037549E-11  1.34214029907395E-01
 cg2d: Sum(rhs),rhsMax =  -1.74874559277782E-11  1.33907068204850E-01
 cg2d: Sum(rhs),rhsMax =  -1.74509295902681E-11  1.33575519462685E-01
 cg2d: Sum(rhs),rhsMax =  -1.74577019507183E-11  1.33223254047427E-01
 cg2d: Sum(rhs),rhsMax =  -1.74391057150558E-11  1.32846131480381E-01
 cg2d: Sum(rhs),rhsMax =  -1.74233960592574E-11  1.32450778004178E-01
 cg2d: Sum(rhs),rhsMax =  -1.73828174077073E-11  1.32030096165152E-01
 cg2d: Sum(rhs),rhsMax =  -1.73839276307319E-11  1.31585266952939E-01
 cg2d: Sum(rhs),rhsMax =  -1.74126824070697E-11  1.31120755434921E-01
 cg2d: Sum(rhs),rhsMax =  -1.74436576294568E-11  1.30636250623621E-01
 cg2d: Sum(rhs),rhsMax =  -1.75083836317924E-11  1.30130139650382E-01
 cg2d: Sum(rhs),rhsMax =  -1.75549019765242E-11  1.29603692454025E-01
 cg2d: Sum(rhs),rhsMax =  -1.76215153580017E-11  1.29060324171502E-01
 cg2d: Sum(rhs),rhsMax =  -1.77028391945555E-11  1.28507351953151E-01
 cg2d: Sum(rhs),rhsMax =  -1.77593495465089E-11  1.27933236536081E-01
 cg2d: Sum(rhs),rhsMax =  -1.78351777790908E-11  1.27342082360012E-01
 cg2d: Sum(rhs),rhsMax =  -1.78667081129902E-11  1.26735926670227E-01
 cg2d: Sum(rhs),rhsMax =  -1.79206094408357E-11  1.26127582971884E-01
 cg2d: Sum(rhs),rhsMax =  -1.79662951182991E-11  1.25502804240019E-01
 cg2d: Sum(rhs),rhsMax =  -1.80206960465057E-11  1.24863495879698E-01
 cg2d: Sum(rhs),rhsMax =  -1.80536696703371E-11  1.24212965214034E-01
 cg2d: Sum(rhs),rhsMax =  -1.81298309698263E-11  1.23562727202192E-01
 cg2d: Sum(rhs),rhsMax =  -1.81905601692733E-11  1.22893432726853E-01
 cg2d: Sum(rhs),rhsMax =  -1.82474035881341E-11  1.22209104505231E-01
 cg2d: Sum(rhs),rhsMax =  -1.83149051480314E-11  1.21515501586199E-01
 cg2d: Sum(rhs),rhsMax =  -1.83790760388547E-11  1.20828469916886E-01
 cg2d: Sum(rhs),rhsMax =  -1.84505744016406E-11  1.20121999580875E-01
 cg2d: Sum(rhs),rhsMax =  -1.85452764256411E-11  1.19401978590359E-01
 cg2d: Sum(rhs),rhsMax =  -1.86035631344339E-11  1.18673033282766E-01
 cg2d: Sum(rhs),rhsMax =  -1.87094784109831E-11  1.17938190995061E-01
 cg2d: Sum(rhs),rhsMax =  -1.87810877960715E-11  1.17211000869880E-01
 cg2d: Sum(rhs),rhsMax =  -1.88598026085174E-11  1.16463242864258E-01
 cg2d: Sum(rhs),rhsMax =  -1.89587234800115E-11  1.15703484555580E-01
 cg2d: Sum(rhs),rhsMax =  -1.90111260067738E-11  1.14938215247379E-01
 cg2d: Sum(rhs),rhsMax =  -1.91050508746571E-11  1.14169390413177E-01
 cg2d: Sum(rhs),rhsMax =  -1.91894278245286E-11  1.13413353684751E-01
 cg2d: Sum(rhs),rhsMax =  -1.92920124320040E-11  1.12640474096014E-01
 cg2d: Sum(rhs),rhsMax =  -1.93622895494627E-11  1.11857784935540E-01
 cg2d: Sum(rhs),rhsMax =  -1.94194660352309E-11  1.11070374431113E-01
 cg2d: Sum(rhs),rhsMax =  -1.94850802159863E-11  1.10276771091595E-01
 cg2d: Sum(rhs),rhsMax =  -1.95300442484836E-11  1.09479396699550E-01
 cg2d: Sum(rhs),rhsMax =  -1.95768956601228E-11  1.08678407873682E-01
 cg2d: Sum(rhs),rhsMax =  -1.96672678143273E-11  1.07889904855388E-01
 cg2d: Sum(rhs),rhsMax =  -1.97675209534509E-11  1.07082457376109E-01
 cg2d: Sum(rhs),rhsMax =  -1.98695504494140E-11  1.06264047227551E-01
 cg2d: Sum(rhs),rhsMax =  -1.99710248338647E-11  1.05441007543964E-01
 cg2d: Sum(rhs),rhsMax =  -1.99646965626243E-11  1.05251815129597E-01
 cg2d: Sum(rhs),rhsMax =  -1.99573690906618E-11  1.05046651376191E-01
 cg2d: Sum(rhs),rhsMax =  -1.98986382926591E-11  1.04946007706115E-01
 cg2d: Sum(rhs),rhsMax =  -1.98410177176811E-11  1.04864474522786E-01
 cg2d: Sum(rhs),rhsMax =  -1.97808436297464E-11  1.04730730094333E-01
 cg2d: Sum(rhs),rhsMax =  -1.97311056382432E-11  1.04636297923873E-01
 cg2d: Sum(rhs),rhsMax =  -1.96648253236731E-11  1.04537837307169E-01
 cg2d: Sum(rhs),rhsMax =  -1.93617344379504E-11  1.05736296360605E-01
 cg2d: Sum(rhs),rhsMax =  -1.89857018995099E-11  1.07309709528445E-01
 cg2d: Sum(rhs),rhsMax =  -1.86232140819698E-11  1.08853851500749E-01
 cg2d: Sum(rhs),rhsMax =  -1.82851511709714E-11  1.10369470117442E-01
 cg2d: Sum(rhs),rhsMax =  -1.79464221261583E-11  1.11860391113419E-01
 cg2d: Sum(rhs),rhsMax =  -1.76635372994838E-11  1.13320677496830E-01
 cg2d: Sum(rhs),rhsMax =  -1.73439040906942E-11  1.14753853002635E-01
 cg2d: Sum(rhs),rhsMax =  -1.70456981862799E-11  1.16153991704496E-01
 cg2d: Sum(rhs),rhsMax =  -1.67489355717976E-11  1.17525374244837E-01
 cg2d: Sum(rhs),rhsMax =  -1.64794844437210E-11  1.18867380460460E-01
 cg2d: Sum(rhs),rhsMax =  -1.62446722740128E-11  1.20180486040668E-01
 cg2d: Sum(rhs),rhsMax =  -1.59952051603796E-11  1.21465757868954E-01
 cg2d: Sum(rhs),rhsMax =  -1.57290847013769E-11  1.22719159127514E-01
 cg2d: Sum(rhs),rhsMax =  -1.54900536841751E-11  1.23941441674769E-01
 cg2d: Sum(rhs),rhsMax =  -1.52802215325210E-11  1.25132093669808E-01
 cg2d: Sum(rhs),rhsMax =  -1.50607304405526E-11  1.26288085126416E-01
 cg2d: Sum(rhs),rhsMax =  -1.48427936608186E-11  1.27410666638526E-01
 cg2d: Sum(rhs),rhsMax =  -1.46345158213990E-11  1.28497297582416E-01
 cg2d: Sum(rhs),rhsMax =  -1.44523282230580E-11  1.29544951252714E-01
 cg2d: Sum(rhs),rhsMax =  -1.42622580412421E-11  1.30557731489695E-01
 cg2d: Sum(rhs),rhsMax =  -1.41195943825778E-11  1.31537746215077E-01
 cg2d: Sum(rhs),rhsMax =  -1.40342182319841E-11  1.32488567456099E-01
 cg2d: Sum(rhs),rhsMax =  -1.39492861706003E-11  1.33402713865137E-01
 cg2d: Sum(rhs),rhsMax =  -1.37311273462615E-11  1.34280237786507E-01
 cg2d: Sum(rhs),rhsMax =  -1.35895739106218E-11  1.35123517115646E-01
 cg2d: Sum(rhs),rhsMax =  -1.34394717576924E-11  1.35937639482183E-01
 cg2d: Sum(rhs),rhsMax =  -1.32938104968616E-11  1.36711975568790E-01
 cg2d: Sum(rhs),rhsMax =  -1.31583632878574E-11  1.37448864396121E-01
 cg2d: Sum(rhs),rhsMax =  -1.30223609673408E-11  1.38152182056437E-01
 cg2d: Sum(rhs),rhsMax =  -1.29040111929157E-11  1.38826396463809E-01
 cg2d: Sum(rhs),rhsMax =  -1.27539090399864E-11  1.39459390645233E-01
 cg2d: Sum(rhs),rhsMax =  -1.27179378139886E-11  1.40054828821412E-01
 cg2d: Sum(rhs),rhsMax =  -1.26634258634795E-11  1.40614343315588E-01
 cg2d: Sum(rhs),rhsMax =  -1.25817134488670E-11  1.41144681562081E-01
 cg2d: Sum(rhs),rhsMax =  -1.25119914429206E-11  1.41633488145182E-01
 cg2d: Sum(rhs),rhsMax =  -1.24121823930068E-11  1.42084781464170E-01
 cg2d: Sum(rhs),rhsMax =  -1.23034915588960E-11  1.42500178822697E-01
 cg2d: Sum(rhs),rhsMax =  -1.22341026198569E-11  1.42887182409021E-01
 cg2d: Sum(rhs),rhsMax =  -1.21432863764426E-11  1.43230479541164E-01
 cg2d: Sum(rhs),rhsMax =  -1.20662368985336E-11  1.43538653417473E-01
 cg2d: Sum(rhs),rhsMax =  -1.20099485911851E-11  1.43813714997243E-01
 cg2d: Sum(rhs),rhsMax =  -1.19411147636583E-11  1.44056485989776E-01
 cg2d: Sum(rhs),rhsMax =  -1.18757226275079E-11  1.44275724481116E-01
 cg2d: Sum(rhs),rhsMax =  -1.18380860669731E-11  1.44454102453714E-01
 cg2d: Sum(rhs),rhsMax =  -1.18041132424196E-11  1.44597619815321E-01
 cg2d: Sum(rhs),rhsMax =  -1.17691412171439E-11  1.44709085085525E-01
 cg2d: Sum(rhs),rhsMax =  -1.17169607349865E-11  1.44797053215569E-01
 cg2d: Sum(rhs),rhsMax =  -1.17286180767451E-11  1.44846126584463E-01
 cg2d: Sum(rhs),rhsMax =  -1.17406084854110E-11  1.44861813591994E-01
 cg2d: Sum(rhs),rhsMax =  -1.17258425191835E-11  1.44844513797823E-01
 cg2d: Sum(rhs),rhsMax =  -1.17419407530406E-11  1.44797754803947E-01
 cg2d: Sum(rhs),rhsMax =  -1.17391651954790E-11  1.44717903779958E-01
 cg2d: Sum(rhs),rhsMax =  -1.17326148796337E-11  1.44618655705745E-01
 cg2d: Sum(rhs),rhsMax =  -1.16950893414014E-11  1.44478583250577E-01
 cg2d: Sum(rhs),rhsMax =  -1.16925358284448E-11  1.44306991571474E-01
 cg2d: Sum(rhs),rhsMax =  -1.17070797500674E-11  1.44108261127414E-01
 cg2d: Sum(rhs),rhsMax =  -1.17023057910615E-11  1.43885106690310E-01
 cg2d: Sum(rhs),rhsMax =  -1.17059695270427E-11  1.43642041196739E-01
 cg2d: Sum(rhs),rhsMax =  -1.17255094522761E-11  1.43355516598359E-01
 cg2d: Sum(rhs),rhsMax =  -1.17371667940347E-11  1.43035219351323E-01
 cg2d: Sum(rhs),rhsMax =  -1.17065246385550E-11  1.42688757126561E-01
 cg2d: Sum(rhs),rhsMax =  -1.16801013305690E-11  1.42314747935955E-01
 cg2d: Sum(rhs),rhsMax =  -1.16795462190566E-11  1.41927031734471E-01
 cg2d: Sum(rhs),rhsMax =  -1.17013065903393E-11  1.41503133811829E-01
 cg2d: Sum(rhs),rhsMax =  -1.17622578343912E-11  1.41050717373253E-01
 cg2d: Sum(rhs),rhsMax =  -1.17906795438216E-11  1.40573387858609E-01
 cg2d: Sum(rhs),rhsMax =  -1.18178800079249E-11  1.40073648909981E-01
 cg2d: Sum(rhs),rhsMax =  -1.18450804720283E-11  1.39560436971464E-01
 cg2d: Sum(rhs),rhsMax =  -1.18453025166332E-11  1.39012736192351E-01
 cg2d: Sum(rhs),rhsMax =  -1.18516307878735E-11  1.38441396349069E-01
 cg2d: Sum(rhs),rhsMax =  -1.18572929252991E-11  1.37850675336160E-01
 cg2d: Sum(rhs),rhsMax =  -1.19222409722397E-11  1.37240602377926E-01
 cg2d: Sum(rhs),rhsMax =  -1.20541354675652E-11  1.36612010634799E-01
 cg2d: Sum(rhs),rhsMax =  -1.20231602451781E-11  1.35977352783812E-01
 cg2d: Sum(rhs),rhsMax =  -1.20133902825614E-11  1.35311595047445E-01
 cg2d: Sum(rhs),rhsMax =  -1.20322640739801E-11  1.34625111811438E-01
 cg2d: Sum(rhs),rhsMax =  -1.20506937761888E-11  1.33920856030124E-01
 cg2d: Sum(rhs),rhsMax =  -1.20679022330705E-11  1.33205906585515E-01
 cg2d: Sum(rhs),rhsMax =  -1.20825571769956E-11  1.32486131822849E-01
 cg2d: Sum(rhs),rhsMax =  -1.21113119533334E-11  1.31735323829325E-01
 cg2d: Sum(rhs),rhsMax =  -1.21489485138682E-11  1.30960802408784E-01
 cg2d: Sum(rhs),rhsMax =  -1.21817000930946E-11  1.30173166637053E-01
 cg2d: Sum(rhs),rhsMax =  -1.22266641255919E-11  1.29368528999187E-01
 cg2d: Sum(rhs),rhsMax =  -1.22798438084715E-11  1.28552993591976E-01
 cg2d: Sum(rhs),rhsMax =  -1.23416832309431E-11  1.27724285867409E-01
 cg2d: Sum(rhs),rhsMax =  -1.24409371693446E-11  1.26889607517358E-01
 cg2d: Sum(rhs),rhsMax =  -1.25275345652653E-11  1.26016672071844E-01
 cg2d: Sum(rhs),rhsMax =  -1.26575416814489E-11  1.25115792459932E-01
 cg2d: Sum(rhs),rhsMax =  -1.27642341141154E-11  1.24198746503675E-01
 cg2d: Sum(rhs),rhsMax =  -1.28828059331454E-11  1.23270209152655E-01
 cg2d: Sum(rhs),rhsMax =  -1.29584121211224E-11  1.22329599247642E-01
 cg2d: Sum(rhs),rhsMax =  -1.30466748515801E-11  1.21390426773779E-01
 cg2d: Sum(rhs),rhsMax =  -1.32895916493680E-11  1.20432573124622E-01
 cg2d: Sum(rhs),rhsMax =  -1.34202648993664E-11  1.19445649667364E-01
 cg2d: Sum(rhs),rhsMax =  -1.35176314586261E-11  1.18445826593266E-01
 cg2d: Sum(rhs),rhsMax =  -1.36322064747674E-11  1.17428715430078E-01
 cg2d: Sum(rhs),rhsMax =  -1.36960442986833E-11  1.16647110059384E-01
 cg2d: Sum(rhs),rhsMax =  -1.35433886327974E-11  1.17799770605851E-01
 cg2d: Sum(rhs),rhsMax =  -1.34030564424847E-11  1.18871204871717E-01
 cg2d: Sum(rhs),rhsMax =  -1.32940325414665E-11  1.19857060156968E-01
 cg2d: Sum(rhs),rhsMax =  -1.32069910563359E-11  1.20757368111860E-01
 cg2d: Sum(rhs),rhsMax =  -1.30766508732449E-11  1.21573146950643E-01
 cg2d: Sum(rhs),rhsMax =  -1.29630750578258E-11  1.22309835477499E-01
 cg2d: Sum(rhs),rhsMax =  -1.28520527553633E-11  1.22954914551734E-01
 cg2d: Sum(rhs),rhsMax =  -1.27984289832739E-11  1.23525309575662E-01
 cg2d: Sum(rhs),rhsMax =  -1.26946231304714E-11  1.24041418679385E-01
 cg2d: Sum(rhs),rhsMax =  -1.26342269979318E-11  1.24467623615423E-01
 cg2d: Sum(rhs),rhsMax =  -1.25547350293687E-11  1.24820661837830E-01
 cg2d: Sum(rhs),rhsMax =  -1.24983356997177E-11  1.25098626121417E-01
 cg2d: Sum(rhs),rhsMax =  -1.24442678384185E-11  1.25313447796242E-01
 cg2d: Sum(rhs),rhsMax =  -1.24293908498885E-11  1.25440793037048E-01
 cg2d: Sum(rhs),rhsMax =  -1.23703269849784E-11  1.25494539002707E-01
 cg2d: Sum(rhs),rhsMax =  -1.23275833985304E-11  1.25468465564372E-01
 cg2d: Sum(rhs),rhsMax =  -1.23334675805609E-11  1.25357379959062E-01
 cg2d: Sum(rhs),rhsMax =  -1.23224763726171E-11  1.25167093334430E-01
 cg2d: Sum(rhs),rhsMax =  -1.23067112056674E-11  1.24889961787488E-01
 cg2d: Sum(rhs),rhsMax =  -1.22778454070271E-11  1.24521479784356E-01
 cg2d: Sum(rhs),rhsMax =  -1.22376553335357E-11  1.24073599826045E-01
 cg2d: Sum(rhs),rhsMax =  -1.22581944594913E-11  1.23548955285016E-01
 cg2d: Sum(rhs),rhsMax =  -1.20251586466225E-11  1.25142197791284E-01
 cg2d: Sum(rhs),rhsMax =  -1.18437482043987E-11  1.26797503462954E-01
 cg2d: Sum(rhs),rhsMax =  -1.16801013305690E-11  1.28421784547140E-01
 cg2d: Sum(rhs),rhsMax =  -1.15052412041905E-11  1.30013940784767E-01
 cg2d: Sum(rhs),rhsMax =  -1.14170894960353E-11  1.31573497633964E-01
 cg2d: Sum(rhs),rhsMax =  -1.12896358928083E-11  1.33105340352610E-01
 cg2d: Sum(rhs),rhsMax =  -1.11121112311707E-11  1.34595009721428E-01
 cg2d: Sum(rhs),rhsMax =  -1.09116049529234E-11  1.36044774051442E-01
 cg2d: Sum(rhs),rhsMax =  -1.07548414618464E-11  1.37450459149606E-01
 cg2d: Sum(rhs),rhsMax =  -1.06240571895455E-11  1.38813329489616E-01
(PID.TID 0000.0001)      cg2d_init_res =   6.52725754665641E-02
(PID.TID 0000.0001)      cg2d_iters(min,last) =      -1      28
(PID.TID 0000.0001)      cg2d_last_res =   8.08178808040502E-14
(PID.TID 0000.0001) // =======================================================
(PID.TID 0000.0001) // Begin MONITOR dynamic field statistics
(PID.TID 0000.0001) // =======================================================
(PID.TID 0000.0001) %MON time_tsnumber                =                  4800
(PID.TID 0000.0001) %MON time_secondsf                =   7.2000000000000E+04
(PID.TID 0000.0001) %MON dynstat_eta_max              =   7.4377728961288E-03
(PID.TID 0000.0001) %MON dynstat_eta_min              =  -1.6076581134194E-02
(PID.TID 0000.0001) %MON dynstat_eta_mean             =   1.7101016454794E-15
(PID.TID 0000.0001) %MON dynstat_eta_sd               =   5.1618819242496E-03
(PID.TID 0000.0001) %MON dynstat_eta_del2             =   1.4717516697991E-04
(PID.TID 0000.0001) %MON dynstat_uvel_max             =   1.2247960888957E+00
(PID.TID 0000.0001) %MON dynstat_uvel_min             =  -5.5743166559631E-01
(PID.TID 0000.0001) %MON dynstat_uvel_mean            =  -1.8638800657486E-04
(PID.TID 0000.0001) %MON dynstat_uvel_sd              =   1.2673732102493E-01
(PID.TID 0000.0001) %MON dynstat_uvel_del2            =   6.1697416890546E-04
(PID.TID 0000.0001) %MON dynstat_vvel_max             =   0.0000000000000E+00
(PID.TID 0000.0001) %MON dynstat_vvel_min             =   0.0000000000000E+00
(PID.TID 0000.0001) %MON dynstat_vvel_mean            =   0.0000000000000E+00
(PID.TID 0000.0001) %MON dynstat_vvel_sd              =   0.0000000000000E+00
(PID.TID 0000.0001) %MON dynstat_vvel_del2            =   0.0000000000000E+00
(PID.TID 0000.0001) %MON dynstat_wvel_max             =   4.1402254844873E-02
(PID.TID 0000.0001) %MON dynstat_wvel_min             =  -3.1496174562129E-02
(PID.TID 0000.0001) %MON dynstat_wvel_mean            =  -9.1962870207820E-20
(PID.TID 0000.0001) %MON dynstat_wvel_sd              =   3.9142434774875E-03
(PID.TID 0000.0001) %MON dynstat_wvel_del2            =   7.2021185589665E-05
(PID.TID 0000.0001) %MON dynstat_theta_max            =   1.5000000000356E+01
(PID.TID 0000.0001) %MON dynstat_theta_min            =   9.9999999999935E+00
(PID.TID 0000.0001) %MON dynstat_theta_mean           =   1.3087476936119E+01
(PID.TID 0000.0001) %MON dynstat_theta_sd             =   2.3389098452938E+00
(PID.TID 0000.0001) %MON dynstat_theta_del2           =   1.6924330151803E-03
(PID.TID 0000.0001) %MON dynstat_salt_max             =   3.5000000000000E+01
(PID.TID 0000.0001) %MON dynstat_salt_min             =   3.5000000000000E+01
(PID.TID 0000.0001) %MON dynstat_salt_mean            =   3.5000000000000E+01
(PID.TID 0000.0001) %MON dynstat_salt_sd              =   7.1054273576010E-15
(PID.TID 0000.0001) %MON dynstat_salt_del2            =   0.0000000000000E+00
(PID.TID 0000.0001) %MON dynstat_sst_max              =   1.5000000000009E+01
(PID.TID 0000.0001) %MON dynstat_sst_min              =   1.4999364738128E+01
(PID.TID 0000.0001) %MON dynstat_sst_mean             =   1.4999992257681E+01
(PID.TID 0000.0001) %MON dynstat_sst_sd               =   5.7781419906795E-05
(PID.TID 0000.0001) %MON dynstat_sst_del2             =   3.2843381389206E-06
(PID.TID 0000.0001) %MON dynstat_sss_max              =   3.5000000000000E+01
(PID.TID 0000.0001) %MON dynstat_sss_min              =   3.5000000000000E+01
(PID.TID 0000.0001) %MON dynstat_sss_mean             =   3.5000000000000E+01
(PID.TID 0000.0001) %MON dynstat_sss_sd               =   0.0000000000000E+00
(PID.TID 0000.0001) %MON dynstat_sss_del2             =   0.0000000000000E+00
(PID.TID 0000.0001) %MON forcing_qnet_max             =   0.0000000000000E+00
(PID.TID 0000.0001) %MON forcing_qnet_min             =   0.0000000000000E+00
(PID.TID 0000.0001) %MON forcing_qnet_mean            =   0.0000000000000E+00
(PID.TID 0000.0001) %MON forcing_qnet_sd              =   0.0000000000000E+00
(PID.TID 0000.0001) %MON forcing_qnet_del2            =   0.0000000000000E+00
(PID.TID 0000.0001) %MON forcing_qsw_max              =   0.0000000000000E+00
(PID.TID 0000.0001) %MON forcing_qsw_min              =   0.0000000000000E+00
(PID.TID 0000.0001) %MON forcing_qsw_mean             =   0.0000000000000E+00
(PID.TID 0000.0001) %MON forcing_qsw_sd               =   0.0000000000000E+00
(PID.TID 0000.0001) %MON forcing_qsw_del2             =   0.0000000000000E+00
(PID.TID 0000.0001) %MON forcing_empmr_max            =   0.0000000000000E+00
(PID.TID 0000.0001) %MON forcing_empmr_min            =   0.0000000000000E+00
(PID.TID 0000.0001) %MON forcing_empmr_mean           =   0.0000000000000E+00
(PID.TID 0000.0001) %MON forcing_empmr_sd             =   0.0000000000000E+00
(PID.TID 0000.0001) %MON forcing_empmr_del2           =   0.0000000000000E+00
(PID.TID 0000.0001) %MON forcing_fu_max               =   0.0000000000000E+00
(PID.TID 0000.0001) %MON forcing_fu_min               =   0.0000000000000E+00
(PID.TID 0000.0001) %MON forcing_fu_mean              =   0.0000000000000E+00
(PID.TID 0000.0001) %MON forcing_fu_sd                =   0.0000000000000E+00
(PID.TID 0000.0001) %MON forcing_fu_del2              =   0.0000000000000E+00
(PID.TID 0000.0001) %MON forcing_fv_max               =   0.0000000000000E+00
(PID.TID 0000.0001) %MON forcing_fv_min               =   0.0000000000000E+00
(PID.TID 0000.0001) %MON forcing_fv_mean              =   0.0000000000000E+00
(PID.TID 0000.0001) %MON forcing_fv_sd                =   0.0000000000000E+00
(PID.TID 0000.0001) %MON forcing_fv_del2              =   0.0000000000000E+00
(PID.TID 0000.0001) %MON advcfl_uvel_max              =   6.3153259317711E-02
(PID.TID 0000.0001) %MON advcfl_vvel_max              =   0.0000000000000E+00
(PID.TID 0000.0001) %MON advcfl_wvel_max              =   5.1368718818058E-01
(PID.TID 0000.0001) %MON advcfl_W_hf_max              =   5.2048249038391E-01
(PID.TID 0000.0001) %MON pe_b_mean                    =   7.4799285266104E-07
(PID.TID 0000.0001) %MON ke_max                       =   5.5014869363976E-01
(PID.TID 0000.0001) %MON ke_mean                      =   8.1200922250760E-03
(PID.TID 0000.0001) %MON ke_vol                       =   8.5336562999261E+10
(PID.TID 0000.0001) %MON vort_r_min                   =   0.0000000000000E+00
(PID.TID 0000.0001) %MON vort_r_max                   =   0.0000000000000E+00
(PID.TID 0000.0001) %MON vort_a_mean                  =   0.0000000000000E+00
(PID.TID 0000.0001) %MON vort_a_sd                    =   0.0000000000000E+00
(PID.TID 0000.0001) %MON vort_p_mean                  =   0.0000000000000E+00
(PID.TID 0000.0001) %MON vort_p_sd                    =   0.0000000000000E+00
(PID.TID 0000.0001) %MON surfExpan_theta_mean         =  -2.4009948458506E-11
(PID.TID 0000.0001) %MON surfExpan_salt_mean          =  -5.7840616354575E-18
(PID.TID 0000.0001) // =======================================================
(PID.TID 0000.0001) // End MONITOR dynamic field statistics
(PID.TID 0000.0001) // =======================================================
(PID.TID 0000.0001) // =======================================================
(PID.TID 0000.0001) // Begin OBCS MONITOR field statistics
(PID.TID 0000.0001) // =======================================================
(PID.TID 0000.0001) %MON obc_E_uVel_max               =   0.0000000000000E+00
(PID.TID 0000.0001) %MON obc_E_uVel_min               =   0.0000000000000E+00
(PID.TID 0000.0001) %MON obc_E_uVel_mean              =   0.0000000000000E+00
(PID.TID 0000.0001) %MON obc_E_uVel_sd                =   0.0000000000000E+00
(PID.TID 0000.0001) %MON obc_E_uVel_Int               =   0.0000000000000E+00
(PID.TID 0000.0001) %MON obc_W_uVel_max               =   0.0000000000000E+00
(PID.TID 0000.0001) %MON obc_W_uVel_min               =   0.0000000000000E+00
(PID.TID 0000.0001) %MON obc_W_uVel_mean              =   0.0000000000000E+00
(PID.TID 0000.0001) %MON obc_W_uVel_sd                =   0.0000000000000E+00
(PID.TID 0000.0001) %MON obc_W_uVel_Int               =   0.0000000000000E+00
(PID.TID 0000.0001) // =======================================================
(PID.TID 0000.0001) // End OBCS MONITOR field statistics
(PID.TID 0000.0001) // =======================================================
 cg2d: Sum(rhs),rhsMax =  -1.05497277580469E-11  1.40134398275698E-01
 cg2d: Sum(rhs),rhsMax =  -1.05451758436459E-11  1.41421312007182E-01
 cg2d: Sum(rhs),rhsMax =  -1.05167541342155E-11  1.42662527748328E-01
 cg2d: Sum(rhs),rhsMax =  -1.04770636610851E-11  1.43861928244690E-01
 cg2d: Sum(rhs),rhsMax =  -1.03852482169486E-11  1.45019996574527E-01
 cg2d: Sum(rhs),rhsMax =  -1.03592134870212E-11  1.46133395934554E-01
 cg2d: Sum(rhs),rhsMax =  -1.03367314707725E-11  1.47199281068783E-01
 cg2d: Sum(rhs),rhsMax =  -1.03101416293327E-11  1.48229764037692E-01
 cg2d: Sum(rhs),rhsMax =  -1.02627906173325E-11  1.49212896833248E-01
 cg2d: Sum(rhs),rhsMax =  -1.03054786926293E-11  1.50148957512539E-01
 cg2d: Sum(rhs),rhsMax =  -1.02963193526762E-11  1.51037900370299E-01
 cg2d: Sum(rhs),rhsMax =  -1.03001496221111E-11  1.51886038275543E-01
 cg2d: Sum(rhs),rhsMax =  -1.02076125330086E-11  1.52685505185465E-01
 cg2d: Sum(rhs),rhsMax =  -1.01045283251722E-11  1.53441903843734E-01
 cg2d: Sum(rhs),rhsMax =  -1.00283115145317E-11  1.54158253051828E-01
 cg2d: Sum(rhs),rhsMax =  -9.95187265928621E-12  1.54835350240848E-01
 cg2d: Sum(rhs),rhsMax =  -9.87354642489890E-12  1.55479505518154E-01
 cg2d: Sum(rhs),rhsMax =  -9.81970060820458E-12  1.56074935886880E-01
 cg2d: Sum(rhs),rhsMax =  -9.78467307177766E-12  1.56621665224700E-01
 cg2d: Sum(rhs),rhsMax =  -9.86061232666202E-12  1.57125447948163E-01
 cg2d: Sum(rhs),rhsMax =  -9.92772530850061E-12  1.57593664972740E-01
 cg2d: Sum(rhs),rhsMax =  -1.00052743867707E-11  1.58015539219570E-01
 cg2d: Sum(rhs),rhsMax =  -1.00466857055892E-11  1.58398045661838E-01
 cg2d: Sum(rhs),rhsMax =  -1.01184061129800E-11  1.58741974933682E-01
 cg2d: Sum(rhs),rhsMax =  -1.01655905915266E-11  1.59046588511443E-01
 cg2d: Sum(rhs),rhsMax =  -1.01880726077752E-11  1.59319452659070E-01
 cg2d: Sum(rhs),rhsMax =  -1.01897934534634E-11  1.59543511382392E-01
 cg2d: Sum(rhs),rhsMax =  -1.01580965861103E-11  1.59728036199412E-01
 cg2d: Sum(rhs),rhsMax =  -1.01464947555030E-11  1.59877192627438E-01
 cg2d: Sum(rhs),rhsMax =  -1.01277319863868E-11  1.59994499004546E-01
 cg2d: Sum(rhs),rhsMax =  -1.02380881550346E-11  1.60081740342974E-01
 cg2d: Sum(rhs),rhsMax =  -1.02779451616186E-11  1.60122910996920E-01
 cg2d: Sum(rhs),rhsMax =  -1.02972630422471E-11  1.60126290017823E-01
 cg2d: Sum(rhs),rhsMax =  -1.04026232072840E-11  1.60095876956118E-01
 cg2d: Sum(rhs),rhsMax =  -1.04268815803721E-11  1.60029108527052E-01
 cg2d: Sum(rhs),rhsMax =  -1.04475872397813E-11  1.59938016931184E-01
 cg2d: Sum(rhs),rhsMax =  -1.04663500088975E-11  1.59804604018790E-01
 cg2d: Sum(rhs),rhsMax =  -1.04717345905669E-11  1.59632718599260E-01
 cg2d: Sum(rhs),rhsMax =  -1.04915520715565E-11  1.59428897498920E-01
 cg2d: Sum(rhs),rhsMax =  -1.05410125073035E-11  1.59191843118108E-01
 cg2d: Sum(rhs),rhsMax =  -1.05692121721290E-11  1.58929236334284E-01
 cg2d: Sum(rhs),rhsMax =  -1.06166186952805E-11  1.58624025315196E-01
 cg2d: Sum(rhs),rhsMax =  -1.06356590201528E-11  1.58283240734529E-01
 cg2d: Sum(rhs),rhsMax =  -1.06706865565798E-11  1.57911652839552E-01
 cg2d: Sum(rhs),rhsMax =  -1.07159281448332E-11  1.57509562792749E-01
 cg2d: Sum(rhs),rhsMax =  -1.07205910815367E-11  1.57082804578807E-01
 cg2d: Sum(rhs),rhsMax =  -1.07444053654149E-11  1.56613926754081E-01
 cg2d: Sum(rhs),rhsMax =  -1.07656661363364E-11  1.56109889479982E-01
 cg2d: Sum(rhs),rhsMax =  -1.07825970374620E-11  1.55573197067592E-01
 cg2d: Sum(rhs),rhsMax =  -1.07837072604866E-11  1.55009103761195E-01
 cg2d: Sum(rhs),rhsMax =  -1.07914233105078E-11  1.54424879347534E-01
 cg2d: Sum(rhs),rhsMax =  -1.08032471857200E-11  1.53803732298798E-01
 cg2d: Sum(rhs),rhsMax =  -1.08292264044962E-11  1.53153721566518E-01
 cg2d: Sum(rhs),rhsMax =  -1.08630882067473E-11  1.52480108167179E-01
 cg2d: Sum(rhs),rhsMax =  -1.09113273971673E-11  1.51779599162505E-01
 cg2d: Sum(rhs),rhsMax =  -1.09735553976975E-11  1.51061012691214E-01
 cg2d: Sum(rhs),rhsMax =  -1.10458309166006E-11  1.50309310906304E-01
 cg2d: Sum(rhs),rhsMax =  -1.12028164522826E-11  1.49534013213459E-01
 cg2d: Sum(rhs),rhsMax =  -1.12440057264962E-11  1.48737278689366E-01
 cg2d: Sum(rhs),rhsMax =  -1.13342668583982E-11  1.47919327557558E-01
 cg2d: Sum(rhs),rhsMax =  -1.13684062164054E-11  1.47088509635421E-01
 cg2d: Sum(rhs),rhsMax =  -1.14199760758993E-11  1.46232767271744E-01
 cg2d: Sum(rhs),rhsMax =  -1.14834808329078E-11  1.45357287480167E-01
 cg2d: Sum(rhs),rhsMax =  -1.15196741035106E-11  1.44461008587527E-01
 cg2d: Sum(rhs),rhsMax =  -1.15633613795296E-11  1.43548350462205E-01
 cg2d: Sum(rhs),rhsMax =  -1.16103793246225E-11  1.42614976597082E-01
 cg2d: Sum(rhs),rhsMax =  -1.16985865439290E-11  1.41672260293773E-01
 cg2d: Sum(rhs),rhsMax =  -1.17725273973690E-11  1.40699695801609E-01
 cg2d: Sum(rhs),rhsMax =  -1.18510201652100E-11  1.39709928442150E-01
 cg2d: Sum(rhs),rhsMax =  -1.19496634809479E-11  1.38708290625295E-01
 cg2d: Sum(rhs),rhsMax =  -1.20360943434150E-11  1.37693781048807E-01
 cg2d: Sum(rhs),rhsMax =  -1.21292975663323E-11  1.36673944787551E-01
 cg2d: Sum(rhs),rhsMax =  -1.22329368856811E-11  1.35630677274873E-01
 cg2d: Sum(rhs),rhsMax =  -1.23074883617846E-11  1.34572937185464E-01
 cg2d: Sum(rhs),rhsMax =  -1.24020793634827E-11  1.33501461389609E-01
 cg2d: Sum(rhs),rhsMax =  -1.24832921777340E-11  1.32415035602719E-01
 cg2d: Sum(rhs),rhsMax =  -1.25870980305365E-11  1.31314678628293E-01
 cg2d: Sum(rhs),rhsMax =  -1.26680888001829E-11  1.30209898291857E-01
 cg2d: Sum(rhs),rhsMax =  -1.27226007506920E-11  1.29076603042052E-01
 cg2d: Sum(rhs),rhsMax =  -1.28633215190632E-11  1.27925718780671E-01
 cg2d: Sum(rhs),rhsMax =  -1.30315758184452E-11  1.26762376060965E-01
 cg2d: Sum(rhs),rhsMax =  -1.31775146350321E-11  1.25585594761802E-01
 cg2d: Sum(rhs),rhsMax =  -1.33520972056544E-11  1.24398392917201E-01
 cg2d: Sum(rhs),rhsMax =  -1.34680600005765E-11  1.23208894597257E-01
 cg2d: Sum(rhs),rhsMax =  -1.36288202945423E-11  1.22000539856407E-01
 cg2d: Sum(rhs),rhsMax =  -1.38050681997015E-11  1.20784508471133E-01
 cg2d: Sum(rhs),rhsMax =  -1.40013001193040E-11  1.19557375514316E-01
 cg2d: Sum(rhs),rhsMax =  -1.41545108967023E-11  1.18320221906488E-01
 cg2d: Sum(rhs),rhsMax =  -1.43008938024991E-11  1.17088895920643E-01
 cg2d: Sum(rhs),rhsMax =  -1.44102507704247E-11  1.15834871007166E-01
 cg2d: Sum(rhs),rhsMax =  -1.43854927969755E-11  1.15899108549826E-01
 cg2d: Sum(rhs),rhsMax =  -1.40898959166691E-11  1.17916933560272E-01
 cg2d: Sum(rhs),rhsMax =  -1.38309919073265E-11  1.19921733209590E-01
 cg2d: Sum(rhs),rhsMax =  -1.35551569968584E-11  1.21886336368868E-01
 cg2d: Sum(rhs),rhsMax =  -1.32889810267045E-11  1.23797231578786E-01
 cg2d: Sum(rhs),rhsMax =  -1.30498389872002E-11  1.25663629137688E-01
 cg2d: Sum(rhs),rhsMax =  -1.28086430351004E-11  1.27493078547831E-01
 cg2d: Sum(rhs),rhsMax =  -1.26327281968486E-11  1.29288821861807E-01
 cg2d: Sum(rhs),rhsMax =  -1.25075505508221E-11  1.31054791552675E-01
 cg2d: Sum(rhs),rhsMax =  -1.23743237878671E-11  1.32784231666663E-01
 cg2d: Sum(rhs),rhsMax =  -1.22220011888885E-11  1.34481563115683E-01
 cg2d: Sum(rhs),rhsMax =  -1.20723986363203E-11  1.36141737067839E-01
 cg2d: Sum(rhs),rhsMax =  -1.19531051723243E-11  1.37764605901209E-01
 cg2d: Sum(rhs),rhsMax =  -1.18224319223259E-11  1.39354400067112E-01
 cg2d: Sum(rhs),rhsMax =  -1.17040821479009E-11  1.40911555291693E-01
 cg2d: Sum(rhs),rhsMax =  -1.15321641125377E-11  1.42425099408061E-01
 cg2d: Sum(rhs),rhsMax =  -1.14942499962467E-11  1.43906836831258E-01
 cg2d: Sum(rhs),rhsMax =  -1.14149800722885E-11  1.45351810190893E-01
 cg2d: Sum(rhs),rhsMax =  -1.13032361248599E-11  1.46754385279537E-01
 cg2d: Sum(rhs),rhsMax =  -1.12181375300224E-11  1.48112836915149E-01
 cg2d: Sum(rhs),rhsMax =  -1.11857745288546E-11  1.49431914113600E-01
 cg2d: Sum(rhs),rhsMax =  -1.11494147247981E-11  1.50715395875348E-01
 cg2d: Sum(rhs),rhsMax =  -1.10719211576793E-11  1.51956699044531E-01
 cg2d: Sum(rhs),rhsMax =  -1.09912634549403E-11  1.53151911052032E-01
 cg2d: Sum(rhs),rhsMax =  -1.09262598968485E-11  1.54304460405873E-01
 cg2d: Sum(rhs),rhsMax =  -1.08839048884590E-11  1.55417044170327E-01
 cg2d: Sum(rhs),rhsMax =  -1.08569819801119E-11  1.56490974262461E-01
 cg2d: Sum(rhs),rhsMax =  -1.08346664973169E-11  1.57521371447816E-01
 cg2d: Sum(rhs),rhsMax =  -1.07995834497387E-11  1.58505106221761E-01
 cg2d: Sum(rhs),rhsMax =  -1.07844844166038E-11  1.59455297727318E-01
 cg2d: Sum(rhs),rhsMax =  -1.07647224467655E-11  1.60376249670240E-01
 cg2d: Sum(rhs),rhsMax =  -1.07537867499730E-11  1.61244947319489E-01
 cg2d: Sum(rhs),rhsMax =  -1.07402975402238E-11  1.62054024924065E-01
 cg2d: Sum(rhs),rhsMax =  -1.07347464251006E-11  1.62813333165354E-01
 cg2d: Sum(rhs),rhsMax =  -1.07265862858696E-11  1.63528862992594E-01
 cg2d: Sum(rhs),rhsMax =  -1.07290287765238E-11  1.64201943811140E-01
 cg2d: Sum(rhs),rhsMax =  -1.07294173545824E-11  1.64838654956987E-01
 cg2d: Sum(rhs),rhsMax =  -1.07083231171146E-11  1.65440173693885E-01
 cg2d: Sum(rhs),rhsMax =  -1.07013287120594E-11  1.66001899251519E-01
 cg2d: Sum(rhs),rhsMax =  -1.06675779321108E-11  1.66520116002064E-01
 cg2d: Sum(rhs),rhsMax =  -1.06189501636322E-11  1.66997436829844E-01
 cg2d: Sum(rhs),rhsMax =  -1.06404329791587E-11  1.67441156051809E-01
 cg2d: Sum(rhs),rhsMax =  -1.06525344101271E-11  1.67845084915570E-01
 cg2d: Sum(rhs),rhsMax =  -1.06793462961718E-11  1.68210071633608E-01
 cg2d: Sum(rhs),rhsMax =  -1.07225339718298E-11  1.68542551700725E-01
 cg2d: Sum(rhs),rhsMax =  -1.07752140543482E-11  1.68829541663158E-01
 cg2d: Sum(rhs),rhsMax =  -1.08155706612933E-11  1.69076377802716E-01
 cg2d: Sum(rhs),rhsMax =  -1.08635322959572E-11  1.69288111036529E-01
 cg2d: Sum(rhs),rhsMax =  -1.08982267654767E-11  1.69476888141946E-01
 cg2d: Sum(rhs),rhsMax =  -1.09093289957229E-11  1.69625568258332E-01
 cg2d: Sum(rhs),rhsMax =  -1.09248166069165E-11  1.69732392041838E-01
 cg2d: Sum(rhs),rhsMax =  -1.09236508727406E-11  1.69791713663916E-01
 cg2d: Sum(rhs),rhsMax =  -1.09069420162200E-11  1.69801517700431E-01
 cg2d: Sum(rhs),rhsMax =  -1.08789643959994E-11  1.69772370490166E-01
 cg2d: Sum(rhs),rhsMax =  -1.08624220729325E-11  1.69711326548513E-01
 cg2d: Sum(rhs),rhsMax =  -1.08668629650310E-11  1.69622881914178E-01
 cg2d: Sum(rhs),rhsMax =  -1.09021125460629E-11  1.69495881956490E-01
 cg2d: Sum(rhs),rhsMax =  -1.09459663555356E-11  1.69338237085209E-01
 cg2d: Sum(rhs),rhsMax =  -1.09753317545369E-11  1.69142556617340E-01
 cg2d: Sum(rhs),rhsMax =  -1.10340070413883E-11  1.68913343380760E-01
 cg2d: Sum(rhs),rhsMax =  -1.11097242516678E-11  1.68645518734898E-01
 cg2d: Sum(rhs),rhsMax =  -1.11397002733327E-11  1.68343785742228E-01
 cg2d: Sum(rhs),rhsMax =  -1.11236575506268E-11  1.68013911630506E-01
 cg2d: Sum(rhs),rhsMax =  -1.11012865566806E-11  1.67657847350424E-01
 cg2d: Sum(rhs),rhsMax =  -1.10799702746078E-11  1.67266984632501E-01
 cg2d: Sum(rhs),rhsMax =  -1.10775277839537E-11  1.66838116147517E-01
 cg2d: Sum(rhs),rhsMax =  -1.10652598195315E-11  1.66374959558080E-01
 cg2d: Sum(rhs),rhsMax =  -1.10418341137120E-11  1.65886642443465E-01
 cg2d: Sum(rhs),rhsMax =  -1.10242370787716E-11  1.65363917936310E-01
 cg2d: Sum(rhs),rhsMax =  -1.10071951553437E-11  1.64810559056031E-01
 cg2d: Sum(rhs),rhsMax =  -1.09733888642438E-11  1.64224514765129E-01
 cg2d: Sum(rhs),rhsMax =  -1.09857678509684E-11  1.63610827860659E-01
 cg2d: Sum(rhs),rhsMax =  -1.09654507696177E-11  1.62964353495889E-01
 cg2d: Sum(rhs),rhsMax =  -1.09590114760749E-11  1.62283339441691E-01
 cg2d: Sum(rhs),rhsMax =  -1.09807163362063E-11  1.61577417646237E-01
 cg2d: Sum(rhs),rhsMax =  -1.09605657883094E-11  1.60847767799391E-01
 cg2d: Sum(rhs),rhsMax =  -1.09638964573833E-11  1.60080847517182E-01
 cg2d: Sum(rhs),rhsMax =  -1.10772502281975E-11  1.59282406960722E-01
 cg2d: Sum(rhs),rhsMax =  -1.11986531159403E-11  1.58459161867714E-01
 cg2d: Sum(rhs),rhsMax =  -1.12933551399408E-11  1.57617861867238E-01
 cg2d: Sum(rhs),rhsMax =  -1.13524745160021E-11  1.56749186251132E-01
 cg2d: Sum(rhs),rhsMax =  -1.13962728143235E-11  1.55856371911056E-01
 cg2d: Sum(rhs),rhsMax =  -1.14490084079932E-11  1.54948753509696E-01
 cg2d: Sum(rhs),rhsMax =  -1.15027987135363E-11  1.54014780494866E-01
 cg2d: Sum(rhs),rhsMax =  -1.15858433957783E-11  1.53063878754355E-01
 cg2d: Sum(rhs),rhsMax =  -1.16806009309300E-11  1.52085740559202E-01
 cg2d: Sum(rhs),rhsMax =  -1.17317267012140E-11  1.51087917322034E-01
 cg2d: Sum(rhs),rhsMax =  -1.17542642286139E-11  1.50072284955905E-01
 cg2d: Sum(rhs),rhsMax =  -1.17832965607079E-11  1.49038952071025E-01
 cg2d: Sum(rhs),rhsMax =  -1.18129950266166E-11  1.47998433673878E-01
 cg2d: Sum(rhs),rhsMax =  -1.18641763080518E-11  1.46933176819076E-01
 cg2d: Sum(rhs),rhsMax =  -1.19199650150392E-11  1.45847777129638E-01
 cg2d: Sum(rhs),rhsMax =  -1.19644294471755E-11  1.44745013772799E-01
 cg2d: Sum(rhs),rhsMax =  -1.20186638419284E-11  1.43628640142677E-01
 cg2d: Sum(rhs),rhsMax =  -1.20840559780788E-11  1.42495662403190E-01
 cg2d: Sum(rhs),rhsMax =  -1.21445631329209E-11  1.41364333687518E-01
 cg2d: Sum(rhs),rhsMax =  -1.21925802787359E-11  1.40201271483740E-01
 cg2d: Sum(rhs),rhsMax =  -1.22479804076647E-11  1.39015701694282E-01
 cg2d: Sum(rhs),rhsMax =  -1.22973298211093E-11  1.37815885727201E-01
 cg2d: Sum(rhs),rhsMax =  -1.23506760374426E-11  1.36616165567065E-01
 cg2d: Sum(rhs),rhsMax =  -1.23933641127394E-11  1.35399985187849E-01
 cg2d: Sum(rhs),rhsMax =  -1.24371068999096E-11  1.34168376697679E-01
 cg2d: Sum(rhs),rhsMax =  -1.25043309040507E-11  1.32925150328540E-01
 cg2d: Sum(rhs),rhsMax =  -1.25550125851248E-11  1.31668500602335E-01
 cg2d: Sum(rhs),rhsMax =  -1.26013643964029E-11  1.30401046474989E-01
 cg2d: Sum(rhs),rhsMax =  -1.26604282613130E-11  1.29133887353221E-01
 cg2d: Sum(rhs),rhsMax =  -1.27303723118644E-11  1.27845993278690E-01
 cg2d: Sum(rhs),rhsMax =  -1.28039800983970E-11  1.26544325715295E-01
 cg2d: Sum(rhs),rhsMax =  -1.28415056366293E-11  1.25235960547874E-01
 cg2d: Sum(rhs),rhsMax =  -1.28865806914291E-11  1.23919634626476E-01
 cg2d: Sum(rhs),rhsMax =  -1.27774457681085E-11  1.24365928591540E-01
 cg2d: Sum(rhs),rhsMax =  -1.25566224085105E-11  1.25643222825569E-01
 cg2d: Sum(rhs),rhsMax =  -1.23921983785635E-11  1.26726413527663E-01
 cg2d: Sum(rhs),rhsMax =  -1.23635546245282E-11  1.27505029127630E-01
 cg2d: Sum(rhs),rhsMax =  -1.22808430091936E-11  1.28043605446608E-01
 cg2d: Sum(rhs),rhsMax =  -1.22377663558382E-11  1.28342546211794E-01
 cg2d: Sum(rhs),rhsMax =  -1.21753718218542E-11  1.28358685885830E-01
 cg2d: Sum(rhs),rhsMax =  -1.21593846102996E-11  1.28141596881669E-01
 cg2d: Sum(rhs),rhsMax =  -1.21628263016760E-11  1.27654295369687E-01
 cg2d: Sum(rhs),rhsMax =  -1.22131194046915E-11  1.26928797694979E-01
 cg2d: Sum(rhs),rhsMax =  -1.22575283256765E-11  1.25964703694121E-01
 cg2d: Sum(rhs),rhsMax =  -1.23279164654377E-11  1.24766743076432E-01
 cg2d: Sum(rhs),rhsMax =  -1.24228405340432E-11  1.23319544460487E-01
 cg2d: Sum(rhs),rhsMax =  -1.25636168135657E-11  1.21648314649821E-01
 cg2d: Sum(rhs),rhsMax =  -1.25413013307707E-11  1.21704955499622E-01
 cg2d: Sum(rhs),rhsMax =  -1.23464571899490E-11  1.23361713401597E-01
 cg2d: Sum(rhs),rhsMax =  -1.21769261340887E-11  1.24988934494492E-01
 cg2d: Sum(rhs),rhsMax =  -1.19668719378296E-11  1.26587143627339E-01
 cg2d: Sum(rhs),rhsMax =  -1.18078880007033E-11  1.28157618351949E-01
 cg2d: Sum(rhs),rhsMax =  -1.16643361636193E-11  1.29697933066780E-01
 cg2d: Sum(rhs),rhsMax =  -1.15294440661273E-11  1.31209654518639E-01
 cg2d: Sum(rhs),rhsMax =  -1.13925535671910E-11  1.32688378742396E-01
 cg2d: Sum(rhs),rhsMax =  -1.12728715251365E-11  1.34139477694842E-01
 cg2d: Sum(rhs),rhsMax =  -1.11456399665144E-11  1.35559508304647E-01
 cg2d: Sum(rhs),rhsMax =  -1.10588205259887E-11  1.36945772625021E-01
 cg2d: Sum(rhs),rhsMax =  -1.09418030191932E-11  1.38298648601223E-01
 cg2d: Sum(rhs),rhsMax =  -1.08125730591269E-11  1.39620301253102E-01
 cg2d: Sum(rhs),rhsMax =  -1.06797903853817E-11  1.40910469381004E-01
 cg2d: Sum(rhs),rhsMax =  -1.05915276549240E-11  1.42168774552968E-01
 cg2d: Sum(rhs),rhsMax =  -1.05462305555193E-11  1.43399284735815E-01
 cg2d: Sum(rhs),rhsMax =  -1.04681818768881E-11  1.44593101276970E-01
 cg2d: Sum(rhs),rhsMax =  -1.02604591489808E-11  1.45750576524814E-01
 cg2d: Sum(rhs),rhsMax =  -1.00938701841358E-11  1.46872558007342E-01
 cg2d: Sum(rhs),rhsMax =  -9.94937465748080E-12  1.47961123978885E-01
 cg2d: Sum(rhs),rhsMax =  -9.81426051538392E-12  1.49014595189027E-01
 cg2d: Sum(rhs),rhsMax =  -9.66410285130337E-12  1.50032582690528E-01
 cg2d: Sum(rhs),rhsMax =  -9.53981338369658E-12  1.51014484144321E-01
 cg2d: Sum(rhs),rhsMax =  -9.44322398055419E-12  1.51961404755948E-01
 cg2d: Sum(rhs),rhsMax =  -9.32531829533900E-12  1.52873952932279E-01
 cg2d: Sum(rhs),rhsMax =  -9.20319376263024E-12  1.53754876041049E-01
 cg2d: Sum(rhs),rhsMax =  -9.09960995443271E-12  1.54598078345615E-01
 cg2d: Sum(rhs),rhsMax =  -9.03493946324829E-12  1.55402804142847E-01
 cg2d: Sum(rhs),rhsMax =  -9.03388475137490E-12  1.56172011021714E-01
 cg2d: Sum(rhs),rhsMax =  -9.01756447291291E-12  1.56905857405166E-01
 cg2d: Sum(rhs),rhsMax =  -8.98425778217415E-12  1.57604640316272E-01
 cg2d: Sum(rhs),rhsMax =  -8.83110251592711E-12  1.58268450439497E-01
 cg2d: Sum(rhs),rhsMax =  -8.78153105787760E-12  1.58903207214814E-01
 cg2d: Sum(rhs),rhsMax =  -8.67800276083130E-12  1.59501125723282E-01
 cg2d: Sum(rhs),rhsMax =  -8.72407701635325E-12  1.60058544246198E-01
 cg2d: Sum(rhs),rhsMax =  -8.73889849373199E-12  1.60576569231474E-01
 cg2d: Sum(rhs),rhsMax =  -8.72357741599217E-12  1.61058969489153E-01
 cg2d: Sum(rhs),rhsMax =  -8.71352989761931E-12  1.61512875231305E-01
 cg2d: Sum(rhs),rhsMax =  -8.67772520507515E-12  1.61927624158324E-01
 cg2d: Sum(rhs),rhsMax =  -8.64025517799405E-12  1.62305831392858E-01
 cg2d: Sum(rhs),rhsMax =  -8.71419603143408E-12  1.62649733020479E-01
 cg2d: Sum(rhs),rhsMax =  -8.77548034239339E-12  1.62962760525114E-01
 cg2d: Sum(rhs),rhsMax =  -8.87634410418059E-12  1.63245689151992E-01
 cg2d: Sum(rhs),rhsMax =  -8.97742991057271E-12  1.63494418654315E-01
 cg2d: Sum(rhs),rhsMax =  -9.09511355118298E-12  1.63710385809635E-01
 cg2d: Sum(rhs),rhsMax =  -9.23611187531037E-12  1.63894282007838E-01
 cg2d: Sum(rhs),rhsMax =  -9.36772881487968E-12  1.64048977181152E-01
 cg2d: Sum(rhs),rhsMax =  -9.49229583824263E-12  1.64171857437577E-01
 cg2d: Sum(rhs),rhsMax =  -9.54503143191232E-12  1.64264359488767E-01
 cg2d: Sum(rhs),rhsMax =  -9.54830658983497E-12  1.64328065761090E-01
 cg2d: Sum(rhs),rhsMax =  -9.56124068807185E-12  1.64364292111239E-01
 cg2d: Sum(rhs),rhsMax =  -9.57578460969444E-12  1.64369602017275E-01
 cg2d: Sum(rhs),rhsMax =  -9.56890122694176E-12  1.64349615125786E-01
 cg2d: Sum(rhs),rhsMax =  -9.59893275975787E-12  1.64292523539453E-01
 cg2d: Sum(rhs),rhsMax =  -9.72749658600947E-12  1.64200767136782E-01
 cg2d: Sum(rhs),rhsMax =  -9.85717063528568E-12  1.64080866567760E-01
 cg2d: Sum(rhs),rhsMax =  -9.88209514218852E-12  1.63935152924618E-01
 cg2d: Sum(rhs),rhsMax =  -9.89847093180174E-12  1.63761472851969E-01
 cg2d: Sum(rhs),rhsMax =  -9.91179360809724E-12  1.63557365502997E-01
 cg2d: Sum(rhs),rhsMax =  -9.93294335671635E-12  1.63325850273933E-01
 cg2d: Sum(rhs),rhsMax =  -9.98423566045403E-12  1.63072231794943E-01
 cg2d: Sum(rhs),rhsMax =  -1.00112695911037E-11  1.62793466405284E-01
 cg2d: Sum(rhs),rhsMax =  -1.00683350545694E-11  1.62487573295492E-01
 cg2d: Sum(rhs),rhsMax =  -1.02151065384248E-11  1.62152710937533E-01
 cg2d: Sum(rhs),rhsMax =  -1.02845509886151E-11  1.61792065127724E-01
 cg2d: Sum(rhs),rhsMax =  -1.03602126877433E-11  1.61410365491718E-01
 cg2d: Sum(rhs),rhsMax =  -1.04871666906092E-11  1.61003894124869E-01
 cg2d: Sum(rhs),rhsMax =  -1.06310515946006E-11  1.60574568124113E-01
 cg2d: Sum(rhs),rhsMax =  -1.07939213123132E-11  1.60122459964613E-01
 cg2d: Sum(rhs),rhsMax =  -1.09289244321076E-11  1.59650662731825E-01
 cg2d: Sum(rhs),rhsMax =  -1.10013109733131E-11  1.59159001756819E-01
 cg2d: Sum(rhs),rhsMax =  -1.10990105994802E-11  1.58637452115882E-01
 cg2d: Sum(rhs),rhsMax =  -1.11881615083576E-11  1.58088225354816E-01
 cg2d: Sum(rhs),rhsMax =  -1.12767573057226E-11  1.57515875011197E-01
 cg2d: Sum(rhs),rhsMax =  -1.13332121465248E-11  1.56929282670779E-01
 cg2d: Sum(rhs),rhsMax =  -1.14632192627084E-11  1.56318401244145E-01
 cg2d: Sum(rhs),rhsMax =  -1.16272547145968E-11  1.55686599978471E-01
 cg2d: Sum(rhs),rhsMax =  -1.16928133842009E-11  1.55041656135395E-01
 cg2d: Sum(rhs),rhsMax =  -1.17719167747055E-11  1.54367716565551E-01
 cg2d: Sum(rhs),rhsMax =  -1.18175469410176E-11  1.53679179217991E-01
 cg2d: Sum(rhs),rhsMax =  -1.18435261597938E-11  1.52968057076014E-01
 cg2d: Sum(rhs),rhsMax =  -1.18840493001926E-11  1.52239295203061E-01
 cg2d: Sum(rhs),rhsMax =  -1.19354526262327E-11  1.51498041190931E-01
 cg2d: Sum(rhs),rhsMax =  -1.19743104320946E-11  1.50738251722473E-01
 cg2d: Sum(rhs),rhsMax =  -1.20480292409297E-11  1.49960921194394E-01
 cg2d: Sum(rhs),rhsMax =  -1.20877752252113E-11  1.49172721705787E-01
 cg2d: Sum(rhs),rhsMax =  -1.21546106512938E-11  1.48362328129217E-01
 cg2d: Sum(rhs),rhsMax =  -1.22161170068580E-11  1.47540677448418E-01
 cg2d: Sum(rhs),rhsMax =  -1.22873933250389E-11  1.46699796445619E-01
 cg2d: Sum(rhs),rhsMax =  -1.23318022460239E-11  1.45839558688298E-01
 cg2d: Sum(rhs),rhsMax =  -1.24834587111877E-11  1.44959194962263E-01
 cg2d: Sum(rhs),rhsMax =  -1.25718324639479E-11  1.44064071312319E-01
 cg2d: Sum(rhs),rhsMax =  -1.26620935958499E-11  1.43165704085629E-01
 cg2d: Sum(rhs),rhsMax =  -1.27587940212948E-11  1.42245891437012E-01
 cg2d: Sum(rhs),rhsMax =  -1.28881350036636E-11  1.41319766516802E-01
 cg2d: Sum(rhs),rhsMax =  -1.30032651313172E-11  1.40373354226523E-01
 cg2d: Sum(rhs),rhsMax =  -1.31109567647059E-11  1.39412553634405E-01
 cg2d: Sum(rhs),rhsMax =  -1.32107658146197E-11  1.38439699395510E-01
 cg2d: Sum(rhs),rhsMax =  -1.33286714998349E-11  1.37459265439894E-01
 cg2d: Sum(rhs),rhsMax =  -1.34732225376410E-11  1.36471793991791E-01
 cg2d: Sum(rhs),rhsMax =  -1.36020084084976E-11  1.35486055289259E-01
 cg2d: Sum(rhs),rhsMax =  -1.37486688700506E-11  1.34484123252532E-01
 cg2d: Sum(rhs),rhsMax =  -1.38615785516549E-11  1.33447909390310E-01
 cg2d: Sum(rhs),rhsMax =  -1.40036870988069E-11  1.32447678880255E-01
 cg2d: Sum(rhs),rhsMax =  -1.41577860546249E-11  1.31424230278009E-01
 cg2d: Sum(rhs),rhsMax =  -1.42857947693642E-11  1.30388082855741E-01
 cg2d: Sum(rhs),rhsMax =  -1.43893785775617E-11  1.29343240635817E-01
 cg2d: Sum(rhs),rhsMax =  -1.44693146353347E-11  1.28291869927246E-01
 cg2d: Sum(rhs),rhsMax =  -1.45526923844841E-11  1.27246448866406E-01
 cg2d: Sum(rhs),rhsMax =  -1.46573864157062E-11  1.26183385843159E-01
 cg2d: Sum(rhs),rhsMax =  -1.47387657634113E-11  1.25116666229496E-01
 cg2d: Sum(rhs),rhsMax =  -1.48464573967999E-11  1.24049139887003E-01
 cg2d: Sum(rhs),rhsMax =  -1.50293111289557E-11  1.22978768021694E-01
 cg2d: Sum(rhs),rhsMax =  -1.51925139135756E-11  1.21907275659794E-01
 cg2d: Sum(rhs),rhsMax =  -1.53630441701580E-11  1.20836593483939E-01
 cg2d: Sum(rhs),rhsMax =  -1.55023771597484E-11  1.19778928236966E-01
 cg2d: Sum(rhs),rhsMax =  -1.56270552054139E-11  1.18710031816759E-01
 cg2d: Sum(rhs),rhsMax =  -1.57848178972131E-11  1.17643644980473E-01
 cg2d: Sum(rhs),rhsMax =  -1.59321444925808E-11  1.16564923571823E-01
 cg2d: Sum(rhs),rhsMax =  -1.60816915339979E-11  1.15487389458458E-01
 cg2d: Sum(rhs),rhsMax =  -1.62705404704866E-11  1.14412556472142E-01
 cg2d: Sum(rhs),rhsMax =  -1.64526170465251E-11  1.13345195487590E-01
 cg2d: Sum(rhs),rhsMax =  -1.63675739628388E-11  1.14257764436589E-01
 cg2d: Sum(rhs),rhsMax =  -1.62160285199775E-11  1.16013783773380E-01
 cg2d: Sum(rhs),rhsMax =  -1.59856572423678E-11  1.17742589663104E-01
 cg2d: Sum(rhs),rhsMax =  -1.57946988821323E-11  1.19444701468827E-01
 cg2d: Sum(rhs),rhsMax =  -1.56070711909706E-11  1.21117703961925E-01
 cg2d: Sum(rhs),rhsMax =  -1.54081192249578E-11  1.22765358031874E-01
 cg2d: Sum(rhs),rhsMax =  -1.52455825741526E-11  1.24383054918348E-01
 cg2d: Sum(rhs),rhsMax =  -1.50339740656591E-11  1.25975912571428E-01
 cg2d: Sum(rhs),rhsMax =  -1.48081547024503E-11  1.27538161228892E-01
 cg2d: Sum(rhs),rhsMax =  -1.47049039611602E-11  1.29072972651634E-01
 cg2d: Sum(rhs),rhsMax =  -1.45456979794290E-11  1.30579785032733E-01
 cg2d: Sum(rhs),rhsMax =  -1.43611789127362E-11  1.32059829962956E-01
 cg2d: Sum(rhs),rhsMax =  -1.42288403282009E-11  1.33513280984802E-01
 cg2d: Sum(rhs),rhsMax =  -1.40837341788824E-11  1.34939842070962E-01
 cg2d: Sum(rhs),rhsMax =  -1.39662725828771E-11  1.36345635965293E-01
 cg2d: Sum(rhs),rhsMax =  -1.38629663304357E-11  1.37724758287524E-01
 cg2d: Sum(rhs),rhsMax =  -1.37713174197529E-11  1.39071410269339E-01
 cg2d: Sum(rhs),rhsMax =  -1.36658462324135E-11  1.40387403612120E-01
 cg2d: Sum(rhs),rhsMax =  -1.35865207973040E-11  1.41684848831885E-01
 cg2d: Sum(rhs),rhsMax =  -1.35199074158265E-11  1.42964080265983E-01
 cg2d: Sum(rhs),rhsMax =  -1.34210975666349E-11  1.44217623906674E-01
 cg2d: Sum(rhs),rhsMax =  -1.33452138229018E-11  1.45429872737681E-01
 cg2d: Sum(rhs),rhsMax =  -1.32927002738370E-11  1.46602163574374E-01
 cg2d: Sum(rhs),rhsMax =  -1.32048261214379E-11  1.47741644834723E-01
 cg2d: Sum(rhs),rhsMax =  -1.31185617924245E-11  1.48854743340730E-01
 cg2d: Sum(rhs),rhsMax =  -1.30560007249869E-11  1.49944197610749E-01
 cg2d: Sum(rhs),rhsMax =  -1.29984911723113E-11  1.51007228223867E-01
 cg2d: Sum(rhs),rhsMax =  -1.29126709325078E-11  1.52042249930434E-01
 cg2d: Sum(rhs),rhsMax =  -1.28509980434899E-11  1.53047213468259E-01
 cg2d: Sum(rhs),rhsMax =  -1.27691190954238E-11  1.54021414523674E-01
 cg2d: Sum(rhs),rhsMax =  -1.26829657887129E-11  1.54961681858992E-01
 cg2d: Sum(rhs),rhsMax =  -1.26073040895847E-11  1.55868327969042E-01
 cg2d: Sum(rhs),rhsMax =  -1.25345844814717E-11  1.56743639135657E-01
 cg2d: Sum(rhs),rhsMax =  -1.24800725309626E-11  1.57588780403557E-01
 cg2d: Sum(rhs),rhsMax =  -1.24125709710654E-11  1.58403329243834E-01
 cg2d: Sum(rhs),rhsMax =  -1.23486776359982E-11  1.59188145104268E-01
 cg2d: Sum(rhs),rhsMax =  -1.23061560941551E-11  1.59941419964011E-01
 cg2d: Sum(rhs),rhsMax =  -1.23010490682418E-11  1.60662726448083E-01
 cg2d: Sum(rhs),rhsMax =  -1.22861165685606E-11  1.61352950172517E-01
 cg2d: Sum(rhs),rhsMax =  -1.22802323865301E-11  1.62015806246019E-01
 cg2d: Sum(rhs),rhsMax =  -1.22789556300518E-11  1.62642716415762E-01
 cg2d: Sum(rhs),rhsMax =  -1.22744592268020E-11  1.63236890913525E-01
 cg2d: Sum(rhs),rhsMax =  -1.22532539670317E-11  1.63800064119536E-01
 cg2d: Sum(rhs),rhsMax =  -1.22240551014841E-11  1.64334415964818E-01
 cg2d: Sum(rhs),rhsMax =  -1.22016841075379E-11  1.64841324327022E-01
 cg2d: Sum(rhs),rhsMax =  -1.21974097488931E-11  1.65316300757926E-01
 cg2d: Sum(rhs),rhsMax =  -1.21658794149937E-11  1.65762558087241E-01
 cg2d: Sum(rhs),rhsMax =  -1.21481713577509E-11  1.66174025097171E-01
 cg2d: Sum(rhs),rhsMax =  -1.21446741552234E-11  1.66551526029668E-01
 cg2d: Sum(rhs),rhsMax =  -1.21249121853850E-11  1.66904416721046E-01
 cg2d: Sum(rhs),rhsMax =  -1.21347931703042E-11  1.67239207736344E-01
 cg2d: Sum(rhs),rhsMax =  -1.21607168779292E-11  1.67539992445843E-01
 cg2d: Sum(rhs),rhsMax =  -1.21895271654182E-11  1.67795827356907E-01
 cg2d: Sum(rhs),rhsMax =  -1.22072907338122E-11  1.68014191568523E-01
 cg2d: Sum(rhs),rhsMax =  -1.22351018205791E-11  1.68199738071395E-01
 cg2d: Sum(rhs),rhsMax =  -1.22296062166072E-11  1.68360663465673E-01
 cg2d: Sum(rhs),rhsMax =  -1.22631904631021E-11  1.68503020790726E-01
 cg2d: Sum(rhs),rhsMax =  -1.22694632231912E-11  1.68621453377975E-01
 cg2d: Sum(rhs),rhsMax =  -1.22801768753789E-11  1.68714797357317E-01
 cg2d: Sum(rhs),rhsMax =  -1.22937771074305E-11  1.68789916127994E-01
 cg2d: Sum(rhs),rhsMax =  -1.23126508988491E-11  1.68848696152802E-01
 cg2d: Sum(rhs),rhsMax =  -1.23241417071540E-11  1.68866120739685E-01
 cg2d: Sum(rhs),rhsMax =  -1.23415722086406E-11  1.68847778261862E-01
 cg2d: Sum(rhs),rhsMax =  -1.23761001447065E-11  1.68808365418549E-01
 cg2d: Sum(rhs),rhsMax =  -1.24196763984230E-11  1.68740036375962E-01
 cg2d: Sum(rhs),rhsMax =  -1.24470989071312E-11  1.68648381202569E-01
 cg2d: Sum(rhs),rhsMax =  -1.24394383682613E-11  1.68531711900446E-01
 cg2d: Sum(rhs),rhsMax =  -1.24750765273518E-11  1.68388214786558E-01
 cg2d: Sum(rhs),rhsMax =  -1.24579235816213E-11  1.68219909191655E-01
 cg2d: Sum(rhs),rhsMax =  -1.24897869824281E-11  1.68022749550900E-01
 cg2d: Sum(rhs),rhsMax =  -1.25082721957881E-11  1.67799463459312E-01
 cg2d: Sum(rhs),rhsMax =  -1.25782162463395E-11  1.67550205932504E-01
 cg2d: Sum(rhs),rhsMax =  -1.26715304915592E-11  1.67281991161816E-01
 cg2d: Sum(rhs),rhsMax =  -1.27138299887974E-11  1.66987366124919E-01
 cg2d: Sum(rhs),rhsMax =  -1.28275168265191E-11  1.66655901705459E-01
 cg2d: Sum(rhs),rhsMax =  -1.29528054948480E-11  1.66297728655695E-01
 cg2d: Sum(rhs),rhsMax =  -1.31008537351818E-11  1.65918276079067E-01
 cg2d: Sum(rhs),rhsMax =  -1.31447075446545E-11  1.65515335755332E-01
 cg2d: Sum(rhs),rhsMax =  -1.31828992167016E-11  1.65089284356337E-01
 cg2d: Sum(rhs),rhsMax =  -1.32396871244111E-11  1.64638280891884E-01
 cg2d: Sum(rhs),rhsMax =  -1.32912014727538E-11  1.64159258303893E-01
 cg2d: Sum(rhs),rhsMax =  -1.33434929772136E-11  1.63655934791323E-01
 cg2d: Sum(rhs),rhsMax =  -1.34036670651483E-11  1.63131165444286E-01
 cg2d: Sum(rhs),rhsMax =  -1.34553479469446E-11  1.62586675816186E-01
 cg2d: Sum(rhs),rhsMax =  -1.35173539028699E-11  1.62033008963434E-01
 cg2d: Sum(rhs),rhsMax =  -1.35896294217730E-11  1.61447125566120E-01
 cg2d: Sum(rhs),rhsMax =  -1.36738953493420E-11  1.60832759581910E-01
 cg2d: Sum(rhs),rhsMax =  -1.37390099297363E-11  1.60190857087992E-01
 cg2d: Sum(rhs),rhsMax =  -1.38067335342384E-11  1.59528793515993E-01
 cg2d: Sum(rhs),rhsMax =  -1.38664080218120E-11  1.58850192703424E-01
 cg2d: Sum(rhs),rhsMax =  -1.39189770820281E-11  1.58170390816250E-01
 cg2d: Sum(rhs),rhsMax =  -1.39653844044574E-11  1.57472548855791E-01
 cg2d: Sum(rhs),rhsMax =  -1.40205069776300E-11  1.56753564373849E-01
 cg2d: Sum(rhs),rhsMax =  -1.40785716418179E-11  1.56022231765205E-01
 cg2d: Sum(rhs),rhsMax =  -1.41257006092133E-11  1.55281809147709E-01
 cg2d: Sum(rhs),rhsMax =  -1.41566758316003E-11  1.54528511986196E-01
 cg2d: Sum(rhs),rhsMax =  -1.42620915077885E-11  1.53762149585106E-01
 cg2d: Sum(rhs),rhsMax =  -1.43526301954466E-11  1.52981672457359E-01
 cg2d: Sum(rhs),rhsMax =  -1.44599332507767E-11  1.52201118310444E-01
 cg2d: Sum(rhs),rhsMax =  -1.45609635460175E-11  1.51394807460458E-01
 cg2d: Sum(rhs),rhsMax =  -1.46802570100135E-11  1.50573518680793E-01
 cg2d: Sum(rhs),rhsMax =  -1.47584167109471E-11  1.49739576537841E-01
 cg2d: Sum(rhs),rhsMax =  -1.48449585957167E-11  1.48898135844901E-01
 cg2d: Sum(rhs),rhsMax =  -1.49377732405753E-11  1.48045545939514E-01
 cg2d: Sum(rhs),rhsMax =  -1.50436330059733E-11  1.47183131388388E-01
 cg2d: Sum(rhs),rhsMax =  -1.51377799184615E-11  1.46311436137163E-01
 cg2d: Sum(rhs),rhsMax =  -1.52193813107715E-11  1.45436845064885E-01
 cg2d: Sum(rhs),rhsMax =  -1.53058676843898E-11  1.44548486135205E-01
 cg2d: Sum(rhs),rhsMax =  -1.53937973479401E-11  1.43650504667036E-01
 cg2d: Sum(rhs),rhsMax =  -1.54880552827308E-11  1.42745537442192E-01
 cg2d: Sum(rhs),rhsMax =  -1.55684354297136E-11  1.41830873473981E-01
 cg2d: Sum(rhs),rhsMax =  -1.56858970257190E-11  1.40908129885171E-01
 cg2d: Sum(rhs),rhsMax =  -1.57946433709810E-11  1.39992065778730E-01
 cg2d: Sum(rhs),rhsMax =  -1.59176005709583E-11  1.39051643348262E-01
 cg2d: Sum(rhs),rhsMax =  -1.60306212748651E-11  1.38100478757501E-01
 cg2d: Sum(rhs),rhsMax =  -1.61482494043241E-11  1.37139636891843E-01
 cg2d: Sum(rhs),rhsMax =  -1.62507785006483E-11  1.36174686290001E-01
 cg2d: Sum(rhs),rhsMax =  -1.63655200502433E-11  1.35199983094221E-01
 cg2d: Sum(rhs),rhsMax =  -1.64745439512615E-11  1.34218625532099E-01
 cg2d: Sum(rhs),rhsMax =  -1.65871205659585E-11  1.33235253314511E-01
 cg2d: Sum(rhs),rhsMax =  -1.66849867255792E-11  1.32243727272845E-01
 cg2d: Sum(rhs),rhsMax =  -1.66119895617101E-11  1.32750037579998E-01
 cg2d: Sum(rhs),rhsMax =  -1.64713243044901E-11  1.33734918066915E-01
 cg2d: Sum(rhs),rhsMax =  -1.63320468260508E-11  1.34568268373412E-01
 cg2d: Sum(rhs),rhsMax =  -1.62362345790257E-11  1.35217385013790E-01
 cg2d: Sum(rhs),rhsMax =  -1.61245461427484E-11  1.35740785399016E-01
 cg2d: Sum(rhs),rhsMax =  -1.60731983278595E-11  1.36065939875172E-01
 cg2d: Sum(rhs),rhsMax =  -1.60718660602299E-11  1.36247540598217E-01
 cg2d: Sum(rhs),rhsMax =  -1.60485513767128E-11  1.36270291133173E-01
 cg2d: Sum(rhs),rhsMax =  -1.60684798800048E-11  1.36145294910619E-01
 cg2d: Sum(rhs),rhsMax =  -1.60924051861855E-11  1.35862066624476E-01
 cg2d: Sum(rhs),rhsMax =  -1.61153312916440E-11  1.35429189750870E-01
 cg2d: Sum(rhs),rhsMax =  -1.61564095435551E-11  1.34831220591655E-01
 cg2d: Sum(rhs),rhsMax =  -1.62257984825942E-11  1.34074627117579E-01
 cg2d: Sum(rhs),rhsMax =  -1.63155600141351E-11  1.33163909973407E-01
 cg2d: Sum(rhs),rhsMax =  -1.64062652352470E-11  1.32110539924980E-01
 cg2d: Sum(rhs),rhsMax =  -1.65337188384740E-11  1.30915864928467E-01
 cg2d: Sum(rhs),rhsMax =  -1.67076907864327E-11  1.29584355476430E-01
 cg2d: Sum(rhs),rhsMax =  -1.68931535426964E-11  1.28130492626844E-01
 cg2d: Sum(rhs),rhsMax =  -1.69601555022325E-11  1.27528018903787E-01
 cg2d: Sum(rhs),rhsMax =  -1.67878488888107E-11  1.28778417877774E-01
 cg2d: Sum(rhs),rhsMax =  -1.66294200631967E-11  1.30004919672371E-01
 cg2d: Sum(rhs),rhsMax =  -1.64859792484151E-11  1.31208489635117E-01
 cg2d: Sum(rhs),rhsMax =  -1.63393187868621E-11  1.32390613635425E-01
(PID.TID 0000.0001)      cg2d_init_res =   6.00116563696104E-02
(PID.TID 0000.0001)      cg2d_iters(min,last) =      -1      29
(PID.TID 0000.0001)      cg2d_last_res =   4.56069938959472E-14
(PID.TID 0000.0001) // =======================================================
(PID.TID 0000.0001) // Begin MONITOR dynamic field statistics
(PID.TID 0000.0001) // =======================================================
(PID.TID 0000.0001) %MON time_tsnumber                =                  5280
(PID.TID 0000.0001) %MON time_secondsf                =   7.9200000000000E+04
(PID.TID 0000.0001) %MON dynstat_eta_max              =   6.2148725743440E-03
(PID.TID 0000.0001) %MON dynstat_eta_min              =  -1.3114563562989E-02
(PID.TID 0000.0001) %MON dynstat_eta_mean             =   2.5022301729061E-15
(PID.TID 0000.0001) %MON dynstat_eta_sd               =   4.3315388903115E-03
(PID.TID 0000.0001) %MON dynstat_eta_del2             =   1.3519330195487E-04
(PID.TID 0000.0001) %MON dynstat_uvel_max             =   9.2262870245079E-01
(PID.TID 0000.0001) %MON dynstat_uvel_min             =  -4.9086968524755E-01
(PID.TID 0000.0001) %MON dynstat_uvel_mean            =   8.3208051437986E-05
(PID.TID 0000.0001) %MON dynstat_uvel_sd              =   1.3424669112580E-01
(PID.TID 0000.0001) %MON dynstat_uvel_del2            =   6.1879928948533E-04
(PID.TID 0000.0001) %MON dynstat_vvel_max             =   0.0000000000000E+00
(PID.TID 0000.0001) %MON dynstat_vvel_min             =   0.0000000000000E+00
(PID.TID 0000.0001) %MON dynstat_vvel_mean            =   0.0000000000000E+00
(PID.TID 0000.0001) %MON dynstat_vvel_sd              =   0.0000000000000E+00
(PID.TID 0000.0001) %MON dynstat_vvel_del2            =   0.0000000000000E+00
(PID.TID 0000.0001) %MON dynstat_wvel_max             =   3.8541621223831E-02
(PID.TID 0000.0001) %MON dynstat_wvel_min             =  -3.2030690661417E-02
(PID.TID 0000.0001) %MON dynstat_wvel_mean            =   1.2603742277487E-19
(PID.TID 0000.0001) %MON dynstat_wvel_sd              =   3.7217344992494E-03
(PID.TID 0000.0001) %MON dynstat_wvel_del2            =   6.2369144964364E-05
(PID.TID 0000.0001) %MON dynstat_theta_max            =   1.5000000000280E+01
(PID.TID 0000.0001) %MON dynstat_theta_min            =   9.9999999999936E+00
(PID.TID 0000.0001) %MON dynstat_theta_mean           =   1.3086079278209E+01
(PID.TID 0000.0001) %MON dynstat_theta_sd             =   2.3313969954433E+00
(PID.TID 0000.0001) %MON dynstat_theta_del2           =   1.4552634153289E-03
(PID.TID 0000.0001) %MON dynstat_salt_max             =   3.5000000000000E+01
(PID.TID 0000.0001) %MON dynstat_salt_min             =   3.5000000000000E+01
(PID.TID 0000.0001) %MON dynstat_salt_mean            =   3.5000000000000E+01
(PID.TID 0000.0001) %MON dynstat_salt_sd              =   7.1054273576010E-15
(PID.TID 0000.0001) %MON dynstat_salt_del2            =   0.0000000000000E+00
(PID.TID 0000.0001) %MON dynstat_sst_max              =   1.5000000000009E+01
(PID.TID 0000.0001) %MON dynstat_sst_min              =   1.4999036589271E+01
(PID.TID 0000.0001) %MON dynstat_sst_mean             =   1.4999986261071E+01
(PID.TID 0000.0001) %MON dynstat_sst_sd               =   9.4297767804688E-05
(PID.TID 0000.0001) %MON dynstat_sst_del2             =   2.8678180282608E-06
(PID.TID 0000.0001) %MON dynstat_sss_max              =   3.5000000000000E+01
(PID.TID 0000.0001) %MON dynstat_sss_min              =   3.5000000000000E+01
(PID.TID 0000.0001) %MON dynstat_sss_mean             =   3.5000000000000E+01
(PID.TID 0000.0001) %MON dynstat_sss_sd               =   0.0000000000000E+00
(PID.TID 0000.0001) %MON dynstat_sss_del2             =   0.0000000000000E+00
(PID.TID 0000.0001) %MON forcing_qnet_max             =   0.0000000000000E+00
(PID.TID 0000.0001) %MON forcing_qnet_min             =   0.0000000000000E+00
(PID.TID 0000.0001) %MON forcing_qnet_mean            =   0.0000000000000E+00
(PID.TID 0000.0001) %MON forcing_qnet_sd              =   0.0000000000000E+00
(PID.TID 0000.0001) %MON forcing_qnet_del2            =   0.0000000000000E+00
(PID.TID 0000.0001) %MON forcing_qsw_max              =   0.0000000000000E+00
(PID.TID 0000.0001) %MON forcing_qsw_min              =   0.0000000000000E+00
(PID.TID 0000.0001) %MON forcing_qsw_mean             =   0.0000000000000E+00
(PID.TID 0000.0001) %MON forcing_qsw_sd               =   0.0000000000000E+00
(PID.TID 0000.0001) %MON forcing_qsw_del2             =   0.0000000000000E+00
(PID.TID 0000.0001) %MON forcing_empmr_max            =   0.0000000000000E+00
(PID.TID 0000.0001) %MON forcing_empmr_min            =   0.0000000000000E+00
(PID.TID 0000.0001) %MON forcing_empmr_mean           =   0.0000000000000E+00
(PID.TID 0000.0001) %MON forcing_empmr_sd             =   0.0000000000000E+00
(PID.TID 0000.0001) %MON forcing_empmr_del2           =   0.0000000000000E+00
(PID.TID 0000.0001) %MON forcing_fu_max               =   0.0000000000000E+00
(PID.TID 0000.0001) %MON forcing_fu_min               =   0.0000000000000E+00
(PID.TID 0000.0001) %MON forcing_fu_mean              =   0.0000000000000E+00
(PID.TID 0000.0001) %MON forcing_fu_sd                =   0.0000000000000E+00
(PID.TID 0000.0001) %MON forcing_fu_del2              =   0.0000000000000E+00
(PID.TID 0000.0001) %MON forcing_fv_max               =   0.0000000000000E+00
(PID.TID 0000.0001) %MON forcing_fv_min               =   0.0000000000000E+00
(PID.TID 0000.0001) %MON forcing_fv_mean              =   0.0000000000000E+00
(PID.TID 0000.0001) %MON forcing_fv_sd                =   0.0000000000000E+00
(PID.TID 0000.0001) %MON forcing_fv_del2              =   0.0000000000000E+00
(PID.TID 0000.0001) %MON advcfl_uvel_max              =   6.4961489721015E-02
(PID.TID 0000.0001) %MON advcfl_vvel_max              =   0.0000000000000E+00
(PID.TID 0000.0001) %MON advcfl_wvel_max              =   4.5176410474832E-01
(PID.TID 0000.0001) %MON advcfl_W_hf_max              =   4.5737197889519E-01
(PID.TID 0000.0001) %MON pe_b_mean                    =   5.2670295150551E-07
(PID.TID 0000.0001) %MON ke_max                       =   3.3101855501168E-01
(PID.TID 0000.0001) %MON ke_mean                      =   9.1108379915326E-03
(PID.TID 0000.0001) %MON ke_vol                       =   8.5336562999261E+10
(PID.TID 0000.0001) %MON vort_r_min                   =   0.0000000000000E+00
(PID.TID 0000.0001) %MON vort_r_max                   =   0.0000000000000E+00
(PID.TID 0000.0001) %MON vort_a_mean                  =   0.0000000000000E+00
(PID.TID 0000.0001) %MON vort_a_sd                    =   0.0000000000000E+00
(PID.TID 0000.0001) %MON vort_p_mean                  =   0.0000000000000E+00
(PID.TID 0000.0001) %MON vort_p_sd                    =   0.0000000000000E+00
(PID.TID 0000.0001) %MON surfExpan_theta_mean         =  -4.4851665817843E-12
(PID.TID 0000.0001) %MON surfExpan_salt_mean          =   4.9644094619318E-18
(PID.TID 0000.0001) // =======================================================
(PID.TID 0000.0001) // End MONITOR dynamic field statistics
(PID.TID 0000.0001) // =======================================================
(PID.TID 0000.0001) // =======================================================
(PID.TID 0000.0001) // Begin OBCS MONITOR field statistics
(PID.TID 0000.0001) // =======================================================
(PID.TID 0000.0001) %MON obc_E_uVel_max               =   0.0000000000000E+00
(PID.TID 0000.0001) %MON obc_E_uVel_min               =   0.0000000000000E+00
(PID.TID 0000.0001) %MON obc_E_uVel_mean              =   0.0000000000000E+00
(PID.TID 0000.0001) %MON obc_E_uVel_sd                =   0.0000000000000E+00
(PID.TID 0000.0001) %MON obc_E_uVel_Int               =   0.0000000000000E+00
(PID.TID 0000.0001) %MON obc_W_uVel_max               =   0.0000000000000E+00
(PID.TID 0000.0001) %MON obc_W_uVel_min               =   0.0000000000000E+00
(PID.TID 0000.0001) %MON obc_W_uVel_mean              =   0.0000000000000E+00
(PID.TID 0000.0001) %MON obc_W_uVel_sd                =   0.0000000000000E+00
(PID.TID 0000.0001) %MON obc_W_uVel_Int               =   0.0000000000000E+00
(PID.TID 0000.0001) // =======================================================
(PID.TID 0000.0001) // End OBCS MONITOR field statistics
(PID.TID 0000.0001) // =======================================================
 cg2d: Sum(rhs),rhsMax =  -1.61849977864392E-11  1.33548789967221E-01
 cg2d: Sum(rhs),rhsMax =  -1.60290114514794E-11  1.34683589500551E-01
 cg2d: Sum(rhs),rhsMax =  -1.58972279784564E-11  1.35794898754375E-01
 cg2d: Sum(rhs),rhsMax =  -1.57805435385683E-11  1.36884275300988E-01
 cg2d: Sum(rhs),rhsMax =  -1.56682999907787E-11  1.37880848439791E-01
 cg2d: Sum(rhs),rhsMax =  -1.55717105876363E-11  1.38939213455951E-01
 cg2d: Sum(rhs),rhsMax =  -1.54875556823697E-11  1.39964297909041E-01
 cg2d: Sum(rhs),rhsMax =  -1.53961843274431E-11  1.40946548008968E-01
 cg2d: Sum(rhs),rhsMax =  -1.53064227959021E-11  1.41902045638155E-01
 cg2d: Sum(rhs),rhsMax =  -1.52283186061197E-11  1.42833427985784E-01
 cg2d: Sum(rhs),rhsMax =  -1.51518242397231E-11  1.43739623564224E-01
 cg2d: Sum(rhs),rhsMax =  -1.50335299764492E-11  1.44622741537559E-01
 cg2d: Sum(rhs),rhsMax =  -1.49335543930817E-11  1.45474600636784E-01
 cg2d: Sum(rhs),rhsMax =  -1.48972501001765E-11  1.46298594858170E-01
 cg2d: Sum(rhs),rhsMax =  -1.48962508994543E-11  1.47094079163879E-01
 cg2d: Sum(rhs),rhsMax =  -1.48689394130486E-11  1.47862231501541E-01
 cg2d: Sum(rhs),rhsMax =  -1.47538092853949E-11  1.48606200083218E-01
 cg2d: Sum(rhs),rhsMax =  -1.46516132559782E-11  1.49326952029674E-01
 cg2d: Sum(rhs),rhsMax =  -1.44470546636910E-11  1.50009205746070E-01
 cg2d: Sum(rhs),rhsMax =  -1.43507428163048E-11  1.50679955881410E-01
 cg2d: Sum(rhs),rhsMax =  -1.42332812202994E-11  1.51313882726778E-01
 cg2d: Sum(rhs),rhsMax =  -1.41209821613586E-11  1.51915811746545E-01
 cg2d: Sum(rhs),rhsMax =  -1.40142897286921E-11  1.52489834948344E-01
 cg2d: Sum(rhs),rhsMax =  -1.38711819808179E-11  1.53038004425136E-01
 cg2d: Sum(rhs),rhsMax =  -1.37744260442219E-11  1.53561645306312E-01
 cg2d: Sum(rhs),rhsMax =  -1.36910482950725E-11  1.54064325832473E-01
 cg2d: Sum(rhs),rhsMax =  -1.36280986495763E-11  1.54539573502402E-01
 cg2d: Sum(rhs),rhsMax =  -1.35857991523380E-11  1.54989243028859E-01
 cg2d: Sum(rhs),rhsMax =  -1.35227939956906E-11  1.55414485413202E-01
 cg2d: Sum(rhs),rhsMax =  -1.34436906051860E-11  1.55815020635514E-01
 cg2d: Sum(rhs),rhsMax =  -1.33500432930589E-11  1.56188462446521E-01
 cg2d: Sum(rhs),rhsMax =  -1.32373001449082E-11  1.56536282609794E-01
 cg2d: Sum(rhs),rhsMax =  -1.30943034193365E-11  1.56861812159003E-01
 cg2d: Sum(rhs),rhsMax =  -1.30349064875190E-11  1.57159236125399E-01
 cg2d: Sum(rhs),rhsMax =  -1.29836696949326E-11  1.57431593426346E-01
 cg2d: Sum(rhs),rhsMax =  -1.29357635714200E-11  1.57680376370391E-01
 cg2d: Sum(rhs),rhsMax =  -1.28750343719730E-11  1.57907235649259E-01
 cg2d: Sum(rhs),rhsMax =  -1.27549082407086E-11  1.58108806007054E-01
 cg2d: Sum(rhs),rhsMax =  -1.26391119792402E-11  1.58290991184964E-01
 cg2d: Sum(rhs),rhsMax =  -1.25492394253968E-11  1.58441977609117E-01
 cg2d: Sum(rhs),rhsMax =  -1.24704135906484E-11  1.58567702289650E-01
 cg2d: Sum(rhs),rhsMax =  -1.23703269849784E-11  1.58662974804051E-01
 cg2d: Sum(rhs),rhsMax =  -1.22648557976390E-11  1.58732310087024E-01
 cg2d: Sum(rhs),rhsMax =  -1.21995746837911E-11  1.58776968274260E-01
 cg2d: Sum(rhs),rhsMax =  -1.21541665620839E-11  1.58798391255530E-01
 cg2d: Sum(rhs),rhsMax =  -1.21366805494461E-11  1.58796653169306E-01
 cg2d: Sum(rhs),rhsMax =  -1.21213039605550E-11  1.58770896732330E-01
 cg2d: Sum(rhs),rhsMax =  -1.20745635712183E-11  1.58721601925980E-01
 cg2d: Sum(rhs),rhsMax =  -1.20097265465802E-11  1.58653778665307E-01
 cg2d: Sum(rhs),rhsMax =  -1.19557697075834E-11  1.58555236711292E-01
 cg2d: Sum(rhs),rhsMax =  -1.19183551916535E-11  1.58431837420938E-01
 cg2d: Sum(rhs),rhsMax =  -1.18620668843050E-11  1.58287382444817E-01
 cg2d: Sum(rhs),rhsMax =  -1.18229870338382E-11  1.58119938714237E-01
 cg2d: Sum(rhs),rhsMax =  -1.18000054172285E-11  1.57929357577595E-01
 cg2d: Sum(rhs),rhsMax =  -1.17894027873433E-11  1.57717062163854E-01
 cg2d: Sum(rhs),rhsMax =  -1.17965637258521E-11  1.57484274445463E-01
 cg2d: Sum(rhs),rhsMax =  -1.17993392834137E-11  1.57236662457775E-01
 cg2d: Sum(rhs),rhsMax =  -1.18094978240890E-11  1.56962422303143E-01
 cg2d: Sum(rhs),rhsMax =  -1.18026699524876E-11  1.56665041079602E-01
 cg2d: Sum(rhs),rhsMax =  -1.18031695528487E-11  1.56350939031001E-01
 cg2d: Sum(rhs),rhsMax =  -1.17823528711369E-11  1.56017194401308E-01
 cg2d: Sum(rhs),rhsMax =  -1.17886811423773E-11  1.55670934288905E-01
 cg2d: Sum(rhs),rhsMax =  -1.17815202038685E-11  1.55301237279051E-01
 cg2d: Sum(rhs),rhsMax =  -1.17659770815237E-11  1.54916334641615E-01
 cg2d: Sum(rhs),rhsMax =  -1.17737486426961E-11  1.54510789253151E-01
 cg2d: Sum(rhs),rhsMax =  -1.17715281966468E-11  1.54087129735827E-01
 cg2d: Sum(rhs),rhsMax =  -1.17515996933548E-11  1.53646559812107E-01
 cg2d: Sum(rhs),rhsMax =  -1.17244547404027E-11  1.53186884891386E-01
 cg2d: Sum(rhs),rhsMax =  -1.17389431508741E-11  1.52709335822499E-01
 cg2d: Sum(rhs),rhsMax =  -1.17108545083511E-11  1.52212631466233E-01
 cg2d: Sum(rhs),rhsMax =  -1.17176268688013E-11  1.51698823924193E-01
 cg2d: Sum(rhs),rhsMax =  -1.18171583629589E-11  1.51166742316357E-01
 cg2d: Sum(rhs),rhsMax =  -1.17839071833714E-11  1.50630152235102E-01
 cg2d: Sum(rhs),rhsMax =  -1.16837650665502E-11  1.50067339290696E-01
 cg2d: Sum(rhs),rhsMax =  -1.16003318062496E-11  1.49483595842906E-01
 cg2d: Sum(rhs),rhsMax =  -1.15022436020240E-11  1.48886561397037E-01
 cg2d: Sum(rhs),rhsMax =  -1.14288023489451E-11  1.48277605052454E-01
 cg2d: Sum(rhs),rhsMax =  -1.13067888385388E-11  1.47661596424230E-01
 cg2d: Sum(rhs),rhsMax =  -1.11891607090797E-11  1.47032215570905E-01
 cg2d: Sum(rhs),rhsMax =  -1.11398668067864E-11  1.46384048128666E-01
 cg2d: Sum(rhs),rhsMax =  -1.11269882197007E-11  1.45723490654706E-01
 cg2d: Sum(rhs),rhsMax =  -1.12012066288969E-11  1.45054449295375E-01
 cg2d: Sum(rhs),rhsMax =  -1.10959019750112E-11  1.44370452387569E-01
 cg2d: Sum(rhs),rhsMax =  -1.10940145958693E-11  1.43677619998306E-01
 cg2d: Sum(rhs),rhsMax =  -1.10962905530698E-11  1.42973357724949E-01
 cg2d: Sum(rhs),rhsMax =  -1.11290976434475E-11  1.42256508657429E-01
 cg2d: Sum(rhs),rhsMax =  -1.11661790924700E-11  1.41532344050653E-01
 cg2d: Sum(rhs),rhsMax =  -1.12003739616284E-11  1.40797904547507E-01
 cg2d: Sum(rhs),rhsMax =  -1.12414522135396E-11  1.40053448664241E-01
 cg2d: Sum(rhs),rhsMax =  -1.11278763981204E-11  1.39298504947695E-01
 cg2d: Sum(rhs),rhsMax =  -1.11460840557243E-11  1.38534358444697E-01
 cg2d: Sum(rhs),rhsMax =  -1.11991527163013E-11  1.37761045280918E-01
 cg2d: Sum(rhs),rhsMax =  -1.12584386258163E-11  1.36979627948739E-01
 cg2d: Sum(rhs),rhsMax =  -1.13291598324849E-11  1.36189898284022E-01
 cg2d: Sum(rhs),rhsMax =  -1.14130926931466E-11  1.35389526875381E-01
 cg2d: Sum(rhs),rhsMax =  -1.14976916876230E-11  1.34581776115577E-01
 cg2d: Sum(rhs),rhsMax =  -1.15738529871123E-11  1.33767101911798E-01
 cg2d: Sum(rhs),rhsMax =  -1.16822107543157E-11  1.32943934888945E-01
 cg2d: Sum(rhs),rhsMax =  -1.17414966638307E-11  1.32112988494579E-01
 cg2d: Sum(rhs),rhsMax =  -1.17912346553339E-11  1.31274850540879E-01
 cg2d: Sum(rhs),rhsMax =  -1.18428600259790E-11  1.30425501945667E-01
 cg2d: Sum(rhs),rhsMax =  -1.18856036124271E-11  1.29572382248299E-01
 cg2d: Sum(rhs),rhsMax =  -1.19243503959865E-11  1.28713768759143E-01
 cg2d: Sum(rhs),rhsMax =  -1.19793064357054E-11  1.27847245679697E-01
 cg2d: Sum(rhs),rhsMax =  -1.20362608768687E-11  1.26970099276763E-01
 cg2d: Sum(rhs),rhsMax =  -1.20835563777177E-11  1.26080685497104E-01
 cg2d: Sum(rhs),rhsMax =  -1.21381793505293E-11  1.25178027092692E-01
 cg2d: Sum(rhs),rhsMax =  -1.22090115795004E-11  1.24270046193053E-01
 cg2d: Sum(rhs),rhsMax =  -1.22620802400775E-11  1.23357701595675E-01
 cg2d: Sum(rhs),rhsMax =  -1.23290266884624E-11  1.22440537512930E-01
 cg2d: Sum(rhs),rhsMax =  -1.23939747354029E-11  1.21520399623786E-01
 cg2d: Sum(rhs),rhsMax =  -1.24391608125052E-11  1.20598545718601E-01
 cg2d: Sum(rhs),rhsMax =  -1.24713572802193E-11  1.19670838558955E-01
 cg2d: Sum(rhs),rhsMax =  -1.25138788220625E-11  1.18745149784498E-01
 cg2d: Sum(rhs),rhsMax =  -1.25612853452139E-11  1.17820315666943E-01
 cg2d: Sum(rhs),rhsMax =  -1.26364474439811E-11  1.16895837574963E-01
 cg2d: Sum(rhs),rhsMax =  -1.26750832052380E-11  1.15997216203336E-01
 cg2d: Sum(rhs),rhsMax =  -1.27194921262230E-11  1.15074342808030E-01
 cg2d: Sum(rhs),rhsMax =  -1.27657884263499E-11  1.14150384060174E-01
 cg2d: Sum(rhs),rhsMax =  -1.28743682381582E-11  1.13228200752445E-01
 cg2d: Sum(rhs),rhsMax =  -1.29991573061261E-11  1.12310466051765E-01
 cg2d: Sum(rhs),rhsMax =  -1.31430422101175E-11  1.11395320654264E-01
 cg2d: Sum(rhs),rhsMax =  -1.32356348103713E-11  1.10479477944237E-01
 cg2d: Sum(rhs),rhsMax =  -1.33687505510238E-11  1.09566209529763E-01
 cg2d: Sum(rhs),rhsMax =  -1.34824373887454E-11  1.08655239576203E-01
 cg2d: Sum(rhs),rhsMax =  -1.34111610705645E-11  1.09037945628041E-01
 cg2d: Sum(rhs),rhsMax =  -1.31930022462257E-11  1.10914283967671E-01
 cg2d: Sum(rhs),rhsMax =  -1.29359856160249E-11  1.12690023345825E-01
 cg2d: Sum(rhs),rhsMax =  -1.26793020527316E-11  1.14346170989466E-01
 cg2d: Sum(rhs),rhsMax =  -1.24377175225732E-11  1.15896601414155E-01
 cg2d: Sum(rhs),rhsMax =  -1.22600818386331E-11  1.17332248063024E-01
 cg2d: Sum(rhs),rhsMax =  -1.20816689985759E-11  1.18655936308356E-01
 cg2d: Sum(rhs),rhsMax =  -1.20119469926294E-11  1.19863207102739E-01
 cg2d: Sum(rhs),rhsMax =  -1.19321219571589E-11  1.20954397259464E-01
 cg2d: Sum(rhs),rhsMax =  -1.18276499705416E-11  1.21920566068964E-01
 cg2d: Sum(rhs),rhsMax =  -1.16938680960743E-11  1.22766721430081E-01
 cg2d: Sum(rhs),rhsMax =  -1.16552323348174E-11  1.23491521689152E-01
 cg2d: Sum(rhs),rhsMax =  -1.16147091944185E-11  1.24092889858737E-01
 cg2d: Sum(rhs),rhsMax =  -1.16270326699919E-11  1.24584854285335E-01
 cg2d: Sum(rhs),rhsMax =  -1.16450182829908E-11  1.24923427903471E-01
 cg2d: Sum(rhs),rhsMax =  -1.16474607736450E-11  1.25138360600135E-01
 cg2d: Sum(rhs),rhsMax =  -1.16663345650636E-11  1.25243208813926E-01
 cg2d: Sum(rhs),rhsMax =  -1.16918696946300E-11  1.25228554251017E-01
 cg2d: Sum(rhs),rhsMax =  -1.17081899730920E-11  1.25100676624166E-01
 cg2d: Sum(rhs),rhsMax =  -1.17453824444169E-11  1.24848381367019E-01
 cg2d: Sum(rhs),rhsMax =  -1.17713616631931E-11  1.24476451074917E-01
 cg2d: Sum(rhs),rhsMax =  -1.18016707517654E-11  1.24467209857092E-01
 cg2d: Sum(rhs),rhsMax =  -1.16753273715631E-11  1.25348051007843E-01
 cg2d: Sum(rhs),rhsMax =  -1.15861764626857E-11  1.26211937206594E-01
 cg2d: Sum(rhs),rhsMax =  -1.14819265206734E-11  1.27057793401320E-01
 cg2d: Sum(rhs),rhsMax =  -1.12829745546605E-11  1.27883037508935E-01
 cg2d: Sum(rhs),rhsMax =  -1.11168851901766E-11  1.28682344991707E-01
 cg2d: Sum(rhs),rhsMax =  -1.09988684826590E-11  1.29466710630098E-01
 cg2d: Sum(rhs),rhsMax =  -1.09564579631183E-11  1.30231175285765E-01
 cg2d: Sum(rhs),rhsMax =  -1.09255937630337E-11  1.30972189368594E-01
 cg2d: Sum(rhs),rhsMax =  -1.08397735232302E-11  1.31692965503061E-01
 cg2d: Sum(rhs),rhsMax =  -1.08126840814293E-11  1.32397191502647E-01
 cg2d: Sum(rhs),rhsMax =  -1.07823749928571E-11  1.33075690249608E-01
 cg2d: Sum(rhs),rhsMax =  -1.07220898826199E-11  1.33721269309862E-01
 cg2d: Sum(rhs),rhsMax =  -1.06701314450675E-11  1.34336058370324E-01
 cg2d: Sum(rhs),rhsMax =  -1.06111786024599E-11  1.34931046352859E-01
 cg2d: Sum(rhs),rhsMax =  -1.05355724144829E-11  1.35507639648921E-01
 cg2d: Sum(rhs),rhsMax =  -1.04741770812211E-11  1.36065466734800E-01
 cg2d: Sum(rhs),rhsMax =  -1.03924646666087E-11  1.36602034237257E-01
 cg2d: Sum(rhs),rhsMax =  -1.03229647052672E-11  1.37117781694107E-01
 cg2d: Sum(rhs),rhsMax =  -1.02332586848775E-11  1.37612722401644E-01
 cg2d: Sum(rhs),rhsMax =  -1.01890718084974E-11  1.38088198617496E-01
 cg2d: Sum(rhs),rhsMax =  -1.01465502666542E-11  1.38543399787397E-01
 cg2d: Sum(rhs),rhsMax =  -1.00961461413362E-11  1.38976930869167E-01
 cg2d: Sum(rhs),rhsMax =  -1.00646158074369E-11  1.39392025685194E-01
 cg2d: Sum(rhs),rhsMax =  -1.00222052878962E-11  1.39787422204969E-01
 cg2d: Sum(rhs),rhsMax =  -9.98834348564515E-12  1.40162909508813E-01
 cg2d: Sum(rhs),rhsMax =  -9.93038984375971E-12  1.40518077137194E-01
 cg2d: Sum(rhs),rhsMax =  -9.88187309758359E-12  1.40855243340292E-01
 cg2d: Sum(rhs),rhsMax =  -9.85056480828916E-12  1.41174292583359E-01
 cg2d: Sum(rhs),rhsMax =  -9.78372938220673E-12  1.41473165210560E-01
 cg2d: Sum(rhs),rhsMax =  -9.75386438284431E-12  1.41753127448310E-01
 cg2d: Sum(rhs),rhsMax =  -9.70279412371156E-12  1.42010274738837E-01
 cg2d: Sum(rhs),rhsMax =  -9.65350022141820E-12  1.42249678114413E-01
 cg2d: Sum(rhs),rhsMax =  -9.61275503641446E-12  1.42471408538858E-01
 cg2d: Sum(rhs),rhsMax =  -9.59532453492784E-12  1.42674528317645E-01
 cg2d: Sum(rhs),rhsMax =  -9.55757695209059E-12  1.42859691011023E-01
 cg2d: Sum(rhs),rhsMax =  -9.51050349584648E-12  1.43028731213081E-01
 cg2d: Sum(rhs),rhsMax =  -9.47197875689199E-12  1.43176460698769E-01
 cg2d: Sum(rhs),rhsMax =  -9.43678468701137E-12  1.43302181230048E-01
 cg2d: Sum(rhs),rhsMax =  -9.40714173225388E-12  1.43410027367106E-01
 cg2d: Sum(rhs),rhsMax =  -9.21485110438880E-12  1.43500238374375E-01
 cg2d: Sum(rhs),rhsMax =  -9.06952291046537E-12  1.43572369522461E-01
 cg2d: Sum(rhs),rhsMax =  -9.01823060672768E-12  1.43625805548081E-01
 cg2d: Sum(rhs),rhsMax =  -8.95317153748465E-12  1.43661871757328E-01
 cg2d: Sum(rhs),rhsMax =  -8.90321150137652E-12  1.43680639556845E-01
 cg2d: Sum(rhs),rhsMax =  -8.81872352920254E-12  1.43682772645361E-01
 cg2d: Sum(rhs),rhsMax =  -8.77325989634414E-12  1.43664524369159E-01
 cg2d: Sum(rhs),rhsMax =  -8.69299077166374E-12  1.43630983720828E-01
 cg2d: Sum(rhs),rhsMax =  -8.50625125892179E-12  1.43581064499533E-01
 cg2d: Sum(rhs),rhsMax =  -8.44208036809846E-12  1.43514541153692E-01
 cg2d: Sum(rhs),rhsMax =  -8.41260394679466E-12  1.43431197208258E-01
 cg2d: Sum(rhs),rhsMax =  -8.37691027655296E-12  1.43327743412305E-01
 cg2d: Sum(rhs),rhsMax =  -8.34143865091619E-12  1.43210682434032E-01
 cg2d: Sum(rhs),rhsMax =  -8.29913915367797E-12  1.43077640956646E-01
 cg2d: Sum(rhs),rhsMax =  -8.27621304821946E-12  1.42928081189516E-01
 cg2d: Sum(rhs),rhsMax =  -8.23868750998713E-12  1.42761822793576E-01
 cg2d: Sum(rhs),rhsMax =  -8.19871948110062E-12  1.42580438501600E-01
 cg2d: Sum(rhs),rhsMax =  -8.16335887776631E-12  1.42379829927996E-01
 cg2d: Sum(rhs),rhsMax =  -8.18178857997509E-12  1.42167562816626E-01
 cg2d: Sum(rhs),rhsMax =  -8.20093992714988E-12  1.41947141601246E-01
 cg2d: Sum(rhs),rhsMax =  -8.21603896028478E-12  1.41710139765962E-01
 cg2d: Sum(rhs),rhsMax =  -8.21387402538676E-12  1.41458790383685E-01
 cg2d: Sum(rhs),rhsMax =  -8.25906010248900E-12  1.41194634587784E-01
 cg2d: Sum(rhs),rhsMax =  -8.30607804758188E-12  1.40920588148186E-01
 cg2d: Sum(rhs),rhsMax =  -8.36064550924220E-12  1.40634749142260E-01
 cg2d: Sum(rhs),rhsMax =  -8.41771097270794E-12  1.40332121363788E-01
 cg2d: Sum(rhs),rhsMax =  -8.47300007933427E-12  1.40024505423326E-01
 cg2d: Sum(rhs),rhsMax =  -8.54050163923148E-12  1.39706023516810E-01
 cg2d: Sum(rhs),rhsMax =  -8.54583070974968E-12  1.39377044059959E-01
 cg2d: Sum(rhs),rhsMax =  -8.56359427814368E-12  1.39037768562589E-01
 cg2d: Sum(rhs),rhsMax =  -8.56731352527618E-12  1.38690236687466E-01
 cg2d: Sum(rhs),rhsMax =  -8.59029514188592E-12  1.38329075176842E-01
 cg2d: Sum(rhs),rhsMax =  -8.66340332805748E-12  1.37958179692763E-01
 cg2d: Sum(rhs),rhsMax =  -8.76687611395255E-12  1.37578122539955E-01
 cg2d: Sum(rhs),rhsMax =  -8.88539242183128E-12  1.37188138615865E-01
 cg2d: Sum(rhs),rhsMax =  -8.98581209440863E-12  1.36786995036927E-01
 cg2d: Sum(rhs),rhsMax =  -9.07263153493432E-12  1.36380417818063E-01
 cg2d: Sum(rhs),rhsMax =  -9.19109233166182E-12  1.35958185599497E-01
 cg2d: Sum(rhs),rhsMax =  -9.31116295177503E-12  1.35519444774612E-01
 cg2d: Sum(rhs),rhsMax =  -9.43128908303947E-12  1.35074641034964E-01
 cg2d: Sum(rhs),rhsMax =  -9.54031298405766E-12  1.34624339595280E-01
 cg2d: Sum(rhs),rhsMax =  -9.51239087498834E-12  1.36289079373267E-01
 cg2d: Sum(rhs),rhsMax =  -9.29401000604457E-12  1.40029375589298E-01
 cg2d: Sum(rhs),rhsMax =  -9.09466946197313E-12  1.43609874642170E-01
 cg2d: Sum(rhs),rhsMax =  -8.89449625063321E-12  1.46919457378035E-01
 cg2d: Sum(rhs),rhsMax =  -8.66889893202938E-12  1.50015548152923E-01
 cg2d: Sum(rhs),rhsMax =  -8.48043857359926E-12  1.52889104585247E-01
 cg2d: Sum(rhs),rhsMax =  -8.32184321453155E-12  1.55509808714168E-01
 cg2d: Sum(rhs),rhsMax =  -8.21259726890844E-12  1.57887291819858E-01
 cg2d: Sum(rhs),rhsMax =  -8.11145595136509E-12  1.60012058870635E-01
 cg2d: Sum(rhs),rhsMax =  -7.98450194849920E-12  1.61864840871710E-01
 cg2d: Sum(rhs),rhsMax =  -7.88769050075189E-12  1.63481038130207E-01
 cg2d: Sum(rhs),rhsMax =  -7.74375008560924E-12  1.64821793324031E-01
 cg2d: Sum(rhs),rhsMax =  -7.70905561608970E-12  1.65886141950639E-01
 cg2d: Sum(rhs),rhsMax =  -7.66714469691010E-12  1.66688388354318E-01
 cg2d: Sum(rhs),rhsMax =  -7.64938112851610E-12  1.67228795984904E-01
 cg2d: Sum(rhs),rhsMax =  -7.67891306097113E-12  1.67521894244680E-01
 cg2d: Sum(rhs),rhsMax =  -7.69417862755972E-12  1.67535149078508E-01
 cg2d: Sum(rhs),rhsMax =  -7.72870656362556E-12  1.67291128018442E-01
 cg2d: Sum(rhs),rhsMax =  -7.75024489030329E-12  1.66782922956208E-01
 cg2d: Sum(rhs),rhsMax =  -7.66015029185496E-12  1.66040091523439E-01
 cg2d: Sum(rhs),rhsMax =  -7.77133912777117E-12  1.65057883644095E-01
 cg2d: Sum(rhs),rhsMax =  -7.85643772260869E-12  1.63840198748566E-01
 cg2d: Sum(rhs),rhsMax =  -7.92965693108272E-12  1.62377290817406E-01
 cg2d: Sum(rhs),rhsMax =  -8.03290767237286E-12  1.60688476333836E-01
 cg2d: Sum(rhs),rhsMax =  -8.14071032806396E-12  1.58787595900170E-01
 cg2d: Sum(rhs),rhsMax =  -8.25500778844912E-12  1.56683309037280E-01
 cg2d: Sum(rhs),rhsMax =  -8.37813152188005E-12  1.54359704142925E-01
 cg2d: Sum(rhs),rhsMax =  -8.53039860970739E-12  1.51824591797680E-01
 cg2d: Sum(rhs),rhsMax =  -8.71930305734736E-12  1.49101923051544E-01
 cg2d: Sum(rhs),rhsMax =  -8.90809648268487E-12  1.46211043193279E-01
 cg2d: Sum(rhs),rhsMax =  -9.09478048427559E-12  1.43139406495462E-01
 cg2d: Sum(rhs),rhsMax =  -9.30677757082776E-12  1.39910012067406E-01
 cg2d: Sum(rhs),rhsMax =  -9.56490442405311E-12  1.36531515287647E-01
 cg2d: Sum(rhs),rhsMax =  -9.87104842309350E-12  1.33052398147300E-01
 cg2d: Sum(rhs),rhsMax =  -1.01614827663354E-11  1.29420065987582E-01
 cg2d: Sum(rhs),rhsMax =  -1.04705133452399E-11  1.25728078114867E-01
 cg2d: Sum(rhs),rhsMax =  -1.05288555651839E-11  1.25182637920154E-01
 cg2d: Sum(rhs),rhsMax =  -1.05991326826427E-11  1.24654230732993E-01
 cg2d: Sum(rhs),rhsMax =  -1.06905040375693E-11  1.24045679418256E-01
 cg2d: Sum(rhs),rhsMax =  -1.07893138867610E-11  1.23354572804394E-01
 cg2d: Sum(rhs),rhsMax =  -1.08590358927074E-11  1.22595165975457E-01
 cg2d: Sum(rhs),rhsMax =  -1.09587894314700E-11  1.21760411736616E-01
 cg2d: Sum(rhs),rhsMax =  -1.09003361892235E-11  1.22255091941318E-01
 cg2d: Sum(rhs),rhsMax =  -1.05173647568790E-11  1.27172317760552E-01
 cg2d: Sum(rhs),rhsMax =  -1.01401109731114E-11  1.31984029691728E-01
 cg2d: Sum(rhs),rhsMax =  -9.80771019953863E-12  1.36598949664658E-01
 cg2d: Sum(rhs),rhsMax =  -9.50889367246077E-12  1.41061813412473E-01
 cg2d: Sum(rhs),rhsMax =  -9.23056076018725E-12  1.45421068017513E-01
 cg2d: Sum(rhs),rhsMax =  -8.95744589612946E-12  1.49533514442688E-01
 cg2d: Sum(rhs),rhsMax =  -8.77742323268649E-12  1.53486765514706E-01
 cg2d: Sum(rhs),rhsMax =  -8.65391092119694E-12  1.57221117446406E-01
 cg2d: Sum(rhs),rhsMax =  -8.50614023661933E-12  1.60811773123479E-01
 cg2d: Sum(rhs),rhsMax =  -8.39495140070312E-12  1.64146772041655E-01
 cg2d: Sum(rhs),rhsMax =  -8.30163715548338E-12  1.67258800973499E-01
 cg2d: Sum(rhs),rhsMax =  -8.20887802177594E-12  1.70167688671238E-01
 cg2d: Sum(rhs),rhsMax =  -8.11600786576605E-12  1.72978246195554E-01
 cg2d: Sum(rhs),rhsMax =  -8.02224953133646E-12  1.75427563242099E-01
 cg2d: Sum(rhs),rhsMax =  -7.88552556585387E-12  1.77679557728350E-01
 cg2d: Sum(rhs),rhsMax =  -7.75812747377813E-12  1.79709955670520E-01
 cg2d: Sum(rhs),rhsMax =  -7.62623297845266E-12  1.81501717948312E-01
 cg2d: Sum(rhs),rhsMax =  -7.64610597059345E-12  1.83081227431949E-01
 cg2d: Sum(rhs),rhsMax =  -7.66375851668499E-12  1.84417601880661E-01
 cg2d: Sum(rhs),rhsMax =  -7.69306840453510E-12  1.85506372354074E-01
 cg2d: Sum(rhs),rhsMax =  -7.71133157329018E-12  1.86347414125931E-01
 cg2d: Sum(rhs),rhsMax =  -7.73608954673932E-12  1.86960059958877E-01
 cg2d: Sum(rhs),rhsMax =  -7.78155317959772E-12  1.87315139646352E-01
 cg2d: Sum(rhs),rhsMax =  -7.86160025967320E-12  1.87437056894761E-01
 cg2d: Sum(rhs),rhsMax =  -7.96079868692345E-12  1.87352126760337E-01
 cg2d: Sum(rhs),rhsMax =  -8.06821276455594E-12  1.86997192912120E-01
 cg2d: Sum(rhs),rhsMax =  -8.17124146124115E-12  1.86414515441425E-01
 cg2d: Sum(rhs),rhsMax =  -8.28198620794751E-12  1.85601603817115E-01
 cg2d: Sum(rhs),rhsMax =  -8.39422975573711E-12  1.84542435972441E-01
 cg2d: Sum(rhs),rhsMax =  -8.51213544095231E-12  1.83239088908052E-01
 cg2d: Sum(rhs),rhsMax =  -8.54383230830535E-12  1.81729509540991E-01
 cg2d: Sum(rhs),rhsMax =  -8.59884385917553E-12  1.80026924455611E-01
 cg2d: Sum(rhs),rhsMax =  -8.68793925690170E-12  1.78140110714948E-01
 cg2d: Sum(rhs),rhsMax =  -8.77548034239339E-12  1.76080468543440E-01
 cg2d: Sum(rhs),rhsMax =  -8.90421070209868E-12  1.73828120392962E-01
 cg2d: Sum(rhs),rhsMax =  -9.04987196292950E-12  1.71405714516766E-01
 cg2d: Sum(rhs),rhsMax =  -9.20685749861150E-12  1.68805587697140E-01
 cg2d: Sum(rhs),rhsMax =  -9.40592048692679E-12  1.66038113304991E-01
 cg2d: Sum(rhs),rhsMax =  -9.62763202494443E-12  1.63126094604751E-01
 cg2d: Sum(rhs),rhsMax =  -9.83851888847198E-12  1.60086811765092E-01
 cg2d: Sum(rhs),rhsMax =  -1.00692232329891E-11  1.56918102390448E-01
 cg2d: Sum(rhs),rhsMax =  -1.03227426606622E-11  1.53632953165297E-01
 cg2d: Sum(rhs),rhsMax =  -1.05843112052639E-11  1.50237537495476E-01
 cg2d: Sum(rhs),rhsMax =  -1.08728026582128E-11  1.46713982105034E-01
 cg2d: Sum(rhs),rhsMax =  -1.11777254119261E-11  1.43118390497353E-01
 cg2d: Sum(rhs),rhsMax =  -1.15122911203969E-11  1.39456422843070E-01
 cg2d: Sum(rhs),rhsMax =  -1.17878484751088E-11  1.37145600720217E-01
 cg2d: Sum(rhs),rhsMax =  -1.18703935569897E-11  1.37436089393484E-01
 cg2d: Sum(rhs),rhsMax =  -1.19326215575200E-11  1.37703895291719E-01
 cg2d: Sum(rhs),rhsMax =  -1.19868559522729E-11  1.37950256035632E-01
 cg2d: Sum(rhs),rhsMax =  -1.20244925128077E-11  1.38175138832149E-01
 cg2d: Sum(rhs),rhsMax =  -1.20709553463882E-11  1.38380240097971E-01
 cg2d: Sum(rhs),rhsMax =  -1.21369581052022E-11  1.38562374428398E-01
 cg2d: Sum(rhs),rhsMax =  -1.21997967283960E-11  1.38723316823760E-01
 cg2d: Sum(rhs),rhsMax =  -1.22927779067084E-11  1.38863907624491E-01
 cg2d: Sum(rhs),rhsMax =  -1.23517862604672E-11  1.38985256750542E-01
 cg2d: Sum(rhs),rhsMax =  -1.23087651182630E-11  1.40350192127436E-01
 cg2d: Sum(rhs),rhsMax =  -1.20499166200716E-11  1.44302958542882E-01
 cg2d: Sum(rhs),rhsMax =  -1.17763576668040E-11  1.48078597780651E-01
 cg2d: Sum(rhs),rhsMax =  -1.14952491969689E-11  1.51707072321322E-01
 cg2d: Sum(rhs),rhsMax =  -1.12535536445080E-11  1.55112619255417E-01
 cg2d: Sum(rhs),rhsMax =  -1.10085274229732E-11  1.58326793853449E-01
 cg2d: Sum(rhs),rhsMax =  -1.08325015624189E-11  1.61358636517496E-01
 cg2d: Sum(rhs),rhsMax =  -1.06608610828118E-11  1.64178656043026E-01
 cg2d: Sum(rhs),rhsMax =  -1.05308539666282E-11  1.66791156247358E-01
 cg2d: Sum(rhs),rhsMax =  -1.03969055587072E-11  1.69190992355654E-01
 cg2d: Sum(rhs),rhsMax =  -1.03006492224722E-11  1.71361565858146E-01
 cg2d: Sum(rhs),rhsMax =  -1.02219899211775E-11  1.73317028389655E-01
 cg2d: Sum(rhs),rhsMax =  -1.01491037796109E-11  1.75030698138733E-01
 cg2d: Sum(rhs),rhsMax =  -1.00759400822881E-11  1.76487130764187E-01
 cg2d: Sum(rhs),rhsMax =  -1.00158215055046E-11  1.77722847866099E-01
 cg2d: Sum(rhs),rhsMax =  -9.98356952663926E-12  1.78729284902772E-01
 cg2d: Sum(rhs),rhsMax =  -9.96047688772705E-12  1.79540159503708E-01
 cg2d: Sum(rhs),rhsMax =  -9.93122251102818E-12  1.80126904549911E-01
 cg2d: Sum(rhs),rhsMax =  -9.92633752971983E-12  1.80481421804882E-01
 cg2d: Sum(rhs),rhsMax =  -9.98789939643530E-12  1.80597647965499E-01
 cg2d: Sum(rhs),rhsMax =  -1.00540686887030E-11  1.80485736791847E-01
 cg2d: Sum(rhs),rhsMax =  -1.01268438079671E-11  1.80159635092597E-01
 cg2d: Sum(rhs),rhsMax =  -1.02337027740873E-11  1.79597162084535E-01
 cg2d: Sum(rhs),rhsMax =  -1.03446140542474E-11  1.78837656855950E-01
 cg2d: Sum(rhs),rhsMax =  -1.04227182440297E-11  1.77839802227536E-01
 cg2d: Sum(rhs),rhsMax =  -1.05321862342578E-11  1.76635578402541E-01
 cg2d: Sum(rhs),rhsMax =  -1.06241127006967E-11  1.75253941764466E-01
 cg2d: Sum(rhs),rhsMax =  -1.07457931441957E-11  1.73652303643333E-01
 cg2d: Sum(rhs),rhsMax =  -1.08545394894577E-11  1.71867421355184E-01
 cg2d: Sum(rhs),rhsMax =  -1.09616760113340E-11  1.69932429371071E-01
 cg2d: Sum(rhs),rhsMax =  -1.10975673095481E-11  1.67806191657971E-01
 cg2d: Sum(rhs),rhsMax =  -1.12796438855867E-11  1.65533076921395E-01
 cg2d: Sum(rhs),rhsMax =  -1.14577236587365E-11  1.63058158075965E-01
 cg2d: Sum(rhs),rhsMax =  -1.16559539797834E-11  1.60452282293732E-01
 cg2d: Sum(rhs),rhsMax =  -1.19025900247038E-11  1.57695520486451E-01
 cg2d: Sum(rhs),rhsMax =  -1.21715415524193E-11  1.54803090090379E-01
 cg2d: Sum(rhs),rhsMax =  -1.24399934797736E-11  1.51776865109457E-01
 cg2d: Sum(rhs),rhsMax =  -1.27159394125442E-11  1.48626863985781E-01
 cg2d: Sum(rhs),rhsMax =  -1.30166988299152E-11  1.45370409424150E-01
 cg2d: Sum(rhs),rhsMax =  -1.33286159886836E-11  1.42014716003270E-01
 cg2d: Sum(rhs),rhsMax =  -1.37167499580926E-11  1.38546204505950E-01
 cg2d: Sum(rhs),rhsMax =  -1.41246458973399E-11  1.34971477052093E-01
 cg2d: Sum(rhs),rhsMax =  -1.45491396708053E-11  1.31306355015716E-01
 cg2d: Sum(rhs),rhsMax =  -1.47350465162788E-11  1.29670767522863E-01
 cg2d: Sum(rhs),rhsMax =  -1.47902246006026E-11  1.29197945027092E-01
 cg2d: Sum(rhs),rhsMax =  -1.48335232985630E-11  1.28720349137681E-01
 cg2d: Sum(rhs),rhsMax =  -1.48806522659584E-11  1.28237663071039E-01
 cg2d: Sum(rhs),rhsMax =  -1.49236734081626E-11  1.27748807609281E-01
 cg2d: Sum(rhs),rhsMax =  -1.49549261863058E-11  1.27253020444144E-01
 cg2d: Sum(rhs),rhsMax =  -1.50082168914878E-11  1.26750443668521E-01
 cg2d: Sum(rhs),rhsMax =  -1.47774015246682E-11  1.28350015718033E-01
 cg2d: Sum(rhs),rhsMax =  -1.44766976184485E-11  1.31245229620027E-01
 cg2d: Sum(rhs),rhsMax =  -1.41995859515021E-11  1.33923723670422E-01
 cg2d: Sum(rhs),rhsMax =  -1.39510070162885E-11  1.36457139806447E-01
 cg2d: Sum(rhs),rhsMax =  -1.37419520207516E-11  1.38815096864750E-01
 cg2d: Sum(rhs),rhsMax =  -1.35507161047599E-11  1.40959403443448E-01
 cg2d: Sum(rhs),rhsMax =  -1.34035560428458E-11  1.42924857770830E-01
 cg2d: Sum(rhs),rhsMax =  -1.32875377367725E-11  1.44716396120172E-01
 cg2d: Sum(rhs),rhsMax =  -1.32853172907232E-11  1.46303281338335E-01
 cg2d: Sum(rhs),rhsMax =  -1.32570066035953E-11  1.47692548321807E-01
 cg2d: Sum(rhs),rhsMax =  -1.32255317808472E-11  1.48869331201298E-01
 cg2d: Sum(rhs),rhsMax =  -1.31901156663616E-11  1.49848901528384E-01
 cg2d: Sum(rhs),rhsMax =  -1.32704958133445E-11  1.50607163195528E-01
 cg2d: Sum(rhs),rhsMax =  -1.33373867505782E-11  1.51169703745558E-01
 cg2d: Sum(rhs),rhsMax =  -1.34715572031041E-11  1.51535147855809E-01
 cg2d: Sum(rhs),rhsMax =  -1.35573219317564E-11  1.51698085718000E-01
 cg2d: Sum(rhs),rhsMax =  -1.36293198949033E-11  1.51672622044703E-01
 cg2d: Sum(rhs),rhsMax =  -1.36998190569670E-11  1.51439499375179E-01
 cg2d: Sum(rhs),rhsMax =  -1.38038469543744E-11  1.50996953696604E-01
 cg2d: Sum(rhs),rhsMax =  -1.39013800470877E-11  1.50348100778647E-01
 cg2d: Sum(rhs),rhsMax =  -1.40148448402044E-11  1.49538066221253E-01
 cg2d: Sum(rhs),rhsMax =  -1.41408551534994E-11  1.48529377220935E-01
 cg2d: Sum(rhs),rhsMax =  -1.42839073902223E-11  1.47372158349061E-01
 cg2d: Sum(rhs),rhsMax =  -1.44594891615668E-11  1.46041760542488E-01
 cg2d: Sum(rhs),rhsMax =  -1.46397893807659E-11  1.44507684794849E-01
 cg2d: Sum(rhs),rhsMax =  -1.48415169043403E-11  1.42841817716216E-01
 cg2d: Sum(rhs),rhsMax =  -1.50493506545502E-11  1.41107015697062E-01
 cg2d: Sum(rhs),rhsMax =  -1.52791668206476E-11  1.39118044045706E-01
 cg2d: Sum(rhs),rhsMax =  -1.55640500487664E-11  1.36937012713376E-01
 cg2d: Sum(rhs),rhsMax =  -1.58989488241446E-11  1.34581211263773E-01
 cg2d: Sum(rhs),rhsMax =  -1.62357904898158E-11  1.32092847978737E-01
 cg2d: Sum(rhs),rhsMax =  -1.66361369124957E-11  1.29493191590907E-01
 cg2d: Sum(rhs),rhsMax =  -1.70125025178436E-11  1.26751856330597E-01
 cg2d: Sum(rhs),rhsMax =  -1.74656955564956E-11  1.23853445576000E-01
 cg2d: Sum(rhs),rhsMax =  -1.79440906578066E-11  1.20873044025462E-01
 cg2d: Sum(rhs),rhsMax =  -1.84565696059735E-11  1.17710203029380E-01
 cg2d: Sum(rhs),rhsMax =  -1.90737425853627E-11  1.14279419838335E-01
 cg2d: Sum(rhs),rhsMax =  -1.96971328136897E-11  1.11071293601126E-01
 cg2d: Sum(rhs),rhsMax =  -1.95754523701908E-11  1.11867516763853E-01
 cg2d: Sum(rhs),rhsMax =  -1.94830818145419E-11  1.12592504259513E-01
 cg2d: Sum(rhs),rhsMax =  -1.94280147525205E-11  1.13254618220462E-01
 cg2d: Sum(rhs),rhsMax =  -1.94033678013739E-11  1.13841470905163E-01
 cg2d: Sum(rhs),rhsMax =  -1.93765004041779E-11  1.14356236545777E-01
 cg2d: Sum(rhs),rhsMax =  -1.94889659965725E-11  1.14809805620365E-01
 cg2d: Sum(rhs),rhsMax =  -1.94401161834890E-11  1.15185037116488E-01
 cg2d: Sum(rhs),rhsMax =  -1.94007032661148E-11  1.15507759205146E-01
 cg2d: Sum(rhs),rhsMax =  -1.93383087321308E-11  1.15757260545698E-01
 cg2d: Sum(rhs),rhsMax =  -1.93428606465318E-11  1.15930890350117E-01
 cg2d: Sum(rhs),rhsMax =  -1.93464133602106E-11  1.16038018645656E-01
 cg2d: Sum(rhs),rhsMax =  -1.93614013710430E-11  1.16068657124704E-01
 cg2d: Sum(rhs),rhsMax =  -1.96436200639027E-11  1.16025260075653E-01
 cg2d: Sum(rhs),rhsMax =  -1.96843652489065E-11  1.15918535145873E-01
 cg2d: Sum(rhs),rhsMax =  -1.96566096732909E-11  1.16213390260778E-01
 cg2d: Sum(rhs),rhsMax =  -1.95944371839119E-11  1.16630559453590E-01
 cg2d: Sum(rhs),rhsMax =  -1.95381488765634E-11  1.17154018783837E-01
 cg2d: Sum(rhs),rhsMax =  -1.95263805125023E-11  1.17574136961467E-01
 cg2d: Sum(rhs),rhsMax =  -1.94738669634376E-11  1.17864044039493E-01
 cg2d: Sum(rhs),rhsMax =  -1.94738669634376E-11  1.18038550878445E-01
 cg2d: Sum(rhs),rhsMax =  -1.95011784498433E-11  1.18097216648043E-01
 cg2d: Sum(rhs),rhsMax =  -1.95699012550676E-11  1.18024174752198E-01
 cg2d: Sum(rhs),rhsMax =  -1.96245242278792E-11  1.17771318778622E-01
 cg2d: Sum(rhs),rhsMax =  -1.97178939842502E-11  1.17327730009388E-01
 cg2d: Sum(rhs),rhsMax =  -1.99199545747319E-11  1.16671667606260E-01
 cg2d: Sum(rhs),rhsMax =  -2.03679295651682E-11  1.15587115236503E-01
 cg2d: Sum(rhs),rhsMax =  -2.07094341675429E-11  1.14554865672634E-01
 cg2d: Sum(rhs),rhsMax =  -2.09230410774808E-11  1.13428757797025E-01
 cg2d: Sum(rhs),rhsMax =  -2.11507478198314E-11  1.12091288716728E-01
 cg2d: Sum(rhs),rhsMax =  -2.14381845609068E-11  1.10680622160410E-01
 cg2d: Sum(rhs),rhsMax =  -2.17622586617949E-11  1.09236143520388E-01
 cg2d: Sum(rhs),rhsMax =  -2.21487272966669E-11  1.07602767450718E-01
 cg2d: Sum(rhs),rhsMax =  -2.21271889699892E-11  1.07798392865075E-01
 cg2d: Sum(rhs),rhsMax =  -2.20202744927178E-11  1.08346679168156E-01
 cg2d: Sum(rhs),rhsMax =  -2.19604334716905E-11  1.08877147538397E-01
 cg2d: Sum(rhs),rhsMax =  -2.18962625808672E-11  1.09389862199143E-01
 cg2d: Sum(rhs),rhsMax =  -2.18102202964587E-11  1.09885231630705E-01
 cg2d: Sum(rhs),rhsMax =  -2.16949791465026E-11  1.10364298352602E-01
 cg2d: Sum(rhs),rhsMax =  -2.16237028283217E-11  1.10828249393384E-01
 cg2d: Sum(rhs),rhsMax =  -2.15010231841006E-11  1.11277852608966E-01
 cg2d: Sum(rhs),rhsMax =  -2.13598028153683E-11  1.11713515851681E-01
 cg2d: Sum(rhs),rhsMax =  -2.12220241380123E-11  1.12135505789133E-01
 cg2d: Sum(rhs),rhsMax =  -2.11141104600188E-11  1.12543783947564E-01
 cg2d: Sum(rhs),rhsMax =  -2.12503348251403E-11  1.12938289782490E-01
 cg2d: Sum(rhs),rhsMax =  -2.11675121875032E-11  1.13318806590360E-01
 cg2d: Sum(rhs),rhsMax =  -2.11071160549636E-11  1.13685196722774E-01
 cg2d: Sum(rhs),rhsMax =  -2.10518269483373E-11  1.14037629012015E-01
 cg2d: Sum(rhs),rhsMax =  -2.09873229906066E-11  1.14376474603716E-01
 cg2d: Sum(rhs),rhsMax =  -2.08864037176681E-11  1.14702153382413E-01
 cg2d: Sum(rhs),rhsMax =  -2.08049133476607E-11  1.15014722894033E-01
 cg2d: Sum(rhs),rhsMax =  -2.07397432561152E-11  1.15314310460613E-01
 cg2d: Sum(rhs),rhsMax =  -2.07014405617656E-11  1.15601672659284E-01
 cg2d: Sum(rhs),rhsMax =  -2.06631378674160E-11  1.15877213315169E-01
 cg2d: Sum(rhs),rhsMax =  -2.06273886860231E-11  1.16140990390638E-01
 cg2d: Sum(rhs),rhsMax =  -2.06685779602367E-11  1.16392512292927E-01
 cg2d: Sum(rhs),rhsMax =  -2.05838679434578E-11  1.16631253531198E-01
 cg2d: Sum(rhs),rhsMax =  -2.05436778699664E-11  1.16856954776658E-01
 cg2d: Sum(rhs),rhsMax =  -2.05030437072651E-11  1.17068955109845E-01
 cg2d: Sum(rhs),rhsMax =  -2.04180006235788E-11  1.17266898885429E-01
 cg2d: Sum(rhs),rhsMax =  -2.03040917412523E-11  1.17450577149110E-01
 cg2d: Sum(rhs),rhsMax =  -2.02368122259600E-11  1.17619770694714E-01
 cg2d: Sum(rhs),rhsMax =  -2.01546557221377E-11  1.17774299961186E-01
 cg2d: Sum(rhs),rhsMax =  -2.01105798680601E-11  1.17914870003056E-01
 cg2d: Sum(rhs),rhsMax =  -2.00994776378138E-11  1.18040377029745E-01
 cg2d: Sum(rhs),rhsMax =  -2.00295335872624E-11  1.18151688940803E-01
 cg2d: Sum(rhs),rhsMax =  -2.00137684203128E-11  1.18249291406412E-01
(PID.TID 0000.0001)      cg2d_init_res =   5.98285459544968E-02
(PID.TID 0000.0001)      cg2d_iters(min,last) =      -1      29
(PID.TID 0000.0001)      cg2d_last_res =   6.26729117244317E-14
(PID.TID 0000.0001) // =======================================================
(PID.TID 0000.0001) // Begin MONITOR dynamic field statistics
(PID.TID 0000.0001) // =======================================================
(PID.TID 0000.0001) %MON time_tsnumber                =                  5760
(PID.TID 0000.0001) %MON time_secondsf                =   8.6400000000000E+04
(PID.TID 0000.0001) %MON dynstat_eta_max              =   8.1364585293967E-03
(PID.TID 0000.0001) %MON dynstat_eta_min              =  -1.2190935488223E-02
(PID.TID 0000.0001) %MON dynstat_eta_mean             =   2.7360991863492E-15
(PID.TID 0000.0001) %MON dynstat_eta_sd               =   4.9924836049673E-03
(PID.TID 0000.0001) %MON dynstat_eta_del2             =   1.2112006804536E-04
(PID.TID 0000.0001) %MON dynstat_uvel_max             =   1.3855729168726E+00
(PID.TID 0000.0001) %MON dynstat_uvel_min             =  -5.2565599615239E-01
(PID.TID 0000.0001) %MON dynstat_uvel_mean            =  -3.7398039542095E-06
(PID.TID 0000.0001) %MON dynstat_uvel_sd              =   1.4302112127418E-01
(PID.TID 0000.0001) %MON dynstat_uvel_del2            =   6.5909485349804E-04
(PID.TID 0000.0001) %MON dynstat_vvel_max             =   0.0000000000000E+00
(PID.TID 0000.0001) %MON dynstat_vvel_min             =   0.0000000000000E+00
(PID.TID 0000.0001) %MON dynstat_vvel_mean            =   0.0000000000000E+00
(PID.TID 0000.0001) %MON dynstat_vvel_sd              =   0.0000000000000E+00
(PID.TID 0000.0001) %MON dynstat_vvel_del2            =   0.0000000000000E+00
(PID.TID 0000.0001) %MON dynstat_wvel_max             =   3.8649027632634E-02
(PID.TID 0000.0001) %MON dynstat_wvel_min             =  -2.7750873794146E-02
(PID.TID 0000.0001) %MON dynstat_wvel_mean            =  -1.5015638864315E-20
(PID.TID 0000.0001) %MON dynstat_wvel_sd              =   3.7262910446795E-03
(PID.TID 0000.0001) %MON dynstat_wvel_del2            =   6.1660365960781E-05
(PID.TID 0000.0001) %MON dynstat_theta_max            =   1.5000000000012E+01
(PID.TID 0000.0001) %MON dynstat_theta_min            =   9.9999999999929E+00
(PID.TID 0000.0001) %MON dynstat_theta_mean           =   1.3079491696963E+01
(PID.TID 0000.0001) %MON dynstat_theta_sd             =   2.3249843495369E+00
(PID.TID 0000.0001) %MON dynstat_theta_del2           =   1.4847810326417E-03
(PID.TID 0000.0001) %MON dynstat_salt_max             =   3.5000000000000E+01
(PID.TID 0000.0001) %MON dynstat_salt_min             =   3.5000000000000E+01
(PID.TID 0000.0001) %MON dynstat_salt_mean            =   3.5000000000000E+01
(PID.TID 0000.0001) %MON dynstat_salt_sd              =   7.1054273576010E-15
(PID.TID 0000.0001) %MON dynstat_salt_del2            =   0.0000000000000E+00
(PID.TID 0000.0001) %MON dynstat_sst_max              =   1.5000000000010E+01
(PID.TID 0000.0001) %MON dynstat_sst_min              =   1.4995779878978E+01
(PID.TID 0000.0001) %MON dynstat_sst_mean             =   1.4999935443040E+01
(PID.TID 0000.0001) %MON dynstat_sst_sd               =   4.2117758865643E-04
(PID.TID 0000.0001) %MON dynstat_sst_del2             =   2.7118553617877E-05
(PID.TID 0000.0001) %MON dynstat_sss_max              =   3.5000000000000E+01
(PID.TID 0000.0001) %MON dynstat_sss_min              =   3.5000000000000E+01
(PID.TID 0000.0001) %MON dynstat_sss_mean             =   3.5000000000000E+01
(PID.TID 0000.0001) %MON dynstat_sss_sd               =   0.0000000000000E+00
(PID.TID 0000.0001) %MON dynstat_sss_del2             =   0.0000000000000E+00
(PID.TID 0000.0001) %MON forcing_qnet_max             =   0.0000000000000E+00
(PID.TID 0000.0001) %MON forcing_qnet_min             =   0.0000000000000E+00
(PID.TID 0000.0001) %MON forcing_qnet_mean            =   0.0000000000000E+00
(PID.TID 0000.0001) %MON forcing_qnet_sd              =   0.0000000000000E+00
(PID.TID 0000.0001) %MON forcing_qnet_del2            =   0.0000000000000E+00
(PID.TID 0000.0001) %MON forcing_qsw_max              =   0.0000000000000E+00
(PID.TID 0000.0001) %MON forcing_qsw_min              =   0.0000000000000E+00
(PID.TID 0000.0001) %MON forcing_qsw_mean             =   0.0000000000000E+00
(PID.TID 0000.0001) %MON forcing_qsw_sd               =   0.0000000000000E+00
(PID.TID 0000.0001) %MON forcing_qsw_del2             =   0.0000000000000E+00
(PID.TID 0000.0001) %MON forcing_empmr_max            =   0.0000000000000E+00
(PID.TID 0000.0001) %MON forcing_empmr_min            =   0.0000000000000E+00
(PID.TID 0000.0001) %MON forcing_empmr_mean           =   0.0000000000000E+00
(PID.TID 0000.0001) %MON forcing_empmr_sd             =   0.0000000000000E+00
(PID.TID 0000.0001) %MON forcing_empmr_del2           =   0.0000000000000E+00
(PID.TID 0000.0001) %MON forcing_fu_max               =   0.0000000000000E+00
(PID.TID 0000.0001) %MON forcing_fu_min               =   0.0000000000000E+00
(PID.TID 0000.0001) %MON forcing_fu_mean              =   0.0000000000000E+00
(PID.TID 0000.0001) %MON forcing_fu_sd                =   0.0000000000000E+00
(PID.TID 0000.0001) %MON forcing_fu_del2              =   0.0000000000000E+00
(PID.TID 0000.0001) %MON forcing_fv_max               =   0.0000000000000E+00
(PID.TID 0000.0001) %MON forcing_fv_min               =   0.0000000000000E+00
(PID.TID 0000.0001) %MON forcing_fv_mean              =   0.0000000000000E+00
(PID.TID 0000.0001) %MON forcing_fv_sd                =   0.0000000000000E+00
(PID.TID 0000.0001) %MON forcing_fv_del2              =   0.0000000000000E+00
(PID.TID 0000.0001) %MON advcfl_uvel_max              =   7.2932683064608E-02
(PID.TID 0000.0001) %MON advcfl_vvel_max              =   0.0000000000000E+00
(PID.TID 0000.0001) %MON advcfl_wvel_max              =   3.7963948251184E-01
(PID.TID 0000.0001) %MON advcfl_W_hf_max              =   3.8503381155656E-01
(PID.TID 0000.0001) %MON pe_b_mean                    =   6.9970440927439E-07
(PID.TID 0000.0001) %MON ke_max                       =   4.8495596364273E-01
(PID.TID 0000.0001) %MON ke_mean                      =   1.0340733230849E-02
(PID.TID 0000.0001) %MON ke_vol                       =   8.5336562999261E+10
(PID.TID 0000.0001) %MON vort_r_min                   =   0.0000000000000E+00
(PID.TID 0000.0001) %MON vort_r_max                   =   0.0000000000000E+00
(PID.TID 0000.0001) %MON vort_a_mean                  =   0.0000000000000E+00
(PID.TID 0000.0001) %MON vort_a_sd                    =   0.0000000000000E+00
(PID.TID 0000.0001) %MON vort_p_mean                  =   0.0000000000000E+00
(PID.TID 0000.0001) %MON vort_p_sd                    =   0.0000000000000E+00
(PID.TID 0000.0001) %MON surfExpan_theta_mean         =   4.0671514980077E-11
(PID.TID 0000.0001) %MON surfExpan_salt_mean          =   1.3865273411053E-18
(PID.TID 0000.0001) // =======================================================
(PID.TID 0000.0001) // End MONITOR dynamic field statistics
(PID.TID 0000.0001) // =======================================================
(PID.TID 0000.0001) // =======================================================
(PID.TID 0000.0001) // Begin OBCS MONITOR field statistics
(PID.TID 0000.0001) // =======================================================
(PID.TID 0000.0001) %MON obc_E_uVel_max               =   0.0000000000000E+00
(PID.TID 0000.0001) %MON obc_E_uVel_min               =   0.0000000000000E+00
(PID.TID 0000.0001) %MON obc_E_uVel_mean              =   0.0000000000000E+00
(PID.TID 0000.0001) %MON obc_E_uVel_sd                =   0.0000000000000E+00
(PID.TID 0000.0001) %MON obc_E_uVel_Int               =   0.0000000000000E+00
(PID.TID 0000.0001) %MON obc_W_uVel_max               =   0.0000000000000E+00
(PID.TID 0000.0001) %MON obc_W_uVel_min               =   0.0000000000000E+00
(PID.TID 0000.0001) %MON obc_W_uVel_mean              =   0.0000000000000E+00
(PID.TID 0000.0001) %MON obc_W_uVel_sd                =   0.0000000000000E+00
(PID.TID 0000.0001) %MON obc_W_uVel_Int               =   0.0000000000000E+00
(PID.TID 0000.0001) // =======================================================
(PID.TID 0000.0001) // End OBCS MONITOR field statistics
(PID.TID 0000.0001) // =======================================================
(PID.TID 0000.0001) %CHECKPOINT      5760 0000005760
 cg2d: Sum(rhs),rhsMax =  -1.99587013582914E-11  1.18333413800632E-01
 cg2d: Sum(rhs),rhsMax =  -1.99142924373064E-11  1.18404169319220E-01
 cg2d: Sum(rhs),rhsMax =  -1.98678851148770E-11  1.18461773745426E-01
 cg2d: Sum(rhs),rhsMax =  -1.98283611752004E-11  1.18506722020291E-01
 cg2d: Sum(rhs),rhsMax =  -1.97539762325505E-11  1.18539892118421E-01
 cg2d: Sum(rhs),rhsMax =  -1.97178939842502E-11  1.18561662788882E-01
 cg2d: Sum(rhs),rhsMax =  -1.97439842253289E-11  1.18572829300468E-01
 cg2d: Sum(rhs),rhsMax =  -1.97253324785152E-11  1.18574216867462E-01
 cg2d: Sum(rhs),rhsMax =  -1.97236671439782E-11  1.18566634958900E-01
 cg2d: Sum(rhs),rhsMax =  -1.96885840964001E-11  1.18551088506853E-01
 cg2d: Sum(rhs),rhsMax =  -1.96354044135205E-11  1.18528370405843E-01
 cg2d: Sum(rhs),rhsMax =  -1.95826688198508E-11  1.18499154477052E-01
 cg2d: Sum(rhs),rhsMax =  -1.95690130766479E-11  1.18464232688699E-01
 cg2d: Sum(rhs),rhsMax =  -1.95685689874381E-11  1.18424202623528E-01
 cg2d: Sum(rhs),rhsMax =  -1.96459515322545E-11  1.18379445485212E-01
 cg2d: Sum(rhs),rhsMax =  -1.96472837998840E-11  1.18330279059971E-01
 cg2d: Sum(rhs),rhsMax =  -1.96839211596966E-11  1.18276637698906E-01
 cg2d: Sum(rhs),rhsMax =  -1.96735960855676E-11  1.18218838782196E-01
 cg2d: Sum(rhs),rhsMax =  -1.96189731127561E-11  1.18156762726311E-01
 cg2d: Sum(rhs),rhsMax =  -1.95707894334873E-11  1.18090028417185E-01
 cg2d: Sum(rhs),rhsMax =  -1.95847782435976E-11  1.18018148709759E-01
 cg2d: Sum(rhs),rhsMax =  -1.96480609560012E-11  1.17940546294660E-01
 cg2d: Sum(rhs),rhsMax =  -1.97997174211650E-11  1.17856435531836E-01
 cg2d: Sum(rhs),rhsMax =  -1.98133731643679E-11  1.17765131133856E-01
 cg2d: Sum(rhs),rhsMax =  -1.98244753946142E-11  1.17666462735941E-01
 cg2d: Sum(rhs),rhsMax =  -1.98410177176811E-11  1.17559468469371E-01
 cg2d: Sum(rhs),rhsMax =  -1.98764338321666E-11  1.17443568191812E-01
 cg2d: Sum(rhs),rhsMax =  -1.98967509135173E-11  1.17318414321242E-01
 cg2d: Sum(rhs),rhsMax =  -1.99292804481388E-11  1.17183716340576E-01
 cg2d: Sum(rhs),rhsMax =  -1.99616989604579E-11  1.17039394199404E-01
 cg2d: Sum(rhs),rhsMax =  -1.99614769158529E-11  1.16885567595433E-01
 cg2d: Sum(rhs),rhsMax =  -2.00780503334386E-11  1.16722096256217E-01
 cg2d: Sum(rhs),rhsMax =  -2.01335614846698E-11  1.16548845608127E-01
 cg2d: Sum(rhs),rhsMax =  -2.01307859271083E-11  1.16365510407053E-01
 cg2d: Sum(rhs),rhsMax =  -2.00915950543390E-11  1.16172371945539E-01
 cg2d: Sum(rhs),rhsMax =  -2.00975902586720E-11  1.15969652295771E-01
 cg2d: Sum(rhs),rhsMax =  -2.01280103695467E-11  1.15757855497396E-01
 cg2d: Sum(rhs),rhsMax =  -2.01828553869632E-11  1.15537544180540E-01
 cg2d: Sum(rhs),rhsMax =  -2.02375893820772E-11  1.15309256597012E-01
 cg2d: Sum(rhs),rhsMax =  -2.02872163512779E-11  1.15073292034772E-01
 cg2d: Sum(rhs),rhsMax =  -2.03589367586687E-11  1.14830176243040E-01
 cg2d: Sum(rhs),rhsMax =  -2.04378736157196E-11  1.14580599659284E-01
 cg2d: Sum(rhs),rhsMax =  -2.05607753045456E-11  1.14324954272979E-01
 cg2d: Sum(rhs),rhsMax =  -2.06189509910359E-11  1.14063322524561E-01
 cg2d: Sum(rhs),rhsMax =  -2.06840100602790E-11  1.13795688674755E-01
 cg2d: Sum(rhs),rhsMax =  -2.07575068245092E-11  1.13522093994845E-01
 cg2d: Sum(rhs),rhsMax =  -2.08405515067511E-11  1.13243265807333E-01
 cg2d: Sum(rhs),rhsMax =  -2.09622319502500E-11  1.12959263135119E-01
 cg2d: Sum(rhs),rhsMax =  -2.10794715016505E-11  1.12670266900337E-01
 cg2d: Sum(rhs),rhsMax =  -2.12307948999069E-11  1.12376559299661E-01
 cg2d: Sum(rhs),rhsMax =  -2.13338235965921E-11  1.12078321506780E-01
 cg2d: Sum(rhs),rhsMax =  -2.14396278508389E-11  1.11775524729494E-01
 cg2d: Sum(rhs),rhsMax =  -2.15247819568276E-11  1.11468428817263E-01
 cg2d: Sum(rhs),rhsMax =  -2.16512363593324E-11  1.11156294110714E-01
 cg2d: Sum(rhs),rhsMax =  -2.17785789402569E-11  1.10839451797997E-01
 cg2d: Sum(rhs),rhsMax =  -2.18846052391086E-11  1.10518405701250E-01
 cg2d: Sum(rhs),rhsMax =  -2.19139151269587E-11  1.10192876239478E-01
 cg2d: Sum(rhs),rhsMax =  -2.19102513909775E-11  1.09862730070931E-01
 cg2d: Sum(rhs),rhsMax =  -2.19166906845203E-11  1.09527935404545E-01
 cg2d: Sum(rhs),rhsMax =  -2.19272378032542E-11  1.09188048363849E-01
 cg2d: Sum(rhs),rhsMax =  -2.19778639731771E-11  1.08843761604709E-01
 cg2d: Sum(rhs),rhsMax =  -2.19885221142135E-11  1.08494891348747E-01
 cg2d: Sum(rhs),rhsMax =  -2.20248264071188E-11  1.08141747117263E-01
 cg2d: Sum(rhs),rhsMax =  -2.19348983421241E-11  1.08407037086408E-01
 cg2d: Sum(rhs),rhsMax =  -2.18739470980722E-11  1.08521365386809E-01
 cg2d: Sum(rhs),rhsMax =  -2.18668416707146E-11  1.08397187769567E-01
 cg2d: Sum(rhs),rhsMax =  -2.19463336392778E-11  1.08032306046565E-01
 cg2d: Sum(rhs),rhsMax =  -2.20565787856231E-11  1.07481087167876E-01
 cg2d: Sum(rhs),rhsMax =  -2.22135643213051E-11  1.06710475529076E-01
 cg2d: Sum(rhs),rhsMax =  -2.24209539823050E-11  1.05561198546066E-01
 cg2d: Sum(rhs),rhsMax =  -2.25016671961953E-11  1.05180638945678E-01
 cg2d: Sum(rhs),rhsMax =  -2.25993668223623E-11  1.04797815051752E-01
 cg2d: Sum(rhs),rhsMax =  -2.26617613563462E-11  1.04412790809017E-01
 cg2d: Sum(rhs),rhsMax =  -2.26694218952161E-11  1.04025725345860E-01
 cg2d: Sum(rhs),rhsMax =  -2.27166063737627E-11  1.03636958002590E-01
 cg2d: Sum(rhs),rhsMax =  -2.28722596418152E-11  1.03246924064266E-01
 cg2d: Sum(rhs),rhsMax =  -2.30400143408360E-11  1.02855623775294E-01
 cg2d: Sum(rhs),rhsMax =  -2.32220909168745E-11  1.02463206368017E-01
 cg2d: Sum(rhs),rhsMax =  -2.33817409878156E-11  1.02069983462352E-01
 cg2d: Sum(rhs),rhsMax =  -2.35185204644495E-11  1.01676279879447E-01
 cg2d: Sum(rhs),rhsMax =  -2.36548558518734E-11  1.01282535135119E-01
 cg2d: Sum(rhs),rhsMax =  -2.36980435275314E-11  1.00888606813640E-01
 cg2d: Sum(rhs),rhsMax =  -2.37168062966475E-11  1.00494816538589E-01
 cg2d: Sum(rhs),rhsMax =  -2.37644348644039E-11  1.00101688039664E-01
 cg2d: Sum(rhs),rhsMax =  -2.37956321313959E-11  9.97097486972850E-02
 cg2d: Sum(rhs),rhsMax =  -2.38077335623643E-11  9.93190988259306E-02
 cg2d: Sum(rhs),rhsMax =  -2.38812303265945E-11  9.89293255684268E-02
 cg2d: Sum(rhs),rhsMax =  -2.37666553104532E-11  9.95585020268463E-02
 cg2d: Sum(rhs),rhsMax =  -2.29805063867161E-11  1.03182304788663E-01
 cg2d: Sum(rhs),rhsMax =  -2.22971641150593E-11  1.06650330049808E-01
 cg2d: Sum(rhs),rhsMax =  -2.16847650946761E-11  1.09842805919062E-01
 cg2d: Sum(rhs),rhsMax =  -2.11444195485910E-11  1.12804341929852E-01
 cg2d: Sum(rhs),rhsMax =  -2.06509254141451E-11  1.15576784221308E-01
 cg2d: Sum(rhs),rhsMax =  -2.01921812603700E-11  1.18121832711236E-01
 cg2d: Sum(rhs),rhsMax =  -1.98124849859482E-11  1.20386949030242E-01
 cg2d: Sum(rhs),rhsMax =  -1.94526617036672E-11  1.22398341914906E-01
 cg2d: Sum(rhs),rhsMax =  -1.91621163381228E-11  1.24162630048841E-01
 cg2d: Sum(rhs),rhsMax =  -1.88706827941587E-11  1.25638560466813E-01
 cg2d: Sum(rhs),rhsMax =  -1.85628179494302E-11  1.26889836851883E-01
 cg2d: Sum(rhs),rhsMax =  -1.84430248850731E-11  1.27865586391939E-01
 cg2d: Sum(rhs),rhsMax =  -1.83536519315908E-11  1.28563147330337E-01
 cg2d: Sum(rhs),rhsMax =  -1.83063564307417E-11  1.28991466320579E-01
 cg2d: Sum(rhs),rhsMax =  -1.82580617291705E-11  1.29547966273092E-01
 cg2d: Sum(rhs),rhsMax =  -1.83167925271732E-11  1.29408044598857E-01
 cg2d: Sum(rhs),rhsMax =  -1.84032789007915E-11  1.29061111898267E-01
 cg2d: Sum(rhs),rhsMax =  -1.85308435263210E-11  1.28455189707608E-01
 cg2d: Sum(rhs),rhsMax =  -1.87350135405495E-11  1.27712118278040E-01
 cg2d: Sum(rhs),rhsMax =  -1.89346316403771E-11  1.26704161876277E-01
 cg2d: Sum(rhs),rhsMax =  -1.91836546648005E-11  1.25451303235620E-01
 cg2d: Sum(rhs),rhsMax =  -1.94552152166239E-11  1.23989658254074E-01
 cg2d: Sum(rhs),rhsMax =  -1.97598604145810E-11  1.22301956249746E-01
 cg2d: Sum(rhs),rhsMax =  -2.01336725069723E-11  1.20412629846165E-01
 cg2d: Sum(rhs),rhsMax =  -2.05521155649535E-11  1.18313182101729E-01
 cg2d: Sum(rhs),rhsMax =  -2.09982031762479E-11  1.15999860801652E-01
 cg2d: Sum(rhs),rhsMax =  -2.15071294107361E-11  1.13514587953026E-01
 cg2d: Sum(rhs),rhsMax =  -2.20886642310347E-11  1.10849294582839E-01
 cg2d: Sum(rhs),rhsMax =  -2.25918173057948E-11  1.08008718393184E-01
 cg2d: Sum(rhs),rhsMax =  -2.24557039629758E-11  1.08397778052012E-01
 cg2d: Sum(rhs),rhsMax =  -2.22680762718142E-11  1.08991968113782E-01
 cg2d: Sum(rhs),rhsMax =  -2.21366258656985E-11  1.09574821789060E-01
 cg2d: Sum(rhs),rhsMax =  -2.20414797524882E-11  1.10145400525715E-01
 cg2d: Sum(rhs),rhsMax =  -2.19682050328629E-11  1.10702624232149E-01
 cg2d: Sum(rhs),rhsMax =  -2.19062545880888E-11  1.11247014821180E-01
 cg2d: Sum(rhs),rhsMax =  -2.17168505400878E-11  1.11778568506097E-01
 cg2d: Sum(rhs),rhsMax =  -2.16043849476932E-11  1.12295938013068E-01
 cg2d: Sum(rhs),rhsMax =  -2.15278905812966E-11  1.12799501430995E-01
 cg2d: Sum(rhs),rhsMax =  -2.14190887248833E-11  1.13289078333109E-01
 cg2d: Sum(rhs),rhsMax =  -2.13350448419192E-11  1.13767428995619E-01
 cg2d: Sum(rhs),rhsMax =  -2.12059259041553E-11  1.14234224661102E-01
 cg2d: Sum(rhs),rhsMax =  -2.11324291399251E-11  1.14688146642533E-01
 cg2d: Sum(rhs),rhsMax =  -2.10291783986349E-11  1.15129367607040E-01
 cg2d: Sum(rhs),rhsMax =  -2.07724948353416E-11  1.16242793447938E-01
 cg2d: Sum(rhs),rhsMax =  -2.04756211985568E-11  1.18016607180265E-01
 cg2d: Sum(rhs),rhsMax =  -2.01456629156382E-11  1.19559230833655E-01
 cg2d: Sum(rhs),rhsMax =  -1.98953076235853E-11  1.20840417125024E-01
 cg2d: Sum(rhs),rhsMax =  -1.96661575913026E-11  1.21884109576384E-01
 cg2d: Sum(rhs),rhsMax =  -1.95300442484836E-11  1.22669323299092E-01
 cg2d: Sum(rhs),rhsMax =  -1.94512739248864E-11  1.23241095573140E-01
 cg2d: Sum(rhs),rhsMax =  -1.93811633408814E-11  1.23600619161344E-01
 cg2d: Sum(rhs),rhsMax =  -1.93648985735706E-11  1.23691383381706E-01
 cg2d: Sum(rhs),rhsMax =  -1.93700611106351E-11  1.23631634097359E-01
 cg2d: Sum(rhs),rhsMax =  -1.93901561473808E-11  1.23300554667975E-01
 cg2d: Sum(rhs),rhsMax =  -1.94742555414962E-11  1.22733647388100E-01
 cg2d: Sum(rhs),rhsMax =  -1.95505278632879E-11  1.21958040220012E-01
 cg2d: Sum(rhs),rhsMax =  -1.96715976841233E-11  1.20931814831297E-01
 cg2d: Sum(rhs),rhsMax =  -1.97883931463139E-11  1.19925183908697E-01
 cg2d: Sum(rhs),rhsMax =  -1.97212246533240E-11  1.20125620847114E-01
 cg2d: Sum(rhs),rhsMax =  -1.98087102276645E-11  1.20318453772699E-01
 cg2d: Sum(rhs),rhsMax =  -1.98187022348861E-11  1.20497474864462E-01
 cg2d: Sum(rhs),rhsMax =  -1.97856175887523E-11  1.20664606848885E-01
 cg2d: Sum(rhs),rhsMax =  -1.97384886213570E-11  1.20815769413323E-01
 cg2d: Sum(rhs),rhsMax =  -1.97639127286209E-11  1.20959754457428E-01
 cg2d: Sum(rhs),rhsMax =  -1.97833416315518E-11  1.21090760324133E-01
 cg2d: Sum(rhs),rhsMax =  -1.97614702379667E-11  1.21207695199261E-01
 cg2d: Sum(rhs),rhsMax =  -1.97583616134978E-11  1.21311690751934E-01
 cg2d: Sum(rhs),rhsMax =  -1.98059346701029E-11  1.21402820557528E-01
 cg2d: Sum(rhs),rhsMax =  -1.97741267804474E-11  1.21484562219418E-01
 cg2d: Sum(rhs),rhsMax =  -1.97766802934041E-11  1.21548753821120E-01
 cg2d: Sum(rhs),rhsMax =  -1.97610816599081E-11  1.21599761717910E-01
 cg2d: Sum(rhs),rhsMax =  -1.97392657774742E-11  1.21640794984166E-01
 cg2d: Sum(rhs),rhsMax =  -1.97756255815307E-11  1.21663108234529E-01
 cg2d: Sum(rhs),rhsMax =  -1.97297178594624E-11  1.21930315847525E-01
 cg2d: Sum(rhs),rhsMax =  -1.93408067339362E-11  1.24058158652723E-01
 cg2d: Sum(rhs),rhsMax =  -1.90060744920117E-11  1.25985534811506E-01
 cg2d: Sum(rhs),rhsMax =  -1.86999860041226E-11  1.27708551125891E-01
 cg2d: Sum(rhs),rhsMax =  -1.84772752653828E-11  1.29170295451421E-01
 cg2d: Sum(rhs),rhsMax =  -1.82810988569315E-11  1.30412468160525E-01
 cg2d: Sum(rhs),rhsMax =  -1.81194503845461E-11  1.31435378962038E-01
 cg2d: Sum(rhs),rhsMax =  -1.80147563533239E-11  1.32208557213581E-01
 cg2d: Sum(rhs),rhsMax =  -1.79954384726955E-11  1.32740894851643E-01
 cg2d: Sum(rhs),rhsMax =  -1.79343762063411E-11  1.33109716300455E-01
 cg2d: Sum(rhs),rhsMax =  -1.79566361779848E-11  1.33166556251734E-01
 cg2d: Sum(rhs),rhsMax =  -1.80182535558515E-11  1.32994174143184E-01
 cg2d: Sum(rhs),rhsMax =  -1.80844783592704E-11  1.32606078582002E-01
 cg2d: Sum(rhs),rhsMax =  -1.81728521120306E-11  1.32016908867874E-01
 cg2d: Sum(rhs),rhsMax =  -1.82625026212690E-11  1.31214392242784E-01
 cg2d: Sum(rhs),rhsMax =  -1.84007253878349E-11  1.30181064869654E-01
 cg2d: Sum(rhs),rhsMax =  -1.85378379313761E-11  1.28870555109183E-01
 cg2d: Sum(rhs),rhsMax =  -1.87114213012762E-11  1.27354935339082E-01
 cg2d: Sum(rhs),rhsMax =  -1.90312210435195E-11  1.25603537982502E-01
 cg2d: Sum(rhs),rhsMax =  -1.93027815953428E-11  1.23628061927531E-01
 cg2d: Sum(rhs),rhsMax =  -1.96893612525173E-11  1.21455005515406E-01
 cg2d: Sum(rhs),rhsMax =  -2.01338945515772E-11  1.19071603952266E-01
 cg2d: Sum(rhs),rhsMax =  -2.04759542654642E-11  1.17347267378643E-01
 cg2d: Sum(rhs),rhsMax =  -2.05995220881050E-11  1.16959752474959E-01
 cg2d: Sum(rhs),rhsMax =  -2.07519557093860E-11  1.16555303093103E-01
 cg2d: Sum(rhs),rhsMax =  -2.05776506945199E-11  1.17982060457255E-01
 cg2d: Sum(rhs),rhsMax =  -1.98224214820186E-11  1.22823051324195E-01
 cg2d: Sum(rhs),rhsMax =  -1.92088012163083E-11  1.27468934030075E-01
 cg2d: Sum(rhs),rhsMax =  -1.85856885437374E-11  1.31936031676488E-01
 cg2d: Sum(rhs),rhsMax =  -1.80698789264966E-11  1.36205281110731E-01
 cg2d: Sum(rhs),rhsMax =  -1.75347514286273E-11  1.40285272221437E-01
 cg2d: Sum(rhs),rhsMax =  -1.70712333158463E-11  1.44138769215220E-01
 cg2d: Sum(rhs),rhsMax =  -1.67016955820998E-11  1.47746583337775E-01
 cg2d: Sum(rhs),rhsMax =  -1.63309921141774E-11  1.51175701398695E-01
 cg2d: Sum(rhs),rhsMax =  -1.60267910054301E-11  1.54297005233921E-01
 cg2d: Sum(rhs),rhsMax =  -1.57912571907559E-11  1.57160305786902E-01
 cg2d: Sum(rhs),rhsMax =  -1.55527812850664E-11  1.59793907090961E-01
 cg2d: Sum(rhs),rhsMax =  -1.53108636880006E-11  1.62150210098605E-01
 cg2d: Sum(rhs),rhsMax =  -1.51230694633853E-11  1.64224237919039E-01
 cg2d: Sum(rhs),rhsMax =  -1.49815715388968E-11  1.65996851702998E-01
 cg2d: Sum(rhs),rhsMax =  -1.48745460393229E-11  1.67501851193091E-01
 cg2d: Sum(rhs),rhsMax =  -1.47775125469707E-11  1.68742338634264E-01
 cg2d: Sum(rhs),rhsMax =  -1.46711531812116E-11  1.69658748773387E-01
 cg2d: Sum(rhs),rhsMax =  -1.46251899479921E-11  1.70286598761800E-01
 cg2d: Sum(rhs),rhsMax =  -1.45670697726530E-11  1.70601680385916E-01
 cg2d: Sum(rhs),rhsMax =  -1.44865786033677E-11  1.70646165690072E-01
 cg2d: Sum(rhs),rhsMax =  -1.44194656215291E-11  1.70370840709499E-01
 cg2d: Sum(rhs),rhsMax =  -1.44897427389878E-11  1.69833289532597E-01
 cg2d: Sum(rhs),rhsMax =  -1.45918832572534E-11  1.69001706376395E-01
 cg2d: Sum(rhs),rhsMax =  -1.47353795831862E-11  1.67883282190195E-01
 cg2d: Sum(rhs),rhsMax =  -1.48766554630697E-11  1.66503046070207E-01
 cg2d: Sum(rhs),rhsMax =  -1.50601753290402E-11  1.64855426027814E-01
 cg2d: Sum(rhs),rhsMax =  -1.52877155379372E-11  1.62957363533237E-01
 cg2d: Sum(rhs),rhsMax =  -1.55095380982573E-11  1.60814649384363E-01
 cg2d: Sum(rhs),rhsMax =  -1.57612811690910E-11  1.58416581796053E-01
 cg2d: Sum(rhs),rhsMax =  -1.60362279011395E-11  1.55806458935566E-01
 cg2d: Sum(rhs),rhsMax =  -1.63997704305530E-11  1.52917110570428E-01
 cg2d: Sum(rhs),rhsMax =  -1.68006164535939E-11  1.49816680829938E-01
 cg2d: Sum(rhs),rhsMax =  -1.71999636755515E-11  1.46530314080773E-01
 cg2d: Sum(rhs),rhsMax =  -1.73736025566029E-11  1.45632338988970E-01
 cg2d: Sum(rhs),rhsMax =  -1.73071557085791E-11  1.46707908823733E-01
 cg2d: Sum(rhs),rhsMax =  -1.72166170209209E-11  1.47772684756380E-01
 cg2d: Sum(rhs),rhsMax =  -1.71315739372346E-11  1.48826741742459E-01
 cg2d: Sum(rhs),rhsMax =  -1.70574110391897E-11  1.49867440217845E-01
 cg2d: Sum(rhs),rhsMax =  -1.69979030850698E-11  1.50896130249317E-01
 cg2d: Sum(rhs),rhsMax =  -1.69358971291445E-11  1.51912288205550E-01
 cg2d: Sum(rhs),rhsMax =  -1.68747793516388E-11  1.52916857921178E-01
 cg2d: Sum(rhs),rhsMax =  -1.68385860810361E-11  1.53904709453955E-01
 cg2d: Sum(rhs),rhsMax =  -1.67854063981565E-11  1.54878489775757E-01
 cg2d: Sum(rhs),rhsMax =  -1.67411084994740E-11  1.55838519113536E-01
 cg2d: Sum(rhs),rhsMax =  -1.66987534910845E-11  1.56784477239988E-01
 cg2d: Sum(rhs),rhsMax =  -1.66270885948450E-11  1.57713623299655E-01
 cg2d: Sum(rhs),rhsMax =  -1.66030522663618E-11  1.58630939056111E-01
 cg2d: Sum(rhs),rhsMax =  -1.65745750457802E-11  1.59534668155563E-01
 cg2d: Sum(rhs),rhsMax =  -1.63198343727800E-11  1.62379015436140E-01
 cg2d: Sum(rhs),rhsMax =  -1.60839674911983E-11  1.65399411718703E-01
 cg2d: Sum(rhs),rhsMax =  -1.58890123280742E-11  1.68091874790904E-01
 cg2d: Sum(rhs),rhsMax =  -1.57361346175833E-11  1.70484676712720E-01
 cg2d: Sum(rhs),rhsMax =  -1.55995216744031E-11  1.72633684895115E-01
 cg2d: Sum(rhs),rhsMax =  -1.55092605425011E-11  1.74425985371176E-01
 cg2d: Sum(rhs),rhsMax =  -1.54486423653566E-11  1.75899705296025E-01
 cg2d: Sum(rhs),rhsMax =  -1.53854706752554E-11  1.77049883631805E-01
 cg2d: Sum(rhs),rhsMax =  -1.53677071068614E-11  1.77901318955209E-01
 cg2d: Sum(rhs),rhsMax =  -1.53557166981955E-11  1.78417883144153E-01
 cg2d: Sum(rhs),rhsMax =  -1.53307921912926E-11  1.78604893008849E-01
 cg2d: Sum(rhs),rhsMax =  -1.53278501002774E-11  1.78494856725437E-01
 cg2d: Sum(rhs),rhsMax =  -1.53596024787817E-11  1.78107628341252E-01
 cg2d: Sum(rhs),rhsMax =  -1.54322665757434E-11  1.77380864029101E-01
 cg2d: Sum(rhs),rhsMax =  -1.55263024659291E-11  1.76368547972572E-01
 cg2d: Sum(rhs),rhsMax =  -1.56385460137187E-11  1.75052977050352E-01
 cg2d: Sum(rhs),rhsMax =  -1.57796553601486E-11  1.73429459461117E-01
 cg2d: Sum(rhs),rhsMax =  -1.57800439382072E-11  1.73217458684896E-01
 cg2d: Sum(rhs),rhsMax =  -1.56998303246780E-11  1.73823433406232E-01
 cg2d: Sum(rhs),rhsMax =  -1.56268886719602E-11  1.74411127618373E-01
 cg2d: Sum(rhs),rhsMax =  -1.55525037293103E-11  1.74980351433535E-01
 cg2d: Sum(rhs),rhsMax =  -1.54941615093662E-11  1.75530862397733E-01
 cg2d: Sum(rhs),rhsMax =  -1.54489754322640E-11  1.76062386234295E-01
 cg2d: Sum(rhs),rhsMax =  -1.54082857584115E-11  1.76573957007648E-01
 cg2d: Sum(rhs),rhsMax =  -1.54364299120857E-11  1.77064788025371E-01
 cg2d: Sum(rhs),rhsMax =  -1.54596335733004E-11  1.77534050871469E-01
 cg2d: Sum(rhs),rhsMax =  -1.54520840567329E-11  1.77980905441677E-01
 cg2d: Sum(rhs),rhsMax =  -1.54206092339848E-11  1.78404267257752E-01
 cg2d: Sum(rhs),rhsMax =  -1.54237733696050E-11  1.78804123680263E-01
 cg2d: Sum(rhs),rhsMax =  -1.54808388330707E-11  1.79180252052920E-01
 cg2d: Sum(rhs),rhsMax =  -1.55155333025903E-11  1.79532563942759E-01
 cg2d: Sum(rhs),rhsMax =  -1.55476742591532E-11  1.79862825582263E-01
 cg2d: Sum(rhs),rhsMax =  -1.55805923718333E-11  1.80169264731700E-01
 cg2d: Sum(rhs),rhsMax =  -1.56220036906518E-11  1.80454070129042E-01
 cg2d: Sum(rhs),rhsMax =  -1.57053259286499E-11  1.80716759213937E-01
 cg2d: Sum(rhs),rhsMax =  -1.57365231956419E-11  1.80958589598827E-01
 cg2d: Sum(rhs),rhsMax =  -1.57951984824933E-11  1.81180748616957E-01
 cg2d: Sum(rhs),rhsMax =  -1.57422963553699E-11  1.81384502979213E-01
 cg2d: Sum(rhs),rhsMax =  -1.57992507965332E-11  1.81571584405028E-01
 cg2d: Sum(rhs),rhsMax =  -1.57866497652037E-11  1.81745107369386E-01
 cg2d: Sum(rhs),rhsMax =  -1.57759361130161E-11  1.81906324279349E-01
 cg2d: Sum(rhs),rhsMax =  -1.57939217260150E-11  1.82056229825150E-01
 cg2d: Sum(rhs),rhsMax =  -1.58195678778839E-11  1.82195449385033E-01
 cg2d: Sum(rhs),rhsMax =  -1.58400514926882E-11  1.82325102439270E-01
 cg2d: Sum(rhs),rhsMax =  -1.58421054052837E-11  1.82444466820833E-01
 cg2d: Sum(rhs),rhsMax =  -1.58369983793705E-11  1.82554793382003E-01
 cg2d: Sum(rhs),rhsMax =  -1.58163482311124E-11  1.82655874300549E-01
 cg2d: Sum(rhs),rhsMax =  -1.57717727766737E-11  1.82749334770033E-01
 cg2d: Sum(rhs),rhsMax =  -1.57174273596183E-11  1.82831470330468E-01
 cg2d: Sum(rhs),rhsMax =  -1.56677448792664E-11  1.82900520051381E-01
 cg2d: Sum(rhs),rhsMax =  -1.56317181421173E-11  1.82956357727163E-01
 cg2d: Sum(rhs),rhsMax =  -1.56222812464080E-11  1.82997086590118E-01
 cg2d: Sum(rhs),rhsMax =  -1.56464285971936E-11  1.83020735311490E-01
 cg2d: Sum(rhs),rhsMax =  -1.56681334573250E-11  1.83026617260944E-01
 cg2d: Sum(rhs),rhsMax =  -1.56669122119979E-11  1.83014513648154E-01
 cg2d: Sum(rhs),rhsMax =  -1.56558099817516E-11  1.82982049521604E-01
 cg2d: Sum(rhs),rhsMax =  -1.56442081511443E-11  1.82929251728338E-01
 cg2d: Sum(rhs),rhsMax =  -1.56240020920961E-11  1.82855274064673E-01
 cg2d: Sum(rhs),rhsMax =  -1.56173407539484E-11  1.82758805381921E-01
 cg2d: Sum(rhs),rhsMax =  -1.55988000294371E-11  1.82636467209543E-01
 cg2d: Sum(rhs),rhsMax =  -1.55645496491275E-11  1.82488025908159E-01
 cg2d: Sum(rhs),rhsMax =  -1.55630508480442E-11  1.82313226176236E-01
 cg2d: Sum(rhs),rhsMax =  -1.55627732922881E-11  1.82119581224251E-01
 cg2d: Sum(rhs),rhsMax =  -1.55669921397816E-11  1.81896930661029E-01
 cg2d: Sum(rhs),rhsMax =  -1.55747637009540E-11  1.81644694639550E-01
 cg2d: Sum(rhs),rhsMax =  -1.55906954013574E-11  1.81365692702953E-01
 cg2d: Sum(rhs),rhsMax =  -1.56101798154396E-11  1.81063785014450E-01
 cg2d: Sum(rhs),rhsMax =  -1.56187840438804E-11  1.80737629655318E-01
 cg2d: Sum(rhs),rhsMax =  -1.56445412180517E-11  1.80383960022857E-01
 cg2d: Sum(rhs),rhsMax =  -1.56711865706427E-11  1.80005394917001E-01
 cg2d: Sum(rhs),rhsMax =  -1.56885060498269E-11  1.79604176207995E-01
 cg2d: Sum(rhs),rhsMax =  -1.56395452144409E-11  1.79175010440640E-01
 cg2d: Sum(rhs),rhsMax =  -1.56863966260801E-11  1.78729217928114E-01
 cg2d: Sum(rhs),rhsMax =  -1.57356905283734E-11  1.78261771884059E-01
 cg2d: Sum(rhs),rhsMax =  -1.57955870605520E-11  1.77782361923768E-01
 cg2d: Sum(rhs),rhsMax =  -1.58006940864652E-11  1.77283607456705E-01
 cg2d: Sum(rhs),rhsMax =  -1.58033031105731E-11  1.76765316611943E-01
 cg2d: Sum(rhs),rhsMax =  -1.58228985469577E-11  1.76233023979866E-01
 cg2d: Sum(rhs),rhsMax =  -1.58401625149907E-11  1.75689902988617E-01
 cg2d: Sum(rhs),rhsMax =  -1.58627555535418E-11  1.75134378310039E-01
 cg2d: Sum(rhs),rhsMax =  -1.59065538518632E-11  1.74562425379247E-01
 cg2d: Sum(rhs),rhsMax =  -1.59770530139269E-11  1.73984239426117E-01
 cg2d: Sum(rhs),rhsMax =  -1.59874891103584E-11  1.73381628177001E-01
 cg2d: Sum(rhs),rhsMax =  -1.60340074550902E-11  1.72766949942741E-01
 cg2d: Sum(rhs),rhsMax =  -1.60527147130551E-11  1.72138913502093E-01
 cg2d: Sum(rhs),rhsMax =  -1.60910729185559E-11  1.71499471442947E-01
 cg2d: Sum(rhs),rhsMax =  -1.60089719258849E-11  1.72215948095846E-01
 cg2d: Sum(rhs),rhsMax =  -1.60765289969333E-11  1.72815232002000E-01
 cg2d: Sum(rhs),rhsMax =  -1.60001456528391E-11  1.73154891416890E-01
 cg2d: Sum(rhs),rhsMax =  -1.59436908120369E-11  1.73225200315042E-01
 cg2d: Sum(rhs),rhsMax =  -1.59069424299219E-11  1.73037029067044E-01
 cg2d: Sum(rhs),rhsMax =  -1.59168789259923E-11  1.72564605792925E-01
 cg2d: Sum(rhs),rhsMax =  -1.59501856167310E-11  1.71874860456212E-01
 cg2d: Sum(rhs),rhsMax =  -1.59965929391603E-11  1.70869009472918E-01
 cg2d: Sum(rhs),rhsMax =  -1.60744750843378E-11  1.69562122255780E-01
 cg2d: Sum(rhs),rhsMax =  -1.61811120058530E-11  1.68032005522710E-01
 cg2d: Sum(rhs),rhsMax =  -1.63389857199547E-11  1.66199193063138E-01
 cg2d: Sum(rhs),rhsMax =  -1.66751612518112E-11  1.64145081253285E-01
 cg2d: Sum(rhs),rhsMax =  -1.70354841344533E-11  1.61866846802161E-01
 cg2d: Sum(rhs),rhsMax =  -1.71536118642734E-11  1.60685083949327E-01
 cg2d: Sum(rhs),rhsMax =  -1.72309388979386E-11  1.59778075550341E-01
 cg2d: Sum(rhs),rhsMax =  -1.72810654675004E-11  1.58853069104083E-01
 cg2d: Sum(rhs),rhsMax =  -1.73634995270788E-11  1.57865646943714E-01
 cg2d: Sum(rhs),rhsMax =  -1.74690262255695E-11  1.56897887481207E-01
 cg2d: Sum(rhs),rhsMax =  -1.75222614196002E-11  1.55927914554481E-01
 cg2d: Sum(rhs),rhsMax =  -1.75962577841915E-11  1.54946650087670E-01
 cg2d: Sum(rhs),rhsMax =  -1.76733072621005E-11  1.53957302263238E-01
 cg2d: Sum(rhs),rhsMax =  -1.77441394910716E-11  1.52960229678190E-01
 cg2d: Sum(rhs),rhsMax =  -1.77697856429404E-11  1.51956367218158E-01
 cg2d: Sum(rhs),rhsMax =  -1.78164150099747E-11  1.50950380087442E-01
 cg2d: Sum(rhs),rhsMax =  -1.78640435777311E-11  1.49947606792899E-01
 cg2d: Sum(rhs),rhsMax =  -1.78871362166433E-11  1.48925221696910E-01
 cg2d: Sum(rhs),rhsMax =  -1.79455339477386E-11  1.47908116240282E-01
 cg2d: Sum(rhs),rhsMax =  -1.79718462334222E-11  1.46851192105187E-01
 cg2d: Sum(rhs),rhsMax =  -1.80071513256053E-11  1.45821720253562E-01
 cg2d: Sum(rhs),rhsMax =  -1.82773796097990E-11  1.44844731737310E-01
 cg2d: Sum(rhs),rhsMax =  -1.78508319237380E-11  1.48085639620478E-01
 cg2d: Sum(rhs),rhsMax =  -1.74330549995716E-11  1.51210221560106E-01
 cg2d: Sum(rhs),rhsMax =  -1.70301550639351E-11  1.53988424532922E-01
 cg2d: Sum(rhs),rhsMax =  -1.66646141330773E-11  1.56580102894156E-01
 cg2d: Sum(rhs),rhsMax =  -1.63619673365645E-11  1.58928111865437E-01
 cg2d: Sum(rhs),rhsMax =  -1.60648716551748E-11  1.60979903046328E-01
 cg2d: Sum(rhs),rhsMax =  -1.58231205915627E-11  1.62813288720255E-01
 cg2d: Sum(rhs),rhsMax =  -1.55804813495308E-11  1.64381121792062E-01
 cg2d: Sum(rhs),rhsMax =  -1.54011248199026E-11  1.65728648490943E-01
 cg2d: Sum(rhs),rhsMax =  -1.52437507061620E-11  1.66783025538366E-01
 cg2d: Sum(rhs),rhsMax =  -1.51146872795493E-11  1.67395101406678E-01
 cg2d: Sum(rhs),rhsMax =  -1.50118251163178E-11  1.67889483913741E-01
 cg2d: Sum(rhs),rhsMax =  -1.49251166980946E-11  1.68175491803353E-01
 cg2d: Sum(rhs),rhsMax =  -1.48741019501131E-11  1.68262042696080E-01
 cg2d: Sum(rhs),rhsMax =  -1.48285272949522E-11  1.68101458529953E-01
 cg2d: Sum(rhs),rhsMax =  -1.48251411147271E-11  1.67751916175653E-01
 cg2d: Sum(rhs),rhsMax =  -1.48401291255595E-11  1.67153793891736E-01
 cg2d: Sum(rhs),rhsMax =  -1.49019130368799E-11  1.66291547744061E-01
 cg2d: Sum(rhs),rhsMax =  -1.50086054695464E-11  1.65210111902397E-01
 cg2d: Sum(rhs),rhsMax =  -1.51387791191837E-11  1.63711644481958E-01
 cg2d: Sum(rhs),rhsMax =  -1.52746704173978E-11  1.62123688211705E-01
 cg2d: Sum(rhs),rhsMax =  -1.54373180905054E-11  1.60271246573721E-01
 cg2d: Sum(rhs),rhsMax =  -1.56306634302439E-11  1.58112645066189E-01
 cg2d: Sum(rhs),rhsMax =  -1.58087432033938E-11  1.55789715099853E-01
 cg2d: Sum(rhs),rhsMax =  -1.59889324002904E-11  1.53663126174465E-01
 cg2d: Sum(rhs),rhsMax =  -1.62603264186600E-11  1.50846580289092E-01
 cg2d: Sum(rhs),rhsMax =  -1.65046865063800E-11  1.48114074598941E-01
 cg2d: Sum(rhs),rhsMax =  -1.67607039358586E-11  1.45219895690619E-01
 cg2d: Sum(rhs),rhsMax =  -1.70217173689480E-11  1.42161963554607E-01
 cg2d: Sum(rhs),rhsMax =  -1.73082659316037E-11  1.38990279989033E-01
 cg2d: Sum(rhs),rhsMax =  -1.76484382663489E-11  1.35690044677171E-01
 cg2d: Sum(rhs),rhsMax =  -1.80534476257321E-11  1.32284196599954E-01
 cg2d: Sum(rhs),rhsMax =  -1.83362214301042E-11  1.29932560597190E-01
 cg2d: Sum(rhs),rhsMax =  -1.82734938292128E-11  1.30379394131269E-01
 cg2d: Sum(rhs),rhsMax =  -1.82228676592899E-11  1.30812662498286E-01
 cg2d: Sum(rhs),rhsMax =  -1.81217263417466E-11  1.31231511779188E-01
 cg2d: Sum(rhs),rhsMax =  -1.80090387047471E-11  1.31640626085180E-01
 cg2d: Sum(rhs),rhsMax =  -1.79178893944254E-11  1.32031820920891E-01
 cg2d: Sum(rhs),rhsMax =  -1.77332593054302E-11  1.33338664010021E-01
 cg2d: Sum(rhs),rhsMax =  -1.72474257098543E-11  1.36824631567078E-01
 cg2d: Sum(rhs),rhsMax =  -1.68334235439715E-11  1.40122874025282E-01
 cg2d: Sum(rhs),rhsMax =  -1.64731561724807E-11  1.43239181349471E-01
 cg2d: Sum(rhs),rhsMax =  -1.61206603621622E-11  1.46198406066046E-01
 cg2d: Sum(rhs),rhsMax =  -1.58248969484021E-11  1.48987353453030E-01
 cg2d: Sum(rhs),rhsMax =  -1.56483714874867E-11  1.51623282410361E-01
 cg2d: Sum(rhs),rhsMax =  -1.54146140296518E-11  1.53951241314650E-01
 cg2d: Sum(rhs),rhsMax =  -1.51974544060351E-11  1.56152141480171E-01
 cg2d: Sum(rhs),rhsMax =  -1.50134349397035E-11  1.58168625059574E-01
 cg2d: Sum(rhs),rhsMax =  -1.49450452013866E-11  1.59982263208167E-01
 cg2d: Sum(rhs),rhsMax =  -1.48062118121572E-11  1.61581786942532E-01
 cg2d: Sum(rhs),rhsMax =  -1.46171963422148E-11  1.62971976047155E-01
 cg2d: Sum(rhs),rhsMax =  -1.44615430741624E-11  1.64138194185547E-01
 cg2d: Sum(rhs),rhsMax =  -1.42763578736549E-11  1.65085704344213E-01
 cg2d: Sum(rhs),rhsMax =  -1.41451295121442E-11  1.65798769125683E-01
 cg2d: Sum(rhs),rhsMax =  -1.40297773398856E-11  1.66282208474639E-01
 cg2d: Sum(rhs),rhsMax =  -1.39652733821549E-11  1.66544046315244E-01
 cg2d: Sum(rhs),rhsMax =  -1.39508959939860E-11  1.66583709417180E-01
 cg2d: Sum(rhs),rhsMax =  -1.39850353519932E-11  1.66372309168525E-01
 cg2d: Sum(rhs),rhsMax =  -1.41195388714266E-11  1.65943825573383E-01
 cg2d: Sum(rhs),rhsMax =  -1.41495148930915E-11  1.65301136092037E-01
 cg2d: Sum(rhs),rhsMax =  -1.42919009959996E-11  1.64448051804771E-01
 cg2d: Sum(rhs),rhsMax =  -1.44968481663454E-11  1.63389441435659E-01
 cg2d: Sum(rhs),rhsMax =  -1.46195278105665E-11  1.62120779454601E-01
 cg2d: Sum(rhs),rhsMax =  -1.47598600008791E-11  1.60668527529616E-01
 cg2d: Sum(rhs),rhsMax =  -1.49258383430606E-11  1.59021546112476E-01
 cg2d: Sum(rhs),rhsMax =  -1.50956469546770E-11  1.57179054228444E-01
 cg2d: Sum(rhs),rhsMax =  -1.52747259285491E-11  1.55374199654058E-01
 cg2d: Sum(rhs),rhsMax =  -1.55034873827731E-11  1.53125869967265E-01
 cg2d: Sum(rhs),rhsMax =  -1.57077684193041E-11  1.50929471715512E-01
 cg2d: Sum(rhs),rhsMax =  -1.59443014347005E-11  1.48456624941620E-01
 cg2d: Sum(rhs),rhsMax =  -1.61932689479727E-11  1.45816855651737E-01
 cg2d: Sum(rhs),rhsMax =  -1.64805946667457E-11  1.43060569989298E-01
 cg2d: Sum(rhs),rhsMax =  -1.67785785265551E-11  1.39908049939506E-01
 cg2d: Sum(rhs),rhsMax =  -1.70859992820738E-11  1.36870379321930E-01
 cg2d: Sum(rhs),rhsMax =  -1.72480918436690E-11  1.35819252684188E-01
 cg2d: Sum(rhs),rhsMax =  -1.72335479220465E-11  1.35672448250848E-01
 cg2d: Sum(rhs),rhsMax =  -1.72254432939667E-11  1.35516635561712E-01
 cg2d: Sum(rhs),rhsMax =  -1.72104552831343E-11  1.35281459986589E-01
 cg2d: Sum(rhs),rhsMax =  -1.71167524598559E-11  1.35081021737096E-01
 cg2d: Sum(rhs),rhsMax =  -1.71215264188618E-11  1.34889918734065E-01
 cg2d: Sum(rhs),rhsMax =  -1.70996550252767E-11  1.34688607145669E-01
 cg2d: Sum(rhs),rhsMax =  -1.70476965877242E-11  1.34471580664522E-01
 cg2d: Sum(rhs),rhsMax =  -1.71131997461771E-11  1.34415031053470E-01
 cg2d: Sum(rhs),rhsMax =  -1.67026392716707E-11  1.37696119911813E-01
 cg2d: Sum(rhs),rhsMax =  -1.62787006097176E-11  1.40826728236314E-01
 cg2d: Sum(rhs),rhsMax =  -1.59183222159243E-11  1.43795790769958E-01
 cg2d: Sum(rhs),rhsMax =  -1.56634705206216E-11  1.46604885228363E-01
 cg2d: Sum(rhs),rhsMax =  -1.55188084605129E-11  1.49225640968914E-01
 cg2d: Sum(rhs),rhsMax =  -1.53447254902517E-11  1.51692347444608E-01
 cg2d: Sum(rhs),rhsMax =  -1.51546553084358E-11  1.53951063660399E-01
 cg2d: Sum(rhs),rhsMax =  -1.49609769017900E-11  1.56044101360445E-01
 cg2d: Sum(rhs),rhsMax =  -1.48108747488607E-11  1.57958443711839E-01
 cg2d: Sum(rhs),rhsMax =  -1.47375445180842E-11  1.59645436538827E-01
 cg2d: Sum(rhs),rhsMax =  -1.46946343981824E-11  1.61159078422915E-01
 cg2d: Sum(rhs),rhsMax =  -1.46446743620743E-11  1.62509074492244E-01
 cg2d: Sum(rhs),rhsMax =  -1.45313205912601E-11  1.63633368911976E-01
 cg2d: Sum(rhs),rhsMax =  -1.44364520338058E-11  1.64549913186649E-01
 cg2d: Sum(rhs),rhsMax =  -1.43660083828934E-11  1.65300124386927E-01
 cg2d: Sum(rhs),rhsMax =  -1.43084433190666E-11  1.65857166016288E-01
 cg2d: Sum(rhs),rhsMax =  -1.43935974250553E-11  1.66206063272586E-01
 cg2d: Sum(rhs),rhsMax =  -1.44905198951051E-11  1.66368732393439E-01
 cg2d: Sum(rhs),rhsMax =  -1.45846112964421E-11  1.66354263018853E-01
 cg2d: Sum(rhs),rhsMax =  -1.46430645386886E-11  1.66148579824421E-01
 cg2d: Sum(rhs),rhsMax =  -1.47240553083350E-11  1.65700328194268E-01
 cg2d: Sum(rhs),rhsMax =  -1.48199230665114E-11  1.65099448868039E-01
 cg2d: Sum(rhs),rhsMax =  -1.49273926552951E-11  1.64293068466674E-01
 cg2d: Sum(rhs),rhsMax =  -1.50224277462030E-11  1.63346912093413E-01
 cg2d: Sum(rhs),rhsMax =  -1.51126333669538E-11  1.62224678341060E-01
 cg2d: Sum(rhs),rhsMax =  -1.52153845078828E-11  1.60911369838387E-01
 cg2d: Sum(rhs),rhsMax =  -1.53457802021251E-11  1.59297217835573E-01
 cg2d: Sum(rhs),rhsMax =  -1.54742330060742E-11  1.57654175497519E-01
 cg2d: Sum(rhs),rhsMax =  -1.56326618316882E-11  1.55786321433773E-01
 cg2d: Sum(rhs),rhsMax =  -1.57983626181135E-11  1.53818795936316E-01
 cg2d: Sum(rhs),rhsMax =  -1.59940949373549E-11  1.51670651685302E-01
 cg2d: Sum(rhs),rhsMax =  -1.61815560950629E-11  1.49393384126750E-01
 cg2d: Sum(rhs),rhsMax =  -1.63840052636033E-11  1.47007463600772E-01
 cg2d: Sum(rhs),rhsMax =  -1.66546221258557E-11  1.44431504002682E-01
 cg2d: Sum(rhs),rhsMax =  -1.69379510417400E-11  1.41723642811508E-01
 cg2d: Sum(rhs),rhsMax =  -1.72407643717065E-11  1.38962758137905E-01
 cg2d: Sum(rhs),rhsMax =  -1.76117453953850E-11  1.36073931198307E-01
 cg2d: Sum(rhs),rhsMax =  -1.79874448669182E-11  1.33092431356072E-01
 cg2d: Sum(rhs),rhsMax =  -1.83880688453542E-11  1.30054973191248E-01
 cg2d: Sum(rhs),rhsMax =  -1.88723481286956E-11  1.26896033407167E-01
 cg2d: Sum(rhs),rhsMax =  -1.93401961112727E-11  1.23666010073699E-01
 cg2d: Sum(rhs),rhsMax =  -1.98508987026003E-11  1.20354962921148E-01
 cg2d: Sum(rhs),rhsMax =  -2.00471861333540E-11  1.19293578393911E-01
 cg2d: Sum(rhs),rhsMax =  -1.99749106144509E-11  1.19802764604665E-01
 cg2d: Sum(rhs),rhsMax =  -1.94345650683658E-11  1.22652818274329E-01
 cg2d: Sum(rhs),rhsMax =  -1.90165660995945E-11  1.25400954792845E-01
(PID.TID 0000.0001)      cg2d_init_res =   7.62303095062381E-02
(PID.TID 0000.0001)      cg2d_iters(min,last) =      -1      29
(PID.TID 0000.0001)      cg2d_last_res =   3.90376107091904E-14
(PID.TID 0000.0001) // =======================================================
(PID.TID 0000.0001) // Begin MONITOR dynamic field statistics
(PID.TID 0000.0001) // =======================================================
(PID.TID 0000.0001) %MON time_tsnumber                =                  6240
(PID.TID 0000.0001) %MON time_secondsf                =   9.3600000000000E+04
(PID.TID 0000.0001) %MON dynstat_eta_max              =   7.0923730821579E-03
(PID.TID 0000.0001) %MON dynstat_eta_min              =  -1.6206527916827E-02
(PID.TID 0000.0001) %MON dynstat_eta_mean             =   2.7590640310875E-15
(PID.TID 0000.0001) %MON dynstat_eta_sd               =   4.6516133230018E-03
(PID.TID 0000.0001) %MON dynstat_eta_del2             =   1.4958157050914E-04
(PID.TID 0000.0001) %MON dynstat_uvel_max             =   1.1111204322398E+00
(PID.TID 0000.0001) %MON dynstat_uvel_min             =  -5.0679056594988E-01
(PID.TID 0000.0001) %MON dynstat_uvel_mean            =  -1.1274492717210E-04
(PID.TID 0000.0001) %MON dynstat_uvel_sd              =   1.4881230184982E-01
(PID.TID 0000.0001) %MON dynstat_uvel_del2            =   7.2022394395080E-04
(PID.TID 0000.0001) %MON dynstat_vvel_max             =   0.0000000000000E+00
(PID.TID 0000.0001) %MON dynstat_vvel_min             =   0.0000000000000E+00
(PID.TID 0000.0001) %MON dynstat_vvel_mean            =   0.0000000000000E+00
(PID.TID 0000.0001) %MON dynstat_vvel_sd              =   0.0000000000000E+00
(PID.TID 0000.0001) %MON dynstat_vvel_del2            =   0.0000000000000E+00
(PID.TID 0000.0001) %MON dynstat_wvel_max             =   3.8727289560145E-02
(PID.TID 0000.0001) %MON dynstat_wvel_min             =  -3.4324603115629E-02
(PID.TID 0000.0001) %MON dynstat_wvel_mean            =  -1.3172937887662E-19
(PID.TID 0000.0001) %MON dynstat_wvel_sd              =   4.0042901220247E-03
(PID.TID 0000.0001) %MON dynstat_wvel_del2            =   7.9789021992606E-05
(PID.TID 0000.0001) %MON dynstat_theta_max            =   1.5000000000012E+01
(PID.TID 0000.0001) %MON dynstat_theta_min            =   9.9999999999929E+00
(PID.TID 0000.0001) %MON dynstat_theta_mean           =   1.3071293385747E+01
(PID.TID 0000.0001) %MON dynstat_theta_sd             =   2.3170492749526E+00
(PID.TID 0000.0001) %MON dynstat_theta_del2           =   1.8371328089986E-03
(PID.TID 0000.0001) %MON dynstat_salt_max             =   3.5000000000000E+01
(PID.TID 0000.0001) %MON dynstat_salt_min             =   3.5000000000000E+01
(PID.TID 0000.0001) %MON dynstat_salt_mean            =   3.5000000000000E+01
(PID.TID 0000.0001) %MON dynstat_salt_sd              =   7.1054273576010E-15
(PID.TID 0000.0001) %MON dynstat_salt_del2            =   0.0000000000000E+00
(PID.TID 0000.0001) %MON dynstat_sst_max              =   1.5000000000011E+01
(PID.TID 0000.0001) %MON dynstat_sst_min              =   1.4993424946630E+01
(PID.TID 0000.0001) %MON dynstat_sst_mean             =   1.4999815702665E+01
(PID.TID 0000.0001) %MON dynstat_sst_sd               =   8.8274846479239E-04
(PID.TID 0000.0001) %MON dynstat_sst_del2             =   3.3112361220892E-05
(PID.TID 0000.0001) %MON dynstat_sss_max              =   3.5000000000000E+01
(PID.TID 0000.0001) %MON dynstat_sss_min              =   3.5000000000000E+01
(PID.TID 0000.0001) %MON dynstat_sss_mean             =   3.5000000000000E+01
(PID.TID 0000.0001) %MON dynstat_sss_sd               =   0.0000000000000E+00
(PID.TID 0000.0001) %MON dynstat_sss_del2             =   0.0000000000000E+00
(PID.TID 0000.0001) %MON forcing_qnet_max             =   0.0000000000000E+00
(PID.TID 0000.0001) %MON forcing_qnet_min             =   0.0000000000000E+00
(PID.TID 0000.0001) %MON forcing_qnet_mean            =   0.0000000000000E+00
(PID.TID 0000.0001) %MON forcing_qnet_sd              =   0.0000000000000E+00
(PID.TID 0000.0001) %MON forcing_qnet_del2            =   0.0000000000000E+00
(PID.TID 0000.0001) %MON forcing_qsw_max              =   0.0000000000000E+00
(PID.TID 0000.0001) %MON forcing_qsw_min              =   0.0000000000000E+00
(PID.TID 0000.0001) %MON forcing_qsw_mean             =   0.0000000000000E+00
(PID.TID 0000.0001) %MON forcing_qsw_sd               =   0.0000000000000E+00
(PID.TID 0000.0001) %MON forcing_qsw_del2             =   0.0000000000000E+00
(PID.TID 0000.0001) %MON forcing_empmr_max            =   0.0000000000000E+00
(PID.TID 0000.0001) %MON forcing_empmr_min            =   0.0000000000000E+00
(PID.TID 0000.0001) %MON forcing_empmr_mean           =   0.0000000000000E+00
(PID.TID 0000.0001) %MON forcing_empmr_sd             =   0.0000000000000E+00
(PID.TID 0000.0001) %MON forcing_empmr_del2           =   0.0000000000000E+00
(PID.TID 0000.0001) %MON forcing_fu_max               =   0.0000000000000E+00
(PID.TID 0000.0001) %MON forcing_fu_min               =   0.0000000000000E+00
(PID.TID 0000.0001) %MON forcing_fu_mean              =   0.0000000000000E+00
(PID.TID 0000.0001) %MON forcing_fu_sd                =   0.0000000000000E+00
(PID.TID 0000.0001) %MON forcing_fu_del2              =   0.0000000000000E+00
(PID.TID 0000.0001) %MON forcing_fv_max               =   0.0000000000000E+00
(PID.TID 0000.0001) %MON forcing_fv_min               =   0.0000000000000E+00
(PID.TID 0000.0001) %MON forcing_fv_mean              =   0.0000000000000E+00
(PID.TID 0000.0001) %MON forcing_fv_sd                =   0.0000000000000E+00
(PID.TID 0000.0001) %MON forcing_fv_del2              =   0.0000000000000E+00
(PID.TID 0000.0001) %MON advcfl_uvel_max              =   5.8507576142471E-02
(PID.TID 0000.0001) %MON advcfl_vvel_max              =   0.0000000000000E+00
(PID.TID 0000.0001) %MON advcfl_wvel_max              =   3.8458428377874E-01
(PID.TID 0000.0001) %MON advcfl_W_hf_max              =   3.8945954416139E-01
(PID.TID 0000.0001) %MON pe_b_mean                    =   6.0741921677698E-07
(PID.TID 0000.0001) %MON ke_max                       =   4.9497738706540E-01
(PID.TID 0000.0001) %MON ke_mean                      =   1.1195123662631E-02
(PID.TID 0000.0001) %MON ke_vol                       =   8.5336562999261E+10
(PID.TID 0000.0001) %MON vort_r_min                   =   0.0000000000000E+00
(PID.TID 0000.0001) %MON vort_r_max                   =   0.0000000000000E+00
(PID.TID 0000.0001) %MON vort_a_mean                  =   0.0000000000000E+00
(PID.TID 0000.0001) %MON vort_a_sd                    =   0.0000000000000E+00
(PID.TID 0000.0001) %MON vort_p_mean                  =   0.0000000000000E+00
(PID.TID 0000.0001) %MON vort_p_sd                    =   0.0000000000000E+00
(PID.TID 0000.0001) %MON surfExpan_theta_mean         =  -7.5395762369950E-11
(PID.TID 0000.0001) %MON surfExpan_salt_mean          =  -6.2934854996425E-18
(PID.TID 0000.0001) // =======================================================
(PID.TID 0000.0001) // End MONITOR dynamic field statistics
(PID.TID 0000.0001) // =======================================================
(PID.TID 0000.0001) // =======================================================
(PID.TID 0000.0001) // Begin OBCS MONITOR field statistics
(PID.TID 0000.0001) // =======================================================
(PID.TID 0000.0001) %MON obc_E_uVel_max               =   0.0000000000000E+00
(PID.TID 0000.0001) %MON obc_E_uVel_min               =   0.0000000000000E+00
(PID.TID 0000.0001) %MON obc_E_uVel_mean              =   0.0000000000000E+00
(PID.TID 0000.0001) %MON obc_E_uVel_sd                =   0.0000000000000E+00
(PID.TID 0000.0001) %MON obc_E_uVel_Int               =   0.0000000000000E+00
(PID.TID 0000.0001) %MON obc_W_uVel_max               =   0.0000000000000E+00
(PID.TID 0000.0001) %MON obc_W_uVel_min               =   0.0000000000000E+00
(PID.TID 0000.0001) %MON obc_W_uVel_mean              =   0.0000000000000E+00
(PID.TID 0000.0001) %MON obc_W_uVel_sd                =   0.0000000000000E+00
(PID.TID 0000.0001) %MON obc_W_uVel_Int               =   0.0000000000000E+00
(PID.TID 0000.0001) // =======================================================
(PID.TID 0000.0001) // End OBCS MONITOR field statistics
(PID.TID 0000.0001) // =======================================================
 cg2d: Sum(rhs),rhsMax =  -1.86241022603895E-11  1.28021545491031E-01
 cg2d: Sum(rhs),rhsMax =  -1.82703852047439E-11  1.30515584222103E-01
 cg2d: Sum(rhs),rhsMax =  -1.79196657512648E-11  1.32876059864410E-01
 cg2d: Sum(rhs),rhsMax =  -1.76274550511835E-11  1.35093295058095E-01
 cg2d: Sum(rhs),rhsMax =  -1.73455139140799E-11  1.37174393477987E-01
 cg2d: Sum(rhs),rhsMax =  -1.70622405093468E-11  1.39107739275770E-01
 cg2d: Sum(rhs),rhsMax =  -1.69048663956062E-11  1.40903424408468E-01
 cg2d: Sum(rhs),rhsMax =  -1.67350022728385E-11  1.42548739618752E-01
 cg2d: Sum(rhs),rhsMax =  -1.65463753809547E-11  1.44045095361949E-01
 cg2d: Sum(rhs),rhsMax =  -1.64274149838661E-11  1.45362618870462E-01
 cg2d: Sum(rhs),rhsMax =  -1.63275504228011E-11  1.46539427467122E-01
 cg2d: Sum(rhs),rhsMax =  -1.62053148677899E-11  1.47575620857213E-01
 cg2d: Sum(rhs),rhsMax =  -1.60902402512875E-11  1.48444574354192E-01
 cg2d: Sum(rhs),rhsMax =  -1.60133017956809E-11  1.49131803209386E-01
 cg2d: Sum(rhs),rhsMax =  -1.59487978379502E-11  1.49661598863686E-01
 cg2d: Sum(rhs),rhsMax =  -1.58837942798584E-11  1.50060566890188E-01
 cg2d: Sum(rhs),rhsMax =  -1.58585367060482E-11  1.50275250029876E-01
 cg2d: Sum(rhs),rhsMax =  -1.58612012413073E-11  1.50390247064791E-01
 cg2d: Sum(rhs),rhsMax =  -1.58713597819826E-11  1.50245738107788E-01
 cg2d: Sum(rhs),rhsMax =  -1.58963398000367E-11  1.49977041759004E-01
 cg2d: Sum(rhs),rhsMax =  -1.59166568813873E-11  1.49597442779640E-01
 cg2d: Sum(rhs),rhsMax =  -1.59215973738469E-11  1.49009394933336E-01
 cg2d: Sum(rhs),rhsMax =  -1.59504631724872E-11  1.48293728373123E-01
 cg2d: Sum(rhs),rhsMax =  -1.59955382272869E-11  1.47417173481954E-01
 cg2d: Sum(rhs),rhsMax =  -1.60323421205533E-11  1.46420295462987E-01
 cg2d: Sum(rhs),rhsMax =  -1.61028967937682E-11  1.45259150442683E-01
 cg2d: Sum(rhs),rhsMax =  -1.62231894584863E-11  1.43958433062038E-01
 cg2d: Sum(rhs),rhsMax =  -1.63665192509654E-11  1.42508578670810E-01
 cg2d: Sum(rhs),rhsMax =  -1.65287783460144E-11  1.40937285209811E-01
 cg2d: Sum(rhs),rhsMax =  -1.66492375441862E-11  1.39240969094785E-01
 cg2d: Sum(rhs),rhsMax =  -1.67821867513851E-11  1.37419559125527E-01
 cg2d: Sum(rhs),rhsMax =  -1.70360947571169E-11  1.35607318255031E-01
 cg2d: Sum(rhs),rhsMax =  -1.73382419532686E-11  1.33477964563846E-01
 cg2d: Sum(rhs),rhsMax =  -1.76363368353805E-11  1.31287487603403E-01
 cg2d: Sum(rhs),rhsMax =  -1.79291026469741E-11  1.29362436592137E-01
 cg2d: Sum(rhs),rhsMax =  -1.79485870610563E-11  1.29388009690946E-01
 cg2d: Sum(rhs),rhsMax =  -1.79468662153681E-11  1.29470035407743E-01
 cg2d: Sum(rhs),rhsMax =  -1.79433135016893E-11  1.29519853484458E-01
 cg2d: Sum(rhs),rhsMax =  -1.79529724420036E-11  1.29484202051763E-01
 cg2d: Sum(rhs),rhsMax =  -1.79627979157715E-11  1.29461976420850E-01
 cg2d: Sum(rhs),rhsMax =  -1.79862791327423E-11  1.29446601673661E-01
 cg2d: Sum(rhs),rhsMax =  -1.79870562888595E-11  1.29434636301600E-01
 cg2d: Sum(rhs),rhsMax =  -1.79775083708478E-11  1.29346328634092E-01
 cg2d: Sum(rhs),rhsMax =  -1.79758985474621E-11  1.29226532963089E-01
 cg2d: Sum(rhs),rhsMax =  -1.79485870610563E-11  1.29143448264746E-01
 cg2d: Sum(rhs),rhsMax =  -1.79755654805547E-11  1.29096782235347E-01
 cg2d: Sum(rhs),rhsMax =  -1.76930692319388E-11  1.31255942832391E-01
 cg2d: Sum(rhs),rhsMax =  -1.74407155384415E-11  1.33293121924008E-01
 cg2d: Sum(rhs),rhsMax =  -1.72187264446677E-11  1.35204050511295E-01
 cg2d: Sum(rhs),rhsMax =  -1.70238267926948E-11  1.36986777674743E-01
 cg2d: Sum(rhs),rhsMax =  -1.68219327356667E-11  1.38626702602995E-01
 cg2d: Sum(rhs),rhsMax =  -1.66168190318672E-11  1.40120609668908E-01
 cg2d: Sum(rhs),rhsMax =  -1.63902225125412E-11  1.41476791122190E-01
 cg2d: Sum(rhs),rhsMax =  -1.62517777013704E-11  1.42680066136965E-01
 cg2d: Sum(rhs),rhsMax =  -1.61385349528587E-11  1.43774396351230E-01
 cg2d: Sum(rhs),rhsMax =  -1.60761404188747E-11  1.44702052037389E-01
 cg2d: Sum(rhs),rhsMax =  -1.60060853460209E-11  1.45519516880122E-01
 cg2d: Sum(rhs),rhsMax =  -1.59353086282010E-11  1.46148081367358E-01
 cg2d: Sum(rhs),rhsMax =  -1.58427715390985E-11  1.46651929205566E-01
 cg2d: Sum(rhs),rhsMax =  -1.57414636881015E-11  1.47004822387760E-01
 cg2d: Sum(rhs),rhsMax =  -1.56489821101502E-11  1.47219135919643E-01
 cg2d: Sum(rhs),rhsMax =  -1.56198942669050E-11  1.47289878676764E-01
 cg2d: Sum(rhs),rhsMax =  -1.56057389233411E-11  1.47229086118739E-01
 cg2d: Sum(rhs),rhsMax =  -1.56278878726823E-11  1.47011710006938E-01
 cg2d: Sum(rhs),rhsMax =  -1.56392121475335E-11  1.46712020311158E-01
 cg2d: Sum(rhs),rhsMax =  -1.57101553988070E-11  1.46146827108536E-01
 cg2d: Sum(rhs),rhsMax =  -1.57843182968520E-11  1.45485764635813E-01
 cg2d: Sum(rhs),rhsMax =  -1.58799084992722E-11  1.44684193820223E-01
 cg2d: Sum(rhs),rhsMax =  -1.60215729572144E-11  1.43711337089349E-01
 cg2d: Sum(rhs),rhsMax =  -1.61554103428330E-11  1.42591806143646E-01
 cg2d: Sum(rhs),rhsMax =  -1.63220548188292E-11  1.41359487524921E-01
 cg2d: Sum(rhs),rhsMax =  -1.64832036908535E-11  1.39992296786761E-01
 cg2d: Sum(rhs),rhsMax =  -1.66716085381324E-11  1.38536614644076E-01
 cg2d: Sum(rhs),rhsMax =  -1.69056990628746E-11  1.36953546513644E-01
 cg2d: Sum(rhs),rhsMax =  -1.70934377763388E-11  1.35233363272978E-01
 cg2d: Sum(rhs),rhsMax =  -1.73662195734892E-11  1.33424373483905E-01
 cg2d: Sum(rhs),rhsMax =  -1.76285097630569E-11  1.31423669973507E-01
 cg2d: Sum(rhs),rhsMax =  -1.79462555927046E-11  1.29217517716568E-01
 cg2d: Sum(rhs),rhsMax =  -1.82541204374331E-11  1.26970045312562E-01
 cg2d: Sum(rhs),rhsMax =  -1.86081150488349E-11  1.24629555412331E-01
 cg2d: Sum(rhs),rhsMax =  -1.89855908772074E-11  1.22152767883465E-01
 cg2d: Sum(rhs),rhsMax =  -1.94052551805157E-11  1.19648689671560E-01
 cg2d: Sum(rhs),rhsMax =  -1.98022709341217E-11  1.17104689720313E-01
 cg2d: Sum(rhs),rhsMax =  -2.00938155003882E-11  1.15268790403005E-01
 cg2d: Sum(rhs),rhsMax =  -2.02311500885344E-11  1.14653699169024E-01
 cg2d: Sum(rhs),rhsMax =  -2.03803640630440E-11  1.13879289516591E-01
 cg2d: Sum(rhs),rhsMax =  -2.05185868296098E-11  1.13239664019260E-01
 cg2d: Sum(rhs),rhsMax =  -2.03222993988561E-11  1.14351386770589E-01
 cg2d: Sum(rhs),rhsMax =  -1.99533722877732E-11  1.16606035679804E-01
 cg2d: Sum(rhs),rhsMax =  -1.95864435781345E-11  1.18559587058987E-01
 cg2d: Sum(rhs),rhsMax =  -1.93125515579595E-11  1.20481225613400E-01
 cg2d: Sum(rhs),rhsMax =  -1.90889526408000E-11  1.22288496949170E-01
 cg2d: Sum(rhs),rhsMax =  -1.88647986121282E-11  1.23928985964098E-01
 cg2d: Sum(rhs),rhsMax =  -1.86836102145094E-11  1.25458259567385E-01
 cg2d: Sum(rhs),rhsMax =  -1.85077508874087E-11  1.26845724337908E-01
 cg2d: Sum(rhs),rhsMax =  -1.83419945898322E-11  1.28113580670627E-01
 cg2d: Sum(rhs),rhsMax =  -1.81472059601617E-11  1.29237680590926E-01
 cg2d: Sum(rhs),rhsMax =  -1.79889991791526E-11  1.30247259468848E-01
 cg2d: Sum(rhs),rhsMax =  -1.78045911347624E-11  1.31135362070191E-01
 cg2d: Sum(rhs),rhsMax =  -1.76366699022878E-11  1.31904072225270E-01
 cg2d: Sum(rhs),rhsMax =  -1.75435221905218E-11  1.32519141414740E-01
 cg2d: Sum(rhs),rhsMax =  -1.74397163377193E-11  1.32994598786091E-01
 cg2d: Sum(rhs),rhsMax =  -1.73417946669474E-11  1.33362885861543E-01
 cg2d: Sum(rhs),rhsMax =  -1.72807324005930E-11  1.33596970034428E-01
 cg2d: Sum(rhs),rhsMax =  -1.72279968069233E-11  1.33700745195718E-01
 cg2d: Sum(rhs),rhsMax =  -1.71770930812443E-11  1.33656701512533E-01
 cg2d: Sum(rhs),rhsMax =  -1.71370140300553E-11  1.33474860685684E-01
 cg2d: Sum(rhs),rhsMax =  -1.71454517250424E-11  1.33184830806259E-01
 cg2d: Sum(rhs),rhsMax =  -1.71559433326252E-11  1.32749751472164E-01
 cg2d: Sum(rhs),rhsMax =  -1.71710423657601E-11  1.32205195862859E-01
 cg2d: Sum(rhs),rhsMax =  -1.72238889817322E-11  1.31615653557494E-01
 cg2d: Sum(rhs),rhsMax =  -1.72818426236176E-11  1.30732724599455E-01
 cg2d: Sum(rhs),rhsMax =  -1.73713265994024E-11  1.29736898909467E-01
 cg2d: Sum(rhs),rhsMax =  -1.74725789392483E-11  1.28653589331349E-01
 cg2d: Sum(rhs),rhsMax =  -1.76039183230614E-11  1.27524114535050E-01
 cg2d: Sum(rhs),rhsMax =  -1.77580172788794E-11  1.26205650168635E-01
 cg2d: Sum(rhs),rhsMax =  -1.79019021828708E-11  1.24798011470536E-01
 cg2d: Sum(rhs),rhsMax =  -1.80631065660464E-11  1.23290654468808E-01
 cg2d: Sum(rhs),rhsMax =  -1.82397430492642E-11  1.21648985709735E-01
 cg2d: Sum(rhs),rhsMax =  -1.85287341025742E-11  1.19717159021320E-01
 cg2d: Sum(rhs),rhsMax =  -1.88247195609392E-11  1.17861810855300E-01
 cg2d: Sum(rhs),rhsMax =  -1.91531235316234E-11  1.15635596910813E-01
 cg2d: Sum(rhs),rhsMax =  -1.94979588030719E-11  1.13534609272098E-01
 cg2d: Sum(rhs),rhsMax =  -1.98902005976720E-11  1.11334716022461E-01
 cg2d: Sum(rhs),rhsMax =  -2.02969863138946E-11  1.09068180634179E-01
 cg2d: Sum(rhs),rhsMax =  -2.08334460793935E-11  1.06134655135429E-01
 cg2d: Sum(rhs),rhsMax =  -2.13021822403903E-11  1.03762411419507E-01
 cg2d: Sum(rhs),rhsMax =  -2.14378514939995E-11  1.03090099976331E-01
 cg2d: Sum(rhs),rhsMax =  -2.14273043752655E-11  1.03119221850536E-01
 cg2d: Sum(rhs),rhsMax =  -2.13703499341023E-11  1.03141747153528E-01
 cg2d: Sum(rhs),rhsMax =  -2.12633244345284E-11  1.03576086862795E-01
 cg2d: Sum(rhs),rhsMax =  -2.09198214307094E-11  1.05525092667546E-01
 cg2d: Sum(rhs),rhsMax =  -2.05446770706885E-11  1.07370112484292E-01
 cg2d: Sum(rhs),rhsMax =  -2.01264560573122E-11  1.09054393404341E-01
 cg2d: Sum(rhs),rhsMax =  -1.98020488895168E-11  1.10693273904005E-01
 cg2d: Sum(rhs),rhsMax =  -1.95363725197240E-11  1.12219448511005E-01
 cg2d: Sum(rhs),rhsMax =  -1.92277305188782E-11  1.13665726392613E-01
 cg2d: Sum(rhs),rhsMax =  -1.89664950411839E-11  1.15003162681061E-01
 cg2d: Sum(rhs),rhsMax =  -1.86708426497262E-11  1.16222249739791E-01
 cg2d: Sum(rhs),rhsMax =  -1.84716686391084E-11  1.17308636689430E-01
 cg2d: Sum(rhs),rhsMax =  -1.83590920244114E-11  1.18290484694934E-01
 cg2d: Sum(rhs),rhsMax =  -1.81963333290014E-11  1.19183905324468E-01
 cg2d: Sum(rhs),rhsMax =  -1.80044867903462E-11  1.19960455117808E-01
 cg2d: Sum(rhs),rhsMax =  -1.78356218683007E-11  1.20607309256261E-01
 cg2d: Sum(rhs),rhsMax =  -1.77267089895849E-11  1.21149479712879E-01
 cg2d: Sum(rhs),rhsMax =  -1.76128001072584E-11  1.21571436746722E-01
 cg2d: Sum(rhs),rhsMax =  -1.75097714105732E-11  1.21872163989304E-01
 cg2d: Sum(rhs),rhsMax =  -1.74412706499538E-11  1.22076589328547E-01
 cg2d: Sum(rhs),rhsMax =  -1.74004144426476E-11  1.22131737874519E-01
 cg2d: Sum(rhs),rhsMax =  -1.73653313950695E-11  1.22092635704656E-01
 cg2d: Sum(rhs),rhsMax =  -1.73514536072616E-11  1.21934699045690E-01
 cg2d: Sum(rhs),rhsMax =  -1.73296932359790E-11  1.21679969072396E-01
 cg2d: Sum(rhs),rhsMax =  -1.73588921015266E-11  1.21288988644890E-01
 cg2d: Sum(rhs),rhsMax =  -1.73971947958762E-11  1.20778204343282E-01
 cg2d: Sum(rhs),rhsMax =  -1.74911196637595E-11  1.20213599010622E-01
 cg2d: Sum(rhs),rhsMax =  -1.76297865195352E-11  1.19552671535733E-01
 cg2d: Sum(rhs),rhsMax =  -1.77527992306636E-11  1.18786553337287E-01
 cg2d: Sum(rhs),rhsMax =  -1.79115611231850E-11  1.17935952558455E-01
 cg2d: Sum(rhs),rhsMax =  -1.80848669373290E-11  1.16956469199995E-01
 cg2d: Sum(rhs),rhsMax =  -1.82934778436561E-11  1.15870314512043E-01
 cg2d: Sum(rhs),rhsMax =  -1.84924298096689E-11  1.14750565582563E-01
 cg2d: Sum(rhs),rhsMax =  -1.87214688196491E-11  1.13530650198807E-01
 cg2d: Sum(rhs),rhsMax =  -1.90061300031630E-11  1.12255837073769E-01
 cg2d: Sum(rhs),rhsMax =  -1.92914573204916E-11  1.10766139334142E-01
 cg2d: Sum(rhs),rhsMax =  -1.95807814407090E-11  1.09286916705012E-01
 cg2d: Sum(rhs),rhsMax =  -1.99331662287250E-11  1.07585367177326E-01
 cg2d: Sum(rhs),rhsMax =  -2.03080885441409E-11  1.05884184177807E-01
 cg2d: Sum(rhs),rhsMax =  -2.06588079976200E-11  1.04111928885600E-01
 cg2d: Sum(rhs),rhsMax =  -2.10507167253127E-11  1.02269800364966E-01
 cg2d: Sum(rhs),rhsMax =  -2.15096829236927E-11  1.00026561241736E-01
 cg2d: Sum(rhs),rhsMax =  -2.17341700192719E-11  9.90562769216491E-02
 cg2d: Sum(rhs),rhsMax =  -2.18224327497296E-11  9.88953723894739E-02
 cg2d: Sum(rhs),rhsMax =  -2.18834950160840E-11  9.87150256971224E-02
 cg2d: Sum(rhs),rhsMax =  -2.19158025061006E-11  9.85325333040641E-02
 cg2d: Sum(rhs),rhsMax =  -2.18991491607312E-11  9.83500249775960E-02
 cg2d: Sum(rhs),rhsMax =  -2.19051443650642E-11  9.81414628814376E-02
 cg2d: Sum(rhs),rhsMax =  -2.19300133608158E-11  9.79381821932725E-02
 cg2d: Sum(rhs),rhsMax =  -2.19499973752590E-11  9.77242258272192E-02
 cg2d: Sum(rhs),rhsMax =  -2.20120588423356E-11  9.75135805665020E-02
 cg2d: Sum(rhs),rhsMax =  -2.20250484517237E-11  9.72986311342780E-02
 cg2d: Sum(rhs),rhsMax =  -2.20713447518506E-11  9.70766439609968E-02
 cg2d: Sum(rhs),rhsMax =  -2.20777840453934E-11  9.68574119606438E-02
 cg2d: Sum(rhs),rhsMax =  -2.20670148820545E-11  9.66981715990661E-02
 cg2d: Sum(rhs),rhsMax =  -2.20788942684180E-11  9.64974178397509E-02
 cg2d: Sum(rhs),rhsMax =  -2.19061435657864E-11  9.73182617205432E-02
 cg2d: Sum(rhs),rhsMax =  -2.17842410776825E-11  9.80430750871314E-02
 cg2d: Sum(rhs),rhsMax =  -2.16942019903854E-11  9.86952889740910E-02
 cg2d: Sum(rhs),rhsMax =  -2.15875095577189E-11  9.93485321036627E-02
 cg2d: Sum(rhs),rhsMax =  -2.15337747633271E-11  9.98437828451778E-02
 cg2d: Sum(rhs),rhsMax =  -2.14571693746279E-11  1.00256629413478E-01
 cg2d: Sum(rhs),rhsMax =  -2.14311901558517E-11  1.00603157062102E-01
 cg2d: Sum(rhs),rhsMax =  -2.13133954929390E-11  1.00919528999414E-01
 cg2d: Sum(rhs),rhsMax =  -2.12189155135434E-11  1.01108084632191E-01
 cg2d: Sum(rhs),rhsMax =  -2.11708428565771E-11  1.01234735005850E-01
 cg2d: Sum(rhs),rhsMax =  -2.11299866492709E-11  1.01334458121228E-01
 cg2d: Sum(rhs),rhsMax =  -2.09665618200461E-11  1.01297883817595E-01
 cg2d: Sum(rhs),rhsMax =  -2.09304795717458E-11  1.01230438784243E-01
 cg2d: Sum(rhs),rhsMax =  -2.09356976199615E-11  1.01017158737986E-01
 cg2d: Sum(rhs),rhsMax =  -2.09291473041162E-11  1.00822395826435E-01
 cg2d: Sum(rhs),rhsMax =  -2.09691153330027E-11  1.00476199280441E-01
 cg2d: Sum(rhs),rhsMax =  -2.09980921539454E-11  1.00121950444481E-01
 cg2d: Sum(rhs),rhsMax =  -2.10333972461285E-11  9.96609819967713E-02
 cg2d: Sum(rhs),rhsMax =  -2.10912398657115E-11  9.91817225024028E-02
 cg2d: Sum(rhs),rhsMax =  -2.11705097896697E-11  9.86341280021856E-02
 cg2d: Sum(rhs),rhsMax =  -2.12712070180032E-11  9.80039050309741E-02
 cg2d: Sum(rhs),rhsMax =  -2.13818962535584E-11  9.72392638275259E-02
 cg2d: Sum(rhs),rhsMax =  -2.15509832202088E-11  9.64877727947603E-02
 cg2d: Sum(rhs),rhsMax =  -2.17288409487537E-11  9.57017628927772E-02
 cg2d: Sum(rhs),rhsMax =  -2.18850493283185E-11  9.48596349860269E-02
 cg2d: Sum(rhs),rhsMax =  -2.20747864432269E-11  9.39774100926156E-02
 cg2d: Sum(rhs),rhsMax =  -2.23244756014651E-11  9.30346857540521E-02
 cg2d: Sum(rhs),rhsMax =  -2.26177965245711E-11  9.20369738149715E-02
 cg2d: Sum(rhs),rhsMax =  -2.26364482713848E-11  9.21799723731112E-02
 cg2d: Sum(rhs),rhsMax =  -2.26663132707472E-11  9.23609480794975E-02
 cg2d: Sum(rhs),rhsMax =  -2.27041718758869E-11  9.25394018184672E-02
 cg2d: Sum(rhs),rhsMax =  -2.27048380097017E-11  9.27169736990573E-02
 cg2d: Sum(rhs),rhsMax =  -2.27333707414346E-11  9.28963867773744E-02
 cg2d: Sum(rhs),rhsMax =  -2.26876295528200E-11  9.30776124204114E-02
 cg2d: Sum(rhs),rhsMax =  -2.25746088489132E-11  9.32585927382617E-02
 cg2d: Sum(rhs),rhsMax =  -2.24246177182863E-11  9.37030523879112E-02
 cg2d: Sum(rhs),rhsMax =  -2.17510454092462E-11  9.64887930886536E-02
 cg2d: Sum(rhs),rhsMax =  -2.10826911484219E-11  9.90999139667415E-02
 cg2d: Sum(rhs),rhsMax =  -2.05706562894648E-11  1.01546609653395E-01
 cg2d: Sum(rhs),rhsMax =  -2.01325622839477E-11  1.03860235232164E-01
 cg2d: Sum(rhs),rhsMax =  -1.98078220492448E-11  1.05938004354540E-01
 cg2d: Sum(rhs),rhsMax =  -1.94925187102513E-11  1.07805096718239E-01
 cg2d: Sum(rhs),rhsMax =  -1.92200699800082E-11  1.09498303297185E-01
 cg2d: Sum(rhs),rhsMax =  -1.90020221779719E-11  1.10949926949829E-01
 cg2d: Sum(rhs),rhsMax =  -1.87958537622990E-11  1.12302534482608E-01
 cg2d: Sum(rhs),rhsMax =  -1.86349824460308E-11  1.13234088467058E-01
 cg2d: Sum(rhs),rhsMax =  -1.84847692707990E-11  1.14050285672650E-01
 cg2d: Sum(rhs),rhsMax =  -1.83943971165945E-11  1.14677825872710E-01
 cg2d: Sum(rhs),rhsMax =  -1.83389969876657E-11  1.15080680758445E-01
 cg2d: Sum(rhs),rhsMax =  -1.83152382149387E-11  1.15299962913719E-01
 cg2d: Sum(rhs),rhsMax =  -1.84190440677412E-11  1.15315648736737E-01
 cg2d: Sum(rhs),rhsMax =  -1.85670367969237E-11  1.15112998482544E-01
 cg2d: Sum(rhs),rhsMax =  -1.87199145074146E-11  1.14715963188278E-01
 cg2d: Sum(rhs),rhsMax =  -1.88069559925452E-11  1.14133118206749E-01
 cg2d: Sum(rhs),rhsMax =  -1.89448456922037E-11  1.13371616524251E-01
 cg2d: Sum(rhs),rhsMax =  -1.90618631989992E-11  1.12426884251152E-01
 cg2d: Sum(rhs),rhsMax =  -1.92754701089370E-11  1.11247451005971E-01
 cg2d: Sum(rhs),rhsMax =  -1.95344851405821E-11  1.09889209766246E-01
 cg2d: Sum(rhs),rhsMax =  -1.98154825881147E-11  1.08279779173778E-01
 cg2d: Sum(rhs),rhsMax =  -2.01737515581613E-11  1.06373376299108E-01
 cg2d: Sum(rhs),rhsMax =  -2.05211403425665E-11  1.04627456123433E-01
 cg2d: Sum(rhs),rhsMax =  -2.09567918574294E-11  1.02322214387558E-01
 cg2d: Sum(rhs),rhsMax =  -2.14609441329117E-11  1.00002759575941E-01
 cg2d: Sum(rhs),rhsMax =  -2.20340412582232E-11  9.75753735881392E-02
 cg2d: Sum(rhs),rhsMax =  -2.20103935077987E-11  9.73819310522487E-02
 cg2d: Sum(rhs),rhsMax =  -2.19727569472639E-11  9.74848616962920E-02
 cg2d: Sum(rhs),rhsMax =  -2.19289031377912E-11  9.75856653211511E-02
 cg2d: Sum(rhs),rhsMax =  -2.18360884929325E-11  9.76834014241858E-02
 cg2d: Sum(rhs),rhsMax =  -2.18373097382596E-11  9.77703062292578E-02
 cg2d: Sum(rhs),rhsMax =  -2.17791340517692E-11  9.78575715325300E-02
 cg2d: Sum(rhs),rhsMax =  -2.17458273610305E-11  9.79440606239901E-02
 cg2d: Sum(rhs),rhsMax =  -2.17058593321440E-11  9.80291662256251E-02
 cg2d: Sum(rhs),rhsMax =  -2.16231477168094E-11  9.81090674364697E-02
 cg2d: Sum(rhs),rhsMax =  -2.15963913419159E-11  9.81864917681162E-02
 cg2d: Sum(rhs),rhsMax =  -2.15877316023239E-11  9.82647093651485E-02
 cg2d: Sum(rhs),rhsMax =  -2.15985007656627E-11  9.83447717141024E-02
 cg2d: Sum(rhs),rhsMax =  -2.16048290369031E-11  9.84229661099313E-02
 cg2d: Sum(rhs),rhsMax =  -2.15659712310412E-11  9.84993034449718E-02
 cg2d: Sum(rhs),rhsMax =  -2.15150119942109E-11  9.85736631510770E-02
 cg2d: Sum(rhs),rhsMax =  -2.14791517905155E-11  9.86461410802038E-02
 cg2d: Sum(rhs),rhsMax =  -2.14591677760723E-11  9.86877287663490E-02
 cg2d: Sum(rhs),rhsMax =  -2.14712692070407E-11  9.87490046505594E-02
 cg2d: Sum(rhs),rhsMax =  -2.14352979810428E-11  9.88144209701118E-02
 cg2d: Sum(rhs),rhsMax =  -2.14687156940840E-11  9.88756860107041E-02
 cg2d: Sum(rhs),rhsMax =  -2.14936957121381E-11  9.89307475399024E-02
 cg2d: Sum(rhs),rhsMax =  -2.14347428695305E-11  9.89790164370264E-02
 cg2d: Sum(rhs),rhsMax =  -2.13956630190637E-11  9.90133186391838E-02
 cg2d: Sum(rhs),rhsMax =  -2.13349338196167E-11  9.90530300603835E-02
 cg2d: Sum(rhs),rhsMax =  -2.12787565345707E-11  9.90933954590306E-02
 cg2d: Sum(rhs),rhsMax =  -2.12730943971451E-11  9.91266128702138E-02
 cg2d: Sum(rhs),rhsMax =  -2.11738404587436E-11  9.98023928752258E-02
 cg2d: Sum(rhs),rhsMax =  -2.11138884154138E-11  1.00743707024019E-01
 cg2d: Sum(rhs),rhsMax =  -2.09947614848716E-11  1.01516374268783E-01
 cg2d: Sum(rhs),rhsMax =  -2.08913997212790E-11  1.02100370499101E-01
 cg2d: Sum(rhs),rhsMax =  -2.08323358563689E-11  1.02520504196065E-01
 cg2d: Sum(rhs),rhsMax =  -2.08065786821976E-11  1.02790216287068E-01
 cg2d: Sum(rhs),rhsMax =  -2.07668326979160E-11  1.02894380028226E-01
 cg2d: Sum(rhs),rhsMax =  -2.07786010619770E-11  1.02826773097180E-01
 cg2d: Sum(rhs),rhsMax =  -2.08590922312624E-11  1.02590057501569E-01
 cg2d: Sum(rhs),rhsMax =  -2.10390593835541E-11  1.02212369739518E-01
 cg2d: Sum(rhs),rhsMax =  -2.11666240090835E-11  1.01656487055187E-01
 cg2d: Sum(rhs),rhsMax =  -2.12948547684277E-11  1.00970087705338E-01
 cg2d: Sum(rhs),rhsMax =  -2.15091278121804E-11  1.00110772521100E-01
 cg2d: Sum(rhs),rhsMax =  -2.17001971947184E-11  9.91373917227859E-02
 cg2d: Sum(rhs),rhsMax =  -2.17216244990937E-11  9.90848655550193E-02
 cg2d: Sum(rhs),rhsMax =  -2.17377227329507E-11  9.90391979543461E-02
 cg2d: Sum(rhs),rhsMax =  -2.17259543688897E-11  9.89839454000285E-02
 cg2d: Sum(rhs),rhsMax =  -2.17597051488383E-11  9.89235658273428E-02
 cg2d: Sum(rhs),rhsMax =  -2.17595941265358E-11  9.88571652004197E-02
 cg2d: Sum(rhs),rhsMax =  -2.18307594224143E-11  9.87787554482238E-02
 cg2d: Sum(rhs),rhsMax =  -2.18824958153618E-11  9.86961454167582E-02
 cg2d: Sum(rhs),rhsMax =  -2.18989271161263E-11  9.86091832304560E-02
 cg2d: Sum(rhs),rhsMax =  -2.19272378032542E-11  9.85145198559076E-02
 cg2d: Sum(rhs),rhsMax =  -2.19357865205438E-11  9.84107381506877E-02
 cg2d: Sum(rhs),rhsMax =  -2.19544382673575E-11  9.82969722259171E-02
 cg2d: Sum(rhs),rhsMax =  -2.19914086940776E-11  9.81709800521321E-02
 cg2d: Sum(rhs),rhsMax =  -2.20805596029550E-11  9.80402837935513E-02
 cg2d: Sum(rhs),rhsMax =  -2.21069829109410E-11  9.79037213538873E-02
 cg2d: Sum(rhs),rhsMax =  -2.21433982261487E-11  9.77624662438097E-02
 cg2d: Sum(rhs),rhsMax =  -2.22035723140834E-11  9.76181459309870E-02
 cg2d: Sum(rhs),rhsMax =  -2.22400986515936E-11  9.74701828380329E-02
 cg2d: Sum(rhs),rhsMax =  -2.22588614207098E-11  9.73199478046470E-02
 cg2d: Sum(rhs),rhsMax =  -2.22700746732585E-11  9.71631737220420E-02
 cg2d: Sum(rhs),rhsMax =  -2.23336904525695E-11  9.70044088160100E-02
 cg2d: Sum(rhs),rhsMax =  -2.23815410649308E-11  9.68407631479735E-02
 cg2d: Sum(rhs),rhsMax =  -2.24105178858736E-11  9.66706390330034E-02
 cg2d: Sum(rhs),rhsMax =  -2.24551488514635E-11  9.64957977057941E-02
 cg2d: Sum(rhs),rhsMax =  -2.25369722883784E-11  9.63168959707674E-02
 cg2d: Sum(rhs),rhsMax =  -2.25700569345122E-11  9.61342132555386E-02
 cg2d: Sum(rhs),rhsMax =  -2.26574314865502E-11  9.59472550465246E-02
 cg2d: Sum(rhs),rhsMax =  -2.27404761687922E-11  9.57507673068975E-02
 cg2d: Sum(rhs),rhsMax =  -2.28135288438125E-11  9.55528869465366E-02
 cg2d: Sum(rhs),rhsMax =  -2.28659313705748E-11  9.53493962286478E-02
 cg2d: Sum(rhs),rhsMax =  -2.28952412584249E-11  9.51420815794489E-02
 cg2d: Sum(rhs),rhsMax =  -2.29450902722306E-11  9.49293453255649E-02
 cg2d: Sum(rhs),rhsMax =  -2.30119256983130E-11  9.47067767682936E-02
 cg2d: Sum(rhs),rhsMax =  -2.30782060128831E-11  9.44731424203955E-02
 cg2d: Sum(rhs),rhsMax =  -2.31409336137745E-11  9.42286228557395E-02
 cg2d: Sum(rhs),rhsMax =  -2.32031061031535E-11  9.39745573537768E-02
 cg2d: Sum(rhs),rhsMax =  -2.33086883127953E-11  9.37125746900969E-02
 cg2d: Sum(rhs),rhsMax =  -2.34147146116470E-11  9.34439050872642E-02
 cg2d: Sum(rhs),rhsMax =  -2.35175212637273E-11  9.31624307825680E-02
 cg2d: Sum(rhs),rhsMax =  -2.36087815963515E-11  9.28785447872010E-02
 cg2d: Sum(rhs),rhsMax =  -2.36989317059511E-11  9.25919589854681E-02
 cg2d: Sum(rhs),rhsMax =  -2.37955211090934E-11  9.23012596783693E-02
 cg2d: Sum(rhs),rhsMax =  -2.38785657913354E-11  9.20061790645030E-02
 cg2d: Sum(rhs),rhsMax =  -2.39814834657182E-11  9.17070401918931E-02
 cg2d: Sum(rhs),rhsMax =  -2.38986608280811E-11  9.20948459882208E-02
 cg2d: Sum(rhs),rhsMax =  -2.38430386545474E-11  9.25044919195203E-02
 cg2d: Sum(rhs),rhsMax =  -2.37563302363242E-11  9.29046374751330E-02
 cg2d: Sum(rhs),rhsMax =  -2.36670683051443E-11  9.32953281910059E-02
 cg2d: Sum(rhs),rhsMax =  -2.35729213926561E-11  9.36764059788324E-02
 cg2d: Sum(rhs),rhsMax =  -2.34682273614339E-11  9.40473456891972E-02
 cg2d: Sum(rhs),rhsMax =  -2.33935093518767E-11  9.44073792288624E-02
 cg2d: Sum(rhs),rhsMax =  -2.32494024032803E-11  9.47559060508218E-02
 cg2d: Sum(rhs),rhsMax =  -2.31378249893055E-11  9.50930042744765E-02
 cg2d: Sum(rhs),rhsMax =  -2.30444552329345E-11  9.54189117124259E-02
 cg2d: Sum(rhs),rhsMax =  -2.29737340262659E-11  9.57342609841888E-02
 cg2d: Sum(rhs),rhsMax =  -2.28604912777541E-11  9.60393834515506E-02
 cg2d: Sum(rhs),rhsMax =  -2.27954322085111E-11  9.63344722044071E-02
 cg2d: Sum(rhs),rhsMax =  -2.27269314478917E-11  9.66188591048112E-02
 cg2d: Sum(rhs),rhsMax =  -2.26592078433896E-11  9.68922040690480E-02
 cg2d: Sum(rhs),rhsMax =  -2.26003660230845E-11  9.71539691974936E-02
 cg2d: Sum(rhs),rhsMax =  -2.25107710249972E-11  9.74043188769911E-02
 cg2d: Sum(rhs),rhsMax =  -2.23892016038008E-11  9.76431032411507E-02
 cg2d: Sum(rhs),rhsMax =  -2.23421281475567E-11  9.78701808727784E-02
 cg2d: Sum(rhs),rhsMax =  -2.22539764394014E-11  9.80859245919604E-02
 cg2d: Sum(rhs),rhsMax =  -2.21805906974737E-11  9.82913050165495E-02
 cg2d: Sum(rhs),rhsMax =  -2.20991003274662E-11  9.84867281253891E-02
 cg2d: Sum(rhs),rhsMax =  -2.20471418899137E-11  9.86721526359748E-02
 cg2d: Sum(rhs),rhsMax =  -2.20118367977307E-11  9.88469049208797E-02
 cg2d: Sum(rhs),rhsMax =  -2.19980700322253E-11  9.90104629021041E-02
 cg2d: Sum(rhs),rhsMax =  -2.19568807580117E-11  9.91622815163346E-02
 cg2d: Sum(rhs),rhsMax =  -2.18931539563982E-11  9.93023883247403E-02
 cg2d: Sum(rhs),rhsMax =  -2.18071116719898E-11  9.95771174933645E-02
 cg2d: Sum(rhs),rhsMax =  -2.16917594997312E-11  9.98931472948403E-02
 cg2d: Sum(rhs),rhsMax =  -2.16133777541927E-11  1.00203509806460E-01
 cg2d: Sum(rhs),rhsMax =  -2.15496509525792E-11  1.00507212408591E-01
 cg2d: Sum(rhs),rhsMax =  -2.15267803582719E-11  1.00804007336205E-01
 cg2d: Sum(rhs),rhsMax =  -2.14641637796831E-11  1.01093476753718E-01
 cg2d: Sum(rhs),rhsMax =  -2.14672724041520E-11  1.01375352569630E-01
 cg2d: Sum(rhs),rhsMax =  -2.13847828334224E-11  1.01649304829476E-01
 cg2d: Sum(rhs),rhsMax =  -2.12777573338485E-11  1.01915033190712E-01
 cg2d: Sum(rhs),rhsMax =  -2.11941575400942E-11  1.02172077532113E-01
 cg2d: Sum(rhs),rhsMax =  -2.11011208506307E-11  1.02420636560704E-01
 cg2d: Sum(rhs),rhsMax =  -2.10170769676665E-11  1.02661396390173E-01
 cg2d: Sum(rhs),rhsMax =  -2.09199324530118E-11  1.02894807994882E-01
 cg2d: Sum(rhs),rhsMax =  -2.08060235706853E-11  1.03120763558088E-01
 cg2d: Sum(rhs),rhsMax =  -2.07605044266757E-11  1.03340176372176E-01
 cg2d: Sum(rhs),rhsMax =  -2.06485939457934E-11  1.03553988767783E-01
 cg2d: Sum(rhs),rhsMax =  -2.05693240218352E-11  1.03762397548291E-01
 cg2d: Sum(rhs),rhsMax =  -2.04735117748100E-11  1.03963529020136E-01
 cg2d: Sum(rhs),rhsMax =  -2.04140038206901E-11  1.04156174698611E-01
 cg2d: Sum(rhs),rhsMax =  -2.03365102535713E-11  1.04340723025958E-01
 cg2d: Sum(rhs),rhsMax =  -2.02899919088395E-11  1.04519541153778E-01
 cg2d: Sum(rhs),rhsMax =  -2.02131644755355E-11  1.04693817329941E-01
 cg2d: Sum(rhs),rhsMax =  -2.01548777667426E-11  1.04862814942036E-01
 cg2d: Sum(rhs),rhsMax =  -2.00949257234129E-11  1.05026104878180E-01
 cg2d: Sum(rhs),rhsMax =  -2.00245375836516E-11  1.05183179589487E-01
 cg2d: Sum(rhs),rhsMax =  -1.99756877705681E-11  1.05334681531693E-01
 cg2d: Sum(rhs),rhsMax =  -1.99571470460569E-11  1.05480405596413E-01
 cg2d: Sum(rhs),rhsMax =  -1.99527061539584E-11  1.05620696599137E-01
 cg2d: Sum(rhs),rhsMax =  -1.99347205409595E-11  1.05755449821720E-01
 cg2d: Sum(rhs),rhsMax =  -1.98874250401104E-11  1.05884520438700E-01
 cg2d: Sum(rhs),rhsMax =  -1.98823180141972E-11  1.06007942716528E-01
 cg2d: Sum(rhs),rhsMax =  -1.98514538141126E-11  1.06125063937099E-01
 cg2d: Sum(rhs),rhsMax =  -1.98341343349284E-11  1.06237157962606E-01
 cg2d: Sum(rhs),rhsMax =  -1.98331351342063E-11  1.06343144979193E-01
 cg2d: Sum(rhs),rhsMax =  -1.97770688714627E-11  1.06441349718934E-01
 cg2d: Sum(rhs),rhsMax =  -1.97715177563396E-11  1.06530823692197E-01
 cg2d: Sum(rhs),rhsMax =  -1.97610816599081E-11  1.06612090881525E-01
 cg2d: Sum(rhs),rhsMax =  -1.97820648750735E-11  1.06686041176366E-01
 cg2d: Sum(rhs),rhsMax =  -1.98131511197630E-11  1.06754525336731E-01
 cg2d: Sum(rhs),rhsMax =  -1.98268068629659E-11  1.06818914537234E-01
 cg2d: Sum(rhs),rhsMax =  -1.98373539816998E-11  1.06870794478922E-01
 cg2d: Sum(rhs),rhsMax =  -1.98149274766024E-11  1.06920643785203E-01
 cg2d: Sum(rhs),rhsMax =  -1.98325800226939E-11  1.06963006249261E-01
 cg2d: Sum(rhs),rhsMax =  -1.98021599118192E-11  1.06994986995360E-01
 cg2d: Sum(rhs),rhsMax =  -1.98038252463562E-11  1.07017078414610E-01
 cg2d: Sum(rhs),rhsMax =  -1.97899474585483E-11  1.07030985759832E-01
 cg2d: Sum(rhs),rhsMax =  -1.97475369390077E-11  1.07038676828069E-01
 cg2d: Sum(rhs),rhsMax =  -1.97090122000532E-11  1.07040720362607E-01
 cg2d: Sum(rhs),rhsMax =  -1.97156735382009E-11  1.07037043101012E-01
 cg2d: Sum(rhs),rhsMax =  -1.97036831295350E-11  1.07027205971916E-01
 cg2d: Sum(rhs),rhsMax =  -1.97040161964424E-11  1.07010720043752E-01
 cg2d: Sum(rhs),rhsMax =  -1.96879179625853E-11  1.06990014559750E-01
 cg2d: Sum(rhs),rhsMax =  -1.96643812344632E-11  1.06962866124297E-01
 cg2d: Sum(rhs),rhsMax =  -1.96698213272839E-11  1.06927559969801E-01
 cg2d: Sum(rhs),rhsMax =  -1.96751503978021E-11  1.06886047089350E-01
 cg2d: Sum(rhs),rhsMax =  -1.96561655840810E-11  1.06837428344662E-01
 cg2d: Sum(rhs),rhsMax =  -1.96791472006907E-11  1.06779696388392E-01
 cg2d: Sum(rhs),rhsMax =  -1.96791472006907E-11  1.06711842479176E-01
 cg2d: Sum(rhs),rhsMax =  -1.97383220879033E-11  1.06635328256785E-01
 cg2d: Sum(rhs),rhsMax =  -1.97809546520489E-11  1.06549820690441E-01
 cg2d: Sum(rhs),rhsMax =  -1.97978300420232E-11  1.06459230199657E-01
 cg2d: Sum(rhs),rhsMax =  -1.98064897816153E-11  1.06362780616696E-01
 cg2d: Sum(rhs),rhsMax =  -1.97835081650055E-11  1.06257753440183E-01
 cg2d: Sum(rhs),rhsMax =  -1.97935001722271E-11  1.06143342748896E-01
 cg2d: Sum(rhs),rhsMax =  -1.97906135923631E-11  1.06018122819024E-01
 cg2d: Sum(rhs),rhsMax =  -1.97942773283444E-11  1.05884327111005E-01
 cg2d: Sum(rhs),rhsMax =  -1.98000504880724E-11  1.05741948886904E-01
 cg2d: Sum(rhs),rhsMax =  -1.98011607110971E-11  1.05592110483816E-01
 cg2d: Sum(rhs),rhsMax =  -1.98159266773246E-11  1.05434801590119E-01
 cg2d: Sum(rhs),rhsMax =  -1.98214777924477E-11  1.05270489357848E-01
 cg2d: Sum(rhs),rhsMax =  -1.98491223457609E-11  1.05095385952673E-01
 cg2d: Sum(rhs),rhsMax =  -1.98809857465676E-11  1.04908477638304E-01
 cg2d: Sum(rhs),rhsMax =  -1.98673300033647E-11  1.04709932393783E-01
 cg2d: Sum(rhs),rhsMax =  -1.98872029955055E-11  1.04502791827510E-01
 cg2d: Sum(rhs),rhsMax =  -1.99001926048936E-11  1.04288020470870E-01
 cg2d: Sum(rhs),rhsMax =  -1.99157357272384E-11  1.04066359366447E-01
 cg2d: Sum(rhs),rhsMax =  -1.99233962661083E-11  1.03837944144048E-01
 cg2d: Sum(rhs),rhsMax =  -1.96724858625430E-11  1.05203693800383E-01
 cg2d: Sum(rhs),rhsMax =  -1.92206250915206E-11  1.07530051019216E-01
 cg2d: Sum(rhs),rhsMax =  -1.88300486314574E-11  1.09703177059593E-01
 cg2d: Sum(rhs),rhsMax =  -1.84768866873242E-11  1.11725828232741E-01
 cg2d: Sum(rhs),rhsMax =  -1.81681336641759E-11  1.13586554335941E-01
 cg2d: Sum(rhs),rhsMax =  -1.79086745433210E-11  1.15287658104434E-01
 cg2d: Sum(rhs),rhsMax =  -1.76788583772236E-11  1.16822987562762E-01
 cg2d: Sum(rhs),rhsMax =  -1.74992242918393E-11  1.18189347491860E-01
 cg2d: Sum(rhs),rhsMax =  -1.73304703920962E-11  1.19402115662809E-01
 cg2d: Sum(rhs),rhsMax =  -1.71858083319876E-11  1.20429197104950E-01
 cg2d: Sum(rhs),rhsMax =  -1.70857772374688E-11  1.21274784826460E-01
 cg2d: Sum(rhs),rhsMax =  -1.70272684840711E-11  1.21940065114618E-01
 cg2d: Sum(rhs),rhsMax =  -1.69735336896792E-11  1.22420852162939E-01
 cg2d: Sum(rhs),rhsMax =  -1.69507741176744E-11  1.22730153963152E-01
 cg2d: Sum(rhs),rhsMax =  -1.69381175751937E-11  1.22872878141856E-01
 cg2d: Sum(rhs),rhsMax =  -1.69059211074796E-11  1.22839261381933E-01
 cg2d: Sum(rhs),rhsMax =  -1.69565472774025E-11  1.22630853166830E-01
 cg2d: Sum(rhs),rhsMax =  -1.70099490048869E-11  1.22242355737794E-01
 cg2d: Sum(rhs),rhsMax =  -1.70857772374688E-11  1.21676918268789E-01
 cg2d: Sum(rhs),rhsMax =  -1.71854752650802E-11  1.20951928205878E-01
 cg2d: Sum(rhs),rhsMax =  -1.73094871769308E-11  1.20057329696601E-01
 cg2d: Sum(rhs),rhsMax =  -1.74552594600641E-11  1.19012134733885E-01
 cg2d: Sum(rhs),rhsMax =  -1.76694214815143E-11  1.17803561906421E-01
 cg2d: Sum(rhs),rhsMax =  -1.78519421467627E-11  1.16439193026643E-01
 cg2d: Sum(rhs),rhsMax =  -1.80715442610335E-11  1.14923553235888E-01
 cg2d: Sum(rhs),rhsMax =  -1.83317805380057E-11  1.13275158187932E-01
 cg2d: Sum(rhs),rhsMax =  -1.86333171114939E-11  1.11494526958418E-01
 cg2d: Sum(rhs),rhsMax =  -1.89674942419060E-11  1.09573776089139E-01
 cg2d: Sum(rhs),rhsMax =  -1.93420834904146E-11  1.07573687753069E-01
 cg2d: Sum(rhs),rhsMax =  -1.97393212886254E-11  1.05364939200125E-01
 cg2d: Sum(rhs),rhsMax =  -2.01811900524262E-11  1.03047432851287E-01
 cg2d: Sum(rhs),rhsMax =  -2.06592520868298E-11  1.00638095915175E-01
 cg2d: Sum(rhs),rhsMax =  -2.11842765551751E-11  9.80930437313941E-02
 cg2d: Sum(rhs),rhsMax =  -2.17544871006226E-11  9.54503164610751E-02
 cg2d: Sum(rhs),rhsMax =  -2.23758789275053E-11  9.26868604262466E-02
 cg2d: Sum(rhs),rhsMax =  -2.28519425604645E-11  9.07122039433425E-02
 cg2d: Sum(rhs),rhsMax =  -2.28617125230812E-11  9.02443817311993E-02
 cg2d: Sum(rhs),rhsMax =  -2.29207763879913E-11  8.97719447372631E-02
 cg2d: Sum(rhs),rhsMax =  -2.30505614595700E-11  8.92964403630045E-02
 cg2d: Sum(rhs),rhsMax =  -2.31437091713360E-11  8.88163150427058E-02
 cg2d: Sum(rhs),rhsMax =  -2.32683872170014E-11  8.83309954655267E-02
 cg2d: Sum(rhs),rhsMax =  -2.28327357021385E-11  8.98500089662534E-02
 cg2d: Sum(rhs),rhsMax =  -2.18596252210546E-11  9.37959638361998E-02
 cg2d: Sum(rhs),rhsMax =  -2.09783301841071E-11  9.76175777702388E-02
 cg2d: Sum(rhs),rhsMax =  -2.01906269481356E-11  1.01346041031866E-01
(PID.TID 0000.0001)      cg2d_init_res =   8.60404171166955E-02
(PID.TID 0000.0001)      cg2d_iters(min,last) =      -1      29
(PID.TID 0000.0001)      cg2d_last_res =   7.20640790483970E-14
(PID.TID 0000.0001) // =======================================================
(PID.TID 0000.0001) // Begin MONITOR dynamic field statistics
(PID.TID 0000.0001) // =======================================================
(PID.TID 0000.0001) %MON time_tsnumber                =                  6720
(PID.TID 0000.0001) %MON time_secondsf                =   1.0080000000000E+05
(PID.TID 0000.0001) %MON dynstat_eta_max              =   7.7797682041796E-03
(PID.TID 0000.0001) %MON dynstat_eta_min              =  -1.1505708654718E-02
(PID.TID 0000.0001) %MON dynstat_eta_mean             =   2.3661651919191E-15
(PID.TID 0000.0001) %MON dynstat_eta_sd               =   4.4587809479745E-03
(PID.TID 0000.0001) %MON dynstat_eta_del2             =   1.2879974705198E-04
(PID.TID 0000.0001) %MON dynstat_uvel_max             =   9.4127178744833E-01
(PID.TID 0000.0001) %MON dynstat_uvel_min             =  -4.7089619272475E-01
(PID.TID 0000.0001) %MON dynstat_uvel_mean            =   1.1117116319554E-04
(PID.TID 0000.0001) %MON dynstat_uvel_sd              =   1.5489693122479E-01
(PID.TID 0000.0001) %MON dynstat_uvel_del2            =   6.7412749352352E-04
(PID.TID 0000.0001) %MON dynstat_vvel_max             =   0.0000000000000E+00
(PID.TID 0000.0001) %MON dynstat_vvel_min             =   0.0000000000000E+00
(PID.TID 0000.0001) %MON dynstat_vvel_mean            =   0.0000000000000E+00
(PID.TID 0000.0001) %MON dynstat_vvel_sd              =   0.0000000000000E+00
(PID.TID 0000.0001) %MON dynstat_vvel_del2            =   0.0000000000000E+00
(PID.TID 0000.0001) %MON dynstat_wvel_max             =   3.5992577899913E-02
(PID.TID 0000.0001) %MON dynstat_wvel_min             =  -3.2542849369211E-02
(PID.TID 0000.0001) %MON dynstat_wvel_mean            =  -9.4947031229384E-20
(PID.TID 0000.0001) %MON dynstat_wvel_sd              =   3.5748499119732E-03
(PID.TID 0000.0001) %MON dynstat_wvel_del2            =   7.1848637886428E-05
(PID.TID 0000.0001) %MON dynstat_theta_max            =   1.5000000000013E+01
(PID.TID 0000.0001) %MON dynstat_theta_min            =   9.9999999999921E+00
(PID.TID 0000.0001) %MON dynstat_theta_mean           =   1.3062567054713E+01
(PID.TID 0000.0001) %MON dynstat_theta_sd             =   2.3118764515183E+00
(PID.TID 0000.0001) %MON dynstat_theta_del2           =   1.6471941675412E-03
(PID.TID 0000.0001) %MON dynstat_salt_max             =   3.5000000000000E+01
(PID.TID 0000.0001) %MON dynstat_salt_min             =   3.5000000000000E+01
(PID.TID 0000.0001) %MON dynstat_salt_mean            =   3.5000000000000E+01
(PID.TID 0000.0001) %MON dynstat_salt_sd              =   7.1054273576010E-15
(PID.TID 0000.0001) %MON dynstat_salt_del2            =   0.0000000000000E+00
(PID.TID 0000.0001) %MON dynstat_sst_max              =   1.5000000000012E+01
(PID.TID 0000.0001) %MON dynstat_sst_min              =   1.4987685034756E+01
(PID.TID 0000.0001) %MON dynstat_sst_mean             =   1.4999536167799E+01
(PID.TID 0000.0001) %MON dynstat_sst_sd               =   1.7105896998987E-03
(PID.TID 0000.0001) %MON dynstat_sst_del2             =   8.6719400580543E-05
(PID.TID 0000.0001) %MON dynstat_sss_max              =   3.5000000000000E+01
(PID.TID 0000.0001) %MON dynstat_sss_min              =   3.5000000000000E+01
(PID.TID 0000.0001) %MON dynstat_sss_mean             =   3.5000000000000E+01
(PID.TID 0000.0001) %MON dynstat_sss_sd               =   0.0000000000000E+00
(PID.TID 0000.0001) %MON dynstat_sss_del2             =   0.0000000000000E+00
(PID.TID 0000.0001) %MON forcing_qnet_max             =   0.0000000000000E+00
(PID.TID 0000.0001) %MON forcing_qnet_min             =   0.0000000000000E+00
(PID.TID 0000.0001) %MON forcing_qnet_mean            =   0.0000000000000E+00
(PID.TID 0000.0001) %MON forcing_qnet_sd              =   0.0000000000000E+00
(PID.TID 0000.0001) %MON forcing_qnet_del2            =   0.0000000000000E+00
(PID.TID 0000.0001) %MON forcing_qsw_max              =   0.0000000000000E+00
(PID.TID 0000.0001) %MON forcing_qsw_min              =   0.0000000000000E+00
(PID.TID 0000.0001) %MON forcing_qsw_mean             =   0.0000000000000E+00
(PID.TID 0000.0001) %MON forcing_qsw_sd               =   0.0000000000000E+00
(PID.TID 0000.0001) %MON forcing_qsw_del2             =   0.0000000000000E+00
(PID.TID 0000.0001) %MON forcing_empmr_max            =   0.0000000000000E+00
(PID.TID 0000.0001) %MON forcing_empmr_min            =   0.0000000000000E+00
(PID.TID 0000.0001) %MON forcing_empmr_mean           =   0.0000000000000E+00
(PID.TID 0000.0001) %MON forcing_empmr_sd             =   0.0000000000000E+00
(PID.TID 0000.0001) %MON forcing_empmr_del2           =   0.0000000000000E+00
(PID.TID 0000.0001) %MON forcing_fu_max               =   0.0000000000000E+00
(PID.TID 0000.0001) %MON forcing_fu_min               =   0.0000000000000E+00
(PID.TID 0000.0001) %MON forcing_fu_mean              =   0.0000000000000E+00
(PID.TID 0000.0001) %MON forcing_fu_sd                =   0.0000000000000E+00
(PID.TID 0000.0001) %MON forcing_fu_del2              =   0.0000000000000E+00
(PID.TID 0000.0001) %MON forcing_fv_max               =   0.0000000000000E+00
(PID.TID 0000.0001) %MON forcing_fv_min               =   0.0000000000000E+00
(PID.TID 0000.0001) %MON forcing_fv_mean              =   0.0000000000000E+00
(PID.TID 0000.0001) %MON forcing_fv_sd                =   0.0000000000000E+00
(PID.TID 0000.0001) %MON forcing_fv_del2              =   0.0000000000000E+00
(PID.TID 0000.0001) %MON advcfl_uvel_max              =   6.6023639203287E-02
(PID.TID 0000.0001) %MON advcfl_vvel_max              =   0.0000000000000E+00
(PID.TID 0000.0001) %MON advcfl_wvel_max              =   3.8090351530066E-01
(PID.TID 0000.0001) %MON advcfl_W_hf_max              =   3.8484630026161E-01
(PID.TID 0000.0001) %MON pe_b_mean                    =   5.5810201368516E-07
(PID.TID 0000.0001) %MON ke_max                       =   3.5123995578411E-01
(PID.TID 0000.0001) %MON ke_mean                      =   1.2129330451667E-02
(PID.TID 0000.0001) %MON ke_vol                       =   8.5336562999261E+10
(PID.TID 0000.0001) %MON vort_r_min                   =   0.0000000000000E+00
(PID.TID 0000.0001) %MON vort_r_max                   =   0.0000000000000E+00
(PID.TID 0000.0001) %MON vort_a_mean                  =   0.0000000000000E+00
(PID.TID 0000.0001) %MON vort_a_sd                    =   0.0000000000000E+00
(PID.TID 0000.0001) %MON vort_p_mean                  =   0.0000000000000E+00
(PID.TID 0000.0001) %MON vort_p_sd                    =   0.0000000000000E+00
(PID.TID 0000.0001) %MON surfExpan_theta_mean         =  -2.8174134050628E-10
(PID.TID 0000.0001) %MON surfExpan_salt_mean          =  -5.3630333446901E-18
(PID.TID 0000.0001) // =======================================================
(PID.TID 0000.0001) // End MONITOR dynamic field statistics
(PID.TID 0000.0001) // =======================================================
(PID.TID 0000.0001) // =======================================================
(PID.TID 0000.0001) // Begin OBCS MONITOR field statistics
(PID.TID 0000.0001) // =======================================================
(PID.TID 0000.0001) %MON obc_E_uVel_max               =   0.0000000000000E+00
(PID.TID 0000.0001) %MON obc_E_uVel_min               =   0.0000000000000E+00
(PID.TID 0000.0001) %MON obc_E_uVel_mean              =   0.0000000000000E+00
(PID.TID 0000.0001) %MON obc_E_uVel_sd                =   0.0000000000000E+00
(PID.TID 0000.0001) %MON obc_E_uVel_Int               =   0.0000000000000E+00
(PID.TID 0000.0001) %MON obc_W_uVel_max               =   0.0000000000000E+00
(PID.TID 0000.0001) %MON obc_W_uVel_min               =   0.0000000000000E+00
(PID.TID 0000.0001) %MON obc_W_uVel_mean              =   0.0000000000000E+00
(PID.TID 0000.0001) %MON obc_W_uVel_sd                =   0.0000000000000E+00
(PID.TID 0000.0001) %MON obc_W_uVel_Int               =   0.0000000000000E+00
(PID.TID 0000.0001) // =======================================================
(PID.TID 0000.0001) // End OBCS MONITOR field statistics
(PID.TID 0000.0001) // =======================================================
 cg2d: Sum(rhs),rhsMax =  -1.94775306994188E-11  1.05013242092206E-01
 cg2d: Sum(rhs),rhsMax =  -1.88101756393166E-11  1.08557203297134E-01
 cg2d: Sum(rhs),rhsMax =  -1.81863413217798E-11  1.11979754787993E-01
 cg2d: Sum(rhs),rhsMax =  -1.75971459626112E-11  1.15254843663370E-01
 cg2d: Sum(rhs),rhsMax =  -1.70718994496610E-11  1.18391875252543E-01
 cg2d: Sum(rhs),rhsMax =  -1.66211489016632E-11  1.21389697943257E-01
 cg2d: Sum(rhs),rhsMax =  -1.61742841342516E-11  1.24222830500552E-01
 cg2d: Sum(rhs),rhsMax =  -1.57145407797543E-11  1.26896125906705E-01
 cg2d: Sum(rhs),rhsMax =  -1.53523860291216E-11  1.29392729874456E-01
 cg2d: Sum(rhs),rhsMax =  -1.50353063332886E-11  1.31736496628556E-01
 cg2d: Sum(rhs),rhsMax =  -1.48026035873272E-11  1.33888588960417E-01
 cg2d: Sum(rhs),rhsMax =  -1.44892986497780E-11  1.35784993130086E-01
 cg2d: Sum(rhs),rhsMax =  -1.41952005705548E-11  1.37595732232802E-01
 cg2d: Sum(rhs),rhsMax =  -1.38969946661405E-11  1.39188722773100E-01
 cg2d: Sum(rhs),rhsMax =  -1.36302080733230E-11  1.40585396583271E-01
 cg2d: Sum(rhs),rhsMax =  -1.33678623726041E-11  1.41781830839529E-01
 cg2d: Sum(rhs),rhsMax =  -1.31652466706100E-11  1.42783969949247E-01
 cg2d: Sum(rhs),rhsMax =  -1.29987132169163E-11  1.43574371045459E-01
 cg2d: Sum(rhs),rhsMax =  -1.28246302466550E-11  1.44174021820592E-01
 cg2d: Sum(rhs),rhsMax =  -1.26815224987809E-11  1.44574299481080E-01
 cg2d: Sum(rhs),rhsMax =  -1.25297550113146E-11  1.44760601101509E-01
 cg2d: Sum(rhs),rhsMax =  -1.25068844170073E-11  1.44753712038857E-01
 cg2d: Sum(rhs),rhsMax =  -1.25002230788596E-11  1.44553485670732E-01
 cg2d: Sum(rhs),rhsMax =  -1.25511823156899E-11  1.44163961799888E-01
 cg2d: Sum(rhs),rhsMax =  -1.26197940986117E-11  1.43473125564117E-01
 cg2d: Sum(rhs),rhsMax =  -1.26972876657305E-11  1.42664510869352E-01
 cg2d: Sum(rhs),rhsMax =  -1.27987620501813E-11  1.41694780015361E-01
 cg2d: Sum(rhs),rhsMax =  -1.28075328120758E-11  1.40776244655645E-01
 cg2d: Sum(rhs),rhsMax =  -1.28420607481416E-11  1.39337115374118E-01
 cg2d: Sum(rhs),rhsMax =  -1.29716237751154E-11  1.37845553627132E-01
 cg2d: Sum(rhs),rhsMax =  -1.31309407791491E-11  1.36233537634709E-01
 cg2d: Sum(rhs),rhsMax =  -1.33233424293167E-11  1.34444772682544E-01
 cg2d: Sum(rhs),rhsMax =  -1.35061961614724E-11  1.32515855711731E-01
 cg2d: Sum(rhs),rhsMax =  -1.37547750966860E-11  1.30456965690396E-01
 cg2d: Sum(rhs),rhsMax =  -1.40175648866148E-11  1.28233900548519E-01
 cg2d: Sum(rhs),rhsMax =  -1.43185463485906E-11  1.25872938777349E-01
 cg2d: Sum(rhs),rhsMax =  -1.46472833861822E-11  1.23362771717858E-01
 cg2d: Sum(rhs),rhsMax =  -1.49849022079707E-11  1.20734112807513E-01
 cg2d: Sum(rhs),rhsMax =  -1.53635992816703E-11  1.17879147079589E-01
 cg2d: Sum(rhs),rhsMax =  -1.57353019503148E-11  1.15098028450891E-01
 cg2d: Sum(rhs),rhsMax =  -1.61474167370557E-11  1.12007061604335E-01
 cg2d: Sum(rhs),rhsMax =  -1.66664460010679E-11  1.08868930068333E-01
 cg2d: Sum(rhs),rhsMax =  -1.71972436291412E-11  1.05650008642830E-01
 cg2d: Sum(rhs),rhsMax =  -1.77496906061947E-11  1.02551986332377E-01
 cg2d: Sum(rhs),rhsMax =  -1.82368564694002E-11  9.97668176726293E-02
 cg2d: Sum(rhs),rhsMax =  -1.82732717846079E-11  9.97593151269079E-02
 cg2d: Sum(rhs),rhsMax =  -1.82850401486689E-11  9.97421559678056E-02
 cg2d: Sum(rhs),rhsMax =  -1.82761583644719E-11  9.97162533122947E-02
 cg2d: Sum(rhs),rhsMax =  -1.82509563018129E-11  9.96817795452912E-02
 cg2d: Sum(rhs),rhsMax =  -1.82038828455688E-11  9.96386865149131E-02
 cg2d: Sum(rhs),rhsMax =  -1.81308301705485E-11  9.95862338168009E-02
 cg2d: Sum(rhs),rhsMax =  -1.80838677366069E-11  9.95242409839543E-02
 cg2d: Sum(rhs),rhsMax =  -1.77039494175801E-11  1.01550037034746E-01
 cg2d: Sum(rhs),rhsMax =  -1.71023195605358E-11  1.05235201313727E-01
 cg2d: Sum(rhs),rhsMax =  -1.65681912633886E-11  1.08793769898385E-01
 cg2d: Sum(rhs),rhsMax =  -1.60909063851022E-11  1.12246881272377E-01
 cg2d: Sum(rhs),rhsMax =  -1.56380464133576E-11  1.15577169056724E-01
 cg2d: Sum(rhs),rhsMax =  -1.52342582993015E-11  1.18773231981174E-01
 cg2d: Sum(rhs),rhsMax =  -1.48842049796372E-11  1.21849578682866E-01
 cg2d: Sum(rhs),rhsMax =  -1.45716771982052E-11  1.24773096535086E-01
 cg2d: Sum(rhs),rhsMax =  -1.42525991009279E-11  1.27557880980118E-01
 cg2d: Sum(rhs),rhsMax =  -1.39460665238289E-11  1.30182133998168E-01
 cg2d: Sum(rhs),rhsMax =  -1.35830235947765E-11  1.32647641098832E-01
 cg2d: Sum(rhs),rhsMax =  -1.33647537481352E-11  1.34941088259010E-01
 cg2d: Sum(rhs),rhsMax =  -1.32105437700147E-11  1.37074214421497E-01
 cg2d: Sum(rhs),rhsMax =  -1.30541133458451E-11  1.39033777920454E-01
 cg2d: Sum(rhs),rhsMax =  -1.29086741296192E-11  1.40810271713571E-01
 cg2d: Sum(rhs),rhsMax =  -1.27929888904532E-11  1.42403184006318E-01
 cg2d: Sum(rhs),rhsMax =  -1.26884058815335E-11  1.43844792624031E-01
 cg2d: Sum(rhs),rhsMax =  -1.26011423517980E-11  1.45102396514958E-01
 cg2d: Sum(rhs),rhsMax =  -1.24714683025218E-11  1.46180424003327E-01
 cg2d: Sum(rhs),rhsMax =  -1.23279164654377E-11  1.47076348550170E-01
 cg2d: Sum(rhs),rhsMax =  -1.22362120436037E-11  1.47817866781974E-01
 cg2d: Sum(rhs),rhsMax =  -1.21893606319645E-11  1.48325828065923E-01
 cg2d: Sum(rhs),rhsMax =  -1.22016841075379E-11  1.48680083013210E-01
 cg2d: Sum(rhs),rhsMax =  -1.22546417458125E-11  1.48889130106812E-01
 cg2d: Sum(rhs),rhsMax =  -1.22940546631867E-11  1.48920365660162E-01
 cg2d: Sum(rhs),rhsMax =  -1.23768773008237E-11  1.48777777586234E-01
 cg2d: Sum(rhs),rhsMax =  -1.24716903471267E-11  1.48430786049702E-01
 cg2d: Sum(rhs),rhsMax =  -1.25741639322996E-11  1.47926881703634E-01
 cg2d: Sum(rhs),rhsMax =  -1.25391919070239E-11  1.47267863949857E-01
 cg2d: Sum(rhs),rhsMax =  -1.25257582084259E-11  1.46439446630400E-01
 cg2d: Sum(rhs),rhsMax =  -1.25334187472959E-11  1.45420242547770E-01
 cg2d: Sum(rhs),rhsMax =  -1.25082166846369E-11  1.44257591198154E-01
 cg2d: Sum(rhs),rhsMax =  -1.25339738588082E-11  1.42903573723781E-01
 cg2d: Sum(rhs),rhsMax =  -1.25787158467006E-11  1.41393352622373E-01
 cg2d: Sum(rhs),rhsMax =  -1.27264865312782E-11  1.39717858343540E-01
 cg2d: Sum(rhs),rhsMax =  -1.29292132555747E-11  1.37885635135297E-01
 cg2d: Sum(rhs),rhsMax =  -1.31342714482230E-11  1.35913379214497E-01
 cg2d: Sum(rhs),rhsMax =  -1.33553168524259E-11  1.33779057546266E-01
 cg2d: Sum(rhs),rhsMax =  -1.35874644868750E-11  1.31508294596745E-01
 cg2d: Sum(rhs),rhsMax =  -1.38856703912893E-11  1.29118456914632E-01
 cg2d: Sum(rhs),rhsMax =  -1.41876510539873E-11  1.26599038644500E-01
 cg2d: Sum(rhs),rhsMax =  -1.45293777009670E-11  1.23959217786210E-01
 cg2d: Sum(rhs),rhsMax =  -1.49100731761109E-11  1.21208532683408E-01
 cg2d: Sum(rhs),rhsMax =  -1.52979851009150E-11  1.18345955577578E-01
 cg2d: Sum(rhs),rhsMax =  -1.56893387170953E-11  1.15393601330887E-01
 cg2d: Sum(rhs),rhsMax =  -1.60960134110155E-11  1.12334721456759E-01
 cg2d: Sum(rhs),rhsMax =  -1.65293334575267E-11  1.09191537182305E-01
 cg2d: Sum(rhs),rhsMax =  -1.69645408831798E-11  1.05963936765481E-01
 cg2d: Sum(rhs),rhsMax =  -1.74498193672434E-11  1.02655493319632E-01
 cg2d: Sum(rhs),rhsMax =  -1.80151449313826E-11  9.92850487206447E-02
 cg2d: Sum(rhs),rhsMax =  -1.86236581711796E-11  9.59717750674286E-02
 cg2d: Sum(rhs),rhsMax =  -1.92422744405008E-11  9.27255371723947E-02
 cg2d: Sum(rhs),rhsMax =  -1.86748394526148E-11  9.54716329815741E-02
 cg2d: Sum(rhs),rhsMax =  -1.81658021958242E-11  9.82243806921074E-02
 cg2d: Sum(rhs),rhsMax =  -1.77632353270951E-11  1.00627746483698E-01
 cg2d: Sum(rhs),rhsMax =  -1.74493752780336E-11  1.02662896676189E-01
 cg2d: Sum(rhs),rhsMax =  -1.71830327744260E-11  1.04616395408009E-01
 cg2d: Sum(rhs),rhsMax =  -1.69215752521268E-11  1.06433691611698E-01
 cg2d: Sum(rhs),rhsMax =  -1.67148517249416E-11  1.08021791871928E-01
 cg2d: Sum(rhs),rhsMax =  -1.65777391814004E-11  1.09390075942368E-01
 cg2d: Sum(rhs),rhsMax =  -1.62844182582944E-11  1.11282320702309E-01
 cg2d: Sum(rhs),rhsMax =  -1.58664192895230E-11  1.14254615676060E-01
 cg2d: Sum(rhs),rhsMax =  -1.54585233502758E-11  1.17107197387105E-01
 cg2d: Sum(rhs),rhsMax =  -1.51115786550804E-11  1.19812663190306E-01
 cg2d: Sum(rhs),rhsMax =  -1.48069334571233E-11  1.22377398536848E-01
 cg2d: Sum(rhs),rhsMax =  -1.45118361771779E-11  1.24816483597204E-01
 cg2d: Sum(rhs),rhsMax =  -1.42468259411999E-11  1.27121559479160E-01
 cg2d: Sum(rhs),rhsMax =  -1.39813716160120E-11  1.29279122600177E-01
 cg2d: Sum(rhs),rhsMax =  -1.37042599490655E-11  1.31287190522010E-01
 cg2d: Sum(rhs),rhsMax =  -1.35098598974537E-11  1.33137768519535E-01
 cg2d: Sum(rhs),rhsMax =  -1.33469901797412E-11  1.34838877374059E-01
 cg2d: Sum(rhs),rhsMax =  -1.32019950527251E-11  1.36388678252213E-01
 cg2d: Sum(rhs),rhsMax =  -1.30860877689543E-11  1.37788363810098E-01
 cg2d: Sum(rhs),rhsMax =  -1.29726229758376E-11  1.39028469064389E-01
 cg2d: Sum(rhs),rhsMax =  -1.28949073641138E-11  1.40112669978444E-01
 cg2d: Sum(rhs),rhsMax =  -1.28356214545988E-11  1.41048493811274E-01
 cg2d: Sum(rhs),rhsMax =  -1.27707844299607E-11  1.41835296991035E-01
 cg2d: Sum(rhs),rhsMax =  -1.27065025168349E-11  1.42446548091768E-01
 cg2d: Sum(rhs),rhsMax =  -1.26629817742696E-11  1.42900864826413E-01
 cg2d: Sum(rhs),rhsMax =  -1.26735288930035E-11  1.43195331792428E-01
 cg2d: Sum(rhs),rhsMax =  -1.27138299887974E-11  1.43328374438443E-01
 cg2d: Sum(rhs),rhsMax =  -1.27889920875646E-11  1.43298255426022E-01
 cg2d: Sum(rhs),rhsMax =  -1.28799193532814E-11  1.43101784435472E-01
 cg2d: Sum(rhs),rhsMax =  -1.29696253736711E-11  1.42746802570448E-01
 cg2d: Sum(rhs),rhsMax =  -1.30750965610105E-11  1.42243818716414E-01
 cg2d: Sum(rhs),rhsMax =  -1.31837873951213E-11  1.41587909293618E-01
 cg2d: Sum(rhs),rhsMax =  -1.32936994745592E-11  1.40782812931140E-01
 cg2d: Sum(rhs),rhsMax =  -1.34025013309724E-11  1.39827221067624E-01
 cg2d: Sum(rhs),rhsMax =  -1.34847688570972E-11  1.38758116090461E-01
 cg2d: Sum(rhs),rhsMax =  -1.35733646544622E-11  1.37477369404092E-01
 cg2d: Sum(rhs),rhsMax =  -1.36817224216657E-11  1.36096800920632E-01
 cg2d: Sum(rhs),rhsMax =  -1.37845290737459E-11  1.34546738786589E-01
 cg2d: Sum(rhs),rhsMax =  -1.39402933641009E-11  1.32856265990125E-01
 cg2d: Sum(rhs),rhsMax =  -1.40808475990184E-11  1.31032490733443E-01
 cg2d: Sum(rhs),rhsMax =  -1.42580391937486E-11  1.29071093553015E-01
 cg2d: Sum(rhs),rhsMax =  -1.44798617540687E-11  1.27008538641665E-01
 cg2d: Sum(rhs),rhsMax =  -1.47467593691886E-11  1.24836769441269E-01
 cg2d: Sum(rhs),rhsMax =  -1.50019996425499E-11  1.22506069120660E-01
 cg2d: Sum(rhs),rhsMax =  -1.52710066814166E-11  1.20129281971830E-01
 cg2d: Sum(rhs),rhsMax =  -1.55844226412682E-11  1.17662213268442E-01
 cg2d: Sum(rhs),rhsMax =  -1.57188706495504E-11  1.17032316318819E-01
 cg2d: Sum(rhs),rhsMax =  -1.55551127534181E-11  1.18278701930146E-01
 cg2d: Sum(rhs),rhsMax =  -1.54153356746178E-11  1.19323879002096E-01
 cg2d: Sum(rhs),rhsMax =  -1.53366208621719E-11  1.20164583580808E-01
 cg2d: Sum(rhs),rhsMax =  -1.52419188381714E-11  1.20751182584180E-01
 cg2d: Sum(rhs),rhsMax =  -1.51986201402110E-11  1.21095845985823E-01
 cg2d: Sum(rhs),rhsMax =  -1.52116097495991E-11  1.21146916125111E-01
 cg2d: Sum(rhs),rhsMax =  -1.52494683547388E-11  1.21010272711609E-01
 cg2d: Sum(rhs),rhsMax =  -1.53229651189690E-11  1.20605395394589E-01
 cg2d: Sum(rhs),rhsMax =  -1.54108947825193E-11  1.19936848923264E-01
 cg2d: Sum(rhs),rhsMax =  -1.54860568812865E-11  1.19109263588324E-01
 cg2d: Sum(rhs),rhsMax =  -1.55871981988298E-11  1.18013407948017E-01
 cg2d: Sum(rhs),rhsMax =  -1.58232316138651E-11  1.16675273638739E-01
 cg2d: Sum(rhs),rhsMax =  -1.60905733181949E-11  1.15136738685247E-01
 cg2d: Sum(rhs),rhsMax =  -1.64033231442318E-11  1.13313934935833E-01
 cg2d: Sum(rhs),rhsMax =  -1.67295066688666E-11  1.11287825320457E-01
 cg2d: Sum(rhs),rhsMax =  -1.71047620511899E-11  1.09054276014246E-01
 cg2d: Sum(rhs),rhsMax =  -1.75869319107846E-11  1.06658411077413E-01
 cg2d: Sum(rhs),rhsMax =  -1.72308833867874E-11  1.09242062821614E-01
 cg2d: Sum(rhs),rhsMax =  -1.68490776886188E-11  1.11792124177844E-01
 cg2d: Sum(rhs),rhsMax =  -1.65054636624973E-11  1.14230317361758E-01
 cg2d: Sum(rhs),rhsMax =  -1.61666235953817E-11  1.16565699049168E-01
 cg2d: Sum(rhs),rhsMax =  -1.58879576162008E-11  1.18787966953377E-01
 cg2d: Sum(rhs),rhsMax =  -1.56497037551162E-11  1.20891462337710E-01
 cg2d: Sum(rhs),rhsMax =  -1.54100066040996E-11  1.22887512235069E-01
 cg2d: Sum(rhs),rhsMax =  -1.52117207719016E-11  1.24744048589477E-01
 cg2d: Sum(rhs),rhsMax =  -1.50424117606462E-11  1.26476634105303E-01
 cg2d: Sum(rhs),rhsMax =  -1.48705492364343E-11  1.28075044486972E-01
 cg2d: Sum(rhs),rhsMax =  -1.47271084216527E-11  1.29535229048710E-01
 cg2d: Sum(rhs),rhsMax =  -1.46481715646019E-11  1.30863128984467E-01
 cg2d: Sum(rhs),rhsMax =  -1.45826684061490E-11  1.32069660545532E-01
 cg2d: Sum(rhs),rhsMax =  -1.44940726087839E-11  1.33143085163806E-01
 cg2d: Sum(rhs),rhsMax =  -1.44265710488867E-11  1.34082680268762E-01
 cg2d: Sum(rhs),rhsMax =  -1.43730582990997E-11  1.34906016194594E-01
 cg2d: Sum(rhs),rhsMax =  -1.43227651960842E-11  1.35598823140458E-01
 cg2d: Sum(rhs),rhsMax =  -1.41594513891619E-11  1.36157012303660E-01
 cg2d: Sum(rhs),rhsMax =  -1.40761846623150E-11  1.36581881753036E-01
 cg2d: Sum(rhs),rhsMax =  -1.40265576931142E-11  1.36867825025611E-01
 cg2d: Sum(rhs),rhsMax =  -1.39936950915853E-11  1.37021506998136E-01
 cg2d: Sum(rhs),rhsMax =  -1.38142830508059E-11  1.37039624253008E-01
 cg2d: Sum(rhs),rhsMax =  -1.37795330701351E-11  1.36919618823847E-01
 cg2d: Sum(rhs),rhsMax =  -1.38715705588766E-11  1.36666384791441E-01
 cg2d: Sum(rhs),rhsMax =  -1.39489531036929E-11  1.36282364130507E-01
 cg2d: Sum(rhs),rhsMax =  -1.40160105743803E-11  1.35764425957797E-01
 cg2d: Sum(rhs),rhsMax =  -1.40065736786710E-11  1.35122443358968E-01
 cg2d: Sum(rhs),rhsMax =  -1.41612277460013E-11  1.34357689010755E-01
 cg2d: Sum(rhs),rhsMax =  -1.42981182449375E-11  1.33481457631465E-01
 cg2d: Sum(rhs),rhsMax =  -1.44643186317239E-11  1.32485647201250E-01
 cg2d: Sum(rhs),rhsMax =  -1.46220813235232E-11  1.31380026581008E-01
 cg2d: Sum(rhs),rhsMax =  -1.47730716548722E-11  1.30234609966695E-01
 cg2d: Sum(rhs),rhsMax =  -1.50000012411056E-11  1.28895723294496E-01
 cg2d: Sum(rhs),rhsMax =  -1.52297063849005E-11  1.27422514946983E-01
 cg2d: Sum(rhs),rhsMax =  -1.55071511187543E-11  1.25874307753656E-01
 cg2d: Sum(rhs),rhsMax =  -1.57571733438999E-11  1.24220911527586E-01
 cg2d: Sum(rhs),rhsMax =  -1.60430557727409E-11  1.22458314151244E-01
 cg2d: Sum(rhs),rhsMax =  -1.63735691671718E-11  1.20595290596619E-01
 cg2d: Sum(rhs),rhsMax =  -1.67522662408714E-11  1.18635324999015E-01
 cg2d: Sum(rhs),rhsMax =  -1.70963243562028E-11  1.16589940417034E-01
 cg2d: Sum(rhs),rhsMax =  -1.74662506680079E-11  1.14458650032977E-01
 cg2d: Sum(rhs),rhsMax =  -1.76615388980395E-11  1.13604557652120E-01
 cg2d: Sum(rhs),rhsMax =  -1.76666459239527E-11  1.13717491782784E-01
 cg2d: Sum(rhs),rhsMax =  -1.76521020023301E-11  1.13821466137608E-01
 cg2d: Sum(rhs),rhsMax =  -1.75579550898419E-11  1.13916313487234E-01
 cg2d: Sum(rhs),rhsMax =  -1.75528480639286E-11  1.14001739155852E-01
 cg2d: Sum(rhs),rhsMax =  -1.75651715395020E-11  1.14077653749771E-01
 cg2d: Sum(rhs),rhsMax =  -1.75173209271406E-11  1.14144004543551E-01
 cg2d: Sum(rhs),rhsMax =  -1.75329750717879E-11  1.14200110445750E-01
 cg2d: Sum(rhs),rhsMax =  -1.75026659832156E-11  1.14245547231585E-01
 cg2d: Sum(rhs),rhsMax =  -1.75023329163082E-11  1.14280021735333E-01
 cg2d: Sum(rhs),rhsMax =  -1.74856795709388E-11  1.14302579120021E-01
 cg2d: Sum(rhs),rhsMax =  -1.74585901291380E-11  1.14312379053212E-01
 cg2d: Sum(rhs),rhsMax =  -1.74941172659260E-11  1.14308919642691E-01
 cg2d: Sum(rhs),rhsMax =  -1.75178760386530E-11  1.14292284118570E-01
 cg2d: Sum(rhs),rhsMax =  -1.75295333804115E-11  1.14262784952138E-01
 cg2d: Sum(rhs),rhsMax =  -1.75267578228500E-11  1.14221177611014E-01
 cg2d: Sum(rhs),rhsMax =  -1.74863457047536E-11  1.14168224055276E-01
 cg2d: Sum(rhs),rhsMax =  -1.75047754069624E-11  1.14104582950875E-01
 cg2d: Sum(rhs),rhsMax =  -1.75680581193660E-11  1.14030715870275E-01
 cg2d: Sum(rhs),rhsMax =  -1.76172409993569E-11  1.13946822217847E-01
 cg2d: Sum(rhs),rhsMax =  -1.76949566110807E-11  1.13853016683082E-01
 cg2d: Sum(rhs),rhsMax =  -1.77653447508419E-11  1.13749486540414E-01
 cg2d: Sum(rhs),rhsMax =  -1.77721171112921E-11  1.13636572576427E-01
 cg2d: Sum(rhs),rhsMax =  -1.77647896393296E-11  1.13514604992514E-01
 cg2d: Sum(rhs),rhsMax =  -1.77816650293039E-11  1.13383924659380E-01
 cg2d: Sum(rhs),rhsMax =  -1.78037584674939E-11  1.13244796439124E-01
 cg2d: Sum(rhs),rhsMax =  -1.78034254005865E-11  1.13097225855431E-01
 cg2d: Sum(rhs),rhsMax =  -1.78929093763713E-11  1.12941073652569E-01
 cg2d: Sum(rhs),rhsMax =  -1.79737336125640E-11  1.12776439904224E-01
 cg2d: Sum(rhs),rhsMax =  -1.80107040392841E-11  1.12890802585344E-01
 cg2d: Sum(rhs),rhsMax =  -1.78873582612482E-11  1.14047879107634E-01
 cg2d: Sum(rhs),rhsMax =  -1.77556858105277E-11  1.15095753327506E-01
 cg2d: Sum(rhs),rhsMax =  -1.76373360361026E-11  1.16034226571170E-01
 cg2d: Sum(rhs),rhsMax =  -1.75646164279897E-11  1.16868093422045E-01
 cg2d: Sum(rhs),rhsMax =  -1.75365277854667E-11  1.17601028648845E-01
 cg2d: Sum(rhs),rhsMax =  -1.74811276565379E-11  1.18229784212486E-01
 cg2d: Sum(rhs),rhsMax =  -1.74622538651192E-11  1.18747881887053E-01
 cg2d: Sum(rhs),rhsMax =  -1.74581460399281E-11  1.19195084795256E-01
 cg2d: Sum(rhs),rhsMax =  -1.73081549093013E-11  1.19513706643941E-01
 cg2d: Sum(rhs),rhsMax =  -1.72739600401428E-11  1.19732116859744E-01
 cg2d: Sum(rhs),rhsMax =  -1.72970526790550E-11  1.19856076569669E-01
 cg2d: Sum(rhs),rhsMax =  -1.73379088863612E-11  1.19870966961952E-01
 cg2d: Sum(rhs),rhsMax =  -1.73961955951540E-11  1.19780607185607E-01
 cg2d: Sum(rhs),rhsMax =  -1.74716907608286E-11  1.19597953242087E-01
 cg2d: Sum(rhs),rhsMax =  -1.75442993466390E-11  1.19310926006492E-01
 cg2d: Sum(rhs),rhsMax =  -1.75696124316005E-11  1.18935654828301E-01
 cg2d: Sum(rhs),rhsMax =  -1.76535452922622E-11  1.18465052587472E-01
 cg2d: Sum(rhs),rhsMax =  -1.77323711270105E-11  1.17885870590232E-01
 cg2d: Sum(rhs),rhsMax =  -1.78365100467204E-11  1.17230772570449E-01
 cg2d: Sum(rhs),rhsMax =  -1.79670722744163E-11  1.16453139136246E-01
 cg2d: Sum(rhs),rhsMax =  -1.80889747625201E-11  1.15624437981635E-01
 cg2d: Sum(rhs),rhsMax =  -1.82275305959934E-11  1.14699965850349E-01
 cg2d: Sum(rhs),rhsMax =  -1.83711934553799E-11  1.13698999681806E-01
 cg2d: Sum(rhs),rhsMax =  -1.85299553479013E-11  1.12614717877406E-01
 cg2d: Sum(rhs),rhsMax =  -1.87070359203290E-11  1.11461143215038E-01
 cg2d: Sum(rhs),rhsMax =  -1.88553617164189E-11  1.10231805440488E-01
 cg2d: Sum(rhs),rhsMax =  -1.90372162478525E-11  1.08928981495689E-01
 cg2d: Sum(rhs),rhsMax =  -1.92390547937293E-11  1.07548649069943E-01
 cg2d: Sum(rhs),rhsMax =  -1.94648741569381E-11  1.06106700316458E-01
 cg2d: Sum(rhs),rhsMax =  -1.97059035755842E-11  1.04603750359386E-01
 cg2d: Sum(rhs),rhsMax =  -1.98581151522603E-11  1.03653005209479E-01
 cg2d: Sum(rhs),rhsMax =  -1.99129601696768E-11  1.03272355270058E-01
 cg2d: Sum(rhs),rhsMax =  -1.99590344251988E-11  1.02883903180408E-01
 cg2d: Sum(rhs),rhsMax =  -2.00176542008990E-11  1.02487539800710E-01
 cg2d: Sum(rhs),rhsMax =  -2.01553218559525E-11  1.02083486213628E-01
 cg2d: Sum(rhs),rhsMax =  -2.03171923729428E-11  1.01671984074983E-01
 cg2d: Sum(rhs),rhsMax =  -2.04095629285916E-11  1.01253357252040E-01
 cg2d: Sum(rhs),rhsMax =  -2.05739869585386E-11  1.00828063555707E-01
 cg2d: Sum(rhs),rhsMax =  -2.07236450222581E-11  1.00396615744825E-01
 cg2d: Sum(rhs),rhsMax =  -2.07843742217051E-11  9.99597146872770E-02
 cg2d: Sum(rhs),rhsMax =  -2.08886241637174E-11  9.95178292156851E-02
 cg2d: Sum(rhs),rhsMax =  -2.10006456669021E-11  9.90713293362404E-02
 cg2d: Sum(rhs),rhsMax =  -2.11053396981242E-11  9.86203396653831E-02
 cg2d: Sum(rhs),rhsMax =  -2.12078132832971E-11  9.81650867718368E-02
 cg2d: Sum(rhs),rhsMax =  -2.12879713856751E-11  9.77057332971874E-02
 cg2d: Sum(rhs),rhsMax =  -2.13941087068292E-11  9.72419740106689E-02
 cg2d: Sum(rhs),rhsMax =  -2.14935846898356E-11  9.67736487799543E-02
 cg2d: Sum(rhs),rhsMax =  -2.15952811188913E-11  9.63007039589711E-02
 cg2d: Sum(rhs),rhsMax =  -2.16958673249223E-11  9.58231733607214E-02
 cg2d: Sum(rhs),rhsMax =  -2.18006723784470E-11  9.53411391734644E-02
 cg2d: Sum(rhs),rhsMax =  -2.19365636766611E-11  9.48541329277878E-02
 cg2d: Sum(rhs),rhsMax =  -2.20556906072034E-11  9.43617450075003E-02
 cg2d: Sum(rhs),rhsMax =  -2.21748175377456E-11  9.38638816607580E-02
 cg2d: Sum(rhs),rhsMax =  -2.23383533892729E-11  9.33610424566082E-02
 cg2d: Sum(rhs),rhsMax =  -2.24729124198575E-11  9.28539036523881E-02
 cg2d: Sum(rhs),rhsMax =  -2.25852669899496E-11  9.23428178115961E-02
 cg2d: Sum(rhs),rhsMax =  -2.26931806679431E-11  9.18280074625142E-02
 cg2d: Sum(rhs),rhsMax =  -2.28357333043050E-11  9.13098082966363E-02
 cg2d: Sum(rhs),rhsMax =  -2.29214425218061E-11  9.07885643987146E-02
 cg2d: Sum(rhs),rhsMax =  -2.30404584300459E-11  9.02647179471584E-02
 cg2d: Sum(rhs),rhsMax =  -2.31777930181920E-11  8.97384848320195E-02
 cg2d: Sum(rhs),rhsMax =  -2.32990293724811E-11  8.92106974049827E-02
 cg2d: Sum(rhs),rhsMax =  -2.34232633289366E-11  8.86820806998775E-02
 cg2d: Sum(rhs),rhsMax =  -2.35275132709489E-11  8.81532917224404E-02
 cg2d: Sum(rhs),rhsMax =  -2.33936203741791E-11  8.85352803728271E-02
 cg2d: Sum(rhs),rhsMax =  -2.31885621815309E-11  8.93092607523785E-02
 cg2d: Sum(rhs),rhsMax =  -2.30436780768173E-11  9.00726069384130E-02
 cg2d: Sum(rhs),rhsMax =  -2.28547181180261E-11  9.08255049876520E-02
 cg2d: Sum(rhs),rhsMax =  -2.27141638831085E-11  9.15682633414479E-02
 cg2d: Sum(rhs),rhsMax =  -2.25106600026947E-11  9.23009827940076E-02
 cg2d: Sum(rhs),rhsMax =  -2.23262519583045E-11  9.30234823651220E-02
 cg2d: Sum(rhs),rhsMax =  -2.21613838391477E-11  9.37354636073913E-02
 cg2d: Sum(rhs),rhsMax =  -2.20361506819700E-11  9.44364342397265E-02
 cg2d: Sum(rhs),rhsMax =  -2.18949303132376E-11  9.51259283270844E-02
 cg2d: Sum(rhs),rhsMax =  -2.17451612272157E-11  9.58036106650812E-02
 cg2d: Sum(rhs),rhsMax =  -2.16261453189759E-11  9.64692723723850E-02
 cg2d: Sum(rhs),rhsMax =  -2.14616102667264E-11  9.71226640005363E-02
 cg2d: Sum(rhs),rhsMax =  -2.12501127805353E-11  9.77634647560694E-02
 cg2d: Sum(rhs),rhsMax =  -2.10494954799856E-11  9.83912792553714E-02
 cg2d: Sum(rhs),rhsMax =  -2.08468797779915E-11  9.90056915011020E-02
 cg2d: Sum(rhs),rhsMax =  -2.06302752658871E-11  9.96064613964559E-02
 cg2d: Sum(rhs),rhsMax =  -2.04115613300360E-11  1.00193379715194E-01
 cg2d: Sum(rhs),rhsMax =  -2.02122762971157E-11  1.00766290127772E-01
 cg2d: Sum(rhs),rhsMax =  -2.00431893304653E-11  1.01325006123278E-01
 cg2d: Sum(rhs),rhsMax =  -1.99066318984364E-11  1.01869296818395E-01
 cg2d: Sum(rhs),rhsMax =  -1.97872829232892E-11  1.02398989489632E-01
 cg2d: Sum(rhs),rhsMax =  -1.97342142627122E-11  1.02913783779421E-01
 cg2d: Sum(rhs),rhsMax =  -1.96669347474199E-11  1.03413250662340E-01
 cg2d: Sum(rhs),rhsMax =  -1.95667926305987E-11  1.03898003349881E-01
 cg2d: Sum(rhs),rhsMax =  -1.94702032274563E-11  1.04366699326116E-01
 cg2d: Sum(rhs),rhsMax =  -1.94007032661148E-11  1.04818470530511E-01
 cg2d: Sum(rhs),rhsMax =  -1.92935667442384E-11  1.05253059415805E-01
 cg2d: Sum(rhs),rhsMax =  -1.91896498691335E-11  1.05670351758967E-01
 cg2d: Sum(rhs),rhsMax =  -1.91141547034590E-11  1.06070519672162E-01
 cg2d: Sum(rhs),rhsMax =  -1.90341076233835E-11  1.06453503703215E-01
 cg2d: Sum(rhs),rhsMax =  -1.89762650038006E-11  1.06819424389180E-01
 cg2d: Sum(rhs),rhsMax =  -1.89614990375730E-11  1.07168622317587E-01
 cg2d: Sum(rhs),rhsMax =  -1.89495086289071E-11  1.07501508797296E-01
 cg2d: Sum(rhs),rhsMax =  -1.90104598729590E-11  1.07818774867120E-01
 cg2d: Sum(rhs),rhsMax =  -1.91127114135270E-11  1.08120840065165E-01
 cg2d: Sum(rhs),rhsMax =  -1.90821802803498E-11  1.08408077188735E-01
 cg2d: Sum(rhs),rhsMax =  -1.91091586998482E-11  1.08680695767887E-01
 cg2d: Sum(rhs),rhsMax =  -1.89617210821780E-11  1.08938805022463E-01
 cg2d: Sum(rhs),rhsMax =  -1.88314919213894E-11  1.09182732144625E-01
 cg2d: Sum(rhs),rhsMax =  -1.86868298612808E-11  1.09412901244143E-01
 cg2d: Sum(rhs),rhsMax =  -1.85957915732615E-11  1.09629810537271E-01
 cg2d: Sum(rhs),rhsMax =  -1.84353643462032E-11  1.09833965711916E-01
 cg2d: Sum(rhs),rhsMax =  -1.83547621546154E-11  1.10025721549037E-01
 cg2d: Sum(rhs),rhsMax =  -1.82670545356700E-11  1.10205292165692E-01
 cg2d: Sum(rhs),rhsMax =  -1.81640258389848E-11  1.10372883549815E-01
 cg2d: Sum(rhs),rhsMax =  -1.80977455244147E-11  1.10528686801824E-01
 cg2d: Sum(rhs),rhsMax =  -1.80649939451882E-11  1.10672876058180E-01
 cg2d: Sum(rhs),rhsMax =  -1.80666592797252E-11  1.10805910260703E-01
 cg2d: Sum(rhs),rhsMax =  -1.80221393364377E-11  1.10928141345317E-01
 cg2d: Sum(rhs),rhsMax =  -1.80209180911106E-11  1.11039993538914E-01
 cg2d: Sum(rhs),rhsMax =  -1.80381265479923E-11  1.11141823023113E-01
 cg2d: Sum(rhs),rhsMax =  -1.79851689097177E-11  1.11233883350912E-01
 cg2d: Sum(rhs),rhsMax =  -1.79007919598462E-11  1.11316299133653E-01
 cg2d: Sum(rhs),rhsMax =  -1.77908798804083E-11  1.11389068932831E-01
 cg2d: Sum(rhs),rhsMax =  -1.77061698636294E-11  1.11452081478312E-01
 cg2d: Sum(rhs),rhsMax =  -1.76254566497391E-11  1.11505139507737E-01
 cg2d: Sum(rhs),rhsMax =  -1.75096603882707E-11  1.11547901498162E-01
 cg2d: Sum(rhs),rhsMax =  -1.74217307247204E-11  1.11580242043880E-01
 cg2d: Sum(rhs),rhsMax =  -1.73363545741267E-11  1.11601857313890E-01
 cg2d: Sum(rhs),rhsMax =  -1.72798442221733E-11  1.11612347959614E-01
 cg2d: Sum(rhs),rhsMax =  -1.72308833867874E-11  1.11611497829518E-01
 cg2d: Sum(rhs),rhsMax =  -1.71935798931599E-11  1.11598989114639E-01
 cg2d: Sum(rhs),rhsMax =  -1.72027947442643E-11  1.11574435799384E-01
 cg2d: Sum(rhs),rhsMax =  -1.72211134241707E-11  1.11537654117625E-01
 cg2d: Sum(rhs),rhsMax =  -1.72665215458778E-11  1.11488646177884E-01
 cg2d: Sum(rhs),rhsMax =  -1.72702963041615E-11  1.11427399044059E-01
 cg2d: Sum(rhs),rhsMax =  -1.72769576423093E-11  1.11354026716110E-01
 cg2d: Sum(rhs),rhsMax =  -1.72530878472799E-11  1.11268671318009E-01
 cg2d: Sum(rhs),rhsMax =  -1.72198921788436E-11  1.11171458453312E-01
 cg2d: Sum(rhs),rhsMax =  -1.72566405609587E-11  1.11062457128870E-01
 cg2d: Sum(rhs),rhsMax =  -1.72424297062435E-11  1.10941765148870E-01
 cg2d: Sum(rhs),rhsMax =  -1.72113434615540E-11  1.10809514316296E-01
 cg2d: Sum(rhs),rhsMax =  -1.71681557858960E-11  1.10665933165745E-01
 cg2d: Sum(rhs),rhsMax =  -1.71754832578586E-11  1.10511231658300E-01
 cg2d: Sum(rhs),rhsMax =  -1.71215264188618E-11  1.10345381256176E-01
 cg2d: Sum(rhs),rhsMax =  -1.70905511964747E-11  1.10168231607545E-01
 cg2d: Sum(rhs),rhsMax =  -1.70777836316915E-11  1.09979652664290E-01
 cg2d: Sum(rhs),rhsMax =  -1.70834457691171E-11  1.09779660022399E-01
 cg2d: Sum(rhs),rhsMax =  -1.71125336123623E-11  1.09568535717336E-01
 cg2d: Sum(rhs),rhsMax =  -1.71600511578163E-11  1.09346780890321E-01
 cg2d: Sum(rhs),rhsMax =  -1.71972436291412E-11  1.09114974027610E-01
 cg2d: Sum(rhs),rhsMax =  -1.72279968069233E-11  1.08873741176223E-01
 cg2d: Sum(rhs),rhsMax =  -1.72623026983842E-11  1.08623673768168E-01
 cg2d: Sum(rhs),rhsMax =  -1.72957204114255E-11  1.08365208821509E-01
 cg2d: Sum(rhs),rhsMax =  -1.73003833481289E-11  1.08098657929334E-01
 cg2d: Sum(rhs),rhsMax =  -1.73520087187740E-11  1.07824259254702E-01
 cg2d: Sum(rhs),rhsMax =  -1.73899783462161E-11  1.07542141403177E-01
 cg2d: Sum(rhs),rhsMax =  -1.74414926945587E-11  1.07252332208946E-01
 cg2d: Sum(rhs),rhsMax =  -1.74662506680079E-11  1.06954810148023E-01
 cg2d: Sum(rhs),rhsMax =  -1.74287251297756E-11  1.06649484637873E-01
 cg2d: Sum(rhs),rhsMax =  -1.74047443124437E-11  1.06336123339502E-01
 cg2d: Sum(rhs),rhsMax =  -1.74071868030978E-11  1.06014526270995E-01
 cg2d: Sum(rhs),rhsMax =  -1.74518177686878E-11  1.05684570839686E-01
 cg2d: Sum(rhs),rhsMax =  -1.74986691803269E-11  1.05346361552133E-01
 cg2d: Sum(rhs),rhsMax =  -1.74846803702167E-11  1.05000214350822E-01
 cg2d: Sum(rhs),rhsMax =  -1.74656955564956E-11  1.04646687733172E-01
 cg2d: Sum(rhs),rhsMax =  -1.74684711140571E-11  1.04286436579661E-01
 cg2d: Sum(rhs),rhsMax =  -1.74305014866150E-11  1.03919986141207E-01
 cg2d: Sum(rhs),rhsMax =  -1.74126268959185E-11  1.03547869515836E-01
 cg2d: Sum(rhs),rhsMax =  -1.74507075456631E-11  1.03170431475074E-01
 cg2d: Sum(rhs),rhsMax =  -1.75094383436658E-11  1.02787830594958E-01
 cg2d: Sum(rhs),rhsMax =  -1.75179870609554E-11  1.02400100984966E-01
 cg2d: Sum(rhs),rhsMax =  -1.75152115033939E-11  1.02007252096535E-01
 cg2d: Sum(rhs),rhsMax =  -1.75061076745919E-11  1.01609435405037E-01
 cg2d: Sum(rhs),rhsMax =  -1.75051084738698E-11  1.01206874960145E-01
 cg2d: Sum(rhs),rhsMax =  -1.73555614324528E-11  1.02047667031165E-01
 cg2d: Sum(rhs),rhsMax =  -1.68459690641498E-11  1.04824468483919E-01
 cg2d: Sum(rhs),rhsMax =  -1.64576130501359E-11  1.07368940714686E-01
 cg2d: Sum(rhs),rhsMax =  -1.60781388203191E-11  1.09609249741242E-01
 cg2d: Sum(rhs),rhsMax =  -1.57479584927955E-11  1.11616384994821E-01
 cg2d: Sum(rhs),rhsMax =  -1.54768420301821E-11  1.13317385547174E-01
 cg2d: Sum(rhs),rhsMax =  -1.53097534649760E-11  1.14717702382313E-01
 cg2d: Sum(rhs),rhsMax =  -1.50692791578422E-11  1.15838693048398E-01
 cg2d: Sum(rhs),rhsMax =  -1.49318335473936E-11  1.16628109979877E-01
 cg2d: Sum(rhs),rhsMax =  -1.48584478054659E-11  1.17109942348946E-01
 cg2d: Sum(rhs),rhsMax =  -1.48308032521527E-11  1.17289607781704E-01
 cg2d: Sum(rhs),rhsMax =  -1.48547840694846E-11  1.17149035925325E-01
 cg2d: Sum(rhs),rhsMax =  -1.48859813364766E-11  1.16724698944105E-01
 cg2d: Sum(rhs),rhsMax =  -1.49136258897897E-11  1.15994211383604E-01
 cg2d: Sum(rhs),rhsMax =  -1.50121026720740E-11  1.14960428081336E-01
 cg2d: Sum(rhs),rhsMax =  -1.51830770178663E-11  1.13642101311806E-01
 cg2d: Sum(rhs),rhsMax =  -1.53611567910161E-11  1.12045449041081E-01
 cg2d: Sum(rhs),rhsMax =  -1.55709889426703E-11  1.10168256864561E-01
 cg2d: Sum(rhs),rhsMax =  -1.58472124311970E-11  1.08065007590200E-01
 cg2d: Sum(rhs),rhsMax =  -1.61484159377778E-11  1.05629465222336E-01
 cg2d: Sum(rhs),rhsMax =  -1.65919500361156E-11  1.02967741088863E-01
 cg2d: Sum(rhs),rhsMax =  -1.70962133339003E-11  1.00079901172331E-01
 cg2d: Sum(rhs),rhsMax =  -1.76570980059410E-11  9.69253289827296E-02
 cg2d: Sum(rhs),rhsMax =  -1.82420745176159E-11  9.38805922074064E-02
 cg2d: Sum(rhs),rhsMax =  -1.82059922693156E-11  9.41053452647435E-02
 cg2d: Sum(rhs),rhsMax =  -1.81233916762835E-11  9.43247986031911E-02
 cg2d: Sum(rhs),rhsMax =  -1.80412351724613E-11  9.45218341289740E-02
 cg2d: Sum(rhs),rhsMax =  -1.79228853980362E-11  9.47335066268072E-02
 cg2d: Sum(rhs),rhsMax =  -1.77851067206802E-11  9.49546888064746E-02
 cg2d: Sum(rhs),rhsMax =  -1.76764158865694E-11  9.51779072876183E-02
 cg2d: Sum(rhs),rhsMax =  -1.76283432296032E-11  9.54016774794795E-02
 cg2d: Sum(rhs),rhsMax =  -1.75561787330025E-11  9.56258232674346E-02
 cg2d: Sum(rhs),rhsMax =  -1.75336412056026E-11  9.58497818598575E-02
 cg2d: Sum(rhs),rhsMax =  -1.74502634564533E-11  9.62886272453241E-02
 cg2d: Sum(rhs),rhsMax =  -1.67503788617296E-11  1.00392878503231E-01
 cg2d: Sum(rhs),rhsMax =  -1.60973456786451E-11  1.04250135984787E-01
 cg2d: Sum(rhs),rhsMax =  -1.55863100204101E-11  1.07917416190851E-01
 cg2d: Sum(rhs),rhsMax =  -1.50565115930590E-11  1.11369891125128E-01
 cg2d: Sum(rhs),rhsMax =  -1.45524703398792E-11  1.14553047088862E-01
 cg2d: Sum(rhs),rhsMax =  -1.41268108322379E-11  1.17434604794166E-01
 cg2d: Sum(rhs),rhsMax =  -1.37726496873825E-11  1.20016569102473E-01
 cg2d: Sum(rhs),rhsMax =  -1.34323663303348E-11  1.22425054827712E-01
 cg2d: Sum(rhs),rhsMax =  -1.31359367827599E-11  1.24458822237458E-01
 cg2d: Sum(rhs),rhsMax =  -1.28945742972064E-11  1.26247051691853E-01
 cg2d: Sum(rhs),rhsMax =  -1.27198251931304E-11  1.27650511251094E-01
 cg2d: Sum(rhs),rhsMax =  -1.25586208099548E-11  1.28702015074900E-01
 cg2d: Sum(rhs),rhsMax =  -1.23911991778414E-11  1.29456880206360E-01
 cg2d: Sum(rhs),rhsMax =  -1.22344356867643E-11  1.29910109786464E-01
 cg2d: Sum(rhs),rhsMax =  -1.20772281064774E-11  1.30048941974566E-01
 cg2d: Sum(rhs),rhsMax =  -1.20234933120855E-11  1.29875252799700E-01
 cg2d: Sum(rhs),rhsMax =  -1.21015419907167E-11  1.29381748699668E-01
 cg2d: Sum(rhs),rhsMax =  -1.22082344233831E-11  1.28569109473789E-01
 cg2d: Sum(rhs),rhsMax =  -1.23550059072386E-11  1.27465104848343E-01
 cg2d: Sum(rhs),rhsMax =  -1.25217614055373E-11  1.26064673494016E-01
 cg2d: Sum(rhs),rhsMax =  -1.26632038188745E-11  1.24387192535502E-01
 cg2d: Sum(rhs),rhsMax =  -1.29326549469511E-11  1.22431318963562E-01
 cg2d: Sum(rhs),rhsMax =  -1.32198696434216E-11  1.20194049875538E-01
 cg2d: Sum(rhs),rhsMax =  -1.35674804724317E-11  1.17672314652403E-01
 cg2d: Sum(rhs),rhsMax =  -1.39336320259531E-11  1.14895667394735E-01
 cg2d: Sum(rhs),rhsMax =  -1.43246525752261E-11  1.11858573584486E-01
 cg2d: Sum(rhs),rhsMax =  -1.47484247037255E-11  1.08590322842724E-01
 cg2d: Sum(rhs),rhsMax =  -1.51996193409332E-11  1.05128179765403E-01
 cg2d: Sum(rhs),rhsMax =  -1.55828683290338E-11  1.02469325568289E-01
 cg2d: Sum(rhs),rhsMax =  -1.54901647064776E-11  1.02692565249489E-01
 cg2d: Sum(rhs),rhsMax =  -1.54080082026553E-11  1.02934119856142E-01
 cg2d: Sum(rhs),rhsMax =  -1.53366208621719E-11  1.03184312168248E-01
 cg2d: Sum(rhs),rhsMax =  -1.52916568296746E-11  1.03426453758369E-01
 cg2d: Sum(rhs),rhsMax =  -1.52479140425044E-11  1.03674190619349E-01
 cg2d: Sum(rhs),rhsMax =  -1.52374779460729E-11  1.03931261911541E-01
(PID.TID 0000.0001)      cg2d_init_res =   1.11963193396485E-01
(PID.TID 0000.0001)      cg2d_iters(min,last) =      -1      29
(PID.TID 0000.0001)      cg2d_last_res =   9.81207238877298E-14
(PID.TID 0000.0001) // =======================================================
(PID.TID 0000.0001) // Begin MONITOR dynamic field statistics
(PID.TID 0000.0001) // =======================================================
(PID.TID 0000.0001) %MON time_tsnumber                =                  7200
(PID.TID 0000.0001) %MON time_secondsf                =   1.0800000000000E+05
(PID.TID 0000.0001) %MON dynstat_eta_max              =   8.5385628170860E-03
(PID.TID 0000.0001) %MON dynstat_eta_min              =  -1.3960206637311E-02
(PID.TID 0000.0001) %MON dynstat_eta_mean             =   1.8279188849717E-15
(PID.TID 0000.0001) %MON dynstat_eta_sd               =   4.6089723844906E-03
(PID.TID 0000.0001) %MON dynstat_eta_del2             =   1.3755170947321E-04
(PID.TID 0000.0001) %MON dynstat_uvel_max             =   1.2572658173789E+00
(PID.TID 0000.0001) %MON dynstat_uvel_min             =  -5.3722473356718E-01
(PID.TID 0000.0001) %MON dynstat_uvel_mean            =  -9.6100330667423E-05
(PID.TID 0000.0001) %MON dynstat_uvel_sd              =   1.6400200281582E-01
(PID.TID 0000.0001) %MON dynstat_uvel_del2            =   6.8693484558467E-04
(PID.TID 0000.0001) %MON dynstat_vvel_max             =   0.0000000000000E+00
(PID.TID 0000.0001) %MON dynstat_vvel_min             =   0.0000000000000E+00
(PID.TID 0000.0001) %MON dynstat_vvel_mean            =   0.0000000000000E+00
(PID.TID 0000.0001) %MON dynstat_vvel_sd              =   0.0000000000000E+00
(PID.TID 0000.0001) %MON dynstat_vvel_del2            =   0.0000000000000E+00
(PID.TID 0000.0001) %MON dynstat_wvel_max             =   3.5923565051259E-02
(PID.TID 0000.0001) %MON dynstat_wvel_min             =  -2.9255142567684E-02
(PID.TID 0000.0001) %MON dynstat_wvel_mean            =  -1.5359943227343E-19
(PID.TID 0000.0001) %MON dynstat_wvel_sd              =   3.6928669160644E-03
(PID.TID 0000.0001) %MON dynstat_wvel_del2            =   7.6132203872204E-05
(PID.TID 0000.0001) %MON dynstat_theta_max            =   1.5000000000013E+01
(PID.TID 0000.0001) %MON dynstat_theta_min            =   9.9999999999918E+00
(PID.TID 0000.0001) %MON dynstat_theta_mean           =   1.3054014580876E+01
(PID.TID 0000.0001) %MON dynstat_theta_sd             =   2.3058850969682E+00
(PID.TID 0000.0001) %MON dynstat_theta_del2           =   1.7194421357176E-03
(PID.TID 0000.0001) %MON dynstat_salt_max             =   3.5000000000000E+01
(PID.TID 0000.0001) %MON dynstat_salt_min             =   3.5000000000000E+01
(PID.TID 0000.0001) %MON dynstat_salt_mean            =   3.5000000000000E+01
(PID.TID 0000.0001) %MON dynstat_salt_sd              =   7.1054273576010E-15
(PID.TID 0000.0001) %MON dynstat_salt_del2            =   0.0000000000000E+00
(PID.TID 0000.0001) %MON dynstat_sst_max              =   1.5000000000013E+01
(PID.TID 0000.0001) %MON dynstat_sst_min              =   1.4987211171236E+01
(PID.TID 0000.0001) %MON dynstat_sst_mean             =   1.4999460128733E+01
(PID.TID 0000.0001) %MON dynstat_sst_sd               =   1.8908791007472E-03
(PID.TID 0000.0001) %MON dynstat_sst_del2             =   5.3131754676000E-05
(PID.TID 0000.0001) %MON dynstat_sss_max              =   3.5000000000000E+01
(PID.TID 0000.0001) %MON dynstat_sss_min              =   3.5000000000000E+01
(PID.TID 0000.0001) %MON dynstat_sss_mean             =   3.5000000000000E+01
(PID.TID 0000.0001) %MON dynstat_sss_sd               =   0.0000000000000E+00
(PID.TID 0000.0001) %MON dynstat_sss_del2             =   0.0000000000000E+00
(PID.TID 0000.0001) %MON forcing_qnet_max             =   0.0000000000000E+00
(PID.TID 0000.0001) %MON forcing_qnet_min             =   0.0000000000000E+00
(PID.TID 0000.0001) %MON forcing_qnet_mean            =   0.0000000000000E+00
(PID.TID 0000.0001) %MON forcing_qnet_sd              =   0.0000000000000E+00
(PID.TID 0000.0001) %MON forcing_qnet_del2            =   0.0000000000000E+00
(PID.TID 0000.0001) %MON forcing_qsw_max              =   0.0000000000000E+00
(PID.TID 0000.0001) %MON forcing_qsw_min              =   0.0000000000000E+00
(PID.TID 0000.0001) %MON forcing_qsw_mean             =   0.0000000000000E+00
(PID.TID 0000.0001) %MON forcing_qsw_sd               =   0.0000000000000E+00
(PID.TID 0000.0001) %MON forcing_qsw_del2             =   0.0000000000000E+00
(PID.TID 0000.0001) %MON forcing_empmr_max            =   0.0000000000000E+00
(PID.TID 0000.0001) %MON forcing_empmr_min            =   0.0000000000000E+00
(PID.TID 0000.0001) %MON forcing_empmr_mean           =   0.0000000000000E+00
(PID.TID 0000.0001) %MON forcing_empmr_sd             =   0.0000000000000E+00
(PID.TID 0000.0001) %MON forcing_empmr_del2           =   0.0000000000000E+00
(PID.TID 0000.0001) %MON forcing_fu_max               =   0.0000000000000E+00
(PID.TID 0000.0001) %MON forcing_fu_min               =   0.0000000000000E+00
(PID.TID 0000.0001) %MON forcing_fu_mean              =   0.0000000000000E+00
(PID.TID 0000.0001) %MON forcing_fu_sd                =   0.0000000000000E+00
(PID.TID 0000.0001) %MON forcing_fu_del2              =   0.0000000000000E+00
(PID.TID 0000.0001) %MON forcing_fv_max               =   0.0000000000000E+00
(PID.TID 0000.0001) %MON forcing_fv_min               =   0.0000000000000E+00
(PID.TID 0000.0001) %MON forcing_fv_mean              =   0.0000000000000E+00
(PID.TID 0000.0001) %MON forcing_fv_sd                =   0.0000000000000E+00
(PID.TID 0000.0001) %MON forcing_fv_del2              =   0.0000000000000E+00
(PID.TID 0000.0001) %MON advcfl_uvel_max              =   6.8243787942882E-02
(PID.TID 0000.0001) %MON advcfl_vvel_max              =   0.0000000000000E+00
(PID.TID 0000.0001) %MON advcfl_wvel_max              =   3.8442838476405E-01
(PID.TID 0000.0001) %MON advcfl_W_hf_max              =   3.8767444487098E-01
(PID.TID 0000.0001) %MON pe_b_mean                    =   5.9633394037635E-07
(PID.TID 0000.0001) %MON ke_max                       =   5.5110754527962E-01
(PID.TID 0000.0001) %MON ke_mean                      =   1.3597198246857E-02
(PID.TID 0000.0001) %MON ke_vol                       =   8.5336562999261E+10
(PID.TID 0000.0001) %MON vort_r_min                   =   0.0000000000000E+00
(PID.TID 0000.0001) %MON vort_r_max                   =   0.0000000000000E+00
(PID.TID 0000.0001) %MON vort_a_mean                  =   0.0000000000000E+00
(PID.TID 0000.0001) %MON vort_a_sd                    =   0.0000000000000E+00
(PID.TID 0000.0001) %MON vort_p_mean                  =   0.0000000000000E+00
(PID.TID 0000.0001) %MON vort_p_sd                    =   0.0000000000000E+00
(PID.TID 0000.0001) %MON surfExpan_theta_mean         =  -2.6086754146953E-10
(PID.TID 0000.0001) %MON surfExpan_salt_mean          =  -3.7335927564894E-18
(PID.TID 0000.0001) // =======================================================
(PID.TID 0000.0001) // End MONITOR dynamic field statistics
(PID.TID 0000.0001) // =======================================================
(PID.TID 0000.0001) // =======================================================
(PID.TID 0000.0001) // Begin OBCS MONITOR field statistics
(PID.TID 0000.0001) // =======================================================
(PID.TID 0000.0001) %MON obc_E_uVel_max               =   0.0000000000000E+00
(PID.TID 0000.0001) %MON obc_E_uVel_min               =   0.0000000000000E+00
(PID.TID 0000.0001) %MON obc_E_uVel_mean              =   0.0000000000000E+00
(PID.TID 0000.0001) %MON obc_E_uVel_sd                =   0.0000000000000E+00
(PID.TID 0000.0001) %MON obc_E_uVel_Int               =   0.0000000000000E+00
(PID.TID 0000.0001) %MON obc_W_uVel_max               =   0.0000000000000E+00
(PID.TID 0000.0001) %MON obc_W_uVel_min               =   0.0000000000000E+00
(PID.TID 0000.0001) %MON obc_W_uVel_mean              =   0.0000000000000E+00
(PID.TID 0000.0001) %MON obc_W_uVel_sd                =   0.0000000000000E+00
(PID.TID 0000.0001) %MON obc_W_uVel_Int               =   0.0000000000000E+00
(PID.TID 0000.0001) // =======================================================
(PID.TID 0000.0001) // End OBCS MONITOR field statistics
(PID.TID 0000.0001) // =======================================================
(PID.TID 0000.0001) %CHECKPOINT      7200 0000007200
(PID.TID 0000.0001)   Seconds in section "ALL                    [THE_MODEL_MAIN]":
(PID.TID 0000.0001)           User time:   272.36000000000001
(PID.TID 0000.0001)         System time:  0.31000000000000000
(PID.TID 0000.0001)     Wall clock time:   272.96627783775330
(PID.TID 0000.0001)          No. starts:           1
(PID.TID 0000.0001)           No. stops:           1
(PID.TID 0000.0001)   Seconds in section "INITIALISE_FIXED       [THE_MODEL_MAIN]":
(PID.TID 0000.0001)           User time:   2.0000000000000000E-002
(PID.TID 0000.0001)         System time:   0.0000000000000000
(PID.TID 0000.0001)     Wall clock time:   3.6164999008178711E-002
(PID.TID 0000.0001)          No. starts:           1
(PID.TID 0000.0001)           No. stops:           1
(PID.TID 0000.0001)   Seconds in section "THE_MAIN_LOOP          [THE_MODEL_MAIN]":
(PID.TID 0000.0001)           User time:   272.34000000000003
(PID.TID 0000.0001)         System time:  0.31000000000000000
(PID.TID 0000.0001)     Wall clock time:   272.93008112907410
(PID.TID 0000.0001)          No. starts:           1
(PID.TID 0000.0001)           No. stops:           1
(PID.TID 0000.0001)   Seconds in section "INITIALISE_VARIA    [THE_MAIN_LOOP]":
(PID.TID 0000.0001)           User time:   2.0000000000000000E-002
(PID.TID 0000.0001)         System time:   1.0000000000000000E-002
(PID.TID 0000.0001)     Wall clock time:   1.5770912170410156E-002
(PID.TID 0000.0001)          No. starts:           1
(PID.TID 0000.0001)           No. stops:           1
(PID.TID 0000.0001)   Seconds in section "MAIN LOOP           [THE_MAIN_LOOP]":
(PID.TID 0000.0001)           User time:   272.31999999999999
(PID.TID 0000.0001)         System time:  0.29999999999999999
(PID.TID 0000.0001)     Wall clock time:   272.91427707672119
(PID.TID 0000.0001)          No. starts:           1
(PID.TID 0000.0001)           No. stops:           1
(PID.TID 0000.0001)   Seconds in section "MAIN_DO_LOOP        [THE_MAIN_LOOP]":
(PID.TID 0000.0001)           User time:   272.20999999998668
(PID.TID 0000.0001)         System time:  0.30000000000000032
(PID.TID 0000.0001)     Wall clock time:   272.84944796562195
(PID.TID 0000.0001)          No. starts:        7200
(PID.TID 0000.0001)           No. stops:        7200
(PID.TID 0000.0001)   Seconds in section "FORWARD_STEP        [MAIN_DO_LOOP]":
(PID.TID 0000.0001)           User time:   272.09999999998655
(PID.TID 0000.0001)         System time:  0.30000000000000032
(PID.TID 0000.0001)     Wall clock time:   272.71637964248657
(PID.TID 0000.0001)          No. starts:        7200
(PID.TID 0000.0001)           No. stops:        7200
(PID.TID 0000.0001)   Seconds in section "LOAD_FIELDS_DRIVER  [FORWARD_STEP]":
(PID.TID 0000.0001)           User time:  0.17999999999983629
(PID.TID 0000.0001)         System time:   0.0000000000000000
(PID.TID 0000.0001)     Wall clock time:  0.19857931137084961
(PID.TID 0000.0001)          No. starts:        7200
(PID.TID 0000.0001)           No. stops:        7200
(PID.TID 0000.0001)   Seconds in section "EXTERNAL_FLDS_LOAD [LOAD_FLDS_DRIVER]":
(PID.TID 0000.0001)           User time:   9.0000000000031832E-002
(PID.TID 0000.0001)         System time:   0.0000000000000000
(PID.TID 0000.0001)     Wall clock time:   6.6332340240478516E-002
(PID.TID 0000.0001)          No. starts:        7200
(PID.TID 0000.0001)           No. stops:        7200
(PID.TID 0000.0001)   Seconds in section "DO_ATMOSPHERIC_PHYS [FORWARD_STEP]":
(PID.TID 0000.0001)           User time:   7.9999999999927240E-002
(PID.TID 0000.0001)         System time:   0.0000000000000000
(PID.TID 0000.0001)     Wall clock time:   6.5818548202514648E-002
(PID.TID 0000.0001)          No. starts:        7200
(PID.TID 0000.0001)           No. stops:        7200
(PID.TID 0000.0001)   Seconds in section "DO_OCEANIC_PHYS     [FORWARD_STEP]":
(PID.TID 0000.0001)           User time:   95.329999999994243
(PID.TID 0000.0001)         System time:  0.10000000000000003
(PID.TID 0000.0001)     Wall clock time:   95.238262414932251
(PID.TID 0000.0001)          No. starts:        7200
(PID.TID 0000.0001)           No. stops:        7200
(PID.TID 0000.0001)   Seconds in section "DYNAMICS            [FORWARD_STEP]":
(PID.TID 0000.0001)           User time:   85.859999999995296
(PID.TID 0000.0001)         System time:   3.0000000000000027E-002
(PID.TID 0000.0001)     Wall clock time:   85.664617538452148
(PID.TID 0000.0001)          No. starts:        7200
(PID.TID 0000.0001)           No. stops:        7200
(PID.TID 0000.0001)   Seconds in section "SOLVE_FOR_PRESSURE  [FORWARD_STEP]":
(PID.TID 0000.0001)           User time:   2.6899999999986335
(PID.TID 0000.0001)         System time:   1.0000000000000009E-002
(PID.TID 0000.0001)     Wall clock time:   2.9547815322875977
(PID.TID 0000.0001)          No. starts:        7200
(PID.TID 0000.0001)           No. stops:        7200
(PID.TID 0000.0001)   Seconds in section "MOM_CORRECTION_STEP [FORWARD_STEP]":
(PID.TID 0000.0001)           User time:   3.2199999999987767
(PID.TID 0000.0001)         System time:   0.0000000000000000
(PID.TID 0000.0001)     Wall clock time:   3.0737485885620117
(PID.TID 0000.0001)          No. starts:        7200
(PID.TID 0000.0001)           No. stops:        7200
(PID.TID 0000.0001)   Seconds in section "INTEGR_CONTINUITY   [FORWARD_STEP]":
(PID.TID 0000.0001)           User time:   1.5299999999996885
(PID.TID 0000.0001)         System time:   1.0000000000000009E-002
(PID.TID 0000.0001)     Wall clock time:   1.5264625549316406
(PID.TID 0000.0001)          No. starts:        7200
(PID.TID 0000.0001)           No. stops:        7200
(PID.TID 0000.0001)   Seconds in section "BLOCKING_EXCHANGES  [FORWARD_STEP]":
(PID.TID 0000.0001)           User time:   7.3699999999931265
(PID.TID 0000.0001)         System time:   2.0000000000000018E-002
(PID.TID 0000.0001)     Wall clock time:   8.0796699523925781
(PID.TID 0000.0001)          No. starts:       14400
(PID.TID 0000.0001)           No. stops:       14400
(PID.TID 0000.0001)   Seconds in section "THERMODYNAMICS      [FORWARD_STEP]":
(PID.TID 0000.0001)           User time:   74.299999999991940
(PID.TID 0000.0001)         System time:  0.11000000000000010
(PID.TID 0000.0001)     Wall clock time:   74.144602537155151
(PID.TID 0000.0001)          No. starts:        7200
(PID.TID 0000.0001)           No. stops:        7200
(PID.TID 0000.0001)   Seconds in section "TRC_CORRECTION_STEP [FORWARD_STEP]":
(PID.TID 0000.0001)           User time:   6.9999999999936335E-002
(PID.TID 0000.0001)         System time:   0.0000000000000000
(PID.TID 0000.0001)     Wall clock time:   6.7100763320922852E-002
(PID.TID 0000.0001)          No. starts:        7200
(PID.TID 0000.0001)           No. stops:        7200
(PID.TID 0000.0001)   Seconds in section "MONITOR             [FORWARD_STEP]":
(PID.TID 0000.0001)           User time:  0.14999999999986358
(PID.TID 0000.0001)         System time:   0.0000000000000000
(PID.TID 0000.0001)     Wall clock time:  0.11013078689575195
(PID.TID 0000.0001)          No. starts:        7200
(PID.TID 0000.0001)           No. stops:        7200
(PID.TID 0000.0001)   Seconds in section "DO_THE_MODEL_IO     [FORWARD_STEP]":
(PID.TID 0000.0001)           User time:  0.17999999999989313
(PID.TID 0000.0001)         System time:   1.0000000000000009E-002
(PID.TID 0000.0001)     Wall clock time:  0.45536994934082031
(PID.TID 0000.0001)          No. starts:        7200
(PID.TID 0000.0001)           No. stops:        7200
(PID.TID 0000.0001)   Seconds in section "DO_WRITE_PICKUP     [FORWARD_STEP]":
(PID.TID 0000.0001)           User time:   5.9999999999945430E-002
(PID.TID 0000.0001)         System time:   1.0000000000000009E-002
(PID.TID 0000.0001)     Wall clock time:  0.13138151168823242
(PID.TID 0000.0001)          No. starts:        7200
(PID.TID 0000.0001)           No. stops:        7200
(PID.TID 0000.0001) // ======================================================
(PID.TID 0000.0001) // Tile <-> Tile communication statistics
(PID.TID 0000.0001) // ======================================================
(PID.TID 0000.0001) // o Tile number: 000001
(PID.TID 0000.0001) //         No. X exchanges =              0
(PID.TID 0000.0001) //            Max. X spins =              0
(PID.TID 0000.0001) //            Min. X spins =     1000000000
(PID.TID 0000.0001) //          Total. X spins =              0
(PID.TID 0000.0001) //            Avg. X spins =       0.00E+00
(PID.TID 0000.0001) //         No. Y exchanges =              0
(PID.TID 0000.0001) //            Max. Y spins =              0
(PID.TID 0000.0001) //            Min. Y spins =     1000000000
(PID.TID 0000.0001) //          Total. Y spins =              0
(PID.TID 0000.0001) //            Avg. Y spins =       0.00E+00
(PID.TID 0000.0001) // o Thread number: 000001
(PID.TID 0000.0001) //            No. barriers =        1329750
(PID.TID 0000.0001) //      Max. barrier spins =              1
(PID.TID 0000.0001) //      Min. barrier spins =              1
(PID.TID 0000.0001) //     Total barrier spins =        1329750
(PID.TID 0000.0001) //      Avg. barrier spins =       1.00E+00
PROGRAM MAIN: Execution ended Normally
