(PID.TID 0000.0001) 
(PID.TID 0000.0001) // ======================================================
(PID.TID 0000.0001) //                      MITgcm UV
(PID.TID 0000.0001) //                      =========
(PID.TID 0000.0001) // ======================================================
(PID.TID 0000.0001) // execution environment starting up...
(PID.TID 0000.0001) 
(PID.TID 0000.0001) // MITgcmUV version:  checkpoint65d
(PID.TID 0000.0001) // Build user:        hugke729
(PID.TID 0000.0001) // Build host:        hugke729
(PID.TID 0000.0001) // Build date:        Mon Apr 10 14:21:54 PDT 2017
(PID.TID 0000.0001) 
(PID.TID 0000.0001) // =======================================================
(PID.TID 0000.0001) // Execution Environment parameter file "eedata"
(PID.TID 0000.0001) // =======================================================
(PID.TID 0000.0001) ># Example "eedata" file
(PID.TID 0000.0001) ># Lines beginning "#" are comments
(PID.TID 0000.0001) ># nTx - No. threads per process in X
(PID.TID 0000.0001) ># nTy - No. threads per process in Y
(PID.TID 0000.0001) > &EEPARMS
(PID.TID 0000.0001) > /
(PID.TID 0000.0001) ># Note: Some systems use & as the
(PID.TID 0000.0001) ># namelist terminator. Other systems
(PID.TID 0000.0001) ># use a / character (as shown here).
(PID.TID 0000.0001) 
(PID.TID 0000.0001) // =======================================================
(PID.TID 0000.0001) // Computational Grid Specification ( see files "SIZE.h" )
(PID.TID 0000.0001) //                                  ( and "eedata"       )
(PID.TID 0000.0001) // =======================================================
(PID.TID 0000.0001)      nPx =    1 ; /* No. processes in X */
(PID.TID 0000.0001)      nPy =    1 ; /* No. processes in Y */
(PID.TID 0000.0001)      nSx =    1 ; /* No. tiles in X per process */
(PID.TID 0000.0001)      nSy =    1 ; /* No. tiles in Y per process */
(PID.TID 0000.0001)      sNx =  200 ; /* Tile size in X */
(PID.TID 0000.0001)      sNy =    1 ; /* Tile size in Y */
(PID.TID 0000.0001)      OLx =    2 ; /* Tile overlap distance in X */
(PID.TID 0000.0001)      OLy =    2 ; /* Tile overlap distance in Y */
(PID.TID 0000.0001)      nTx =    1 ; /* No. threads in X per process */
(PID.TID 0000.0001)      nTy =    1 ; /* No. threads in Y per process */
(PID.TID 0000.0001)       Nr =  100 ; /* No. levels in the vertical   */
(PID.TID 0000.0001)       Nx =  200 ; /* Total domain size in X ( = nPx*nSx*sNx ) */
(PID.TID 0000.0001)       Ny =    1 ; /* Total domain size in Y ( = nPy*nSy*sNy ) */
(PID.TID 0000.0001)   nTiles =    1 ; /* Total no. tiles per process ( = nSx*nSy ) */
(PID.TID 0000.0001)   nProcs =    1 ; /* Total no. processes ( = nPx*nPy ) */
(PID.TID 0000.0001) nThreads =    1 ; /* Total no. threads per process ( = nTx*nTy ) */
(PID.TID 0000.0001) usingMPI =    F ; /* Flag used to control whether MPI is in use */
(PID.TID 0000.0001)                   /*  note: To execute a program with MPI calls */
(PID.TID 0000.0001)                   /*  it must be launched appropriately e.g     */
(PID.TID 0000.0001)                   /*  "mpirun -np 64 ......"                    */
(PID.TID 0000.0001) useCoupler=    F ;/* Flag used to control communications with   */
(PID.TID 0000.0001)                   /*  other model components, through a coupler */
(PID.TID 0000.0001) debugMode =    F ; /* print debug msg. (sequence of S/R calls)  */
(PID.TID 0000.0001) printMapIncludesZeros=    F ; /* print zeros in Std.Output maps */
(PID.TID 0000.0001) maxLengthPrt1D=   65 /* maxLength of 1D array printed to StdOut */
(PID.TID 0000.0001) 
(PID.TID 0000.0001) // ======================================================
(PID.TID 0000.0001) // Mapping of tiles to threads
(PID.TID 0000.0001) // ======================================================
(PID.TID 0000.0001) // -o- Thread   1, tiles (   1:   1,   1:   1)
(PID.TID 0000.0001) 
(PID.TID 0000.0001) // ======================================================
(PID.TID 0000.0001) // Tile <-> Tile connectvity table
(PID.TID 0000.0001) // ======================================================
(PID.TID 0000.0001) // Tile number: 000001 (process no. = 000000)
(PID.TID 0000.0001) //        WEST: Tile = 000001, Process = 000000, Comm = put
(PID.TID 0000.0001) //                bi = 000001, bj = 000001
(PID.TID 0000.0001) //        EAST: Tile = 000001, Process = 000000, Comm = put
(PID.TID 0000.0001) //                bi = 000001, bj = 000001
(PID.TID 0000.0001) //       SOUTH: Tile = 000001, Process = 000000, Comm = put
(PID.TID 0000.0001) //                bi = 000001, bj = 000001
(PID.TID 0000.0001) //       NORTH: Tile = 000001, Process = 000000, Comm = put
(PID.TID 0000.0001) //                bi = 000001, bj = 000001
(PID.TID 0000.0001) 
(PID.TID 0000.0001)  INI_PARMS: opening model parameter file "data"
(PID.TID 0000.0001)  OPEN_COPY_DATA_FILE: opening file data
(PID.TID 0000.0001) // =======================================================
(PID.TID 0000.0001) // Parameter file "data"
(PID.TID 0000.0001) // =======================================================
(PID.TID 0000.0001) ># ====================
(PID.TID 0000.0001) ># | Model parameters |
(PID.TID 0000.0001) ># ====================
(PID.TID 0000.0001) >#
(PID.TID 0000.0001) ># See src/ini_parms.F for possible parameters.
(PID.TID 0000.0001) >#
(PID.TID 0000.0001) ># Continuous equation parameters
(PID.TID 0000.0001) > &PARM01
(PID.TID 0000.0001) > tRefFile='Tref.bin'
(PID.TID 0000.0001) > sRef= 25*35.,
(PID.TID 0000.0001) > viscAz=1.E-5,
(PID.TID 0000.0001) > viscAh=1.E-4,
(PID.TID 0000.0001) > no_slip_sides=.FALSE.,
(PID.TID 0000.0001) > no_slip_bottom=.FALSE.,
(PID.TID 0000.0001) > viscA4=0.E12,
(PID.TID 0000.0001) > diffKhT=1.E-4,
(PID.TID 0000.0001) > diffKzT=1.E-5,
(PID.TID 0000.0001) > diffKhS=1.E3,
(PID.TID 0000.0001) > diffKzS=1.E-5,
(PID.TID 0000.0001) > f0=0.E-4,
(PID.TID 0000.0001) > beta=0.0E-11,
(PID.TID 0000.0001) > tAlpha=2.E-4,
(PID.TID 0000.0001) > sBeta =0.E-4,
(PID.TID 0000.0001) > gravity=9.81,
(PID.TID 0000.0001) > gBaro=9.81,
(PID.TID 0000.0001) > rigidLid=.FALSE.,
(PID.TID 0000.0001) > implicitFreeSurface=.TRUE.,
(PID.TID 0000.0001) > eosType='LINEAR',
(PID.TID 0000.0001) > nonHydrostatic=.FALSE.,
(PID.TID 0000.0001) > readBinaryPrec=64,
(PID.TID 0000.0001) > useSingleCpuIO=.TRUE.
(PID.TID 0000.0001) > writeBinaryPrec=64,
(PID.TID 0000.0001) > writeStatePrec=64,
(PID.TID 0000.0001) > saltStepping=.FALSE.,
(PID.TID 0000.0001) ># minimum cell fraction.  This reduces steppiness..
(PID.TID 0000.0001) >  hFacMin=0.1,
(PID.TID 0000.0001) >  exactConserv=.FALSE.,
(PID.TID 0000.0001) >  implicitDiffusion=.TRUE.
(PID.TID 0000.0001) >  implicitViscosity=.TRUE.
(PID.TID 0000.0001) ># Superbee on:
(PID.TID 0000.0001) > tempAdvScheme=77,
(PID.TID 0000.0001) > staggerTimeStep=.TRUE.,
(PID.TID 0000.0001) >/
(PID.TID 0000.0001) >
(PID.TID 0000.0001) ># Elliptic solver parameters
(PID.TID 0000.0001) > &PARM02
(PID.TID 0000.0001) > cg2dMaxIters=1000,
(PID.TID 0000.0001) > cg2dTargetResidual=1.E-13,
(PID.TID 0000.0001) > cg3dMaxIters=400,
(PID.TID 0000.0001) > cg3dTargetResidual=1.E-13,
(PID.TID 0000.0001) >/
(PID.TID 0000.0001) >
(PID.TID 0000.0001) ># Time stepping parameters
(PID.TID 0000.0001) > &PARM03
(PID.TID 0000.0001) > niter0=0,
(PID.TID 0000.0001) ># times are in s
(PID.TID 0000.0001) > startTime=0,
(PID.TID 0000.0001) > endTime=108000,
(PID.TID 0000.0001) > deltaT=15,
(PID.TID 0000.0001) > abEps=0.1,
(PID.TID 0000.0001) ># once per tide checkpoint...
(PID.TID 0000.0001) > pChkptFreq=21600,
(PID.TID 0000.0001) > chkptFreq=0.0,
(PID.TID 0000.0001) > dumpFreq=7200,
(PID.TID 0000.0001) > monitorFreq=7200,
(PID.TID 0000.0001) ># Forcing for boundary condition files
(PID.TID 0000.0001) > periodicExternalForcing=.FALSE.,
(PID.TID 0000.0001) >/
(PID.TID 0000.0001) >
(PID.TID 0000.0001) ># Gridding parameters
(PID.TID 0000.0001) > &PARM04
(PID.TID 0000.0001) > usingCartesianGrid=.TRUE.,
(PID.TID 0000.0001) > usingSphericalPolarGrid=.FALSE.,
(PID.TID 0000.0001) > delXfile='delXvar.bin',
(PID.TID 0000.0001) > delY=5.e3,
(PID.TID 0000.0001) > delRfile = 'delZvar.bin',
(PID.TID 0000.0001) >/
(PID.TID 0000.0001) >
(PID.TID 0000.0001) ># Input datasets
(PID.TID 0000.0001) > &PARM05
(PID.TID 0000.0001) > bathyFile='topo.bin',
(PID.TID 0000.0001) > hydrogThetaFile='T0.bin',
(PID.TID 0000.0001) > checkIniTemp=.FALSE.,
(PID.TID 0000.0001) > uVelInitFile='U0.bin',
(PID.TID 0000.0001) > /
(PID.TID 0000.0001) 
(PID.TID 0000.0001)  INI_PARMS ; starts to read PARM01
(PID.TID 0000.0001)  INI_PARMS ; read PARM01 : OK
(PID.TID 0000.0001)  INI_PARMS ; starts to read PARM02
(PID.TID 0000.0001)  INI_PARMS ; read PARM02 : OK
(PID.TID 0000.0001)  INI_PARMS ; starts to read PARM03
(PID.TID 0000.0001)  INI_PARMS ; read PARM03 : OK
(PID.TID 0000.0001)  INI_PARMS ; starts to read PARM04
(PID.TID 0000.0001)  INI_PARMS ; read PARM04 : OK
(PID.TID 0000.0001)  INI_PARMS ; starts to read PARM05
(PID.TID 0000.0001)  INI_PARMS ; read PARM05 : OK
(PID.TID 0000.0001)  INI_PARMS: finished reading file "data"
(PID.TID 0000.0001)  PACKAGES_BOOT: opening data.pkg
(PID.TID 0000.0001)  OPEN_COPY_DATA_FILE: opening file data.pkg
(PID.TID 0000.0001) // =======================================================
(PID.TID 0000.0001) // Parameter file "data.pkg"
(PID.TID 0000.0001) // =======================================================
(PID.TID 0000.0001) ># Packages
(PID.TID 0000.0001) > &PACKAGES
(PID.TID 0000.0001) > useOBCS=.TRUE.,
(PID.TID 0000.0001) > useKL10=.TRUE.,
(PID.TID 0000.0001) > useDIAGNOSTICS=.FALSE.,
(PID.TID 0000.0001) > useMNC=.FALSE.,
(PID.TID 0000.0001) > /
(PID.TID 0000.0001) 
(PID.TID 0000.0001)  PACKAGES_BOOT: finished reading data.pkg
(PID.TID 0000.0001)  PACKAGES_BOOT: On/Off package Summary
 --------  pkgs with a standard "usePKG" On/Off switch in "data.pkg":  --------
 pkg/obcs                 compiled   and   used ( useOBCS                  = T )
 pkg/kl10                 compiled   and   used ( useKL10                  = T )
 -------- pkgs without standard "usePKG" On/Off switch in "data.pkg":  --------
 pkg/generic_advdiff      compiled   and   used ( useGAD                   = T )
 pkg/mom_common           compiled   and   used ( momStepping              = T )
 pkg/mom_vecinv           compiled but not used ( +vectorInvariantMomentum = F )
 pkg/mom_fluxform         compiled   and   used ( & not vectorInvariantMom = T )
 pkg/monitor              compiled   and   used ( monitorFreq > 0.         = T )
 pkg/debug                compiled but not used ( debugMode                = F )
 pkg/rw                   compiled   and   used
 pkg/mdsio                compiled   and   used
(PID.TID 0000.0001)  PACKAGES_BOOT: End of package Summary
(PID.TID 0000.0001) 
(PID.TID 0000.0001)  OBCS_READPARMS: opening data.obcs
(PID.TID 0000.0001)  OPEN_COPY_DATA_FILE: opening file data.obcs
(PID.TID 0000.0001) // =======================================================
(PID.TID 0000.0001) // Parameter file "data.obcs"
(PID.TID 0000.0001) // =======================================================
(PID.TID 0000.0001) ># Open-boundaries
(PID.TID 0000.0001) > &OBCS_PARM01
(PID.TID 0000.0001) > OB_Iwest=1*1,
(PID.TID 0000.0001) > OB_Ieast=1*-1,
(PID.TID 0000.0001) > OB_Jnorth=100*0,
(PID.TID 0000.0001) > OB_Jsouth=100*0,
(PID.TID 0000.0001) > useOBCSsponge=.TRUE.,
(PID.TID 0000.0001) > OBEuFile='U_in.bin',
(PID.TID 0000.0001) > OBWuFile='U_in.bin',
(PID.TID 0000.0001) > OBEtFile='TE.bin',
(PID.TID 0000.0001) > OBWtFile='TW.bin',
(PID.TID 0000.0001) > useOBCSprescribe=.TRUE.,
(PID.TID 0000.0001) > /
(PID.TID 0000.0001) >
(PID.TID 0000.0001) ># Orlanski parameters
(PID.TID 0000.0001) > &OBCS_PARM02
(PID.TID 0000.0001) >/
(PID.TID 0000.0001) >
(PID.TID 0000.0001) ># Sponge layer parameters
(PID.TID 0000.0001) > &OBCS_PARM03
(PID.TID 0000.0001) > Urelaxobcsinner=1000.,
(PID.TID 0000.0001) > Urelaxobcsbound=100.,
(PID.TID 0000.0001) > Vrelaxobcsinner=1000.0,
(PID.TID 0000.0001) > Vrelaxobcsbound=100.0,
(PID.TID 0000.0001) > spongeThickness=10,
(PID.TID 0000.0001) > /
(PID.TID 0000.0001) 
(PID.TID 0000.0001)  OBCS_READPARMS: finished reading data.obcs
(PID.TID 0000.0001)  OB_indexUnset = /* unset OB index value (i.e. no OB) */
(PID.TID 0000.0001)                       0
(PID.TID 0000.0001)     ;
(PID.TID 0000.0001)  Northern OB global indices : OB_Jnorth =
(PID.TID 0000.0001)   200 @        0                            /* I =  1:200 */
(PID.TID 0000.0001)  Southern OB global indices : OB_Jsouth =
(PID.TID 0000.0001)   200 @        0                            /* I =  1:200 */
(PID.TID 0000.0001)  Eastern  OB global indices : OB_Ieast =
(PID.TID 0000.0001)                     200                     /* J =  1 */
(PID.TID 0000.0001)  Western  OB global indices : OB_Iwest =
(PID.TID 0000.0001)                       1                     /* J =  1 */
(PID.TID 0000.0001) 
(PID.TID 0000.0001)  KL10_READPARMS: opening data.kl10
(PID.TID 0000.0001)  OPEN_COPY_DATA_FILE: opening file data.kl10
(PID.TID 0000.0001) // =======================================================
(PID.TID 0000.0001) // Parameter file "data.kl10"
(PID.TID 0000.0001) // =======================================================
(PID.TID 0000.0001) ># =====================================================================
(PID.TID 0000.0001) ># | Parameters for Klymak and Legg (2010) vertical mixing scheme      |
(PID.TID 0000.0001) ># =====================================================================
(PID.TID 0000.0001) > &KL10_PARM01
(PID.TID 0000.0001) > KLwriteState=.TRUE.,
(PID.TID 0000.0001) >/
(PID.TID 0000.0001) 
(PID.TID 0000.0001)  KL10_READPARMS: finished reading data.kl10
(PID.TID 0000.0001) SET_PARMS: done
(PID.TID 0000.0001)  MDS_READVEC_LOC: open file: delXvar.bin
(PID.TID 0000.0001) S/R LOAD_GRID_SPACING: delX loaded from file: delXvar.bin
(PID.TID 0000.0001)  MDS_READVEC_LOC: open file: delZvar.bin
(PID.TID 0000.0001) S/R LOAD_GRID_SPACING: delR loaded from file: delZvar.bin
(PID.TID 0000.0001) Enter INI_VERTICAL_GRID: setInterFDr=    T ; setCenterDr=    F
(PID.TID 0000.0001) %MON XC_max                       =   9.9471849328752E+04
(PID.TID 0000.0001) %MON XC_min                       =   6.3164731900833E+02
(PID.TID 0000.0001) %MON XC_mean                      =   5.2906107272275E+04
(PID.TID 0000.0001) %MON XC_sd                        =   2.2139310392762E+04
(PID.TID 0000.0001) %MON XG_max                       =   9.8943698657505E+04
(PID.TID 0000.0001) %MON XG_min                       =   0.0000000000000E+00
(PID.TID 0000.0001) %MON XG_mean                      =   5.2656107272275E+04
(PID.TID 0000.0001) %MON XG_sd                        =   2.2172561685063E+04
(PID.TID 0000.0001) %MON DXC_max                      =   1.2503953509116E+03
(PID.TID 0000.0001) %MON DXC_min                      =   2.0000000000000E+02
(PID.TID 0000.0001) %MON DXC_mean                     =   5.0000000000000E+02
(PID.TID 0000.0001) %MON DXC_sd                       =   2.8531736750525E+02
(PID.TID 0000.0001) %MON DXF_max                      =   1.2632946380167E+03
(PID.TID 0000.0001) %MON DXF_min                      =   2.0000000000000E+02
(PID.TID 0000.0001) %MON DXF_mean                     =   5.0000000000000E+02
(PID.TID 0000.0001) %MON DXF_sd                       =   2.8547066202794E+02
(PID.TID 0000.0001) %MON DXG_max                      =   1.2632946380167E+03
(PID.TID 0000.0001) %MON DXG_min                      =   2.0000000000000E+02
(PID.TID 0000.0001) %MON DXG_mean                     =   5.0000000000000E+02
(PID.TID 0000.0001) %MON DXG_sd                       =   2.8547066202794E+02
(PID.TID 0000.0001) %MON DXV_max                      =   1.2503953509116E+03
(PID.TID 0000.0001) %MON DXV_min                      =   2.0000000000000E+02
(PID.TID 0000.0001) %MON DXV_mean                     =   5.0000000000000E+02
(PID.TID 0000.0001) %MON DXV_sd                       =   2.8531736750525E+02
(PID.TID 0000.0001) %MON YC_max                       =   2.5000000000000E+03
(PID.TID 0000.0001) %MON YC_min                       =   2.5000000000000E+03
(PID.TID 0000.0001) %MON YC_mean                      =   2.5000000000000E+03
(PID.TID 0000.0001) %MON YC_sd                        =   0.0000000000000E+00
(PID.TID 0000.0001) %MON YG_max                       =   0.0000000000000E+00
(PID.TID 0000.0001) %MON YG_min                       =   0.0000000000000E+00
(PID.TID 0000.0001) %MON YG_mean                      =   0.0000000000000E+00
(PID.TID 0000.0001) %MON YG_sd                        =   0.0000000000000E+00
(PID.TID 0000.0001) %MON DYC_max                      =   5.0000000000000E+03
(PID.TID 0000.0001) %MON DYC_min                      =   5.0000000000000E+03
(PID.TID 0000.0001) %MON DYC_mean                     =   5.0000000000000E+03
(PID.TID 0000.0001) %MON DYC_sd                       =   0.0000000000000E+00
(PID.TID 0000.0001) %MON DYF_max                      =   5.0000000000000E+03
(PID.TID 0000.0001) %MON DYF_min                      =   5.0000000000000E+03
(PID.TID 0000.0001) %MON DYF_mean                     =   5.0000000000000E+03
(PID.TID 0000.0001) %MON DYF_sd                       =   0.0000000000000E+00
(PID.TID 0000.0001) %MON DYG_max                      =   5.0000000000000E+03
(PID.TID 0000.0001) %MON DYG_min                      =   5.0000000000000E+03
(PID.TID 0000.0001) %MON DYG_mean                     =   5.0000000000000E+03
(PID.TID 0000.0001) %MON DYG_sd                       =   0.0000000000000E+00
(PID.TID 0000.0001) %MON DYU_max                      =   5.0000000000000E+03
(PID.TID 0000.0001) %MON DYU_min                      =   5.0000000000000E+03
(PID.TID 0000.0001) %MON DYU_mean                     =   5.0000000000000E+03
(PID.TID 0000.0001) %MON DYU_sd                       =   0.0000000000000E+00
(PID.TID 0000.0001) %MON RA_max                       =   6.3164731900833E+06
(PID.TID 0000.0001) %MON RA_min                       =   1.0000000000000E+06
(PID.TID 0000.0001) %MON RA_mean                      =   2.5000000000000E+06
(PID.TID 0000.0001) %MON RA_sd                        =   1.4273533101397E+06
(PID.TID 0000.0001) %MON RAW_max                      =   6.2519767545581E+06
(PID.TID 0000.0001) %MON RAW_min                      =   1.0000000000000E+06
(PID.TID 0000.0001) %MON RAW_mean                     =   2.5000000000000E+06
(PID.TID 0000.0001) %MON RAW_sd                       =   1.4265868375263E+06
(PID.TID 0000.0001) %MON RAS_max                      =   6.3164731900833E+06
(PID.TID 0000.0001) %MON RAS_min                      =   1.0000000000000E+06
(PID.TID 0000.0001) %MON RAS_mean                     =   2.5000000000000E+06
(PID.TID 0000.0001) %MON RAS_sd                       =   1.4273533101397E+06
(PID.TID 0000.0001) %MON RAZ_max                      =   6.2519767545581E+06
(PID.TID 0000.0001) %MON RAZ_min                      =   1.0000000000000E+06
(PID.TID 0000.0001) %MON RAZ_mean                     =   2.5000000000000E+06
(PID.TID 0000.0001) %MON RAZ_sd                       =   1.4265868375263E+06
(PID.TID 0000.0001) %MON AngleCS_max                  =   1.0000000000000E+00
(PID.TID 0000.0001) %MON AngleCS_min                  =   1.0000000000000E+00
(PID.TID 0000.0001) %MON AngleCS_mean                 =   1.0000000000000E+00
(PID.TID 0000.0001) %MON AngleCS_sd                   =   0.0000000000000E+00
(PID.TID 0000.0001) %MON AngleSN_max                  =   0.0000000000000E+00
(PID.TID 0000.0001) %MON AngleSN_min                  =   0.0000000000000E+00
(PID.TID 0000.0001) %MON AngleSN_mean                 =   0.0000000000000E+00
(PID.TID 0000.0001) %MON AngleSN_sd                   =   0.0000000000000E+00
(PID.TID 0000.0001)  MDS_READVEC_LOC: open file: Tref.bin
(PID.TID 0000.0001) S/R LOAD_REF_FILES: tRef loaded from file: Tref.bin
(PID.TID 0000.0001)  MDS_READ_FIELD: opening global file: topo.bin
(PID.TID 0000.0001) // =======================================================
(PID.TID 0000.0001) // Field Model R_low (ini_masks_etc)
(PID.TID 0000.0001) // CMIN =         -1.999999999999999E+02
(PID.TID 0000.0001) // CMAX =         -1.300874453352793E+02
(PID.TID 0000.0001) // CINT =          2.589353876471134E+00
(PID.TID 0000.0001) // SYMBOLS (CMIN->CMAX): -abcdefghijklmnopqrstuvwxyz+
(PID.TID 0000.0001) //                  0.0: .
(PID.TID 0000.0001) // RANGE I (Lo:Hi:Step):(    -1:   202:     1)
(PID.TID 0000.0001) // RANGE J (Lo:Hi:Step):(     3:    -1:    -1)
(PID.TID 0000.0001) // RANGE K (Lo:Hi:Step):(   1:   1:   1)
(PID.TID 0000.0001) // =======================================================
(PID.TID 0000.0001) K =   1
(PID.TID 0000.0001) //                I=8       I=18      I=28      I=38      I=48      I=58      I=68      I=78      I=88      I=98      I=108     I=118     I=128     I=138     I=148     I=158     I=168     I=178     I=188     I=198
(PID.TID 0000.0001) // |--J--|101234567|901234567|901234567|901234567|901234567|901234567|901234567|901234567|901234567|901234567|901234567|901234567|901234567|901234567|901234567|901234567|901234567|901234567|901234567|901234567|9012
(PID.TID 0000.0001) //      3 --------------------------------------------------------------------------aaaabbccdefghiklnpqstvwxyz++++zyxwvtsqpnlkihgfedccbbaaaa--------------------------------------------------------------------------
(PID.TID 0000.0001) //      2 --------------------------------------------------------------------------aaaabbccdefghiklnpqstvwxyz++++zyxwvtsqpnlkihgfedccbbaaaa--------------------------------------------------------------------------
(PID.TID 0000.0001) //      1 --------------------------------------------------------------------------aaaabbccdefghiklnpqstvwxyz++++zyxwvtsqpnlkihgfedccbbaaaa--------------------------------------------------------------------------
(PID.TID 0000.0001) //      0 --------------------------------------------------------------------------aaaabbccdefghiklnpqstvwxyz++++zyxwvtsqpnlkihgfedccbbaaaa--------------------------------------------------------------------------
(PID.TID 0000.0001) //     -1 --------------------------------------------------------------------------aaaabbccdefghiklnpqstvwxyz++++zyxwvtsqpnlkihgfedccbbaaaa--------------------------------------------------------------------------
(PID.TID 0000.0001) // =======================================================
(PID.TID 0000.0001) // END OF FIELD                                          =
(PID.TID 0000.0001) // =======================================================
(PID.TID 0000.0001) 
(PID.TID 0000.0001) // =======================================================
(PID.TID 0000.0001) // Field Model Ro_surf (ini_masks_etc)
(PID.TID 0000.0001) // CMIN =         -3.153033389935445E-14
(PID.TID 0000.0001) // CMAX =          1.105782132526656E-13
(PID.TID 0000.0001) // CINT =          5.263279524148890E-15
(PID.TID 0000.0001) // SYMBOLS (CMIN->CMAX): -abcdefghijklmnopqrstuvwxyz+
(PID.TID 0000.0001) //                  0.0: .
(PID.TID 0000.0001) // RANGE I (Lo:Hi:Step):(    -1:   202:     1)
(PID.TID 0000.0001) // RANGE J (Lo:Hi:Step):(     3:    -1:    -1)
(PID.TID 0000.0001) // RANGE K (Lo:Hi:Step):(   1:   1:   1)
(PID.TID 0000.0001) // =======================================================
(PID.TID 0000.0001) K =   1
(PID.TID 0000.0001) //                I=8       I=18      I=28      I=38      I=48      I=58      I=68      I=78      I=88      I=98      I=108     I=118     I=128     I=138     I=148     I=158     I=168     I=178     I=188     I=198
(PID.TID 0000.0001) // |--J--|101234567|901234567|901234567|901234567|901234567|901234567|901234567|901234567|901234567|901234567|901234567|901234567|901234567|901234567|901234567|901234567|901234567|901234567|901234567|901234567|9012
(PID.TID 0000.0001) //      3 vvvvvvvvvvvvvvvvvpvvppvvpvvvpvvppvppvpvvvpvvpvppppppvvvvvpppvvpppvpvvvvvpppvpv+vvvpvvvvkpkkke-kkekkvppppvkkekk-ekkkpkvvvvpvvv+vpvpppvvvvvpvpppvvpppvvvvvppppppvpvvpvvvpvppvppvvpvvvpvvppvvpvvvvvvvvvvvvvvvvv
(PID.TID 0000.0001) //      2 vvvvvvvvvvvvvvvvvpvvppvvpvvvpvvppvppvpvvvpvvpvppppppvvvvvpppvvpppvpvvvvvpppvpv+vvvpvvvvkpkkke-kkekkvppppvkkekk-ekkkpkvvvvpvvv+vpvpppvvvvvpvpppvvpppvvvvvppppppvpvvpvvvpvppvppvvpvvvpvvppvvpvvvvvvvvvvvvvvvvv
(PID.TID 0000.0001) //      1 vvvvvvvvvvvvvvvvvpvvppvvpvvvpvvppvppvpvvvpvvpvppppppvvvvvpppvvpppvpvvvvvpppvpv+vvvpvvvvkpkkke-kkekkvppppvkkekk-ekkkpkvvvvpvvv+vpvpppvvvvvpvpppvvpppvvvvvppppppvpvvpvvvpvppvppvvpvvvpvvppvvpvvvvvvvvvvvvvvvvv
(PID.TID 0000.0001) //      0 vvvvvvvvvvvvvvvvvpvvppvvpvvvpvvppvppvpvvvpvvpvppppppvvvvvpppvvpppvpvvvvvpppvpv+vvvpvvvvkpkkke-kkekkvppppvkkekk-ekkkpkvvvvpvvv+vpvpppvvvvvpvpppvvpppvvvvvppppppvpvvpvvvpvppvppvvpvvvpvvppvvpvvvvvvvvvvvvvvvvv
(PID.TID 0000.0001) //     -1 vvvvvvvvvvvvvvvvvpvvppvvpvvvpvvppvppvpvvvpvvpvppppppvvvvvpppvvpppvpvvvvvpppvpv+vvvpvvvvkpkkke-kkekkvppppvkkekk-ekkkpkvvvvpvvv+vpvpppvvvvvpvpppvvpppvvvvvppppppvpvvpvvvpvppvppvvpvvvpvvppvvpvvvvvvvvvvvvvvvvv
(PID.TID 0000.0001) // =======================================================
(PID.TID 0000.0001) // END OF FIELD                                          =
(PID.TID 0000.0001) // =======================================================
(PID.TID 0000.0001) 
(PID.TID 0000.0001) // =======================================================
(PID.TID 0000.0001) // Field hFacC at iteration          0
(PID.TID 0000.0001) // CMIN =          1.000000000000000E+00
(PID.TID 0000.0001) // CMAX =          1.000000000000000E+00
(PID.TID 0000.0001) // CINT =          0.000000000000000E+00
(PID.TID 0000.0001) // SYMBOLS (CMIN->CMAX): -abcdefghijklmnopqrstuvwxyz+
(PID.TID 0000.0001) //                  0.0: .
(PID.TID 0000.0001) // RANGE I (Lo:Hi:Step):(    -1:   202:     1)
(PID.TID 0000.0001) // RANGE J (Lo:Hi:Step):(     3:    -1:    -1)
(PID.TID 0000.0001) // RANGE K (Lo:Hi:Step):(   1:   1:   1)
(PID.TID 0000.0001) // =======================================================
(PID.TID 0000.0001) // =======================================================
(PID.TID 0000.0001) // END OF FIELD                                          =
(PID.TID 0000.0001) // =======================================================
(PID.TID 0000.0001) 
(PID.TID 0000.0001) // =======================================================
(PID.TID 0000.0001) // Field hFacW at iteration          0
(PID.TID 0000.0001) // CMIN =          1.000000000000000E+00
(PID.TID 0000.0001) // CMAX =          1.000000000000000E+00
(PID.TID 0000.0001) // CINT =          0.000000000000000E+00
(PID.TID 0000.0001) // SYMBOLS (CMIN->CMAX): -abcdefghijklmnopqrstuvwxyz+
(PID.TID 0000.0001) //                  0.0: .
(PID.TID 0000.0001) // RANGE I (Lo:Hi:Step):(    -1:   202:     1)
(PID.TID 0000.0001) // RANGE J (Lo:Hi:Step):(     3:    -1:    -1)
(PID.TID 0000.0001) // RANGE K (Lo:Hi:Step):(   1:   1:   1)
(PID.TID 0000.0001) // =======================================================
(PID.TID 0000.0001) // =======================================================
(PID.TID 0000.0001) // END OF FIELD                                          =
(PID.TID 0000.0001) // =======================================================
(PID.TID 0000.0001) 
(PID.TID 0000.0001) // =======================================================
(PID.TID 0000.0001) // Field hFacS at iteration          0
(PID.TID 0000.0001) // CMIN =          1.000000000000000E+00
(PID.TID 0000.0001) // CMAX =          1.000000000000000E+00
(PID.TID 0000.0001) // CINT =          0.000000000000000E+00
(PID.TID 0000.0001) // SYMBOLS (CMIN->CMAX): -abcdefghijklmnopqrstuvwxyz+
(PID.TID 0000.0001) //                  0.0: .
(PID.TID 0000.0001) // RANGE I (Lo:Hi:Step):(    -1:   202:     1)
(PID.TID 0000.0001) // RANGE J (Lo:Hi:Step):(     3:    -1:    -1)
(PID.TID 0000.0001) // RANGE K (Lo:Hi:Step):(   1:   1:   1)
(PID.TID 0000.0001) // =======================================================
(PID.TID 0000.0001) // =======================================================
(PID.TID 0000.0001) // END OF FIELD                                          =
(PID.TID 0000.0001) // =======================================================
(PID.TID 0000.0001) 
(PID.TID 0000.0001) GAD_INIT_FIXED: GAD_OlMinSize=  2  0  1
(PID.TID 0000.0001) 
(PID.TID 0000.0001) // ===================================
(PID.TID 0000.0001) // GAD parameters :
(PID.TID 0000.0001) // ===================================
(PID.TID 0000.0001) tempAdvScheme =   /* Temp. Horiz.Advection scheme selector */
(PID.TID 0000.0001)                      77
(PID.TID 0000.0001)     ;
(PID.TID 0000.0001) tempVertAdvScheme =   /* Temp. Vert. Advection scheme selector */
(PID.TID 0000.0001)                      77
(PID.TID 0000.0001)     ;
(PID.TID 0000.0001) tempMultiDimAdvec =   /* use Muti-Dim Advec method for Temp */
(PID.TID 0000.0001)                   T
(PID.TID 0000.0001)     ;
(PID.TID 0000.0001) tempSOM_Advection = /* use 2nd Order Moment Advection for Temp */
(PID.TID 0000.0001)                   F
(PID.TID 0000.0001)     ;
(PID.TID 0000.0001) AdamsBashforthGt = /* apply Adams-Bashforth extrapolation on Gt */
(PID.TID 0000.0001)                   F
(PID.TID 0000.0001)     ;
(PID.TID 0000.0001) AdamsBashforth_T = /* apply Adams-Bashforth extrapolation on Temp */
(PID.TID 0000.0001)                   F
(PID.TID 0000.0001)     ;
(PID.TID 0000.0001) saltAdvScheme =   /* Salt. Horiz.advection scheme selector */
(PID.TID 0000.0001)                       2
(PID.TID 0000.0001)     ;
(PID.TID 0000.0001) saltVertAdvScheme =   /* Salt. Vert. Advection scheme selector */
(PID.TID 0000.0001)                       2
(PID.TID 0000.0001)     ;
(PID.TID 0000.0001) saltMultiDimAdvec =   /* use Muti-Dim Advec method for Salt */
(PID.TID 0000.0001)                   F
(PID.TID 0000.0001)     ;
(PID.TID 0000.0001) saltSOM_Advection = /* use 2nd Order Moment Advection for Salt */
(PID.TID 0000.0001)                   F
(PID.TID 0000.0001)     ;
(PID.TID 0000.0001) AdamsBashforthGs = /* apply Adams-Bashforth extrapolation on Gs */
(PID.TID 0000.0001)                   F
(PID.TID 0000.0001)     ;
(PID.TID 0000.0001) AdamsBashforth_S = /* apply Adams-Bashforth extrapolation on Salt */
(PID.TID 0000.0001)                   F
(PID.TID 0000.0001)     ;
(PID.TID 0000.0001) // ===================================
(PID.TID 0000.0001) %MON fCori_max                    =   0.0000000000000E+00
(PID.TID 0000.0001) %MON fCori_min                    =   0.0000000000000E+00
(PID.TID 0000.0001) %MON fCori_mean                   =   0.0000000000000E+00
(PID.TID 0000.0001) %MON fCori_sd                     =   0.0000000000000E+00
(PID.TID 0000.0001) %MON fCoriG_max                   =   0.0000000000000E+00
(PID.TID 0000.0001) %MON fCoriG_min                   =   0.0000000000000E+00
(PID.TID 0000.0001) %MON fCoriG_mean                  =   0.0000000000000E+00
(PID.TID 0000.0001) %MON fCoriG_sd                    =   0.0000000000000E+00
(PID.TID 0000.0001) %MON fCoriCos_max                 =   0.0000000000000E+00
(PID.TID 0000.0001) %MON fCoriCos_min                 =   0.0000000000000E+00
(PID.TID 0000.0001) %MON fCoriCos_mean                =   0.0000000000000E+00
(PID.TID 0000.0001) %MON fCoriCos_sd                  =   0.0000000000000E+00
(PID.TID 0000.0001) INI_CG2D: CG2D normalisation factor =  2.1495624220097895E-04
(PID.TID 0000.0001) 
(PID.TID 0000.0001) // =======================================================
(PID.TID 0000.0001) // Model configuration
(PID.TID 0000.0001) // =======================================================
(PID.TID 0000.0001) //
(PID.TID 0000.0001) // "Physical" paramters ( PARM01 in namelist )
(PID.TID 0000.0001) //
(PID.TID 0000.0001) buoyancyRelation = /* Type of relation to get Buoyancy */
(PID.TID 0000.0001)               'OCEANIC'
(PID.TID 0000.0001)     ;
(PID.TID 0000.0001) fluidIsAir   =  /* fluid major constituent is Air */
(PID.TID 0000.0001)                   F
(PID.TID 0000.0001)     ;
(PID.TID 0000.0001) fluidIsWater =  /* fluid major constituent is Water */
(PID.TID 0000.0001)                   T
(PID.TID 0000.0001)     ;
(PID.TID 0000.0001) usingPCoords =  /* use p (or p*) vertical coordinate */
(PID.TID 0000.0001)                   F
(PID.TID 0000.0001)     ;
(PID.TID 0000.0001) usingZCoords =  /* use z (or z*) vertical coordinate */
(PID.TID 0000.0001)                   T
(PID.TID 0000.0001)     ;
(PID.TID 0000.0001) tRef =   /* Reference temperature profile ( oC or K ) */
(PID.TID 0000.0001)    75 @  1.500000000000000E+01,             /* K =  1: 75 */
(PID.TID 0000.0001)                 1.499933084687693E+01,      /* K = 76 */
(PID.TID 0000.0001)                 1.497717153877677E+01,      /* K = 77 */
(PID.TID 0000.0001)                 1.470721590167325E+01,      /* K = 78 */
(PID.TID 0000.0001)                 1.349735867339025E+01,      /* K = 79 */
(PID.TID 0000.0001)                 1.150264132660976E+01,      /* K = 80 */
(PID.TID 0000.0001)                 1.029278409832675E+01,      /* K = 81 */
(PID.TID 0000.0001)                 1.002282846122323E+01,      /* K = 82 */
(PID.TID 0000.0001)                 1.000066915312308E+01,      /* K = 83 */
(PID.TID 0000.0001)    17 @  1.000000000000000E+01              /* K = 84:100 */
(PID.TID 0000.0001)     ;
(PID.TID 0000.0001) sRef =   /* Reference salinity profile ( psu ) */
(PID.TID 0000.0001)   100 @  3.500000000000000E+01              /* K =  1:100 */
(PID.TID 0000.0001)     ;
(PID.TID 0000.0001) useStrainTensionVisc= /* Use StrainTension Form of Viscous Operator */
(PID.TID 0000.0001)                   F
(PID.TID 0000.0001)     ;
(PID.TID 0000.0001) useVariableVisc = /* Use variable horizontal viscosity */
(PID.TID 0000.0001)                   F
(PID.TID 0000.0001)     ;
(PID.TID 0000.0001) useHarmonicVisc = /* Use harmonic horizontal viscosity */
(PID.TID 0000.0001)                   T
(PID.TID 0000.0001)     ;
(PID.TID 0000.0001) useBiharmonicVisc= /* Use biharmonic horiz.  viscosity */
(PID.TID 0000.0001)                   F
(PID.TID 0000.0001)     ;
(PID.TID 0000.0001) useSmag3D = /* Use isotropic 3-D Smagorinsky viscosity */
(PID.TID 0000.0001)                   F
(PID.TID 0000.0001)     ;
(PID.TID 0000.0001) viscAh  =   /* Lateral harmonic viscosity ( m^2/s ) */
(PID.TID 0000.0001)                 1.000000000000000E-04
(PID.TID 0000.0001)     ;
(PID.TID 0000.0001) viscA4  =   /* Lateral biharmonic viscosity ( m^4/s ) */
(PID.TID 0000.0001)                 0.000000000000000E+00
(PID.TID 0000.0001)     ;
(PID.TID 0000.0001) no_slip_sides =  /* Viscous BCs: No-slip sides */
(PID.TID 0000.0001)                   F
(PID.TID 0000.0001)     ;
(PID.TID 0000.0001) sideDragFactor = /* side-drag scaling factor (non-dim) */
(PID.TID 0000.0001)                 2.000000000000000E+00
(PID.TID 0000.0001)     ;
(PID.TID 0000.0001) viscArNr = /* vertical profile of vertical viscosity ( m^2/s )*/
(PID.TID 0000.0001)   100 @  1.000000000000000E-05              /* K =  1:100 */
(PID.TID 0000.0001)     ;
(PID.TID 0000.0001) no_slip_bottom =  /* Viscous BCs: No-slip bottom */
(PID.TID 0000.0001)                   F
(PID.TID 0000.0001)     ;
(PID.TID 0000.0001) bottomDragLinear = /* linear bottom-drag coefficient ( m/s ) */
(PID.TID 0000.0001)                 0.000000000000000E+00
(PID.TID 0000.0001)     ;
(PID.TID 0000.0001) bottomDragQuadratic = /* quadratic bottom-drag coefficient (-) */
(PID.TID 0000.0001)                 0.000000000000000E+00
(PID.TID 0000.0001)     ;
(PID.TID 0000.0001) diffKhT =   /* Laplacian diffusion of heat laterally ( m^2/s ) */
(PID.TID 0000.0001)                 1.000000000000000E-04
(PID.TID 0000.0001)     ;
(PID.TID 0000.0001) diffK4T =   /* Biharmonic diffusion of heat laterally ( m^4/s ) */
(PID.TID 0000.0001)                 0.000000000000000E+00
(PID.TID 0000.0001)     ;
(PID.TID 0000.0001) diffKhS =   /* Laplacian diffusion of salt laterally ( m^2/s ) */
(PID.TID 0000.0001)                 1.000000000000000E+03
(PID.TID 0000.0001)     ;
(PID.TID 0000.0001) diffK4S =   /* Biharmonic diffusion of salt laterally ( m^4/s ) */
(PID.TID 0000.0001)                 0.000000000000000E+00
(PID.TID 0000.0001)     ;
(PID.TID 0000.0001) diffKrNrT = /* vertical profile of vertical diffusion of Temp ( m^2/s )*/
(PID.TID 0000.0001)   100 @  1.000000000000000E-05              /* K =  1:100 */
(PID.TID 0000.0001)     ;
(PID.TID 0000.0001) diffKrNrS = /* vertical profile of vertical diffusion of Salt ( m^2/s )*/
(PID.TID 0000.0001)   100 @  1.000000000000000E-05              /* K =  1:100 */
(PID.TID 0000.0001)     ;
(PID.TID 0000.0001) diffKrBL79surf = /* Surface diffusion for Bryan and Lewis 79 ( m^2/s ) */
(PID.TID 0000.0001)                 0.000000000000000E+00
(PID.TID 0000.0001)     ;
(PID.TID 0000.0001) diffKrBL79deep = /* Deep diffusion for Bryan and Lewis 1979 ( m^2/s ) */
(PID.TID 0000.0001)                 0.000000000000000E+00
(PID.TID 0000.0001)     ;
(PID.TID 0000.0001) diffKrBL79scl = /* Depth scale for Bryan and Lewis 1979 ( m ) */
(PID.TID 0000.0001)                 2.000000000000000E+02
(PID.TID 0000.0001)     ;
(PID.TID 0000.0001) diffKrBL79Ho = /* Turning depth for Bryan and Lewis 1979 ( m ) */
(PID.TID 0000.0001)                -2.000000000000000E+03
(PID.TID 0000.0001)     ;
(PID.TID 0000.0001) ivdc_kappa = /* Implicit Vertical Diffusivity for Convection ( m^2/s) */
(PID.TID 0000.0001)                 0.000000000000000E+00
(PID.TID 0000.0001)     ;
(PID.TID 0000.0001) hMixCriteria=  /* Criteria for mixed-layer diagnostic */
(PID.TID 0000.0001)                -8.000000000000000E-01
(PID.TID 0000.0001)     ;
(PID.TID 0000.0001) dRhoSmall =  /* Parameter for mixed-layer diagnostic */
(PID.TID 0000.0001)                 1.000000000000000E-06
(PID.TID 0000.0001)     ;
(PID.TID 0000.0001) hMixSmooth=  /* Smoothing parameter for mixed-layer diagnostic */
(PID.TID 0000.0001)                 0.000000000000000E+00
(PID.TID 0000.0001)     ;
(PID.TID 0000.0001) eosType =  /* Type of Equation of State */
(PID.TID 0000.0001)               'LINEAR'
(PID.TID 0000.0001)     ;
(PID.TID 0000.0001) tAlpha = /* Linear EOS thermal expansion coefficient ( 1/oC ) */
(PID.TID 0000.0001)                 2.000000000000000E-04
(PID.TID 0000.0001)     ;
(PID.TID 0000.0001) sBeta  = /* Linear EOS haline contraction coefficient ( 1/psu ) */
(PID.TID 0000.0001)                 0.000000000000000E+00
(PID.TID 0000.0001)     ;
(PID.TID 0000.0001) rhoNil    = /* Reference density for Linear EOS ( kg/m^3 ) */
(PID.TID 0000.0001)                 9.998000000000000E+02
(PID.TID 0000.0001)     ;
(PID.TID 0000.0001) HeatCapacity_Cp =  /* Specific heat capacity ( J/kg/K ) */
(PID.TID 0000.0001)                 3.994000000000000E+03
(PID.TID 0000.0001)     ;
(PID.TID 0000.0001) celsius2K = /* 0 degree Celsius converted to Kelvin ( K ) */
(PID.TID 0000.0001)                 2.731500000000000E+02
(PID.TID 0000.0001)     ;
(PID.TID 0000.0001) rhoConst  = /* Reference density (Boussinesq)  ( kg/m^3 ) */
(PID.TID 0000.0001)                 9.998000000000000E+02
(PID.TID 0000.0001)     ;
(PID.TID 0000.0001) rhoFacC = /* normalized Reference density @ cell-Center (-) */
(PID.TID 0000.0001)   100 @  1.000000000000000E+00              /* K =  1:100 */
(PID.TID 0000.0001)     ;
(PID.TID 0000.0001) rhoFacF = /* normalized Reference density @ W-Interface (-) */
(PID.TID 0000.0001)   101 @  1.000000000000000E+00              /* K =  1:101 */
(PID.TID 0000.0001)     ;
(PID.TID 0000.0001) rhoConstFresh = /* Fresh-water reference density ( kg/m^3 ) */
(PID.TID 0000.0001)                 9.998000000000000E+02
(PID.TID 0000.0001)     ;
(PID.TID 0000.0001) gravity =   /* Gravitational acceleration ( m/s^2 ) */
(PID.TID 0000.0001)                 9.810000000000000E+00
(PID.TID 0000.0001)     ;
(PID.TID 0000.0001) gBaro =   /* Barotropic gravity ( m/s^2 ) */
(PID.TID 0000.0001)                 9.810000000000000E+00
(PID.TID 0000.0001)     ;
(PID.TID 0000.0001) rotationPeriod =   /* Rotation Period ( s ) */
(PID.TID 0000.0001)                 8.616400000000000E+04
(PID.TID 0000.0001)     ;
(PID.TID 0000.0001) omega =   /* Angular velocity ( rad/s ) */
(PID.TID 0000.0001)                 7.292123516990375E-05
(PID.TID 0000.0001)     ;
(PID.TID 0000.0001) f0 =   /* Reference coriolis parameter ( 1/s ) */
(PID.TID 0000.0001)                 0.000000000000000E+00
(PID.TID 0000.0001)     ;
(PID.TID 0000.0001) beta =   /* Beta ( 1/(m.s) ) */
(PID.TID 0000.0001)                 0.000000000000000E+00
(PID.TID 0000.0001)     ;
(PID.TID 0000.0001) fPrime =   /* Second coriolis parameter ( 1/s ) */
(PID.TID 0000.0001)                 0.000000000000000E+00
(PID.TID 0000.0001)     ;
(PID.TID 0000.0001) rigidLid =   /* Rigid lid on/off flag */
(PID.TID 0000.0001)                   F
(PID.TID 0000.0001)     ;
(PID.TID 0000.0001) implicitFreeSurface =   /* Implicit free surface on/off flag */
(PID.TID 0000.0001)                   T
(PID.TID 0000.0001)     ;
(PID.TID 0000.0001) freeSurfFac =   /* Implicit free surface factor */
(PID.TID 0000.0001)                 1.000000000000000E+00
(PID.TID 0000.0001)     ;
(PID.TID 0000.0001) implicSurfPress =  /* Surface Pressure implicit factor (0-1)*/
(PID.TID 0000.0001)                 1.000000000000000E+00
(PID.TID 0000.0001)     ;
(PID.TID 0000.0001) implicDiv2Dflow =  /* Barot. Flow Div. implicit factor (0-1)*/
(PID.TID 0000.0001)                 1.000000000000000E+00
(PID.TID 0000.0001)     ;
(PID.TID 0000.0001) uniformLin_PhiSurf = /* use uniform Bo_surf on/off flag*/
(PID.TID 0000.0001)                   T
(PID.TID 0000.0001)     ;
(PID.TID 0000.0001) uniformFreeSurfLev = /* free-surface level-index is uniform */
(PID.TID 0000.0001)                   T
(PID.TID 0000.0001)     ;
(PID.TID 0000.0001) hFacMin =   /* minimum partial cell factor (hFac) */
(PID.TID 0000.0001)                 1.000000000000000E-01
(PID.TID 0000.0001)     ;
(PID.TID 0000.0001) hFacMinDr = /* minimum partial cell thickness ( m) */
(PID.TID 0000.0001)                 0.000000000000000E+00
(PID.TID 0000.0001)     ;
(PID.TID 0000.0001) exactConserv =  /* Exact Volume Conservation on/off flag*/
(PID.TID 0000.0001)                   F
(PID.TID 0000.0001)     ;
(PID.TID 0000.0001) linFSConserveTr = /* Tracer correction for Lin Free Surface on/off flag*/
(PID.TID 0000.0001)                   F
(PID.TID 0000.0001)     ;
(PID.TID 0000.0001) nonlinFreeSurf = /* Non-linear Free Surf. options (-1,0,1,2,3)*/
(PID.TID 0000.0001)                       0
(PID.TID 0000.0001)      -1,0= Off ; 1,2,3= On, 2=+rescale gU,gV, 3=+update cg2d solv.
(PID.TID 0000.0001)     ;
(PID.TID 0000.0001) hFacInf =   /* lower threshold for hFac (nonlinFreeSurf only)*/
(PID.TID 0000.0001)                 2.000000000000000E-01
(PID.TID 0000.0001)     ;
(PID.TID 0000.0001) hFacSup =   /* upper threshold for hFac (nonlinFreeSurf only)*/
(PID.TID 0000.0001)                 2.000000000000000E+00
(PID.TID 0000.0001)     ;
(PID.TID 0000.0001) select_rStar = /* r* Vertical coord. options (=0 r coord.; >0 uses r*)*/
(PID.TID 0000.0001)                       0
(PID.TID 0000.0001)     ;
(PID.TID 0000.0001) useRealFreshWaterFlux = /* Real Fresh Water Flux on/off flag*/
(PID.TID 0000.0001)                   F
(PID.TID 0000.0001)     ;
(PID.TID 0000.0001) temp_EvPrRn = /* Temp. of Evap/Prec/R (UNSET=use local T)(oC)*/
(PID.TID 0000.0001)                 1.234567000000000E+05
(PID.TID 0000.0001)     ;
(PID.TID 0000.0001) salt_EvPrRn = /* Salin. of Evap/Prec/R (UNSET=use local S)(psu)*/
(PID.TID 0000.0001)                 0.000000000000000E+00
(PID.TID 0000.0001)     ;
(PID.TID 0000.0001) selectAddFluid = /* option for mass source/sink of fluid (=0: off) */
(PID.TID 0000.0001)                       0
(PID.TID 0000.0001)     ;
(PID.TID 0000.0001) temp_addMass = /* Temp. of addMass array (UNSET=use local T)(oC)*/
(PID.TID 0000.0001)                 1.234567000000000E+05
(PID.TID 0000.0001)     ;
(PID.TID 0000.0001) salt_addMass = /* Salin. of addMass array (UNSET=use local S)(psu)*/
(PID.TID 0000.0001)                 0.000000000000000E+00
(PID.TID 0000.0001)     ;
(PID.TID 0000.0001) convertFW2Salt = /* convert F.W. Flux to Salt Flux (-1=use local S)(psu)*/
(PID.TID 0000.0001)                 3.500000000000000E+01
(PID.TID 0000.0001)     ;
(PID.TID 0000.0001) use3Dsolver = /* use 3-D pressure solver on/off flag */
(PID.TID 0000.0001)                   F
(PID.TID 0000.0001)     ;
(PID.TID 0000.0001) nonHydrostatic =  /* Non-Hydrostatic on/off flag */
(PID.TID 0000.0001)                   F
(PID.TID 0000.0001)     ;
(PID.TID 0000.0001) nh_Am2 = /* Non-Hydrostatic terms scaling factor */
(PID.TID 0000.0001)                 1.000000000000000E+00
(PID.TID 0000.0001)     ;
(PID.TID 0000.0001) implicitNHPress = /* Non-Hyd Pressure implicit factor (0-1)*/
(PID.TID 0000.0001)                 1.000000000000000E+00
(PID.TID 0000.0001)     ;
(PID.TID 0000.0001) selectNHfreeSurf = /* Non-Hyd (free-)Surface option */
(PID.TID 0000.0001)                       0
(PID.TID 0000.0001)     ;
(PID.TID 0000.0001) quasiHydrostatic = /* Quasi-Hydrostatic on/off flag */
(PID.TID 0000.0001)                   F
(PID.TID 0000.0001)     ;
(PID.TID 0000.0001) calc_wVelocity = /* vertical velocity calculation on/off flag */
(PID.TID 0000.0001)                   T
(PID.TID 0000.0001)     ;
(PID.TID 0000.0001) momStepping =  /* Momentum equation on/off flag */
(PID.TID 0000.0001)                   T
(PID.TID 0000.0001)     ;
(PID.TID 0000.0001) vectorInvariantMomentum= /* Vector-Invariant Momentum on/off */
(PID.TID 0000.0001)                   F
(PID.TID 0000.0001)     ;
(PID.TID 0000.0001) momAdvection =  /* Momentum advection on/off flag */
(PID.TID 0000.0001)                   T
(PID.TID 0000.0001)     ;
(PID.TID 0000.0001) momViscosity =  /* Momentum viscosity on/off flag */
(PID.TID 0000.0001)                   T
(PID.TID 0000.0001)     ;
(PID.TID 0000.0001) momImplVertAdv= /* Momentum implicit vert. advection on/off*/
(PID.TID 0000.0001)                   F
(PID.TID 0000.0001)     ;
(PID.TID 0000.0001) implicitViscosity = /* Implicit viscosity on/off flag */
(PID.TID 0000.0001)                   T
(PID.TID 0000.0001)     ;
(PID.TID 0000.0001) metricTerms =  /* metric-Terms on/off flag */
(PID.TID 0000.0001)                   F
(PID.TID 0000.0001)     ;
(PID.TID 0000.0001) useNHMTerms = /* Non-Hydrostatic Metric-Terms on/off */
(PID.TID 0000.0001)                   F
(PID.TID 0000.0001)     ;
(PID.TID 0000.0001) selectCoriMap = /* Coriolis Map options (0,1,2,3)*/
(PID.TID 0000.0001)                       1
(PID.TID 0000.0001)     0= f-Plane ; 1= Beta-Plane ; 2= Spherical ; 3= read from file
(PID.TID 0000.0001)     ;
(PID.TID 0000.0001) use3dCoriolis = /* 3-D Coriolis on/off flag */
(PID.TID 0000.0001)                   F
(PID.TID 0000.0001)     ;
(PID.TID 0000.0001) useCoriolis =  /* Coriolis on/off flag */
(PID.TID 0000.0001)                   T
(PID.TID 0000.0001)     ;
(PID.TID 0000.0001) useCDscheme =  /* CD scheme on/off flag */
(PID.TID 0000.0001)                   F
(PID.TID 0000.0001)     ;
(PID.TID 0000.0001) useEnergyConservingCoriolis= /* Flx-Form Coriolis scheme flag */
(PID.TID 0000.0001)                   F
(PID.TID 0000.0001)     ;
(PID.TID 0000.0001) useJamartWetPoints= /* Coriolis WetPoints method flag */
(PID.TID 0000.0001)                   F
(PID.TID 0000.0001)     ;
(PID.TID 0000.0001) useJamartMomAdv= /* V.I Non-linear terms Jamart flag */
(PID.TID 0000.0001)                   F
(PID.TID 0000.0001)     ;
(PID.TID 0000.0001) useAbsVorticity= /* V.I Works with f+zeta in Coriolis */
(PID.TID 0000.0001)                   F
(PID.TID 0000.0001)     ;
(PID.TID 0000.0001) selectVortScheme= /* V.I Scheme selector for Vorticity-Term */
(PID.TID 0000.0001)               123456789
(PID.TID 0000.0001)    = 0 : enstrophy (Shallow-Water Eq.) conserving scheme by Sadourny, JAS 75
(PID.TID 0000.0001)    = 1 : same as 0 with modified hFac
(PID.TID 0000.0001)    = 2 : energy conserving scheme (used by Sadourny in JAS 75 paper)
(PID.TID 0000.0001)    = 3 : energy (general) and enstrophy (2D, nonDiv.) conserving scheme
(PID.TID 0000.0001)          from Sadourny (Burridge & Haseler, ECMWF Rep.4, 1977)
(PID.TID 0000.0001)     ;
(PID.TID 0000.0001) upwindVorticity= /* V.I Upwind bias vorticity flag */
(PID.TID 0000.0001)                   F
(PID.TID 0000.0001)     ;
(PID.TID 0000.0001) highOrderVorticity= /* V.I High order vort. advect. flag */
(PID.TID 0000.0001)                   F
(PID.TID 0000.0001)     ;
(PID.TID 0000.0001) upwindShear= /* V.I Upwind vertical Shear advection flag */
(PID.TID 0000.0001)                   F
(PID.TID 0000.0001)     ;
(PID.TID 0000.0001) selectKEscheme= /* V.I Kinetic Energy scheme selector */
(PID.TID 0000.0001)                       0
(PID.TID 0000.0001)     ;
(PID.TID 0000.0001) momForcing =  /* Momentum forcing on/off flag */
(PID.TID 0000.0001)                   T
(PID.TID 0000.0001)     ;
(PID.TID 0000.0001) momPressureForcing =  /* Momentum pressure term on/off flag */
(PID.TID 0000.0001)                   T
(PID.TID 0000.0001)     ;
(PID.TID 0000.0001) implicitIntGravWave= /* Implicit Internal Gravity Wave flag */
(PID.TID 0000.0001)                   F
(PID.TID 0000.0001)     ;
(PID.TID 0000.0001) staggerTimeStep =    /* Stagger time stepping on/off flag */
(PID.TID 0000.0001)                   T
(PID.TID 0000.0001)     ;
(PID.TID 0000.0001) doResetHFactors = /* reset thickness factors @ each time-step */
(PID.TID 0000.0001)                   F
(PID.TID 0000.0001)     ;
(PID.TID 0000.0001) multiDimAdvection =  /* enable/disable Multi-Dim Advection */
(PID.TID 0000.0001)                   T
(PID.TID 0000.0001)     ;
(PID.TID 0000.0001) useMultiDimAdvec =   /* Multi-Dim Advection is/is-not used */
(PID.TID 0000.0001)                   T
(PID.TID 0000.0001)     ;
(PID.TID 0000.0001) implicitDiffusion = /* Implicit Diffusion on/off flag */
(PID.TID 0000.0001)                   T
(PID.TID 0000.0001)     ;
(PID.TID 0000.0001) tempStepping =  /* Temperature equation on/off flag */
(PID.TID 0000.0001)                   T
(PID.TID 0000.0001)     ;
(PID.TID 0000.0001) tempAdvection = /* Temperature advection on/off flag */
(PID.TID 0000.0001)                   T
(PID.TID 0000.0001)     ;
(PID.TID 0000.0001) tempImplVertAdv = /* Temp. implicit vert. advection on/off */
(PID.TID 0000.0001)                   F
(PID.TID 0000.0001)     ;
(PID.TID 0000.0001) tempForcing  =  /* Temperature forcing on/off flag */
(PID.TID 0000.0001)                   T
(PID.TID 0000.0001)     ;
(PID.TID 0000.0001) doThetaClimRelax = /* apply SST relaxation on/off flag */
(PID.TID 0000.0001)                   F
(PID.TID 0000.0001)     ;
(PID.TID 0000.0001) tempIsActiveTr = /* Temp. is a dynamically Active Tracer */
(PID.TID 0000.0001)                   T
(PID.TID 0000.0001)     ;
(PID.TID 0000.0001) saltStepping =  /* Salinity equation on/off flag */
(PID.TID 0000.0001)                   F
(PID.TID 0000.0001)     ;
(PID.TID 0000.0001) saltAdvection = /* Salinity advection on/off flag */
(PID.TID 0000.0001)                   F
(PID.TID 0000.0001)     ;
(PID.TID 0000.0001) saltImplVertAdv = /* Sali. implicit vert. advection on/off */
(PID.TID 0000.0001)                   F
(PID.TID 0000.0001)     ;
(PID.TID 0000.0001) saltForcing  =  /* Salinity forcing on/off flag */
(PID.TID 0000.0001)                   F
(PID.TID 0000.0001)     ;
(PID.TID 0000.0001) doSaltClimRelax = /* apply SSS relaxation on/off flag */
(PID.TID 0000.0001)                   F
(PID.TID 0000.0001)     ;
(PID.TID 0000.0001) saltIsActiveTr = /* Salt  is a dynamically Active Tracer */
(PID.TID 0000.0001)                   F
(PID.TID 0000.0001)     ;
(PID.TID 0000.0001)  readBinaryPrec = /* Precision used for reading binary files */
(PID.TID 0000.0001)                      64
(PID.TID 0000.0001)     ;
(PID.TID 0000.0001) writeBinaryPrec = /* Precision used for writing binary files */
(PID.TID 0000.0001)                      64
(PID.TID 0000.0001)     ;
(PID.TID 0000.0001)  globalFiles = /* write "global" (=not per tile) files */
(PID.TID 0000.0001)                   F
(PID.TID 0000.0001)     ;
(PID.TID 0000.0001)  useSingleCpuIO = /* only master MPI process does I/O */
(PID.TID 0000.0001)                   T
(PID.TID 0000.0001)     ;
(PID.TID 0000.0001)  useSingleCpuInput = /* only master process reads input */
(PID.TID 0000.0001)                   T
(PID.TID 0000.0001)     ;
(PID.TID 0000.0001) /* debLev[*]  : level of debug & auxiliary message printing */
(PID.TID 0000.0001) debLevZero =  0 ; /* level of disabled aux. msg printing */
(PID.TID 0000.0001)    debLevA =  1 ; /* level of minimum  aux. msg printing */
(PID.TID 0000.0001)    debLevB =  2 ; /* level of low aux. print (report read-file opening)*/
(PID.TID 0000.0001)    debLevC =  3 ; /* level of moderate debug prt (most pkgs debug msg) */
(PID.TID 0000.0001)    debLevD =  4 ; /* level of enhanced debug prt (add DEBUG_STATS prt) */
(PID.TID 0000.0001)    debLevE =  5 ; /* level of extensive debug printing */
(PID.TID 0000.0001) debugLevel =  /* select debug printing level */
(PID.TID 0000.0001)                       2
(PID.TID 0000.0001)     ;
(PID.TID 0000.0001) //
(PID.TID 0000.0001) // Elliptic solver(s) paramters ( PARM02 in namelist )
(PID.TID 0000.0001) //
(PID.TID 0000.0001) cg2dMaxIters =   /* Upper limit on 2d con. grad iterations  */
(PID.TID 0000.0001)                    1000
(PID.TID 0000.0001)     ;
(PID.TID 0000.0001) cg2dChkResFreq =   /* 2d con. grad convergence test frequency */
(PID.TID 0000.0001)                       1
(PID.TID 0000.0001)     ;
(PID.TID 0000.0001) cg2dUseMinResSol= /* use cg2d last-iter(=0) / min-resid.(=1) solution */
(PID.TID 0000.0001)                       0
(PID.TID 0000.0001)     ;
(PID.TID 0000.0001) cg2dTargetResidual =   /* 2d con. grad target residual  */
(PID.TID 0000.0001)                 1.000000000000000E-13
(PID.TID 0000.0001)     ;
(PID.TID 0000.0001) cg2dTargetResWunit =   /* CG2d target residual [W units] */
(PID.TID 0000.0001)                -1.000000000000000E+00
(PID.TID 0000.0001)     ;
(PID.TID 0000.0001) cg2dPreCondFreq =   /* Freq. for updating cg2d preconditioner */
(PID.TID 0000.0001)                       1
(PID.TID 0000.0001)     ;
(PID.TID 0000.0001) useSRCGSolver =  /* use single reduction CG solver(s) */
(PID.TID 0000.0001)                   F
(PID.TID 0000.0001)     ;
(PID.TID 0000.0001) printResidualFreq = /* Freq. for printing CG residual */
(PID.TID 0000.0001)                       0
(PID.TID 0000.0001)     ;
(PID.TID 0000.0001) //
(PID.TID 0000.0001) // Time stepping paramters ( PARM03 in namelist )
(PID.TID 0000.0001) //
(PID.TID 0000.0001) deltaTMom =   /* Momentum equation timestep ( s ) */
(PID.TID 0000.0001)                 1.500000000000000E+01
(PID.TID 0000.0001)     ;
(PID.TID 0000.0001) deltaTFreeSurf = /* FreeSurface equation timestep ( s ) */
(PID.TID 0000.0001)                 1.500000000000000E+01
(PID.TID 0000.0001)     ;
(PID.TID 0000.0001) dTtracerLev =  /* Tracer equation timestep ( s ) */
(PID.TID 0000.0001)   100 @  1.500000000000000E+01              /* K =  1:100 */
(PID.TID 0000.0001)     ;
(PID.TID 0000.0001) deltaTClock  =   /* Model clock timestep ( s ) */
(PID.TID 0000.0001)                 1.500000000000000E+01
(PID.TID 0000.0001)     ;
(PID.TID 0000.0001) cAdjFreq =   /* Convective adjustment interval ( s ) */
(PID.TID 0000.0001)                 0.000000000000000E+00
(PID.TID 0000.0001)     ;
(PID.TID 0000.0001) momForcingOutAB = /* =1: take Momentum Forcing out of Adams-Bash. stepping */
(PID.TID 0000.0001)                       0
(PID.TID 0000.0001)     ;
(PID.TID 0000.0001) tracForcingOutAB = /* =1: take T,S,pTr Forcing out of Adams-Bash. stepping */
(PID.TID 0000.0001)                       0
(PID.TID 0000.0001)     ;
(PID.TID 0000.0001) momDissip_In_AB = /* put Dissipation Tendency in Adams-Bash. stepping */
(PID.TID 0000.0001)                   T
(PID.TID 0000.0001)     ;
(PID.TID 0000.0001) doAB_onGtGs = /* apply AB on Tendencies (rather than on T,S)*/
(PID.TID 0000.0001)                   T
(PID.TID 0000.0001)     ;
(PID.TID 0000.0001) abEps =   /* Adams-Bashforth-2 stabilizing weight */
(PID.TID 0000.0001)                 1.000000000000000E-01
(PID.TID 0000.0001)     ;
(PID.TID 0000.0001) pickupStrictlyMatch= /* stop if pickup do not strictly match */
(PID.TID 0000.0001)                   T
(PID.TID 0000.0001)     ;
(PID.TID 0000.0001) nIter0   =   /* Run starting timestep number */
(PID.TID 0000.0001)                       0
(PID.TID 0000.0001)     ;
(PID.TID 0000.0001) nTimeSteps = /* Number of timesteps */
(PID.TID 0000.0001)                    7200
(PID.TID 0000.0001)     ;
(PID.TID 0000.0001) nEndIter =   /* Run ending timestep number */
(PID.TID 0000.0001)                    7200
(PID.TID 0000.0001)     ;
(PID.TID 0000.0001) baseTime =   /* Model base time ( s ) */
(PID.TID 0000.0001)                 0.000000000000000E+00
(PID.TID 0000.0001)     ;
(PID.TID 0000.0001) startTime =  /* Run start time ( s ) */
(PID.TID 0000.0001)                 0.000000000000000E+00
(PID.TID 0000.0001)     ;
(PID.TID 0000.0001) endTime  =   /* Integration ending time ( s ) */
(PID.TID 0000.0001)                 1.080000000000000E+05
(PID.TID 0000.0001)     ;
(PID.TID 0000.0001) pChkPtFreq = /* Permanent restart/pickup file interval ( s ) */
(PID.TID 0000.0001)                 2.160000000000000E+04
(PID.TID 0000.0001)     ;
(PID.TID 0000.0001) chkPtFreq  = /* Rolling restart/pickup file interval ( s ) */
(PID.TID 0000.0001)                 0.000000000000000E+00
(PID.TID 0000.0001)     ;
(PID.TID 0000.0001) pickup_write_mdsio =   /* Model IO flag. */
(PID.TID 0000.0001)                   T
(PID.TID 0000.0001)     ;
(PID.TID 0000.0001) pickup_read_mdsio =   /* Model IO flag. */
(PID.TID 0000.0001)                   T
(PID.TID 0000.0001)     ;
(PID.TID 0000.0001) pickup_write_immed =   /* Model IO flag. */
(PID.TID 0000.0001)                   F
(PID.TID 0000.0001)     ;
(PID.TID 0000.0001) writePickupAtEnd =   /* Model IO flag. */
(PID.TID 0000.0001)                   T
(PID.TID 0000.0001)     ;
(PID.TID 0000.0001) dumpFreq =   /* Model state write out interval ( s ). */
(PID.TID 0000.0001)                 7.200000000000000E+03
(PID.TID 0000.0001)     ;
(PID.TID 0000.0001) dumpInitAndLast= /* write out Initial & Last iter. model state */
(PID.TID 0000.0001)                   T
(PID.TID 0000.0001)     ;
(PID.TID 0000.0001) snapshot_mdsio =   /* Model IO flag. */
(PID.TID 0000.0001)                   T
(PID.TID 0000.0001)     ;
(PID.TID 0000.0001) monitorFreq =   /* Monitor output interval ( s ). */
(PID.TID 0000.0001)                 7.200000000000000E+03
(PID.TID 0000.0001)     ;
(PID.TID 0000.0001) monitorSelect = /* select group of variables to monitor */
(PID.TID 0000.0001)                       3
(PID.TID 0000.0001)     ;
(PID.TID 0000.0001) monitor_stdio =   /* Model IO flag. */
(PID.TID 0000.0001)                   T
(PID.TID 0000.0001)     ;
(PID.TID 0000.0001) externForcingPeriod =   /* forcing period (s) */
(PID.TID 0000.0001)                 0.000000000000000E+00
(PID.TID 0000.0001)     ;
(PID.TID 0000.0001) externForcingCycle =   /* period of the cyle (s). */
(PID.TID 0000.0001)                 0.000000000000000E+00
(PID.TID 0000.0001)     ;
(PID.TID 0000.0001) tauThetaClimRelax =   /* relaxation time scale (s) */
(PID.TID 0000.0001)                 0.000000000000000E+00
(PID.TID 0000.0001)     ;
(PID.TID 0000.0001) tauSaltClimRelax =   /* relaxation time scale (s) */
(PID.TID 0000.0001)                 0.000000000000000E+00
(PID.TID 0000.0001)     ;
(PID.TID 0000.0001) latBandClimRelax =   /* max. Lat. where relaxation */
(PID.TID 0000.0001)                 1.500000000000000E+04
(PID.TID 0000.0001)     ;
(PID.TID 0000.0001) //
(PID.TID 0000.0001) // Gridding paramters ( PARM04 in namelist )
(PID.TID 0000.0001) //
(PID.TID 0000.0001) usingCartesianGrid = /* Cartesian coordinates flag ( True/False ) */
(PID.TID 0000.0001)                   T
(PID.TID 0000.0001)     ;
(PID.TID 0000.0001) usingCylindricalGrid = /* Cylindrical coordinates flag ( True/False ) */
(PID.TID 0000.0001)                   F
(PID.TID 0000.0001)     ;
(PID.TID 0000.0001) usingSphericalPolarGrid = /* Spherical coordinates flag ( True/False ) */
(PID.TID 0000.0001)                   F
(PID.TID 0000.0001)     ;
(PID.TID 0000.0001) usingCurvilinearGrid = /* Curvilinear coordinates flag ( True/False ) */
(PID.TID 0000.0001)                   F
(PID.TID 0000.0001)     ;
(PID.TID 0000.0001) selectSigmaCoord = /* Hybrid-Sigma Vert. Coordinate option */
(PID.TID 0000.0001)                       0
(PID.TID 0000.0001)     ;
(PID.TID 0000.0001) Ro_SeaLevel = /* r(1) ( units of r ==  m ) */
(PID.TID 0000.0001)                 0.000000000000000E+00
(PID.TID 0000.0001)     ;
(PID.TID 0000.0001) rSigmaBnd = /* r/sigma transition ( units of r ==  m ) */
(PID.TID 0000.0001)                 1.234567000000000E+05
(PID.TID 0000.0001)     ;
(PID.TID 0000.0001) rkSign =   /* index orientation relative to vertical coordinate */
(PID.TID 0000.0001)                -1.000000000000000E+00
(PID.TID 0000.0001)     ;
(PID.TID 0000.0001) gravitySign = /* gravity orientation relative to vertical coordinate */
(PID.TID 0000.0001)                -1.000000000000000E+00
(PID.TID 0000.0001)     ;
(PID.TID 0000.0001) mass2rUnit = /* convert mass per unit area [kg/m2] to r-units [m] */
(PID.TID 0000.0001)                 1.000200040008002E-03
(PID.TID 0000.0001)     ;
(PID.TID 0000.0001) rUnit2mass = /* convert r-units [m] to mass per unit area [kg/m2] */
(PID.TID 0000.0001)                 9.998000000000000E+02
(PID.TID 0000.0001)     ;
(PID.TID 0000.0001) drC =   /* C spacing ( units of r ) */
(PID.TID 0000.0001)                 1.353562536445951E+00,      /* K =  1 */
(PID.TID 0000.0001)                 2.673354807502220E+00,      /* K =  2 */
(PID.TID 0000.0001)                 2.606656816903882E+00,      /* K =  3 */
(PID.TID 0000.0001)                 2.541622885987175E+00,      /* K =  4 */
(PID.TID 0000.0001)                 2.478211497839832E+00,      /* K =  5 */
(PID.TID 0000.0001)                 2.416382171362196E+00,      /* K =  6 */
(PID.TID 0000.0001)                 2.356095435424556E+00,      /* K =  7 */
(PID.TID 0000.0001)                 2.297312803669231E+00,      /* K =  8 */
(PID.TID 0000.0001)                 2.239996749941318E+00,      /* K =  9 */
(PID.TID 0000.0001)                 2.184110684332436E+00,      /* K = 10 */
(PID.TID 0000.0001)                 2.129618929822139E+00,      /* K = 11 */
(PID.TID 0000.0001)                 2.076486699502127E+00,      /* K = 12 */
(PID.TID 0000.0001)                 2.024680074368680E+00,      /* K = 13 */
(PID.TID 0000.0001)                 1.974165981669157E+00,      /* K = 14 */
(PID.TID 0000.0001)                 1.924912173788732E+00,      /* K = 15 */
(PID.TID 0000.0001)                 1.876887207663887E+00,      /* K = 16 */
(PID.TID 0000.0001)                 1.830060424709525E+00,      /* K = 17 */
(PID.TID 0000.0001)                 1.784401931246882E+00,      /* K = 18 */
(PID.TID 0000.0001)                 1.739882579419745E+00,      /* K = 19 */
(PID.TID 0000.0001)                 1.696473948586798E+00,      /* K = 20 */
(PID.TID 0000.0001)                 1.654148327178210E+00,      /* K = 21 */
(PID.TID 0000.0001)                 1.612878695004893E+00,      /* K = 22 */
(PID.TID 0000.0001)                 1.572638706009116E+00,      /* K = 23 */
(PID.TID 0000.0001)                 1.533402671445496E+00,      /* K = 24 */
(PID.TID 0000.0001)                 1.495145543481590E+00,      /* K = 25 */
(PID.TID 0000.0001)                 1.457842899207651E+00,      /* K = 26 */
(PID.TID 0000.0001)                 1.421470925045323E+00,      /* K = 27 */
(PID.TID 0000.0001)                 1.386006401545330E+00,      /* K = 28 */
(PID.TID 0000.0001)                 1.351426688564441E+00,      /* K = 29 */
(PID.TID 0000.0001)                 1.317709710812270E+00,      /* K = 30 */
(PID.TID 0000.0001)                 1.284833943758659E+00,      /* K = 31 */
(PID.TID 0000.0001)                 1.252778399892670E+00,      /* K = 32 */
(PID.TID 0000.0001)                 1.221522615324399E+00,      /* K = 33 */
(PID.TID 0000.0001)                 1.191046636721063E+00,      /* K = 34 */
(PID.TID 0000.0001)                 1.161331008569023E+00,      /* K = 35 */
(PID.TID 0000.0001)                 1.132356760753611E+00,      /* K = 36 */
(PID.TID 0000.0001)                 1.104105396448821E+00,      /* K = 37 */
(PID.TID 0000.0001)                 1.076558880309153E+00,      /* K = 38 */
(PID.TID 0000.0001)                 1.049699626956059E+00,      /* K = 39 */
(PID.TID 0000.0001)                 1.018219822785758E+00,      /* K = 40 */
(PID.TID 0000.0001)     3 @  1.000000000000000E+00,             /* K = 41: 43 */
(PID.TID 0000.0001)                 1.008367036018186E+00,      /* K = 44 */
(PID.TID 0000.0001)                 1.029741944637383E+00,      /* K = 45 */
(PID.TID 0000.0001)                 1.056090529574512E+00,      /* K = 46 */
(PID.TID 0000.0001)                 1.083113310538912E+00,      /* K = 47 */
(PID.TID 0000.0001)                 1.110827538562632E+00,      /* K = 48 */
(PID.TID 0000.0001)                 1.139250906089557E+00,      /* K = 49 */
(PID.TID 0000.0001)                 1.168401558270063E+00,      /* K = 50 */
(PID.TID 0000.0001)                 1.198298104544667E+00,      /* K = 51 */
(PID.TID 0000.0001)                 1.228959630524085E+00,      /* K = 52 */
(PID.TID 0000.0001)                 1.260405710173262E+00,      /* K = 53 */
(PID.TID 0000.0001)                 1.292656418307170E+00,      /* K = 54 */
(PID.TID 0000.0001)                 1.325732343406332E+00,      /* K = 55 */
(PID.TID 0000.0001)                 1.359654600760276E+00,      /* K = 56 */
(PID.TID 0000.0001)                 1.394444845947293E+00,      /* K = 57 */
(PID.TID 0000.0001)                 1.430125288659104E+00,      /* K = 58 */
(PID.TID 0000.0001)                 1.466718706879278E+00,      /* K = 59 */
(PID.TID 0000.0001)                 1.504248461424425E+00,      /* K = 60 */
(PID.TID 0000.0001)                 1.542738510857484E+00,      /* K = 61 */
(PID.TID 0000.0001)                 1.582213426782582E+00,      /* K = 62 */
(PID.TID 0000.0001)                 1.622698409531272E+00,      /* K = 63 */
(PID.TID 0000.0001)                 1.664219304250127E+00,      /* K = 64 */
(PID.TID 0000.0001)                 1.706802617399992E+00,      /* K = 65 */
(PID.TID 0000.0001)                 1.750475533677393E+00,      /* K = 66 */
(PID.TID 0000.0001)                 1.795265933368946E+00,      /* K = 67 */
(PID.TID 0000.0001)                 1.841202410149798E+00,      /* K = 68 */
(PID.TID 0000.0001)                 1.888314289337512E+00,      /* K = 69 */
(PID.TID 0000.0001)                 1.936631646613004E+00,      /* K = 70 */
(PID.TID 0000.0001)                 1.986185327220511E+00,      /* K = 71 */
(PID.TID 0000.0001)                 2.037006965658845E+00,      /* K = 72 */
(PID.TID 0000.0001)                 2.089129005876489E+00,      /* K = 73 */
(PID.TID 0000.0001)                 2.142584721983441E+00,      /* K = 74 */
(PID.TID 0000.0001)                 2.197408239493019E+00,      /* K = 75 */
(PID.TID 0000.0001)                 2.253634557107203E+00,      /* K = 76 */
(PID.TID 0000.0001)                 2.311299569059395E+00,      /* K = 77 */
(PID.TID 0000.0001)                 2.370440088028889E+00,      /* K = 78 */
(PID.TID 0000.0001)                 2.431093868641659E+00,      /* K = 79 */
(PID.TID 0000.0001)                 2.493299631572482E+00,      /* K = 80 */
(PID.TID 0000.0001)                 2.557097088263764E+00,      /* K = 81 */
(PID.TID 0000.0001)                 2.622526966276870E+00,      /* K = 82 */
(PID.TID 0000.0001)                 2.689631035292131E+00,      /* K = 83 */
(PID.TID 0000.0001)                 2.758452133774128E+00,      /* K = 84 */
(PID.TID 0000.0001)                 2.829034196319270E+00,      /* K = 85 */
(PID.TID 0000.0001)                 2.901422281703137E+00,      /* K = 86 */
(PID.TID 0000.0001)                 2.975662601645483E+00,      /* K = 87 */
(PID.TID 0000.0001)                 3.051802550311265E+00,      /* K = 88 */
(PID.TID 0000.0001)                 3.129890734566534E+00,      /* K = 89 */
(PID.TID 0000.0001)                 3.209977005008493E+00,      /* K = 90 */
(PID.TID 0000.0001)                 3.292112487789551E+00,      /* K = 91 */
(PID.TID 0000.0001)                 3.376349617255663E+00,      /* K = 92 */
(PID.TID 0000.0001)                 3.462742169419818E+00,      /* K = 93 */
(PID.TID 0000.0001)                 3.551345296292022E+00,      /* K = 94 */
(PID.TID 0000.0001)                 3.642215561087707E+00,      /* K = 95 */
(PID.TID 0000.0001)                 3.735410974337039E+00,      /* K = 96 */
(PID.TID 0000.0001)                 3.830991030918167E+00,      /* K = 97 */
(PID.TID 0000.0001)                 3.929016748038072E+00,      /* K = 98 */
(PID.TID 0000.0001)                 4.029550704185248E+00,      /* K = 99 */
(PID.TID 0000.0001)                 4.132657079079086E+00,      /* K =100 */
(PID.TID 0000.0001)                 2.092430747509357E+00       /* K =101 */
(PID.TID 0000.0001)     ;
(PID.TID 0000.0001) drF =   /* W spacing ( units of r ) */
(PID.TID 0000.0001)                 2.707125072891902E+00,      /* K =  1 */
(PID.TID 0000.0001)                 2.639584542112537E+00,      /* K =  2 */
(PID.TID 0000.0001)                 2.573729091695228E+00,      /* K =  3 */
(PID.TID 0000.0001)                 2.509516680279123E+00,      /* K =  4 */
(PID.TID 0000.0001)                 2.446906315400540E+00,      /* K =  5 */
(PID.TID 0000.0001)                 2.385858027323851E+00,      /* K =  6 */
(PID.TID 0000.0001)                 2.326332843525261E+00,      /* K =  7 */
(PID.TID 0000.0001)                 2.268292763813200E+00,      /* K =  8 */
(PID.TID 0000.0001)                 2.211700736069437E+00,      /* K =  9 */
(PID.TID 0000.0001)                 2.156520632595434E+00,      /* K = 10 */
(PID.TID 0000.0001)                 2.102717227048843E+00,      /* K = 11 */
(PID.TID 0000.0001)                 2.050256171955411E+00,      /* K = 12 */
(PID.TID 0000.0001)                 1.999103976781950E+00,      /* K = 13 */
(PID.TID 0000.0001)                 1.949227986556365E+00,      /* K = 14 */
(PID.TID 0000.0001)                 1.900596361021098E+00,      /* K = 15 */
(PID.TID 0000.0001)                 1.853178054306675E+00,      /* K = 16 */
(PID.TID 0000.0001)                 1.806942795112376E+00,      /* K = 17 */
(PID.TID 0000.0001)                 1.761861067381389E+00,      /* K = 18 */
(PID.TID 0000.0001)                 1.717904091458102E+00,      /* K = 19 */
(PID.TID 0000.0001)                 1.675043805715495E+00,      /* K = 20 */
(PID.TID 0000.0001)                 1.633252848640927E+00,      /* K = 21 */
(PID.TID 0000.0001)                 1.592504541368859E+00,      /* K = 22 */
(PID.TID 0000.0001)                 1.552772870649374E+00,      /* K = 23 */
(PID.TID 0000.0001)                 1.514032472241619E+00,      /* K = 24 */
(PID.TID 0000.0001)                 1.476258614721562E+00,      /* K = 25 */
(PID.TID 0000.0001)                 1.439427183693740E+00,      /* K = 26 */
(PID.TID 0000.0001)                 1.403514666396906E+00,      /* K = 27 */
(PID.TID 0000.0001)                 1.368498136693753E+00,      /* K = 28 */
(PID.TID 0000.0001)                 1.334355240435129E+00,      /* K = 29 */
(PID.TID 0000.0001)                 1.301064181189410E+00,      /* K = 30 */
(PID.TID 0000.0001)                 1.268603706327907E+00,      /* K = 31 */
(PID.TID 0000.0001)                 1.236953093457433E+00,      /* K = 32 */
(PID.TID 0000.0001)                 1.206092137191365E+00,      /* K = 33 */
(PID.TID 0000.0001)                 1.176001136250761E+00,      /* K = 34 */
(PID.TID 0000.0001)                 1.146660880887286E+00,      /* K = 35 */
(PID.TID 0000.0001)                 1.118052640619935E+00,      /* K = 36 */
(PID.TID 0000.0001)                 1.090158152277706E+00,      /* K = 37 */
(PID.TID 0000.0001)                 1.062959608340601E+00,      /* K = 38 */
(PID.TID 0000.0001)                 1.036439645571516E+00,      /* K = 39 */
(PID.TID 0000.0001)     4 @  1.000000000000000E+00,             /* K = 40: 43 */
(PID.TID 0000.0001)                 1.016734072036371E+00,      /* K = 44 */
(PID.TID 0000.0001)                 1.042749817238396E+00,      /* K = 45 */
(PID.TID 0000.0001)                 1.069431241910629E+00,      /* K = 46 */
(PID.TID 0000.0001)                 1.096795379167196E+00,      /* K = 47 */
(PID.TID 0000.0001)                 1.124859697958069E+00,      /* K = 48 */
(PID.TID 0000.0001)                 1.153642114221046E+00,      /* K = 49 */
(PID.TID 0000.0001)                 1.183161002319080E+00,      /* K = 50 */
(PID.TID 0000.0001)                 1.213435206770255E+00,      /* K = 51 */
(PID.TID 0000.0001)                 1.244484054277915E+00,      /* K = 52 */
(PID.TID 0000.0001)                 1.276327366068610E+00,      /* K = 53 */
(PID.TID 0000.0001)                 1.308985470545730E+00,      /* K = 54 */
(PID.TID 0000.0001)                 1.342479216266933E+00,      /* K = 55 */
(PID.TID 0000.0001)                 1.376829985253619E+00,      /* K = 56 */
(PID.TID 0000.0001)                 1.412059706640966E+00,      /* K = 57 */
(PID.TID 0000.0001)                 1.448190870677242E+00,      /* K = 58 */
(PID.TID 0000.0001)                 1.485246543081313E+00,      /* K = 59 */
(PID.TID 0000.0001)                 1.523250379767538E+00,      /* K = 60 */
(PID.TID 0000.0001)                 1.562226641947430E+00,      /* K = 61 */
(PID.TID 0000.0001)                 1.602200211617735E+00,      /* K = 62 */
(PID.TID 0000.0001)                 1.643196607444809E+00,      /* K = 63 */
(PID.TID 0000.0001)                 1.685242001055446E+00,      /* K = 64 */
(PID.TID 0000.0001)                 1.728363233744537E+00,      /* K = 65 */
(PID.TID 0000.0001)                 1.772587833610249E+00,      /* K = 66 */
(PID.TID 0000.0001)                 1.817944033127642E+00,      /* K = 67 */
(PID.TID 0000.0001)                 1.864460787171955E+00,      /* K = 68 */
(PID.TID 0000.0001)                 1.912167791503070E+00,      /* K = 69 */
(PID.TID 0000.0001)                 1.961095501722937E+00,      /* K = 70 */
(PID.TID 0000.0001)                 2.011275152718084E+00,      /* K = 71 */
(PID.TID 0000.0001)                 2.062738778599606E+00,      /* K = 72 */
(PID.TID 0000.0001)                 2.115519233153373E+00,      /* K = 73 */
(PID.TID 0000.0001)                 2.169650210813509E+00,      /* K = 74 */
(PID.TID 0000.0001)                 2.225166268172530E+00,      /* K = 75 */
(PID.TID 0000.0001)                 2.282102846041876E+00,      /* K = 76 */
(PID.TID 0000.0001)                 2.340496292076914E+00,      /* K = 77 */
(PID.TID 0000.0001)                 2.400383883980863E+00,      /* K = 78 */
(PID.TID 0000.0001)                 2.461803853302456E+00,      /* K = 79 */
(PID.TID 0000.0001)                 2.524795409842509E+00,      /* K = 80 */
(PID.TID 0000.0001)                 2.589398766685018E+00,      /* K = 81 */
(PID.TID 0000.0001)                 2.655655165868721E+00,      /* K = 82 */
(PID.TID 0000.0001)                 2.723606904715541E+00,      /* K = 83 */
(PID.TID 0000.0001)                 2.793297362832715E+00,      /* K = 84 */
(PID.TID 0000.0001)                 2.864771029805825E+00,      /* K = 85 */
(PID.TID 0000.0001)                 2.938073533600448E+00,      /* K = 86 */
(PID.TID 0000.0001)                 3.013251669690518E+00,      /* K = 87 */
(PID.TID 0000.0001)                 3.090353430932014E+00,      /* K = 88 */
(PID.TID 0000.0001)                 3.169428038201054E+00,      /* K = 89 */
(PID.TID 0000.0001)                 3.250525971815932E+00,      /* K = 90 */
(PID.TID 0000.0001)                 3.333699003763170E+00,      /* K = 91 */
(PID.TID 0000.0001)                 3.419000230748157E+00,      /* K = 92 */
(PID.TID 0000.0001)                 3.506484108091479E+00,      /* K = 93 */
(PID.TID 0000.0001)                 3.596206484492564E+00,      /* K = 94 */
(PID.TID 0000.0001)                 3.688224637682850E+00,      /* K = 95 */
(PID.TID 0000.0001)                 3.782597310991227E+00,      /* K = 96 */
(PID.TID 0000.0001)                 3.879384750845106E+00,      /* K = 97 */
(PID.TID 0000.0001)                 3.978648745231038E+00,      /* K = 98 */
(PID.TID 0000.0001)                 4.080452663139458E+00,      /* K = 99 */
(PID.TID 0000.0001)                 4.184861495018715E+00       /* K =100 */
(PID.TID 0000.0001)     ;
(PID.TID 0000.0001) delX = /* U spacing ( m - cartesian, degrees - spherical ) */
(PID.TID 0000.0001)                 1.263294638016668E+03,      /* I =  1 */
(PID.TID 0000.0001)                 1.237496063806571E+03,      /* I =  2 */
(PID.TID 0000.0001)                 1.212224339320398E+03,      /* I =  3 */
(PID.TID 0000.0001)      . . .
(PID.TID 0000.0001)                 4.790113490274632E+02,      /* I = 48 */
(PID.TID 0000.0001)                 4.692291418815790E+02,      /* I = 49 */
(PID.TID 0000.0001)                 4.596467036489769E+02,      /* I = 50 */
(PID.TID 0000.0001)                 4.502599547167311E+02,      /* I = 51 */
(PID.TID 0000.0001)                 4.410648987843862E+02,      /* I = 52 */
(PID.TID 0000.0001)                 4.320576211625778E+02,      /* I = 53 */
(PID.TID 0000.0001)      . . .
(PID.TID 0000.0001)                 2.000000000000000E+02,      /* I = 98 */
(PID.TID 0000.0001)                 2.000000000000000E+02,      /* I = 99 */
(PID.TID 0000.0001)                 2.000000000000000E+02,      /* I =100 */
(PID.TID 0000.0001)                 2.000000000000000E+02,      /* I =101 */
(PID.TID 0000.0001)                 2.000000000000000E+02,      /* I =102 */
(PID.TID 0000.0001)                 2.000000000000000E+02,      /* I =103 */
(PID.TID 0000.0001)      . . .
(PID.TID 0000.0001)                 3.612641354876311E+02,      /* I =148 */
(PID.TID 0000.0001)                 3.687955530665730E+02,      /* I =149 */
(PID.TID 0000.0001)                 3.764839811128614E+02,      /* I =150 */
(PID.TID 0000.0001)                 3.843326928863569E+02,      /* I =151 */
(PID.TID 0000.0001)                 3.923450298858749E+02,      /* I =152 */
(PID.TID 0000.0001)                 4.005244032717896E+02,      /* I =153 */
(PID.TID 0000.0001)      . . .
(PID.TID 0000.0001)                 1.013599012055986E+03,      /* I =198 */
(PID.TID 0000.0001)                 1.034729915092050E+03,      /* I =199 */
(PID.TID 0000.0001)                 1.056301342495056E+03       /* I =200 */
(PID.TID 0000.0001)     ;
(PID.TID 0000.0001) delY = /* V spacing ( m - cartesian, degrees - spherical ) */
(PID.TID 0000.0001)                 5.000000000000000E+03       /* J =  1 */
(PID.TID 0000.0001)     ;
(PID.TID 0000.0001) xgOrigin = /* X-axis origin of West  edge (cartesian: m, lat-lon: deg) */
(PID.TID 0000.0001)                 0.000000000000000E+00
(PID.TID 0000.0001)     ;
(PID.TID 0000.0001) ygOrigin = /* Y-axis origin of South edge (cartesian: m, lat-lon: deg) */
(PID.TID 0000.0001)                 0.000000000000000E+00
(PID.TID 0000.0001)     ;
(PID.TID 0000.0001) rSphere =  /* Radius ( ignored - cartesian, m - spherical ) */
(PID.TID 0000.0001)                 6.370000000000000E+06
(PID.TID 0000.0001)     ;
(PID.TID 0000.0001) deepAtmosphere = /* Deep/Shallow Atmosphere flag (True/False) */
(PID.TID 0000.0001)                   F
(PID.TID 0000.0001)     ;
(PID.TID 0000.0001) xC =  /* xC(:,1,:,1) : P-point X coord ( deg. or m if cartesian) */
(PID.TID 0000.0001)                 6.316473190083342E+02,      /* I =  1 */
(PID.TID 0000.0001)                 1.882042669919954E+03,      /* I =  2 */
(PID.TID 0000.0001)                 3.106902871483439E+03,      /* I =  3 */
(PID.TID 0000.0001)      . . .
(PID.TID 0000.0001)                 3.864398747251778E+04,      /* I = 48 */
(PID.TID 0000.0001)                 3.911810771797229E+04,      /* I = 49 */
(PID.TID 0000.0001)                 3.958254564073758E+04,      /* I = 50 */
(PID.TID 0000.0001)                 4.003749896992043E+04,      /* I = 51 */
(PID.TID 0000.0001)                 4.048316139667099E+04,      /* I = 52 */
(PID.TID 0000.0001)                 4.091972265664447E+04,      /* I = 53 */
(PID.TID 0000.0001)      . . .
(PID.TID 0000.0001)                 5.369999999999999E+04,      /* I = 98 */
(PID.TID 0000.0001)                 5.389999999999999E+04,      /* I = 99 */
(PID.TID 0000.0001)                 5.409999999999999E+04,      /* I =100 */
(PID.TID 0000.0001)                 5.429999999999999E+04,      /* I =101 */
(PID.TID 0000.0001)                 5.449999999999999E+04,      /* I =102 */
(PID.TID 0000.0001)                 5.469999999999999E+04,      /* I =103 */
(PID.TID 0000.0001)      . . .
(PID.TID 0000.0001)                 6.578505387737689E+04,      /* I =148 */
(PID.TID 0000.0001)                 6.615008372165399E+04,      /* I =149 */
(PID.TID 0000.0001)                 6.652272348874371E+04,      /* I =150 */
(PID.TID 0000.0001)                 6.690313182574332E+04,      /* I =151 */
(PID.TID 0000.0001)                 6.729147068712943E+04,      /* I =152 */
(PID.TID 0000.0001)                 6.768790540370827E+04,      /* I =153 */
(PID.TID 0000.0001)      . . .
(PID.TID 0000.0001)                 9.740216923638493E+04,      /* I =198 */
(PID.TID 0000.0001)                 9.842633369995895E+04,      /* I =199 */
(PID.TID 0000.0001)                 9.947184932875249E+04       /* I =200 */
(PID.TID 0000.0001)     ;
(PID.TID 0000.0001) yC =  /* yC(1,:,1,:) : P-point Y coord ( deg. or m if cartesian) */
(PID.TID 0000.0001)                 2.500000000000000E+03       /* J =  1 */
(PID.TID 0000.0001)     ;
(PID.TID 0000.0001) rcoord = /* P-point R coordinate (  units of r ) */
(PID.TID 0000.0001)                -1.353562536445951E+00,      /* K =  1 */
(PID.TID 0000.0001)                -4.026917343948170E+00,      /* K =  2 */
(PID.TID 0000.0001)                -6.633574160852053E+00,      /* K =  3 */
(PID.TID 0000.0001)                -9.175197046839228E+00,      /* K =  4 */
(PID.TID 0000.0001)                -1.165340854467906E+01,      /* K =  5 */
(PID.TID 0000.0001)                -1.406979071604126E+01,      /* K =  6 */
(PID.TID 0000.0001)                -1.642588615146581E+01,      /* K =  7 */
(PID.TID 0000.0001)                -1.872319895513504E+01,      /* K =  8 */
(PID.TID 0000.0001)                -2.096319570507636E+01,      /* K =  9 */
(PID.TID 0000.0001)                -2.314730638940879E+01,      /* K = 10 */
(PID.TID 0000.0001)                -2.527692531923093E+01,      /* K = 11 */
(PID.TID 0000.0001)                -2.735341201873306E+01,      /* K = 12 */
(PID.TID 0000.0001)                -2.937809209310174E+01,      /* K = 13 */
(PID.TID 0000.0001)                -3.135225807477090E+01,      /* K = 14 */
(PID.TID 0000.0001)                -3.327717024855963E+01,      /* K = 15 */
(PID.TID 0000.0001)                -3.515405745622351E+01,      /* K = 16 */
(PID.TID 0000.0001)                -3.698411788093303E+01,      /* K = 17 */
(PID.TID 0000.0001)                -3.876851981217992E+01,      /* K = 18 */
(PID.TID 0000.0001)                -4.050840239159966E+01,      /* K = 19 */
(PID.TID 0000.0001)                -4.220487634018646E+01,      /* K = 20 */
(PID.TID 0000.0001)                -4.385902466736467E+01,      /* K = 21 */
(PID.TID 0000.0001)                -4.547190336236957E+01,      /* K = 22 */
(PID.TID 0000.0001)                -4.704454206837868E+01,      /* K = 23 */
(PID.TID 0000.0001)                -4.857794473982418E+01,      /* K = 24 */
(PID.TID 0000.0001)                -5.007309028330577E+01,      /* K = 25 */
(PID.TID 0000.0001)                -5.153093318251342E+01,      /* K = 26 */
(PID.TID 0000.0001)                -5.295240410755873E+01,      /* K = 27 */
(PID.TID 0000.0001)                -5.433841050910407E+01,      /* K = 28 */
(PID.TID 0000.0001)                -5.568983719766851E+01,      /* K = 29 */
(PID.TID 0000.0001)                -5.700754690848078E+01,      /* K = 30 */
(PID.TID 0000.0001)                -5.829238085223943E+01,      /* K = 31 */
(PID.TID 0000.0001)                -5.954515925213210E+01,      /* K = 32 */
(PID.TID 0000.0001)                -6.076668186745650E+01,      /* K = 33 */
(PID.TID 0000.0001)                -6.195772850417756E+01,      /* K = 34 */
(PID.TID 0000.0001)                -6.311905951274658E+01,      /* K = 35 */
(PID.TID 0000.0001)                -6.425141627350020E+01,      /* K = 36 */
(PID.TID 0000.0001)                -6.535552166994901E+01,      /* K = 37 */
(PID.TID 0000.0001)                -6.643208055025816E+01,      /* K = 38 */
(PID.TID 0000.0001)                -6.748178017721422E+01,      /* K = 39 */
(PID.TID 0000.0001)                -6.849999999999997E+01,      /* K = 40 */
(PID.TID 0000.0001)                -6.949999999999997E+01,      /* K = 41 */
(PID.TID 0000.0001)                -7.049999999999997E+01,      /* K = 42 */
(PID.TID 0000.0001)                -7.149999999999997E+01,      /* K = 43 */
(PID.TID 0000.0001)                -7.250836703601816E+01,      /* K = 44 */
(PID.TID 0000.0001)                -7.353810898065554E+01,      /* K = 45 */
(PID.TID 0000.0001)                -7.459419951023006E+01,      /* K = 46 */
(PID.TID 0000.0001)                -7.567731282076896E+01,      /* K = 47 */
(PID.TID 0000.0001)                -7.678814035933159E+01,      /* K = 48 */
(PID.TID 0000.0001)                -7.792739126542115E+01,      /* K = 49 */
(PID.TID 0000.0001)                -7.909579282369121E+01,      /* K = 50 */
(PID.TID 0000.0001)                -8.029409092823587E+01,      /* K = 51 */
(PID.TID 0000.0001)                -8.152305055875996E+01,      /* K = 52 */
(PID.TID 0000.0001)                -8.278345626893322E+01,      /* K = 53 */
(PID.TID 0000.0001)                -8.407611268724040E+01,      /* K = 54 */
(PID.TID 0000.0001)                -8.540184503064673E+01,      /* K = 55 */
(PID.TID 0000.0001)                -8.676149963140701E+01,      /* K = 56 */
(PID.TID 0000.0001)                -8.815594447735430E+01,      /* K = 57 */
(PID.TID 0000.0001)                -8.958606976601340E+01,      /* K = 58 */
(PID.TID 0000.0001)                -9.105278847289267E+01,      /* K = 59 */
(PID.TID 0000.0001)                -9.255703693431710E+01,      /* K = 60 */
(PID.TID 0000.0001)                -9.409977544517459E+01,      /* K = 61 */
(PID.TID 0000.0001)                -9.568198887195717E+01,      /* K = 62 */
(PID.TID 0000.0001)                -9.730468728148844E+01,      /* K = 63 */
(PID.TID 0000.0001)                -9.896890658573857E+01,      /* K = 64 */
(PID.TID 0000.0001)                -1.006757092031386E+02,      /* K = 65 */
(PID.TID 0000.0001)                -1.024261847368159E+02,      /* K = 66 */
(PID.TID 0000.0001)                -1.042214506701849E+02,      /* K = 67 */
(PID.TID 0000.0001)                -1.060626530803347E+02,      /* K = 68 */
(PID.TID 0000.0001)                -1.079509673696722E+02,      /* K = 69 */
(PID.TID 0000.0001)                -1.098875990162852E+02,      /* K = 70 */
(PID.TID 0000.0001)                -1.118737843435057E+02,      /* K = 71 */
(PID.TID 0000.0001)                -1.139107913091646E+02,      /* K = 72 */
(PID.TID 0000.0001)                -1.159999203150411E+02,      /* K = 73 */
(PID.TID 0000.0001)                -1.181425050370245E+02,      /* K = 74 */
(PID.TID 0000.0001)                -1.203399132765175E+02,      /* K = 75 */
(PID.TID 0000.0001)                -1.225935478336247E+02,      /* K = 76 */
(PID.TID 0000.0001)                -1.249048474026841E+02,      /* K = 77 */
(PID.TID 0000.0001)                -1.272752874907130E+02,      /* K = 78 */
(PID.TID 0000.0001)                -1.297063813593547E+02,      /* K = 79 */
(PID.TID 0000.0001)                -1.321996809909272E+02,      /* K = 80 */
(PID.TID 0000.0001)                -1.347567780791909E+02,      /* K = 81 */
(PID.TID 0000.0001)                -1.373793050454678E+02,      /* K = 82 */
(PID.TID 0000.0001)                -1.400689360807599E+02,      /* K = 83 */
(PID.TID 0000.0001)                -1.428273882145340E+02,      /* K = 84 */
(PID.TID 0000.0001)                -1.456564224108533E+02,      /* K = 85 */
(PID.TID 0000.0001)                -1.485578446925564E+02,      /* K = 86 */
(PID.TID 0000.0001)                -1.515335072942019E+02,      /* K = 87 */
(PID.TID 0000.0001)                -1.545853098445132E+02,      /* K = 88 */
(PID.TID 0000.0001)                -1.577152005790797E+02,      /* K = 89 */
(PID.TID 0000.0001)                -1.609251775840882E+02,      /* K = 90 */
(PID.TID 0000.0001)                -1.642172900718778E+02,      /* K = 91 */
(PID.TID 0000.0001)                -1.675936396891335E+02,      /* K = 92 */
(PID.TID 0000.0001)                -1.710563818585533E+02,      /* K = 93 */
(PID.TID 0000.0001)                -1.746077271548453E+02,      /* K = 94 */
(PID.TID 0000.0001)                -1.782499427159330E+02,      /* K = 95 */
(PID.TID 0000.0001)                -1.819853536902700E+02,      /* K = 96 */
(PID.TID 0000.0001)                -1.858163447211882E+02,      /* K = 97 */
(PID.TID 0000.0001)                -1.897453614692263E+02,      /* K = 98 */
(PID.TID 0000.0001)                -1.937749121734115E+02,      /* K = 99 */
(PID.TID 0000.0001)                -1.979075692524906E+02       /* K =100 */
(PID.TID 0000.0001)     ;
(PID.TID 0000.0001) rF =   /* W-Interf. R coordinate (  units of r ) */
(PID.TID 0000.0001)                 0.000000000000000E+00,      /* K =  1 */
(PID.TID 0000.0001)                -2.707125072891902E+00,      /* K =  2 */
(PID.TID 0000.0001)                -5.346709615004439E+00,      /* K =  3 */
(PID.TID 0000.0001)                -7.920438706699667E+00,      /* K =  4 */
(PID.TID 0000.0001)                -1.042995538697879E+01,      /* K =  5 */
(PID.TID 0000.0001)                -1.287686170237933E+01,      /* K =  6 */
(PID.TID 0000.0001)                -1.526271972970318E+01,      /* K =  7 */
(PID.TID 0000.0001)                -1.758905257322844E+01,      /* K =  8 */
(PID.TID 0000.0001)                -1.985734533704164E+01,      /* K =  9 */
(PID.TID 0000.0001)                -2.206904607311108E+01,      /* K = 10 */
(PID.TID 0000.0001)                -2.422556670570651E+01,      /* K = 11 */
(PID.TID 0000.0001)                -2.632828393275535E+01,      /* K = 12 */
(PID.TID 0000.0001)                -2.837854010471077E+01,      /* K = 13 */
(PID.TID 0000.0001)                -3.037764408149271E+01,      /* K = 14 */
(PID.TID 0000.0001)                -3.232687206804908E+01,      /* K = 15 */
(PID.TID 0000.0001)                -3.422746842907018E+01,      /* K = 16 */
(PID.TID 0000.0001)                -3.608064648337685E+01,      /* K = 17 */
(PID.TID 0000.0001)                -3.788758927848923E+01,      /* K = 18 */
(PID.TID 0000.0001)                -3.964945034587062E+01,      /* K = 19 */
(PID.TID 0000.0001)                -4.136735443732872E+01,      /* K = 20 */
(PID.TID 0000.0001)                -4.304239824304422E+01,      /* K = 21 */
(PID.TID 0000.0001)                -4.467565109168515E+01,      /* K = 22 */
(PID.TID 0000.0001)                -4.626815563305401E+01,      /* K = 23 */
(PID.TID 0000.0001)                -4.782092850370339E+01,      /* K = 24 */
(PID.TID 0000.0001)                -4.933496097594500E+01,      /* K = 25 */
(PID.TID 0000.0001)                -5.081121959066656E+01,      /* K = 26 */
(PID.TID 0000.0001)                -5.225064677436030E+01,      /* K = 27 */
(PID.TID 0000.0001)                -5.365416144075721E+01,      /* K = 28 */
(PID.TID 0000.0001)                -5.502265957745096E+01,      /* K = 29 */
(PID.TID 0000.0001)                -5.635701481788609E+01,      /* K = 30 */
(PID.TID 0000.0001)                -5.765807899907550E+01,      /* K = 31 */
(PID.TID 0000.0001)                -5.892668270540341E+01,      /* K = 32 */
(PID.TID 0000.0001)                -6.016363579886084E+01,      /* K = 33 */
(PID.TID 0000.0001)                -6.136972793605220E+01,      /* K = 34 */
(PID.TID 0000.0001)                -6.254572907230296E+01,      /* K = 35 */
(PID.TID 0000.0001)                -6.369238995319025E+01,      /* K = 36 */
(PID.TID 0000.0001)                -6.481044259381018E+01,      /* K = 37 */
(PID.TID 0000.0001)                -6.590060074608789E+01,      /* K = 38 */
(PID.TID 0000.0001)                -6.696356035442849E+01,      /* K = 39 */
(PID.TID 0000.0001)                -6.800000000000001E+01,      /* K = 40 */
(PID.TID 0000.0001)                -6.900000000000001E+01,      /* K = 41 */
(PID.TID 0000.0001)                -7.000000000000001E+01,      /* K = 42 */
(PID.TID 0000.0001)                -7.100000000000001E+01,      /* K = 43 */
(PID.TID 0000.0001)                -7.200000000000001E+01,      /* K = 44 */
(PID.TID 0000.0001)                -7.301673407203639E+01,      /* K = 45 */
(PID.TID 0000.0001)                -7.405948388927479E+01,      /* K = 46 */
(PID.TID 0000.0001)                -7.512891513118542E+01,      /* K = 47 */
(PID.TID 0000.0001)                -7.622571051035261E+01,      /* K = 48 */
(PID.TID 0000.0001)                -7.735057020831069E+01,      /* K = 49 */
(PID.TID 0000.0001)                -7.850421232253173E+01,      /* K = 50 */
(PID.TID 0000.0001)                -7.968737332485081E+01,      /* K = 51 */
(PID.TID 0000.0001)                -8.090080853162107E+01,      /* K = 52 */
(PID.TID 0000.0001)                -8.214529258589899E+01,      /* K = 53 */
(PID.TID 0000.0001)                -8.342161995196760E+01,      /* K = 54 */
(PID.TID 0000.0001)                -8.473060542251334E+01,      /* K = 55 */
(PID.TID 0000.0001)                -8.607308463878027E+01,      /* K = 56 */
(PID.TID 0000.0001)                -8.744991462403389E+01,      /* K = 57 */
(PID.TID 0000.0001)                -8.886197433067485E+01,      /* K = 58 */
(PID.TID 0000.0001)                -9.031016520135209E+01,      /* K = 59 */
(PID.TID 0000.0001)                -9.179541174443341E+01,      /* K = 60 */
(PID.TID 0000.0001)                -9.331866212420094E+01,      /* K = 61 */
(PID.TID 0000.0001)                -9.488088876614837E+01,      /* K = 62 */
(PID.TID 0000.0001)                -9.648308897776610E+01,      /* K = 63 */
(PID.TID 0000.0001)                -9.812628558521091E+01,      /* K = 64 */
(PID.TID 0000.0001)                -9.981152758626635E+01,      /* K = 65 */
(PID.TID 0000.0001)                -1.015398908200109E+02,      /* K = 66 */
(PID.TID 0000.0001)                -1.033124786536211E+02,      /* K = 67 */
(PID.TID 0000.0001)                -1.051304226867488E+02,      /* K = 68 */
(PID.TID 0000.0001)                -1.069948834739207E+02,      /* K = 69 */
(PID.TID 0000.0001)                -1.089070512654238E+02,      /* K = 70 */
(PID.TID 0000.0001)                -1.108681467671467E+02,      /* K = 71 */
(PID.TID 0000.0001)                -1.128794219198648E+02,      /* K = 72 */
(PID.TID 0000.0001)                -1.149421606984644E+02,      /* K = 73 */
(PID.TID 0000.0001)                -1.170576799316178E+02,      /* K = 74 */
(PID.TID 0000.0001)                -1.192273301424313E+02,      /* K = 75 */
(PID.TID 0000.0001)                -1.214524964106038E+02,      /* K = 76 */
(PID.TID 0000.0001)                -1.237345992566457E+02,      /* K = 77 */
(PID.TID 0000.0001)                -1.260750955487226E+02,      /* K = 78 */
(PID.TID 0000.0001)                -1.284754794327035E+02,      /* K = 79 */
(PID.TID 0000.0001)                -1.309372832860059E+02,      /* K = 80 */
(PID.TID 0000.0001)                -1.334620786958484E+02,      /* K = 81 */
(PID.TID 0000.0001)                -1.360514774625335E+02,      /* K = 82 */
(PID.TID 0000.0001)                -1.387071326284022E+02,      /* K = 83 */
(PID.TID 0000.0001)                -1.414307395331177E+02,      /* K = 84 */
(PID.TID 0000.0001)                -1.442240368959504E+02,      /* K = 85 */
(PID.TID 0000.0001)                -1.470888079257563E+02,      /* K = 86 */
(PID.TID 0000.0001)                -1.500268814593567E+02,      /* K = 87 */
(PID.TID 0000.0001)                -1.530401331290472E+02,      /* K = 88 */
(PID.TID 0000.0001)                -1.561304865599793E+02,      /* K = 89 */
(PID.TID 0000.0001)                -1.592999145981803E+02,      /* K = 90 */
(PID.TID 0000.0001)                -1.625504405699963E+02,      /* K = 91 */
(PID.TID 0000.0001)                -1.658841395737594E+02,      /* K = 92 */
(PID.TID 0000.0001)                -1.693031398045076E+02,      /* K = 93 */
(PID.TID 0000.0001)                -1.728096239125991E+02,      /* K = 94 */
(PID.TID 0000.0001)                -1.764058303970916E+02,      /* K = 95 */
(PID.TID 0000.0001)                -1.800940550347745E+02,      /* K = 96 */
(PID.TID 0000.0001)                -1.838766523457657E+02,      /* K = 97 */
(PID.TID 0000.0001)                -1.877560370966108E+02,      /* K = 98 */
(PID.TID 0000.0001)                -1.917346858418419E+02,      /* K = 99 */
(PID.TID 0000.0001)                -1.958151385049813E+02,      /* K =100 */
(PID.TID 0000.0001)                -2.000000000000000E+02       /* K =101 */
(PID.TID 0000.0001)     ;
(PID.TID 0000.0001) deepFacC = /* deep-model grid factor @ cell-Center (-) */
(PID.TID 0000.0001)   100 @  1.000000000000000E+00              /* K =  1:100 */
(PID.TID 0000.0001)     ;
(PID.TID 0000.0001) deepFacF = /* deep-model grid factor @ W-Interface (-) */
(PID.TID 0000.0001)   101 @  1.000000000000000E+00              /* K =  1:101 */
(PID.TID 0000.0001)     ;
(PID.TID 0000.0001) rVel2wUnit = /* convert units: rVel -> wSpeed (=1 if z-coord)*/
(PID.TID 0000.0001)   101 @  1.000000000000000E+00              /* K =  1:101 */
(PID.TID 0000.0001)     ;
(PID.TID 0000.0001) wUnit2rVel = /* convert units: wSpeed -> rVel (=1 if z-coord)*/
(PID.TID 0000.0001)   101 @  1.000000000000000E+00              /* K =  1:101 */
(PID.TID 0000.0001)     ;
(PID.TID 0000.0001) dBdrRef = /* Vertical grad. of reference buoyancy [(m/s/r)^2] */
(PID.TID 0000.0001)    75 @  0.000000000000000E+00,             /* K =  1: 75 */
(PID.TID 0000.0001)                 5.825604791735191E-07,      /* K = 76 */
(PID.TID 0000.0001)                 1.881044027114069E-05,      /* K = 77 */
(PID.TID 0000.0001)                 2.234407706281814E-04,      /* K = 78 */
(PID.TID 0000.0001)                 9.764081562253908E-04,      /* K = 79 */
(PID.TID 0000.0001)                 1.569661096815331E-03,      /* K = 80 */
(PID.TID 0000.0001)                 9.282947811351950E-04,      /* K = 81 */
(PID.TID 0000.0001)                 2.019628270015629E-04,      /* K = 82 */
(PID.TID 0000.0001)                 1.616450803921616E-05,      /* K = 83 */
(PID.TID 0000.0001)                 4.759475110681318E-07,      /* K = 84 */
(PID.TID 0000.0001)    16 @  0.000000000000000E+00              /* K = 85:100 */
(PID.TID 0000.0001)     ;
(PID.TID 0000.0001) rotateGrid = /* use rotated grid ( True/False ) */
(PID.TID 0000.0001)                   F
(PID.TID 0000.0001)     ;
(PID.TID 0000.0001) phiEuler = /* Euler angle, rotation about original z-coordinate [rad] */
(PID.TID 0000.0001)                 0.000000000000000E+00
(PID.TID 0000.0001)     ;
(PID.TID 0000.0001) thetaEuler = /* Euler angle, rotation about new x-coordinate [rad] */
(PID.TID 0000.0001)                 0.000000000000000E+00
(PID.TID 0000.0001)     ;
(PID.TID 0000.0001) psiEuler = /* Euler angle, rotation about new z-coordinate [rad] */
(PID.TID 0000.0001)                 0.000000000000000E+00
(PID.TID 0000.0001)     ;
(PID.TID 0000.0001) dxF =  /* dxF(:,1,:,1) ( units: m ) */
(PID.TID 0000.0001)                 1.263294638016668E+03,      /* I =  1 */
(PID.TID 0000.0001)                 1.237496063806571E+03,      /* I =  2 */
(PID.TID 0000.0001)                 1.212224339320398E+03,      /* I =  3 */
(PID.TID 0000.0001)      . . .
(PID.TID 0000.0001)                 4.790113490274632E+02,      /* I = 48 */
(PID.TID 0000.0001)                 4.692291418815790E+02,      /* I = 49 */
(PID.TID 0000.0001)                 4.596467036489769E+02,      /* I = 50 */
(PID.TID 0000.0001)                 4.502599547167311E+02,      /* I = 51 */
(PID.TID 0000.0001)                 4.410648987843862E+02,      /* I = 52 */
(PID.TID 0000.0001)                 4.320576211625778E+02,      /* I = 53 */
(PID.TID 0000.0001)      . . .
(PID.TID 0000.0001)                 2.000000000000000E+02,      /* I = 98 */
(PID.TID 0000.0001)                 2.000000000000000E+02,      /* I = 99 */
(PID.TID 0000.0001)                 2.000000000000000E+02,      /* I =100 */
(PID.TID 0000.0001)                 2.000000000000000E+02,      /* I =101 */
(PID.TID 0000.0001)                 2.000000000000000E+02,      /* I =102 */
(PID.TID 0000.0001)                 2.000000000000000E+02,      /* I =103 */
(PID.TID 0000.0001)      . . .
(PID.TID 0000.0001)                 3.612641354876311E+02,      /* I =148 */
(PID.TID 0000.0001)                 3.687955530665730E+02,      /* I =149 */
(PID.TID 0000.0001)                 3.764839811128614E+02,      /* I =150 */
(PID.TID 0000.0001)                 3.843326928863569E+02,      /* I =151 */
(PID.TID 0000.0001)                 3.923450298858749E+02,      /* I =152 */
(PID.TID 0000.0001)                 4.005244032717896E+02,      /* I =153 */
(PID.TID 0000.0001)      . . .
(PID.TID 0000.0001)                 1.013599012055986E+03,      /* I =198 */
(PID.TID 0000.0001)                 1.034729915092050E+03,      /* I =199 */
(PID.TID 0000.0001)                 1.056301342495056E+03       /* I =200 */
(PID.TID 0000.0001)     ;
(PID.TID 0000.0001) dxF =  /* dxF(1,:,1,:) ( units: m ) */
(PID.TID 0000.0001)                 1.263294638016668E+03       /* J =  1 */
(PID.TID 0000.0001)     ;
(PID.TID 0000.0001) dyF =  /* dyF(:,1,:,1) ( units: m ) */
(PID.TID 0000.0001)   200 @  5.000000000000000E+03              /* I =  1:200 */
(PID.TID 0000.0001)     ;
(PID.TID 0000.0001) dyF =  /* dyF(1,:,1,:) ( units: m ) */
(PID.TID 0000.0001)                 5.000000000000000E+03       /* J =  1 */
(PID.TID 0000.0001)     ;
(PID.TID 0000.0001) dxG =  /* dxG(:,1,:,1) ( units: m ) */
(PID.TID 0000.0001)                 1.263294638016668E+03,      /* I =  1 */
(PID.TID 0000.0001)                 1.237496063806571E+03,      /* I =  2 */
(PID.TID 0000.0001)                 1.212224339320398E+03,      /* I =  3 */
(PID.TID 0000.0001)      . . .
(PID.TID 0000.0001)                 4.790113490274632E+02,      /* I = 48 */
(PID.TID 0000.0001)                 4.692291418815790E+02,      /* I = 49 */
(PID.TID 0000.0001)                 4.596467036489769E+02,      /* I = 50 */
(PID.TID 0000.0001)                 4.502599547167311E+02,      /* I = 51 */
(PID.TID 0000.0001)                 4.410648987843862E+02,      /* I = 52 */
(PID.TID 0000.0001)                 4.320576211625778E+02,      /* I = 53 */
(PID.TID 0000.0001)      . . .
(PID.TID 0000.0001)                 2.000000000000000E+02,      /* I = 98 */
(PID.TID 0000.0001)                 2.000000000000000E+02,      /* I = 99 */
(PID.TID 0000.0001)                 2.000000000000000E+02,      /* I =100 */
(PID.TID 0000.0001)                 2.000000000000000E+02,      /* I =101 */
(PID.TID 0000.0001)                 2.000000000000000E+02,      /* I =102 */
(PID.TID 0000.0001)                 2.000000000000000E+02,      /* I =103 */
(PID.TID 0000.0001)      . . .
(PID.TID 0000.0001)                 3.612641354876311E+02,      /* I =148 */
(PID.TID 0000.0001)                 3.687955530665730E+02,      /* I =149 */
(PID.TID 0000.0001)                 3.764839811128614E+02,      /* I =150 */
(PID.TID 0000.0001)                 3.843326928863569E+02,      /* I =151 */
(PID.TID 0000.0001)                 3.923450298858749E+02,      /* I =152 */
(PID.TID 0000.0001)                 4.005244032717896E+02,      /* I =153 */
(PID.TID 0000.0001)      . . .
(PID.TID 0000.0001)                 1.013599012055986E+03,      /* I =198 */
(PID.TID 0000.0001)                 1.034729915092050E+03,      /* I =199 */
(PID.TID 0000.0001)                 1.056301342495056E+03       /* I =200 */
(PID.TID 0000.0001)     ;
(PID.TID 0000.0001) dxG =  /* dxG(1,:,1,:) ( units: m ) */
(PID.TID 0000.0001)                 1.263294638016668E+03       /* J =  1 */
(PID.TID 0000.0001)     ;
(PID.TID 0000.0001) dyG =  /* dyG(:,1,:,1) ( units: m ) */
(PID.TID 0000.0001)   200 @  5.000000000000000E+03              /* I =  1:200 */
(PID.TID 0000.0001)     ;
(PID.TID 0000.0001) dyG =  /* dyG(1,:,1,:) ( units: m ) */
(PID.TID 0000.0001)                 5.000000000000000E+03       /* J =  1 */
(PID.TID 0000.0001)     ;
(PID.TID 0000.0001) dxC =  /* dxC(:,1,:,1) ( units: m ) */
(PID.TID 0000.0001)                 1.159797990255862E+03,      /* I =  1 */
(PID.TID 0000.0001)                 1.250395350911620E+03,      /* I =  2 */
(PID.TID 0000.0001)                 1.224860201563485E+03,      /* I =  3 */
(PID.TID 0000.0001)      . . .
(PID.TID 0000.0001)                 4.840044193881684E+02,      /* I = 48 */
(PID.TID 0000.0001)                 4.741202454545211E+02,      /* I = 49 */
(PID.TID 0000.0001)                 4.644379227652780E+02,      /* I = 50 */
(PID.TID 0000.0001)                 4.549533291828540E+02,      /* I = 51 */
(PID.TID 0000.0001)                 4.456624267505587E+02,      /* I = 52 */
(PID.TID 0000.0001)                 4.365612599734820E+02,      /* I = 53 */
(PID.TID 0000.0001)      . . .
(PID.TID 0000.0001)                 2.000000000000000E+02,      /* I = 98 */
(PID.TID 0000.0001)                 2.000000000000000E+02,      /* I = 99 */
(PID.TID 0000.0001)                 2.000000000000000E+02,      /* I =100 */
(PID.TID 0000.0001)                 2.000000000000000E+02,      /* I =101 */
(PID.TID 0000.0001)                 2.000000000000000E+02,      /* I =102 */
(PID.TID 0000.0001)                 2.000000000000000E+02,      /* I =103 */
(PID.TID 0000.0001)      . . .
(PID.TID 0000.0001)                 3.575753287246037E+02,      /* I =148 */
(PID.TID 0000.0001)                 3.650298442771020E+02,      /* I =149 */
(PID.TID 0000.0001)                 3.726397670897172E+02,      /* I =150 */
(PID.TID 0000.0001)                 3.804083369996092E+02,      /* I =151 */
(PID.TID 0000.0001)                 3.883388613861159E+02,      /* I =152 */
(PID.TID 0000.0001)                 3.964347165788323E+02,      /* I =153 */
(PID.TID 0000.0001)      . . .
(PID.TID 0000.0001)                 1.003249324601893E+03,      /* I =198 */
(PID.TID 0000.0001)                 1.024164463574018E+03,      /* I =199 */
(PID.TID 0000.0001)                 1.045515628793553E+03       /* I =200 */
(PID.TID 0000.0001)     ;
(PID.TID 0000.0001) dxC =  /* dxC(1,:,1,:) ( units: m ) */
(PID.TID 0000.0001)                 1.159797990255862E+03       /* J =  1 */
(PID.TID 0000.0001)     ;
(PID.TID 0000.0001) dyC =  /* dyC(:,1,:,1) ( units: m ) */
(PID.TID 0000.0001)   200 @  5.000000000000000E+03              /* I =  1:200 */
(PID.TID 0000.0001)     ;
(PID.TID 0000.0001) dyC =  /* dyC(1,:,1,:) ( units: m ) */
(PID.TID 0000.0001)                 5.000000000000000E+03       /* J =  1 */
(PID.TID 0000.0001)     ;
(PID.TID 0000.0001) dxV =  /* dxV(:,1,:,1) ( units: m ) */
(PID.TID 0000.0001)                 1.159797990255862E+03,      /* I =  1 */
(PID.TID 0000.0001)                 1.250395350911620E+03,      /* I =  2 */
(PID.TID 0000.0001)                 1.224860201563485E+03,      /* I =  3 */
(PID.TID 0000.0001)      . . .
(PID.TID 0000.0001)                 4.840044193881684E+02,      /* I = 48 */
(PID.TID 0000.0001)                 4.741202454545211E+02,      /* I = 49 */
(PID.TID 0000.0001)                 4.644379227652780E+02,      /* I = 50 */
(PID.TID 0000.0001)                 4.549533291828540E+02,      /* I = 51 */
(PID.TID 0000.0001)                 4.456624267505587E+02,      /* I = 52 */
(PID.TID 0000.0001)                 4.365612599734820E+02,      /* I = 53 */
(PID.TID 0000.0001)      . . .
(PID.TID 0000.0001)                 2.000000000000000E+02,      /* I = 98 */
(PID.TID 0000.0001)                 2.000000000000000E+02,      /* I = 99 */
(PID.TID 0000.0001)                 2.000000000000000E+02,      /* I =100 */
(PID.TID 0000.0001)                 2.000000000000000E+02,      /* I =101 */
(PID.TID 0000.0001)                 2.000000000000000E+02,      /* I =102 */
(PID.TID 0000.0001)                 2.000000000000000E+02,      /* I =103 */
(PID.TID 0000.0001)      . . .
(PID.TID 0000.0001)                 3.575753287246037E+02,      /* I =148 */
(PID.TID 0000.0001)                 3.650298442771020E+02,      /* I =149 */
(PID.TID 0000.0001)                 3.726397670897172E+02,      /* I =150 */
(PID.TID 0000.0001)                 3.804083369996092E+02,      /* I =151 */
(PID.TID 0000.0001)                 3.883388613861159E+02,      /* I =152 */
(PID.TID 0000.0001)                 3.964347165788323E+02,      /* I =153 */
(PID.TID 0000.0001)      . . .
(PID.TID 0000.0001)                 1.003249324601893E+03,      /* I =198 */
(PID.TID 0000.0001)                 1.024164463574018E+03,      /* I =199 */
(PID.TID 0000.0001)                 1.045515628793553E+03       /* I =200 */
(PID.TID 0000.0001)     ;
(PID.TID 0000.0001) dxV =  /* dxV(1,:,1,:) ( units: m ) */
(PID.TID 0000.0001)                 1.159797990255862E+03       /* J =  1 */
(PID.TID 0000.0001)     ;
(PID.TID 0000.0001) dyU =  /* dyU(:,1,:,1) ( units: m ) */
(PID.TID 0000.0001)   200 @  5.000000000000000E+03              /* I =  1:200 */
(PID.TID 0000.0001)     ;
(PID.TID 0000.0001) dyU =  /* dyU(1,:,1,:) ( units: m ) */
(PID.TID 0000.0001)                 5.000000000000000E+03       /* J =  1 */
(PID.TID 0000.0001)     ;
(PID.TID 0000.0001) rA  =  /* rA (:,1,:,1) ( units: m^2 ) */
(PID.TID 0000.0001)                 6.316473190083342E+06,      /* I =  1 */
(PID.TID 0000.0001)                 6.187480319032855E+06,      /* I =  2 */
(PID.TID 0000.0001)                 6.061121696601991E+06,      /* I =  3 */
(PID.TID 0000.0001)      . . .
(PID.TID 0000.0001)                 2.395056745137316E+06,      /* I = 48 */
(PID.TID 0000.0001)                 2.346145709407895E+06,      /* I = 49 */
(PID.TID 0000.0001)                 2.298233518244884E+06,      /* I = 50 */
(PID.TID 0000.0001)                 2.251299773583656E+06,      /* I = 51 */
(PID.TID 0000.0001)                 2.205324493921931E+06,      /* I = 52 */
(PID.TID 0000.0001)                 2.160288105812889E+06,      /* I = 53 */
(PID.TID 0000.0001)      . . .
(PID.TID 0000.0001)                 1.000000000000000E+06,      /* I = 98 */
(PID.TID 0000.0001)                 1.000000000000000E+06,      /* I = 99 */
(PID.TID 0000.0001)                 1.000000000000000E+06,      /* I =100 */
(PID.TID 0000.0001)                 1.000000000000000E+06,      /* I =101 */
(PID.TID 0000.0001)                 1.000000000000000E+06,      /* I =102 */
(PID.TID 0000.0001)                 1.000000000000000E+06,      /* I =103 */
(PID.TID 0000.0001)      . . .
(PID.TID 0000.0001)                 1.806320677438155E+06,      /* I =148 */
(PID.TID 0000.0001)                 1.843977765332865E+06,      /* I =149 */
(PID.TID 0000.0001)                 1.882419905564307E+06,      /* I =150 */
(PID.TID 0000.0001)                 1.921663464431785E+06,      /* I =151 */
(PID.TID 0000.0001)                 1.961725149429375E+06,      /* I =152 */
(PID.TID 0000.0001)                 2.002622016358948E+06,      /* I =153 */
(PID.TID 0000.0001)      . . .
(PID.TID 0000.0001)                 5.067995060279928E+06,      /* I =198 */
(PID.TID 0000.0001)                 5.173649575460250E+06,      /* I =199 */
(PID.TID 0000.0001)                 5.281506712475282E+06       /* I =200 */
(PID.TID 0000.0001)     ;
(PID.TID 0000.0001) rA  =  /* rA (1,:,1,:) ( units: m^2 ) */
(PID.TID 0000.0001)                 6.316473190083342E+06       /* J =  1 */
(PID.TID 0000.0001)     ;
(PID.TID 0000.0001) rAw =  /* rAw(:,1,:,1) ( units: m^2 ) */
(PID.TID 0000.0001)                 5.798989951279311E+06,      /* I =  1 */
(PID.TID 0000.0001)                 6.251976754558099E+06,      /* I =  2 */
(PID.TID 0000.0001)                 6.124301007817423E+06,      /* I =  3 */
(PID.TID 0000.0001)      . . .
(PID.TID 0000.0001)                 2.420022096940842E+06,      /* I = 48 */
(PID.TID 0000.0001)                 2.370601227272606E+06,      /* I = 49 */
(PID.TID 0000.0001)                 2.322189613826390E+06,      /* I = 50 */
(PID.TID 0000.0001)                 2.274766645914270E+06,      /* I = 51 */
(PID.TID 0000.0001)                 2.228312133752794E+06,      /* I = 52 */
(PID.TID 0000.0001)                 2.182806299867410E+06,      /* I = 53 */
(PID.TID 0000.0001)      . . .
(PID.TID 0000.0001)                 1.000000000000000E+06,      /* I = 98 */
(PID.TID 0000.0001)                 1.000000000000000E+06,      /* I = 99 */
(PID.TID 0000.0001)                 1.000000000000000E+06,      /* I =100 */
(PID.TID 0000.0001)                 1.000000000000000E+06,      /* I =101 */
(PID.TID 0000.0001)                 1.000000000000000E+06,      /* I =102 */
(PID.TID 0000.0001)                 1.000000000000000E+06,      /* I =103 */
(PID.TID 0000.0001)      . . .
(PID.TID 0000.0001)                 1.787876643623018E+06,      /* I =148 */
(PID.TID 0000.0001)                 1.825149221385510E+06,      /* I =149 */
(PID.TID 0000.0001)                 1.863198835448586E+06,      /* I =150 */
(PID.TID 0000.0001)                 1.902041684998046E+06,      /* I =151 */
(PID.TID 0000.0001)                 1.941694306930580E+06,      /* I =152 */
(PID.TID 0000.0001)                 1.982173582894161E+06,      /* I =153 */
(PID.TID 0000.0001)      . . .
(PID.TID 0000.0001)                 5.016246623009465E+06,      /* I =198 */
(PID.TID 0000.0001)                 5.120822317870088E+06,      /* I =199 */
(PID.TID 0000.0001)                 5.227578143967765E+06       /* I =200 */
(PID.TID 0000.0001)     ;
(PID.TID 0000.0001) rAw =  /* rAw(1,:,1,:) ( units: m^2 ) */
(PID.TID 0000.0001)                 5.798989951279311E+06       /* J =  1 */
(PID.TID 0000.0001)     ;
(PID.TID 0000.0001) rAs =  /* rAs(:,1,:,1) ( units: m^2 ) */
(PID.TID 0000.0001)                 6.316473190083342E+06,      /* I =  1 */
(PID.TID 0000.0001)                 6.187480319032855E+06,      /* I =  2 */
(PID.TID 0000.0001)                 6.061121696601991E+06,      /* I =  3 */
(PID.TID 0000.0001)      . . .
(PID.TID 0000.0001)                 2.395056745137316E+06,      /* I = 48 */
(PID.TID 0000.0001)                 2.346145709407895E+06,      /* I = 49 */
(PID.TID 0000.0001)                 2.298233518244884E+06,      /* I = 50 */
(PID.TID 0000.0001)                 2.251299773583656E+06,      /* I = 51 */
(PID.TID 0000.0001)                 2.205324493921931E+06,      /* I = 52 */
(PID.TID 0000.0001)                 2.160288105812889E+06,      /* I = 53 */
(PID.TID 0000.0001)      . . .
(PID.TID 0000.0001)                 1.000000000000000E+06,      /* I = 98 */
(PID.TID 0000.0001)                 1.000000000000000E+06,      /* I = 99 */
(PID.TID 0000.0001)                 1.000000000000000E+06,      /* I =100 */
(PID.TID 0000.0001)                 1.000000000000000E+06,      /* I =101 */
(PID.TID 0000.0001)                 1.000000000000000E+06,      /* I =102 */
(PID.TID 0000.0001)                 1.000000000000000E+06,      /* I =103 */
(PID.TID 0000.0001)      . . .
(PID.TID 0000.0001)                 1.806320677438155E+06,      /* I =148 */
(PID.TID 0000.0001)                 1.843977765332865E+06,      /* I =149 */
(PID.TID 0000.0001)                 1.882419905564307E+06,      /* I =150 */
(PID.TID 0000.0001)                 1.921663464431785E+06,      /* I =151 */
(PID.TID 0000.0001)                 1.961725149429375E+06,      /* I =152 */
(PID.TID 0000.0001)                 2.002622016358948E+06,      /* I =153 */
(PID.TID 0000.0001)      . . .
(PID.TID 0000.0001)                 5.067995060279928E+06,      /* I =198 */
(PID.TID 0000.0001)                 5.173649575460250E+06,      /* I =199 */
(PID.TID 0000.0001)                 5.281506712475282E+06       /* I =200 */
(PID.TID 0000.0001)     ;
(PID.TID 0000.0001) rAs =  /* rAs(1,:,1,:) ( units: m^2 ) */
(PID.TID 0000.0001)                 6.316473190083342E+06       /* J =  1 */
(PID.TID 0000.0001)     ;
(PID.TID 0000.0001) globalArea = /* Integrated horizontal Area (m^2) */
(PID.TID 0000.0001)                 4.884020200974414E+08
(PID.TID 0000.0001)     ;
(PID.TID 0000.0001) // =======================================================
(PID.TID 0000.0001) // End of Model config. summary
(PID.TID 0000.0001) // =======================================================
(PID.TID 0000.0001) 
(PID.TID 0000.0001) == Packages configuration : Check & print summary ==
(PID.TID 0000.0001) 
(PID.TID 0000.0001) OBCS_CHECK: #define ALLOW_OBCS
(PID.TID 0000.0001) OBCS_CHECK: start summary:
(PID.TID 0000.0001) useOBCSprescribe = /* prescribe OB values */
(PID.TID 0000.0001)                   T
(PID.TID 0000.0001)     ;
(PID.TID 0000.0001) useOBCSbalance = /* balance the flow through OB */
(PID.TID 0000.0001)                   F
(PID.TID 0000.0001)     ;
(PID.TID 0000.0001) OBCS_uvApplyFac = /* Factor to apply to U,V 2nd column/row */
(PID.TID 0000.0001)                 1.000000000000000E+00
(PID.TID 0000.0001)     ;
(PID.TID 0000.0001) OBCS_u1_adv_T = /* Temp uses upwind adv-scheme @ OB */
(PID.TID 0000.0001)                       0
(PID.TID 0000.0001)     ;
(PID.TID 0000.0001) OBCS_u1_adv_S = /* Salt uses upwind adv-scheme @ OB */
(PID.TID 0000.0001)                       0
(PID.TID 0000.0001)     ;
(PID.TID 0000.0001) OBCS_monitorFreq = /* monitor output frequency [s] */
(PID.TID 0000.0001)                 7.200000000000000E+03
(PID.TID 0000.0001)     ;
(PID.TID 0000.0001) OBCS_monSelect = /* select group of variables to monitor */
(PID.TID 0000.0001)                       0
(PID.TID 0000.0001)     ;
(PID.TID 0000.0001) useOBCStides = /* apply tidal forcing through OB */
(PID.TID 0000.0001)                   F
(PID.TID 0000.0001)     ;
(PID.TID 0000.0001) tidalPeriod = /* (s) */
(PID.TID 0000.0001)    10 @  0.000000000000000E+00              /* I =  1: 10 */
(PID.TID 0000.0001)     ;
(PID.TID 0000.0001) OB_indexNone = /* null value for OB index (i.e. no OB) */
(PID.TID 0000.0001)                     -99
(PID.TID 0000.0001)     ;
(PID.TID 0000.0001) ======== Tile bi=   1 , bj=   1 ========
(PID.TID 0000.0001)  OB_Jn = /* Northern OB local indices */
(PID.TID 0000.0001)   204 @      -99                            /* I = -1:202 */
(PID.TID 0000.0001)  OB_Js = /* Southern OB local indices */
(PID.TID 0000.0001)   204 @      -99                            /* I = -1:202 */
(PID.TID 0000.0001)  OB_Ie = /* Eastern OB local indices */
(PID.TID 0000.0001)     5 @      200                            /* J = -1:  3 */
(PID.TID 0000.0001)  OB_Iw = /* Western OB local indices */
(PID.TID 0000.0001)     5 @        1                            /* J = -1:  3 */
(PID.TID 0000.0001) OBCS_CHECK: end summary.
(PID.TID 0000.0001) OBCS_CHECK: set-up OK
(PID.TID 0000.0001) OBCS_CHECK: check Inside Mask and OB locations: OK
(PID.TID 0000.0001) KL10_CHECK: #define ALLOW_KL10
(PID.TID 0000.0001) GAD_CHECK: #define ALLOW_GENERIC_ADVDIFF
(PID.TID 0000.0001) // =======================================================
(PID.TID 0000.0001) // Check Model config. (CONFIG_CHECK):
(PID.TID 0000.0001) // CONFIG_CHECK : Normal End
(PID.TID 0000.0001) // =======================================================
(PID.TID 0000.0001) 
(PID.TID 0000.0001)  MDS_READ_FIELD: opening global file: U0.bin
(PID.TID 0000.0001)  MDS_READ_FIELD: opening global file: T0.bin
(PID.TID 0000.0001) Start initial hydrostatic pressure computation
(PID.TID 0000.0001) Pressure is predetermined for buoyancyRelation OCEANIC
(PID.TID 0000.0001) 
(PID.TID 0000.0001)  OBCS_FIELDS_LOAD: Reading initial data:         0  0.000000000000E+00
(PID.TID 0000.0001)  MDS_READ_SEC_YZ: opening global file: U_in.bin
(PID.TID 0000.0001)  MDS_READ_SEC_YZ: opening global file: TE.bin
(PID.TID 0000.0001)  MDS_READ_SEC_YZ: opening global file: U_in.bin
(PID.TID 0000.0001)  MDS_READ_SEC_YZ: opening global file: TW.bin
(PID.TID 0000.0001) // =======================================================
(PID.TID 0000.0001) // Model current state
(PID.TID 0000.0001) // =======================================================
(PID.TID 0000.0001) 
(PID.TID 0000.0001) // =======================================================
(PID.TID 0000.0001) // Begin MONITOR dynamic field statistics
(PID.TID 0000.0001) // =======================================================
(PID.TID 0000.0001) %MON time_tsnumber                =                     0
(PID.TID 0000.0001) %MON time_secondsf                =   0.0000000000000E+00
(PID.TID 0000.0001) %MON dynstat_eta_max              =   0.0000000000000E+00
(PID.TID 0000.0001) %MON dynstat_eta_min              =   0.0000000000000E+00
(PID.TID 0000.0001) %MON dynstat_eta_mean             =   0.0000000000000E+00
(PID.TID 0000.0001) %MON dynstat_eta_sd               =   0.0000000000000E+00
(PID.TID 0000.0001) %MON dynstat_eta_del2             =   0.0000000000000E+00
(PID.TID 0000.0001) %MON dynstat_uvel_max             =   6.6809804669674E-01
(PID.TID 0000.0001) %MON dynstat_uvel_min             =   6.6809804669674E-01
(PID.TID 0000.0001) %MON dynstat_uvel_mean            =   6.6809804669674E-01
(PID.TID 0000.0001) %MON dynstat_uvel_sd              =   2.3314683517128E-15
(PID.TID 0000.0001) %MON dynstat_uvel_del2            =   0.0000000000000E+00
(PID.TID 0000.0001) %MON dynstat_vvel_max             =   0.0000000000000E+00
(PID.TID 0000.0001) %MON dynstat_vvel_min             =   0.0000000000000E+00
(PID.TID 0000.0001) %MON dynstat_vvel_mean            =   0.0000000000000E+00
(PID.TID 0000.0001) %MON dynstat_vvel_sd              =   0.0000000000000E+00
(PID.TID 0000.0001) %MON dynstat_vvel_del2            =   0.0000000000000E+00
(PID.TID 0000.0001) %MON dynstat_wvel_max             =   1.4170953673272E-02
(PID.TID 0000.0001) %MON dynstat_wvel_min             =  -1.4170953673272E-02
(PID.TID 0000.0001) %MON dynstat_wvel_mean            =   1.8107445924418E-20
(PID.TID 0000.0001) %MON dynstat_wvel_sd              =   2.8204951587113E-03
(PID.TID 0000.0001) %MON dynstat_wvel_del2            =   2.6535580277239E-06
(PID.TID 0000.0001) %MON dynstat_theta_max            =   1.5000000000000E+01
(PID.TID 0000.0001) %MON dynstat_theta_min            =   1.0000000000000E+01
(PID.TID 0000.0001) %MON dynstat_theta_mean           =   1.3335043390653E+01
(PID.TID 0000.0001) %MON dynstat_theta_sd             =   2.3199864738194E+00
(PID.TID 0000.0001) %MON dynstat_theta_del2           =   0.0000000000000E+00
(PID.TID 0000.0001) %MON dynstat_salt_max             =   3.5000000000000E+01
(PID.TID 0000.0001) %MON dynstat_salt_min             =   3.5000000000000E+01
(PID.TID 0000.0001) %MON dynstat_salt_mean            =   3.5000000000000E+01
(PID.TID 0000.0001) %MON dynstat_salt_sd              =   2.1316282072803E-14
(PID.TID 0000.0001) %MON dynstat_salt_del2            =   0.0000000000000E+00
(PID.TID 0000.0001) %MON dynstat_sst_max              =   1.5000000000000E+01
(PID.TID 0000.0001) %MON dynstat_sst_min              =   1.5000000000000E+01
(PID.TID 0000.0001) %MON dynstat_sst_mean             =   1.5000000000000E+01
(PID.TID 0000.0001) %MON dynstat_sst_sd               =   3.5527136788005E-14
(PID.TID 0000.0001) %MON dynstat_sst_del2             =   0.0000000000000E+00
(PID.TID 0000.0001) %MON dynstat_sss_max              =   3.5000000000000E+01
(PID.TID 0000.0001) %MON dynstat_sss_min              =   3.5000000000000E+01
(PID.TID 0000.0001) %MON dynstat_sss_mean             =   3.5000000000000E+01
(PID.TID 0000.0001) %MON dynstat_sss_sd               =   7.8159700933611E-14
(PID.TID 0000.0001) %MON dynstat_sss_del2             =   0.0000000000000E+00
(PID.TID 0000.0001) %MON forcing_qnet_max             =   0.0000000000000E+00
(PID.TID 0000.0001) %MON forcing_qnet_min             =   0.0000000000000E+00
(PID.TID 0000.0001) %MON forcing_qnet_mean            =   0.0000000000000E+00
(PID.TID 0000.0001) %MON forcing_qnet_sd              =   0.0000000000000E+00
(PID.TID 0000.0001) %MON forcing_qnet_del2            =   0.0000000000000E+00
(PID.TID 0000.0001) %MON forcing_qsw_max              =   0.0000000000000E+00
(PID.TID 0000.0001) %MON forcing_qsw_min              =   0.0000000000000E+00
(PID.TID 0000.0001) %MON forcing_qsw_mean             =   0.0000000000000E+00
(PID.TID 0000.0001) %MON forcing_qsw_sd               =   0.0000000000000E+00
(PID.TID 0000.0001) %MON forcing_qsw_del2             =   0.0000000000000E+00
(PID.TID 0000.0001) %MON forcing_empmr_max            =   0.0000000000000E+00
(PID.TID 0000.0001) %MON forcing_empmr_min            =   0.0000000000000E+00
(PID.TID 0000.0001) %MON forcing_empmr_mean           =   0.0000000000000E+00
(PID.TID 0000.0001) %MON forcing_empmr_sd             =   0.0000000000000E+00
(PID.TID 0000.0001) %MON forcing_empmr_del2           =   0.0000000000000E+00
(PID.TID 0000.0001) %MON forcing_fu_max               =   0.0000000000000E+00
(PID.TID 0000.0001) %MON forcing_fu_min               =   0.0000000000000E+00
(PID.TID 0000.0001) %MON forcing_fu_mean              =   0.0000000000000E+00
(PID.TID 0000.0001) %MON forcing_fu_sd                =   0.0000000000000E+00
(PID.TID 0000.0001) %MON forcing_fu_del2              =   0.0000000000000E+00
(PID.TID 0000.0001) %MON forcing_fv_max               =   0.0000000000000E+00
(PID.TID 0000.0001) %MON forcing_fv_min               =   0.0000000000000E+00
(PID.TID 0000.0001) %MON forcing_fv_mean              =   0.0000000000000E+00
(PID.TID 0000.0001) %MON forcing_fv_sd                =   0.0000000000000E+00
(PID.TID 0000.0001) %MON forcing_fv_del2              =   0.0000000000000E+00
(PID.TID 0000.0001) %MON advcfl_uvel_max              =   5.0107353502256E-02
(PID.TID 0000.0001) %MON advcfl_vvel_max              =   0.0000000000000E+00
(PID.TID 0000.0001) %MON advcfl_wvel_max              =   2.1256430509908E-01
(PID.TID 0000.0001) %MON advcfl_W_hf_max              =   2.1256430509908E-01
(PID.TID 0000.0001) %MON pe_b_mean                    =   0.0000000000000E+00
(PID.TID 0000.0001) %MON ke_max                       =   2.2473034033971E-01
(PID.TID 0000.0001) %MON ke_mean                      =   2.2303296314253E-01
(PID.TID 0000.0001) %MON ke_vol                       =   9.5889217545975E+10
(PID.TID 0000.0001) %MON vort_r_min                   =   0.0000000000000E+00
(PID.TID 0000.0001) %MON vort_r_max                   =   0.0000000000000E+00
(PID.TID 0000.0001) %MON vort_a_mean                  =   0.0000000000000E+00
(PID.TID 0000.0001) %MON vort_a_sd                    =   0.0000000000000E+00
(PID.TID 0000.0001) %MON vort_p_mean                  =   0.0000000000000E+00
(PID.TID 0000.0001) %MON vort_p_sd                    =   0.0000000000000E+00
(PID.TID 0000.0001) %MON surfExpan_theta_mean         =   1.3109025479890E-18
(PID.TID 0000.0001) %MON surfExpan_salt_mean          =   9.7578380099718E-19
(PID.TID 0000.0001) // =======================================================
(PID.TID 0000.0001) // End MONITOR dynamic field statistics
(PID.TID 0000.0001) // =======================================================
(PID.TID 0000.0001) // =======================================================
(PID.TID 0000.0001) // Begin OBCS MONITOR field statistics
(PID.TID 0000.0001) // =======================================================
(PID.TID 0000.0001) %MON obc_E_uVel_max               =   6.6809804669674E-01
(PID.TID 0000.0001) %MON obc_E_uVel_min               =   6.6809804669674E-01
(PID.TID 0000.0001) %MON obc_E_uVel_mean              =   6.6809804669674E-01
(PID.TID 0000.0001) %MON obc_E_uVel_sd                =   1.6660004686563E-08
(PID.TID 0000.0001) %MON obc_E_uVel_Int               =   6.6809804669674E+05
(PID.TID 0000.0001) %MON obc_W_uVel_max               =   6.6809804669674E-01
(PID.TID 0000.0001) %MON obc_W_uVel_min               =   6.6809804669674E-01
(PID.TID 0000.0001) %MON obc_W_uVel_mean              =   6.6809804669674E-01
(PID.TID 0000.0001) %MON obc_W_uVel_sd                =   1.6660004686563E-08
(PID.TID 0000.0001) %MON obc_W_uVel_Int               =   6.6809804669674E+05
(PID.TID 0000.0001) // =======================================================
(PID.TID 0000.0001) // End OBCS MONITOR field statistics
(PID.TID 0000.0001) // =======================================================
(PID.TID 0000.0001) SOLVE_FOR_PRESSURE: putPmEinXvector =    F
 cg2d: Sum(rhs),rhsMax =  -4.02665005571908E-15  2.05078367534108E-01
 cg2d: Sum(rhs),rhsMax =  -2.43787817574640E-14  3.52920392957625E-01
 cg2d: Sum(rhs),rhsMax =   1.23241982559536E-14  4.50028715489830E-01
 cg2d: Sum(rhs),rhsMax =   5.51318314614384E-14  5.11479773761568E-01
 cg2d: Sum(rhs),rhsMax =   1.30304261194943E-13  5.48320045763397E-01
 cg2d: Sum(rhs),rhsMax =  -5.23111606179105E-16  5.71301598181893E-01
 cg2d: Sum(rhs),rhsMax =   2.94769567212648E-14  5.91101561359014E-01
 cg2d: Sum(rhs),rhsMax =   1.47190441949716E-13  6.07252209302873E-01
 cg2d: Sum(rhs),rhsMax =   2.93803067147845E-13  6.23387202321308E-01
 cg2d: Sum(rhs),rhsMax =   3.24420980953176E-13  6.38974500655432E-01
 cg2d: Sum(rhs),rhsMax =   3.67352352510402E-13  6.53912502772307E-01
 cg2d: Sum(rhs),rhsMax =   3.95906647579560E-13  6.69189301269430E-01
 cg2d: Sum(rhs),rhsMax =   2.27283393538231E-13  6.84031171184571E-01
 cg2d: Sum(rhs),rhsMax =   1.77609751847674E-13  6.98402922596771E-01
 cg2d: Sum(rhs),rhsMax =   1.05803018230493E-13  7.13223002397225E-01
 cg2d: Sum(rhs),rhsMax =   4.20081261563168E-14  7.27779736534332E-01
 cg2d: Sum(rhs),rhsMax =  -7.53833899163892E-15  7.41712690497478E-01
 cg2d: Sum(rhs),rhsMax =  -2.58601988846311E-14  7.54512323639381E-01
 cg2d: Sum(rhs),rhsMax =  -1.34510715084104E-14  7.68917935698382E-01
 cg2d: Sum(rhs),rhsMax =  -6.99697340594184E-14  7.81930003517313E-01
 cg2d: Sum(rhs),rhsMax =  -1.45246272384168E-13  7.95192353094534E-01
 cg2d: Sum(rhs),rhsMax =  -1.23580802828435E-13  8.07934085852020E-01
 cg2d: Sum(rhs),rhsMax =  -9.40218094806125E-14  8.21099612433431E-01
 cg2d: Sum(rhs),rhsMax =   4.31684804884355E-14  8.32426162492404E-01
 cg2d: Sum(rhs),rhsMax =   9.00242626323365E-14  8.46160766358551E-01
 cg2d: Sum(rhs),rhsMax =   1.71523046959242E-13  8.58330116383541E-01
 cg2d: Sum(rhs),rhsMax =   1.84247605126842E-13  8.69226253238997E-01
 cg2d: Sum(rhs),rhsMax =   2.44143067714515E-13  8.82150468773400E-01
 cg2d: Sum(rhs),rhsMax =   3.00936615816488E-13  8.94553044112835E-01
 cg2d: Sum(rhs),rhsMax =   3.27050367988696E-13  9.06203640460317E-01
 cg2d: Sum(rhs),rhsMax =   3.82156701845670E-13  9.17294805881007E-01
 cg2d: Sum(rhs),rhsMax =   4.70324246128889E-13  9.27997864806121E-01
 cg2d: Sum(rhs),rhsMax =   4.83177408673596E-13  9.38849348611483E-01
 cg2d: Sum(rhs),rhsMax =   5.39198270451194E-13  9.50661864158641E-01
 cg2d: Sum(rhs),rhsMax =   6.32134752528990E-13  9.62139783442167E-01
 cg2d: Sum(rhs),rhsMax =   7.56682802353914E-13  9.73346150002366E-01
 cg2d: Sum(rhs),rhsMax =   8.27481095797000E-13  9.84320574132946E-01
 cg2d: Sum(rhs),rhsMax =   9.15947222582258E-13  9.95078726834159E-01
 cg2d: Sum(rhs),rhsMax =   9.82887382594555E-13  1.00561185202643E+00
 cg2d: Sum(rhs),rhsMax =   1.03104243892593E-12  1.01588629249680E+00
 cg2d: Sum(rhs),rhsMax =   1.09081754046114E-12  1.02584303525007E+00
 cg2d: Sum(rhs),rhsMax =   1.18523767189682E-12  1.03539731191949E+00
 cg2d: Sum(rhs),rhsMax =   1.29828439665580E-12  1.04654651929133E+00
 cg2d: Sum(rhs),rhsMax =   1.36203201495100E-12  1.05766850663024E+00
 cg2d: Sum(rhs),rhsMax =   1.45438522336505E-12  1.06851631157560E+00
 cg2d: Sum(rhs),rhsMax =   1.53229512411812E-12  1.07891956724205E+00
 cg2d: Sum(rhs),rhsMax =   1.58302537744959E-12  1.08867948217908E+00
 cg2d: Sum(rhs),rhsMax =   1.62113378276985E-12  1.09756907063482E+00
 cg2d: Sum(rhs),rhsMax =   1.69150804474327E-12  1.10533409424798E+00
 cg2d: Sum(rhs),rhsMax =   1.71729297449019E-12  1.11714488930510E+00
 cg2d: Sum(rhs),rhsMax =   1.77280412572145E-12  1.12798188256255E+00
 cg2d: Sum(rhs),rhsMax =   1.79989356752230E-12  1.13745243424071E+00
 cg2d: Sum(rhs),rhsMax =   1.67194036393425E-12  1.14521203211952E+00
 cg2d: Sum(rhs),rhsMax =   1.68570712943961E-12  1.15462109297005E+00
 cg2d: Sum(rhs),rhsMax =   1.70297109747253E-12  1.16605206084962E+00
 cg2d: Sum(rhs),rhsMax =   1.70441438740454E-12  1.17539374503289E+00
 cg2d: Sum(rhs),rhsMax =   1.68653979670808E-12  1.18226859653764E+00
 cg2d: Sum(rhs),rhsMax =   1.67510449955444E-12  1.21901867662987E+00
 cg2d: Sum(rhs),rhsMax =   1.62581059726108E-12  1.28257601362216E+00
 cg2d: Sum(rhs),rhsMax =   1.53488333154428E-12  1.37443194479740E+00
 cg2d: Sum(rhs),rhsMax =   1.44795286871613E-12  1.50465837904131E+00
 cg2d: Sum(rhs),rhsMax =   1.36235467351753E-12  1.65745957088103E+00
 cg2d: Sum(rhs),rhsMax =   1.27409194305983E-12  1.80149084316241E+00
 cg2d: Sum(rhs),rhsMax =   1.31128441438477E-12  1.93253715890589E+00
 cg2d: Sum(rhs),rhsMax =   1.29452004671293E-12  2.04669107624705E+00
 cg2d: Sum(rhs),rhsMax =   1.29551924743510E-12  2.14055975939110E+00
 cg2d: Sum(rhs),rhsMax =   1.28941302079966E-12  2.21144282549238E+00
 cg2d: Sum(rhs),rhsMax =   1.29807276039173E-12  2.25746770581151E+00
 cg2d: Sum(rhs),rhsMax =   1.33681954395115E-12  2.27767300366896E+00
 cg2d: Sum(rhs),rhsMax =   1.37956313039922E-12  2.27203495077040E+00
 cg2d: Sum(rhs),rhsMax =   1.44162459747577E-12  2.24143699649361E+00
 cg2d: Sum(rhs),rhsMax =   1.50979229118775E-12  2.18758729027015E+00
 cg2d: Sum(rhs),rhsMax =   1.57707180648003E-12  2.11289283304219E+00
 cg2d: Sum(rhs),rhsMax =   1.62225788358228E-12  2.02030199748697E+00
 cg2d: Sum(rhs),rhsMax =   1.69009251038688E-12  1.91312875421164E+00
 cg2d: Sum(rhs),rhsMax =   1.56186175104267E-12  2.03214462237189E+00
 cg2d: Sum(rhs),rhsMax =   1.39011024913316E-12  2.16544188309232E+00
 cg2d: Sum(rhs),rhsMax =   1.24722454586390E-12  2.28332468447292E+00
 cg2d: Sum(rhs),rhsMax =   1.07058806264604E-12  2.38286498017428E+00
 cg2d: Sum(rhs),rhsMax =   9.06941188816290E-13  2.46164283995305E+00
 cg2d: Sum(rhs),rhsMax =   7.31081861715666E-13  2.51785038536096E+00
 cg2d: Sum(rhs),rhsMax =   6.58584298207643E-13  2.55036380125891E+00
 cg2d: Sum(rhs),rhsMax =   5.82089931810970E-13  2.55877947219625E+00
 cg2d: Sum(rhs),rhsMax =   4.92217377967563E-13  2.54341296108099E+00
 cg2d: Sum(rhs),rhsMax =   3.91187082726674E-13  2.50526221972707E+00
 cg2d: Sum(rhs),rhsMax =   2.92876833896116E-13  2.44593885354343E+00
 cg2d: Sum(rhs),rhsMax =   1.97231120324659E-13  2.36757322716894E+00
 cg2d: Sum(rhs),rhsMax =   1.33393296408713E-13  2.27270066496877E+00
 cg2d: Sum(rhs),rhsMax =   7.09432512735475E-14  2.16413669985183E+00
 cg2d: Sum(rhs),rhsMax =  -9.90874049477952E-15  2.04484935128198E+00
 cg2d: Sum(rhs),rhsMax =  -8.25728374564960E-14  1.91783588349629E+00
 cg2d: Sum(rhs),rhsMax =  -2.04641859014032E-13  1.78601038738140E+00
 cg2d: Sum(rhs),rhsMax =  -2.53463916521923E-13  1.65210740816844E+00
 cg2d: Sum(rhs),rhsMax =  -3.42892381155480E-13  1.51860500814533E+00
 cg2d: Sum(rhs),rhsMax =  -4.65766314405869E-13  1.38766880660920E+00
 cg2d: Sum(rhs),rhsMax =  -6.19476692165222E-13  1.26111735283740E+00
 cg2d: Sum(rhs),rhsMax =  -8.35193025849890E-13  1.14040768719095E+00
 cg2d: Sum(rhs),rhsMax =  -1.07197584142682E-12  1.02663885699532E+00
 cg2d: Sum(rhs),rhsMax =  -1.17446330438753E-12  9.74667134363406E-01
 cg2d: Sum(rhs),rhsMax =  -1.26493260310667E-12  9.50278944422638E-01
 cg2d: Sum(rhs),rhsMax =  -1.36386735238858E-12  9.30472416988579E-01
 cg2d: Sum(rhs),rhsMax =  -1.44274869828820E-12  9.13929123765819E-01
 cg2d: Sum(rhs),rhsMax =  -1.56386015248700E-12  8.95918216725527E-01
 cg2d: Sum(rhs),rhsMax =  -1.63796753938072E-12  8.80567586456546E-01
 cg2d: Sum(rhs),rhsMax =  -1.75234826649273E-12  8.65361885387162E-01
 cg2d: Sum(rhs),rhsMax =  -1.84258164281914E-12  8.49146909749762E-01
 cg2d: Sum(rhs),rhsMax =  -1.91816007522050E-12  8.34664919680433E-01
 cg2d: Sum(rhs),rhsMax =  -2.00197497468579E-12  8.20394273155986E-01
 cg2d: Sum(rhs),rhsMax =  -2.09598310929593E-12  8.05222203947681E-01
 cg2d: Sum(rhs),rhsMax =  -2.17872941910002E-12  7.90731062524272E-01
 cg2d: Sum(rhs),rhsMax =  -2.29009866625773E-12  7.77124094113426E-01
 cg2d: Sum(rhs),rhsMax =  -2.36691916066789E-12  7.62808754003549E-01
 cg2d: Sum(rhs),rhsMax =  -2.48365217281332E-12  7.47982683818516E-01
 cg2d: Sum(rhs),rhsMax =  -2.57214388676985E-12  7.34780922582600E-01
 cg2d: Sum(rhs),rhsMax =  -2.64362837176790E-12  7.21239029324331E-01
 cg2d: Sum(rhs),rhsMax =  -2.73547157148002E-12  7.07311610833616E-01
 cg2d: Sum(rhs),rhsMax =  -2.83575940507319E-12  6.93132214127992E-01
 cg2d: Sum(rhs),rhsMax =  -2.94796131949937E-12  6.80058724816230E-01
 cg2d: Sum(rhs),rhsMax =  -3.14009235280466E-12  6.66902232993797E-01
 cg2d: Sum(rhs),rhsMax =  -3.26921129056856E-12  6.53544548938588E-01
 cg2d: Sum(rhs),rhsMax =  -3.30051264096909E-12  6.40066772585764E-01
 cg2d: Sum(rhs),rhsMax =  -3.40440176049839E-12  6.26532012713232E-01
 cg2d: Sum(rhs),rhsMax =  -3.65062147178463E-12  6.13654318517771E-01
 cg2d: Sum(rhs),rhsMax =  -3.70384972692150E-12  6.00798709937777E-01
 cg2d: Sum(rhs),rhsMax =  -3.77406439433514E-12  5.87841118376856E-01
 cg2d: Sum(rhs),rhsMax =  -3.82539833143625E-12  5.74794504087598E-01
 cg2d: Sum(rhs),rhsMax =  -3.85538823088893E-12  5.61650748491646E-01
 cg2d: Sum(rhs),rhsMax =  -3.93547694432783E-12  5.48378832675145E-01
 cg2d: Sum(rhs),rhsMax =  -3.89846488424439E-12  5.34922597159632E-01
 cg2d: Sum(rhs),rhsMax =  -3.90398824379190E-12  5.21508705993497E-01
 cg2d: Sum(rhs),rhsMax =  -3.89822896185166E-12  5.07807924126557E-01
 cg2d: Sum(rhs),rhsMax =  -3.88909737747412E-12  4.93580010137932E-01
 cg2d: Sum(rhs),rhsMax =  -4.00018906887567E-12  4.78668963415912E-01
 cg2d: Sum(rhs),rhsMax =  -4.09486333730058E-12  4.62889466130905E-01
 cg2d: Sum(rhs),rhsMax =  -4.19735080026129E-12  4.46036502901570E-01
 cg2d: Sum(rhs),rhsMax =  -4.31164826064645E-12  4.28546881904923E-01
 cg2d: Sum(rhs),rhsMax =  -4.48639736472245E-12  4.09568988630216E-01
 cg2d: Sum(rhs),rhsMax =  -4.67378913349137E-12  3.88887637405004E-01
 cg2d: Sum(rhs),rhsMax =  -4.93688423475191E-12  3.67142213692156E-01
 cg2d: Sum(rhs),rhsMax =  -5.16292564256560E-12  3.43415143466064E-01
 cg2d: Sum(rhs),rhsMax =  -5.57179302695943E-12  3.18295138337695E-01
 cg2d: Sum(rhs),rhsMax =  -6.01066418859375E-12  2.91226090872440E-01
 cg2d: Sum(rhs),rhsMax =  -6.60130283769433E-12  2.62951400071271E-01
 cg2d: Sum(rhs),rhsMax =  -7.38048511195188E-12  2.33006554524157E-01
 cg2d: Sum(rhs),rhsMax =  -8.41410274787791E-12  2.01687555744240E-01
 cg2d: Sum(rhs),rhsMax =  -9.91046134046769E-12  1.69471654409195E-01
 cg2d: Sum(rhs),rhsMax =  -1.21501142480440E-11  1.36299882596356E-01
 cg2d: Sum(rhs),rhsMax =  -1.61123336894775E-11  1.02479296830485E-01
 cg2d: Sum(rhs),rhsMax =  -2.40767406012310E-11  6.84170127268566E-02
 cg2d: Sum(rhs),rhsMax =  -3.53619356019408E-11  4.62968332533360E-02
 cg2d: Sum(rhs),rhsMax =  -3.50593998277304E-11  4.66283938925479E-02
 cg2d: Sum(rhs),rhsMax =  -3.45294903780768E-11  4.73240412261970E-02
 cg2d: Sum(rhs),rhsMax =  -2.47458720181726E-11  6.59576270395238E-02
 cg2d: Sum(rhs),rhsMax =  -1.66625602204817E-11  9.74767802964390E-02
 cg2d: Sum(rhs),rhsMax =  -1.26464949623539E-11  1.27735142200074E-01
 cg2d: Sum(rhs),rhsMax =  -1.02858832562447E-11  1.56513307582823E-01
 cg2d: Sum(rhs),rhsMax =  -8.72812933039313E-12  1.83606593196456E-01
 cg2d: Sum(rhs),rhsMax =  -7.61768426116305E-12  2.09208248530373E-01
 cg2d: Sum(rhs),rhsMax =  -6.78684886068481E-12  2.32969304018762E-01
 cg2d: Sum(rhs),rhsMax =  -6.12954131895549E-12  2.54812507485534E-01
 cg2d: Sum(rhs),rhsMax =  -5.62644375534660E-12  2.75176536103941E-01
 cg2d: Sum(rhs),rhsMax =  -5.22124010693403E-12  2.93581006574665E-01
 cg2d: Sum(rhs),rhsMax =  -4.88409312993099E-12  3.10647587724499E-01
 cg2d: Sum(rhs),rhsMax =  -4.58066917730093E-12  3.26155264862441E-01
 cg2d: Sum(rhs),rhsMax =  -4.34435820650947E-12  3.40142270626926E-01
 cg2d: Sum(rhs),rhsMax =  -4.12964107354696E-12  3.53305796420814E-01
 cg2d: Sum(rhs),rhsMax =  -3.91373045083299E-12  3.65370958591247E-01
 cg2d: Sum(rhs),rhsMax =  -3.72671338233488E-12  3.76470432311645E-01
 cg2d: Sum(rhs),rhsMax =  -3.58213458895307E-12  3.86763432754127E-01
 cg2d: Sum(rhs),rhsMax =  -3.44380080008477E-12  3.96397036739098E-01
 cg2d: Sum(rhs),rhsMax =  -3.28181926079196E-12  4.05806274770881E-01
 cg2d: Sum(rhs),rhsMax =  -3.07756597983655E-12  4.14747115614834E-01
 cg2d: Sum(rhs),rhsMax =  -2.97722957398605E-12  4.23293608407485E-01
 cg2d: Sum(rhs),rhsMax =  -2.87264656506636E-12  4.31501171168143E-01
 cg2d: Sum(rhs),rhsMax =  -2.74497091723447E-12  4.39409301716625E-01
 cg2d: Sum(rhs),rhsMax =  -2.61179966543068E-12  4.47043901003705E-01
 cg2d: Sum(rhs),rhsMax =  -2.55606646959450E-12  4.54534766080362E-01
 cg2d: Sum(rhs),rhsMax =  -2.56847321189468E-12  4.62194565158955E-01
 cg2d: Sum(rhs),rhsMax =  -2.56966670164616E-12  4.69672863469949E-01
 cg2d: Sum(rhs),rhsMax =  -2.53219667456506E-12  4.76965272783102E-01
 cg2d: Sum(rhs),rhsMax =  -2.52484144702692E-12  4.84060742094780E-01
 cg2d: Sum(rhs),rhsMax =  -2.62986854515646E-12  4.90943260618904E-01
 cg2d: Sum(rhs),rhsMax =  -2.60597099455140E-12  4.98253983766941E-01
 cg2d: Sum(rhs),rhsMax =  -2.58321142254658E-12  5.05573528644784E-01
 cg2d: Sum(rhs),rhsMax =  -2.59489651988076E-12  5.12733461821399E-01
 cg2d: Sum(rhs),rhsMax =  -2.61057842010359E-12  5.19727280300570E-01
 cg2d: Sum(rhs),rhsMax =  -2.61687893576834E-12  5.26901855333870E-01
 cg2d: Sum(rhs),rhsMax =  -2.62992405630769E-12  5.34720671133635E-01
 cg2d: Sum(rhs),rhsMax =  -2.63170041314709E-12  5.42540017325726E-01
 cg2d: Sum(rhs),rhsMax =  -2.63156163526901E-12  5.50440845132669E-01
 cg2d: Sum(rhs),rhsMax =  -2.65702737589635E-12  5.58569018686627E-01
 cg2d: Sum(rhs),rhsMax =  -2.66199562393155E-12  5.68187030954114E-01
 cg2d: Sum(rhs),rhsMax =  -2.64785415815538E-12  5.78455969795142E-01
 cg2d: Sum(rhs),rhsMax =  -2.67373623241696E-12  5.89720077774526E-01
 cg2d: Sum(rhs),rhsMax =  -2.65549461218005E-12  6.02446967768412E-01
 cg2d: Sum(rhs),rhsMax =  -2.63022242874555E-12  6.17253030392461E-01
 cg2d: Sum(rhs),rhsMax =  -2.60223786963110E-12  6.35498320186640E-01
 cg2d: Sum(rhs),rhsMax =  -2.60111376881866E-12  6.55527466500142E-01
 cg2d: Sum(rhs),rhsMax =  -2.57785459645277E-12  6.78715824216273E-01
 cg2d: Sum(rhs),rhsMax =  -2.51981768784049E-12  7.05877850602898E-01
 cg2d: Sum(rhs),rhsMax =  -2.47443732170893E-12  7.37343366054318E-01
 cg2d: Sum(rhs),rhsMax =  -2.38220554393820E-12  7.74429124511107E-01
 cg2d: Sum(rhs),rhsMax =  -2.29777308291546E-12  8.17255442657469E-01
 cg2d: Sum(rhs),rhsMax =  -2.23826512879555E-12  8.65751846237067E-01
 cg2d: Sum(rhs),rhsMax =  -2.11120010362720E-12  9.20332023351841E-01
 cg2d: Sum(rhs),rhsMax =  -2.10809147915825E-12  9.76319175759433E-01
 cg2d: Sum(rhs),rhsMax =  -2.10487183238683E-12  1.03104690505107E+00
 cg2d: Sum(rhs),rhsMax =  -2.07067696322838E-12  1.08400813497375E+00
 cg2d: Sum(rhs),rhsMax =  -2.05402361785900E-12  1.13469638546041E+00
 cg2d: Sum(rhs),rhsMax =  -2.02310390662319E-12  1.18261436367017E+00
 cg2d: Sum(rhs),rhsMax =  -2.00850447384937E-12  1.22728267988889E+00
 cg2d: Sum(rhs),rhsMax =  -1.98063787593128E-12  1.26824847097734E+00
 cg2d: Sum(rhs),rhsMax =  -1.98674410256672E-12  1.30509370995661E+00
 cg2d: Sum(rhs),rhsMax =  -1.99962268965237E-12  1.33744298353320E+00
 cg2d: Sum(rhs),rhsMax =  -2.05668815311810E-12  1.36497052994761E+00
 cg2d: Sum(rhs),rhsMax =  -2.10942374678780E-12  1.38740634676883E+00
 cg2d: Sum(rhs),rhsMax =  -2.16715534406831E-12  1.40454120179726E+00
 cg2d: Sum(rhs),rhsMax =  -2.25497398531616E-12  1.41623041317009E+00
 cg2d: Sum(rhs),rhsMax =  -2.34690045175512E-12  1.42239630571320E+00
 cg2d: Sum(rhs),rhsMax =  -2.23332463633596E-12  1.42302927123059E+00
 cg2d: Sum(rhs),rhsMax =  -2.30948593582525E-12  1.41818741067431E+00
 cg2d: Sum(rhs),rhsMax =  -2.38542519070961E-12  1.40799477813687E+00
 cg2d: Sum(rhs),rhsMax =  -2.45437004053883E-12  1.39263828703653E+00
 cg2d: Sum(rhs),rhsMax =  -2.52542431411484E-12  1.37236337582911E+00
 cg2d: Sum(rhs),rhsMax =  -2.61968224890552E-12  1.34746856820027E+00
 cg2d: Sum(rhs),rhsMax =  -2.74302802694137E-12  1.31829908136666E+00
 cg2d: Sum(rhs),rhsMax =  -2.84317014376256E-12  1.30349961005795E+00
 cg2d: Sum(rhs),rhsMax =  -2.86337620281074E-12  1.31684483376018E+00
 cg2d: Sum(rhs),rhsMax =  -2.86581869346492E-12  1.32537439817672E+00
 cg2d: Sum(rhs),rhsMax =  -2.87014856326095E-12  1.32905219325475E+00
 cg2d: Sum(rhs),rhsMax =  -2.88113977120474E-12  1.32789271958289E+00
 cg2d: Sum(rhs),rhsMax =  -2.89268609066085E-12  1.32196042238906E+00
 cg2d: Sum(rhs),rhsMax =  -2.95574675845955E-12  1.31136814653039E+00
 cg2d: Sum(rhs),rhsMax =  -3.08386649550130E-12  1.29627475887779E+00
 cg2d: Sum(rhs),rhsMax =  -3.25695026504036E-12  1.27688198853021E+00
 cg2d: Sum(rhs),rhsMax =  -3.41693340288884E-12  1.25343058518905E+00
 cg2d: Sum(rhs),rhsMax =  -3.57758267455210E-12  1.22619589452224E+00
 cg2d: Sum(rhs),rhsMax =  -3.73856501312275E-12  1.19548296131639E+00
 cg2d: Sum(rhs),rhsMax =  -3.90798504668055E-12  1.16162127715799E+00
 cg2d: Sum(rhs),rhsMax =  -4.11493061847068E-12  1.12495930019035E+00
 cg2d: Sum(rhs),rhsMax =  -4.39759340054025E-12  1.08585888457661E+00
 cg2d: Sum(rhs),rhsMax =  -4.57112125928916E-12  1.04468974031097E+00
 cg2d: Sum(rhs),rhsMax =  -4.68836081068957E-12  1.00182400852281E+00
 cg2d: Sum(rhs),rhsMax =  -4.79183359658464E-12  9.57631072414693E-01
 cg2d: Sum(rhs),rhsMax =  -4.89508433787478E-12  9.12472718199797E-01
 cg2d: Sum(rhs),rhsMax =  -5.10647080176341E-12  8.66698742641524E-01
 cg2d: Sum(rhs),rhsMax =  -5.34949862185385E-12  8.20643040735013E-01
 cg2d: Sum(rhs),rhsMax =  -5.58197932321036E-12  7.74620223705475E-01
 cg2d: Sum(rhs),rhsMax =  -5.84554626925637E-12  7.28922802097835E-01
 cg2d: Sum(rhs),rhsMax =  -6.18205486802026E-12  6.83818951942264E-01
 cg2d: Sum(rhs),rhsMax =  -6.50779430344528E-12  6.39550865236613E-01
 cg2d: Sum(rhs),rhsMax =  -6.92512713840188E-12  5.96333671430708E-01
 cg2d: Sum(rhs),rhsMax =  -7.35189686906779E-12  5.54354903028045E-01
 cg2d: Sum(rhs),rhsMax =  -7.78010988966571E-12  5.13774466346352E-01
 cg2d: Sum(rhs),rhsMax =  -8.32567348396651E-12  4.74725071438617E-01
 cg2d: Sum(rhs),rhsMax =  -8.71513972100502E-12  4.46899070035239E-01
 cg2d: Sum(rhs),rhsMax =  -8.81950068531978E-12  4.34381497962429E-01
 cg2d: Sum(rhs),rhsMax =  -8.85369555447824E-12  4.23134922712984E-01
 cg2d: Sum(rhs),rhsMax =  -8.97659724330424E-12  4.12691198336757E-01
 cg2d: Sum(rhs),rhsMax =  -8.99036400880959E-12  4.02848700025325E-01
 cg2d: Sum(rhs),rhsMax =  -9.05564512265755E-12  3.93525016988871E-01
 cg2d: Sum(rhs),rhsMax =  -9.16788867044716E-12  3.84597414786651E-01
 cg2d: Sum(rhs),rhsMax =  -9.22817378068430E-12  3.75942540303342E-01
 cg2d: Sum(rhs),rhsMax =  -9.25792775774426E-12  3.67491983930243E-01
 cg2d: Sum(rhs),rhsMax =  -9.28856991322391E-12  3.59195022969420E-01
 cg2d: Sum(rhs),rhsMax =  -9.33142452197444E-12  3.51013485205869E-01
 cg2d: Sum(rhs),rhsMax =  -9.51483336564252E-12  3.42917824568394E-01
 cg2d: Sum(rhs),rhsMax =  -9.57267598522549E-12  3.34884067533311E-01
 cg2d: Sum(rhs),rhsMax =  -9.65161284227634E-12  3.26891397068134E-01
 cg2d: Sum(rhs),rhsMax =  -9.78994663114463E-12  3.18920253175178E-01
 cg2d: Sum(rhs),rhsMax =  -9.88764625731164E-12  3.10950890026823E-01
 cg2d: Sum(rhs),rhsMax =  -1.00685570991743E-11  3.03002908599654E-01
 cg2d: Sum(rhs),rhsMax =  -1.01991470824458E-11  2.95050088182528E-01
 cg2d: Sum(rhs),rhsMax =  -1.04652675414485E-11  2.87026009613450E-01
 cg2d: Sum(rhs),rhsMax =  -1.06600839266946E-11  2.78905470260894E-01
 cg2d: Sum(rhs),rhsMax =  -1.08810183085950E-11  2.70660773728812E-01
 cg2d: Sum(rhs),rhsMax =  -1.11252118628613E-11  2.62261907879374E-01
 cg2d: Sum(rhs),rhsMax =  -1.14448728272265E-11  2.53676956433364E-01
 cg2d: Sum(rhs),rhsMax =  -1.17668236265800E-11  2.45525586934620E-01
 cg2d: Sum(rhs),rhsMax =  -1.21445770107087E-11  2.37263478798797E-01
 cg2d: Sum(rhs),rhsMax =  -1.25472202072707E-11  2.28673364139591E-01
 cg2d: Sum(rhs),rhsMax =  -1.29838431672802E-11  2.19492129555526E-01
 cg2d: Sum(rhs),rhsMax =  -1.35403147027979E-11  2.09886109349479E-01
 cg2d: Sum(rhs),rhsMax =  -1.41929419605891E-11  1.99757015974023E-01
 cg2d: Sum(rhs),rhsMax =  -1.48988738013500E-11  1.89077922287380E-01
 cg2d: Sum(rhs),rhsMax =  -1.58192348109765E-11  1.77910715239860E-01
 cg2d: Sum(rhs),rhsMax =  -1.68506320008532E-11  1.66306187718966E-01
 cg2d: Sum(rhs),rhsMax =  -1.80741949185048E-11  1.54230263143451E-01
 cg2d: Sum(rhs),rhsMax =  -1.95794214175038E-11  1.41724838471037E-01
 cg2d: Sum(rhs),rhsMax =  -2.15377438106401E-11  1.28900851417504E-01
 cg2d: Sum(rhs),rhsMax =  -2.38379871397854E-11  1.16417406153959E-01
 cg2d: Sum(rhs),rhsMax =  -2.67265098941039E-11  1.03686792041605E-01
 cg2d: Sum(rhs),rhsMax =  -3.06553116224961E-11  9.07578249406205E-02
 cg2d: Sum(rhs),rhsMax =  -3.59654528381270E-11  7.76498864583854E-02
 cg2d: Sum(rhs),rhsMax =  -4.34829394713176E-11  6.44497700746809E-02
 cg2d: Sum(rhs),rhsMax =  -5.40287814487783E-11  5.20458471863454E-02
 cg2d: Sum(rhs),rhsMax =  -6.57025545081069E-11  4.29669971100451E-02
 cg2d: Sum(rhs),rhsMax =  -7.72294450612776E-11  3.66817274993089E-02
 cg2d: Sum(rhs),rhsMax =  -8.61098969906493E-11  3.29206365834287E-02
 cg2d: Sum(rhs),rhsMax =  -9.26557719438392E-11  3.06300664103416E-02
 cg2d: Sum(rhs),rhsMax =  -6.67174093749168E-11  4.25922937410069E-02
 cg2d: Sum(rhs),rhsMax =  -5.10708142442695E-11  5.56327100857439E-02
 cg2d: Sum(rhs),rhsMax =  -4.11877754125101E-11  6.90673499440617E-02
 cg2d: Sum(rhs),rhsMax =  -3.46126460826213E-11  8.25621006570015E-02
 cg2d: Sum(rhs),rhsMax =  -2.99412716842085E-11  9.59864351063807E-02
 cg2d: Sum(rhs),rhsMax =  -2.63865040928124E-11  1.09210838604395E-01
 cg2d: Sum(rhs),rhsMax =  -2.36705099965207E-11  1.22192883950899E-01
 cg2d: Sum(rhs),rhsMax =  -2.15858997343332E-11  1.34910921850897E-01
 cg2d: Sum(rhs),rhsMax =  -1.98998040268350E-11  1.47300263995119E-01
 cg2d: Sum(rhs),rhsMax =  -1.84818826909350E-11  1.59336368111067E-01
 cg2d: Sum(rhs),rhsMax =  -1.73124570235217E-11  1.71036156230777E-01
 cg2d: Sum(rhs),rhsMax =  -1.63559721322315E-11  1.82459693268555E-01
 cg2d: Sum(rhs),rhsMax =  -1.54816715003392E-11  1.93538559283612E-01
 cg2d: Sum(rhs),rhsMax =  -1.47907242009637E-11  2.04287930932690E-01
 cg2d: Sum(rhs),rhsMax =  -1.41136824449717E-11  2.14728313816655E-01
 cg2d: Sum(rhs),rhsMax =  -1.35513267274234E-11  2.24959579826494E-01
 cg2d: Sum(rhs),rhsMax =  -1.30547239685086E-11  2.34954558527382E-01
 cg2d: Sum(rhs),rhsMax =  -1.26272881040279E-11  2.44713263259494E-01
 cg2d: Sum(rhs),rhsMax =  -1.22048482431580E-11  2.54256828707752E-01
 cg2d: Sum(rhs),rhsMax =  -1.19151355448821E-11  2.63602784414862E-01
 cg2d: Sum(rhs),rhsMax =  -1.15281117984978E-11  2.72764156364885E-01
 cg2d: Sum(rhs),rhsMax =  -1.11248232848027E-11  2.81766421936875E-01
 cg2d: Sum(rhs),rhsMax =  -1.08800191078728E-11  2.90693270077694E-01
 cg2d: Sum(rhs),rhsMax =  -1.06590847259724E-11  2.99463179826535E-01
 cg2d: Sum(rhs),rhsMax =  -1.04278252699430E-11  3.08073481491496E-01
 cg2d: Sum(rhs),rhsMax =  -1.02025055070953E-11  3.16517661741502E-01
 cg2d: Sum(rhs),rhsMax =  -1.00617292275729E-11  3.24785989929578E-01
 cg2d: Sum(rhs),rhsMax =  -9.93699567075623E-12  3.32881671277425E-01
 cg2d: Sum(rhs),rhsMax =  -9.76180247747038E-12  3.40971288283931E-01
 cg2d: Sum(rhs),rhsMax =  -9.64717195017784E-12  3.48876245194555E-01
 cg2d: Sum(rhs),rhsMax =  -9.53437329087592E-12  3.56582370595433E-01
 cg2d: Sum(rhs),rhsMax =  -9.40880706679081E-12  3.64074806812534E-01
 cg2d: Sum(rhs),rhsMax =  -9.29123444848301E-12  3.71458592333523E-01
 cg2d: Sum(rhs),rhsMax =  -9.23450205192466E-12  3.78804818069050E-01
 cg2d: Sum(rhs),rhsMax =  -9.13313868977639E-12  3.85934017946086E-01
 cg2d: Sum(rhs),rhsMax =  -9.04587516004085E-12  3.92834838018297E-01
 cg2d: Sum(rhs),rhsMax =  -8.96005492023733E-12  3.99625530226799E-01
 cg2d: Sum(rhs),rhsMax =  -8.86390960630479E-12  4.06457568336756E-01
 cg2d: Sum(rhs),rhsMax =  -8.81894557380747E-12  4.13086120670150E-01
 cg2d: Sum(rhs),rhsMax =  -8.76887451539687E-12  4.19516982973238E-01
 cg2d: Sum(rhs),rhsMax =  -8.55437942703929E-12  4.25973949651265E-01
 cg2d: Sum(rhs),rhsMax =  -8.37385716323524E-12  4.32534249965851E-01
 cg2d: Sum(rhs),rhsMax =  -8.04578625945851E-12  4.50084767786149E-01
 cg2d: Sum(rhs),rhsMax =  -7.59103890857205E-12  4.77120501469605E-01
 cg2d: Sum(rhs),rhsMax =  -7.22466531044574E-12  5.04662842269435E-01
 cg2d: Sum(rhs),rhsMax =  -6.85407286482587E-12  5.32603095134861E-01
 cg2d: Sum(rhs),rhsMax =  -6.56541487842333E-12  5.60823981027707E-01
 cg2d: Sum(rhs),rhsMax =  -6.21813711632058E-12  5.89200410933215E-01
 cg2d: Sum(rhs),rhsMax =  -5.90683058021568E-12  6.17600396691721E-01
 cg2d: Sum(rhs),rhsMax =  -5.58619817070394E-12  6.45886090333782E-01
 cg2d: Sum(rhs),rhsMax =  -5.28799226628962E-12  6.73914940959117E-01
 cg2d: Sum(rhs),rhsMax =  -5.03919128647112E-12  7.01540955023640E-01
 cg2d: Sum(rhs),rhsMax =  -4.74742467559963E-12  7.28616044182573E-01
 cg2d: Sum(rhs),rhsMax =  -4.54303261676614E-12  7.54991442606916E-01
 cg2d: Sum(rhs),rhsMax =  -4.31410462908843E-12  7.80519173788943E-01
 cg2d: Sum(rhs),rhsMax =  -4.10871336953278E-12  8.05053545431104E-01
 cg2d: Sum(rhs),rhsMax =  -3.89688281643430E-12  8.28452650310610E-01
 cg2d: Sum(rhs),rhsMax =  -3.72413211380263E-12  8.50579850476848E-01
 cg2d: Sum(rhs),rhsMax =  -3.59035023933529E-12  8.71305222153964E-01
 cg2d: Sum(rhs),rhsMax =  -3.45135031665222E-12  8.90506939176158E-01
 cg2d: Sum(rhs),rhsMax =  -3.29281046873575E-12  9.08072573662999E-01
 cg2d: Sum(rhs),rhsMax =  -3.14104298126949E-12  9.23900293933507E-01
 cg2d: Sum(rhs),rhsMax =  -3.06110692349648E-12  9.37899941280453E-01
 cg2d: Sum(rhs),rhsMax =  -2.97450952757572E-12  9.49993969173146E-01
 cg2d: Sum(rhs),rhsMax =  -2.86359824741567E-12  9.60118230706214E-01
 cg2d: Sum(rhs),rhsMax =  -2.72848410531878E-12  9.68222602623394E-01
 cg2d: Sum(rhs),rhsMax =  -2.54707366309503E-12  9.90710517016876E-01
 cg2d: Sum(rhs),rhsMax =  -2.63222776908378E-12  1.02555716761299E+00
 cg2d: Sum(rhs),rhsMax =  -2.70461431028934E-12  1.05896942660728E+00
 cg2d: Sum(rhs),rhsMax =  -2.76589862124865E-12  1.09076757881095E+00
 cg2d: Sum(rhs),rhsMax =  -2.81119572065336E-12  1.12077958118871E+00
 cg2d: Sum(rhs),rhsMax =  -2.82218692859715E-12  1.14884268079383E+00
 cg2d: Sum(rhs),rhsMax =  -2.76267897447724E-12  1.17480495028577E+00
 cg2d: Sum(rhs),rhsMax =  -2.73236988590497E-12  1.19852672454793E+00
 cg2d: Sum(rhs),rhsMax =  -2.70272693114748E-12  1.21988191693830E+00
 cg2d: Sum(rhs),rhsMax =  -2.66797695047671E-12  1.23875919491114E+00
 cg2d: Sum(rhs),rhsMax =  -2.65931721088464E-12  1.25506299862884E+00
 cg2d: Sum(rhs),rhsMax =  -2.66109356772404E-12  1.26871438941321E+00
 cg2d: Sum(rhs),rhsMax =  -2.69673172681451E-12  1.27965171727219E+00
 cg2d: Sum(rhs),rhsMax =  -2.73592259958377E-12  1.28783109942041E+00
 cg2d: Sum(rhs),rhsMax =  -2.73947531326257E-12  1.29322670448984E+00
 cg2d: Sum(rhs),rhsMax =  -2.74069655858966E-12  1.29583084007172E+00
 cg2d: Sum(rhs),rhsMax =  -2.77367018242103E-12  1.29565384426276E+00
 cg2d: Sum(rhs),rhsMax =  -2.83695289482466E-12  1.29272378487396E+00
 cg2d: Sum(rhs),rhsMax =  -2.88458146258108E-12  1.28708597304261E+00
 cg2d: Sum(rhs),rhsMax =  -2.95374835701523E-12  1.27880230386656E+00
 cg2d: Sum(rhs),rhsMax =  -3.04101188675077E-12  1.26795042775742E+00
 cg2d: Sum(rhs),rhsMax =  -3.13726822298577E-12  1.25462276918182E+00
 cg2d: Sum(rhs),rhsMax =  -3.24973381538030E-12  1.23892541321351E+00
 cg2d: Sum(rhs),rhsMax =  -3.38118422149591E-12  1.22097687665346E+00
 cg2d: Sum(rhs),rhsMax =  -3.50397488801946E-12  1.20090677556883E+00
 cg2d: Sum(rhs),rhsMax =  -3.64319685530745E-12  1.17885442057426E+00
 cg2d: Sum(rhs),rhsMax =  -3.83504339396268E-12  1.15496736269518E+00
 cg2d: Sum(rhs),rhsMax =  -3.99641431059194E-12  1.12939989602333E+00
 cg2d: Sum(rhs),rhsMax =  -4.19891899028357E-12  1.10231154457301E+00
 cg2d: Sum(rhs),rhsMax =  -4.39326353074421E-12  1.07386554313700E+00
 cg2d: Sum(rhs),rhsMax =  -4.58888482768316E-12  1.04422733202631E+00
 cg2d: Sum(rhs),rhsMax =  -4.78178607821178E-12  1.01356309630988E+00
 cg2d: Sum(rhs),rhsMax =  -4.98756591582605E-12  9.82038365227600E-01
 cg2d: Sum(rhs),rhsMax =  -5.21893639415794E-12  9.49816684326384E-01
 cg2d: Sum(rhs),rhsMax =  -5.43742828540417E-12  9.17058371458027E-01
 cg2d: Sum(rhs),rhsMax =  -5.72852876246088E-12  8.83919366815197E-01
 cg2d: Sum(rhs),rhsMax =  -6.02023986218114E-12  8.50550186128518E-01
 cg2d: Sum(rhs),rhsMax =  -6.29757357373251E-12  8.17094985038778E-01
 cg2d: Sum(rhs),rhsMax =  -6.65811850097953E-12  7.83690740047952E-01
 cg2d: Sum(rhs),rhsMax =  -6.99601487852419E-12  7.50466546428309E-01
 cg2d: Sum(rhs),rhsMax =  -7.40746353145028E-12  7.17543038057135E-01
 cg2d: Sum(rhs),rhsMax =  -7.81053000054044E-12  6.85031929325176E-01
 cg2d: Sum(rhs),rhsMax =  -8.27005131043279E-12  6.53035676049218E-01
 cg2d: Sum(rhs),rhsMax =  -8.77581340930078E-12  6.21647249623826E-01
 cg2d: Sum(rhs),rhsMax =  -9.29772925317707E-12  5.90950020121502E-01
 cg2d: Sum(rhs),rhsMax =  -9.86100090472064E-12  5.61017743500864E-01
 cg2d: Sum(rhs),rhsMax =  -1.04478092843863E-11  5.31914649299322E-01
 cg2d: Sum(rhs),rhsMax =  -1.10982334433629E-11  5.03695613283038E-01
 cg2d: Sum(rhs),rhsMax =  -1.17895138096458E-11  4.76406406175181E-01
 cg2d: Sum(rhs),rhsMax =  -1.25287558105924E-11  4.50084010930315E-01
 cg2d: Sum(rhs),rhsMax =  -1.32728272816962E-11  4.25603456868897E-01
 cg2d: Sum(rhs),rhsMax =  -1.36649580539938E-11  4.15957841499730E-01
 cg2d: Sum(rhs),rhsMax =  -1.39847022850859E-11  4.06621166993608E-01
 cg2d: Sum(rhs),rhsMax =  -1.42604261732515E-11  3.97490218271765E-01
 cg2d: Sum(rhs),rhsMax =  -1.46027634428947E-11  3.88687576517619E-01
 cg2d: Sum(rhs),rhsMax =  -1.49012469030652E-11  3.79821490432167E-01
 cg2d: Sum(rhs),rhsMax =  -1.52218238014257E-11  3.70832579602859E-01
 cg2d: Sum(rhs),rhsMax =  -1.55832013959412E-11  3.62003806922194E-01
 cg2d: Sum(rhs),rhsMax =  -1.59965929391603E-11  3.52857638086101E-01
 cg2d: Sum(rhs),rhsMax =  -1.63674629405364E-11  3.43648672183673E-01
 cg2d: Sum(rhs),rhsMax =  -1.68225433583302E-11  3.34170031578358E-01
 cg2d: Sum(rhs),rhsMax =  -1.72953873445181E-11  3.24468403174185E-01
 cg2d: Sum(rhs),rhsMax =  -1.77691750202769E-11  3.14473673173352E-01
 cg2d: Sum(rhs),rhsMax =  -1.83456583258135E-11  3.04219596011930E-01
 cg2d: Sum(rhs),rhsMax =  -1.90020776891231E-11  2.93561409824119E-01
 cg2d: Sum(rhs),rhsMax =  -1.96426208631806E-11  2.82709217294873E-01
 cg2d: Sum(rhs),rhsMax =  -2.05044314860459E-11  2.71376625177748E-01
 cg2d: Sum(rhs),rhsMax =  -2.13292716821911E-11  2.59805367336904E-01
 cg2d: Sum(rhs),rhsMax =  -2.22676876937555E-11  2.47870383556490E-01
 cg2d: Sum(rhs),rhsMax =  -2.33760233392388E-11  2.35512258403882E-01
 cg2d: Sum(rhs),rhsMax =  -2.46189735264579E-11  2.22916808183429E-01
 cg2d: Sum(rhs),rhsMax =  -2.60767518689420E-11  2.09991935065540E-01
 cg2d: Sum(rhs),rhsMax =  -2.77157186090449E-11  1.96712277778852E-01
 cg2d: Sum(rhs),rhsMax =  -2.97700197826600E-11  1.83128834778373E-01
 cg2d: Sum(rhs),rhsMax =  -3.21434545647037E-11  1.69370548897779E-01
 cg2d: Sum(rhs),rhsMax =  -3.49718587422387E-11  1.55340543516844E-01
 cg2d: Sum(rhs),rhsMax =  -3.84453580082322E-11  1.41078296448432E-01
 cg2d: Sum(rhs),rhsMax =  -4.27695656668448E-11  1.26623373553603E-01
 cg2d: Sum(rhs),rhsMax =  -4.82853756977875E-11  1.12090131762932E-01
 cg2d: Sum(rhs),rhsMax =  -5.54933876628638E-11  9.74312570532183E-02
 cg2d: Sum(rhs),rhsMax =  -6.53013199070074E-11  8.26976346463352E-02
 cg2d: Sum(rhs),rhsMax =  -7.93181076375049E-11  6.80011941942474E-02
 cg2d: Sum(rhs),rhsMax =  -8.25655099845335E-11  6.52141743825568E-02
 cg2d: Sum(rhs),rhsMax =  -8.24611490202187E-11  6.52093180419204E-02
 cg2d: Sum(rhs),rhsMax =  -8.22941714773151E-11  6.52887567511795E-02
 cg2d: Sum(rhs),rhsMax =  -8.19624368375571E-11  6.54363866040897E-02
 cg2d: Sum(rhs),rhsMax =  -8.16755552079940E-11  6.56350205219820E-02
 cg2d: Sum(rhs),rhsMax =  -8.12874212385850E-11  6.58663183837470E-02
 cg2d: Sum(rhs),rhsMax =  -8.08837441468313E-11  6.61107259136799E-02
 cg2d: Sum(rhs),rhsMax =  -7.82219844452925E-11  6.82824706668795E-02
 cg2d: Sum(rhs),rhsMax =  -7.55232543170337E-11  7.05979378615282E-02
 cg2d: Sum(rhs),rhsMax =  -7.11879444281749E-11  7.48079361597906E-02
 cg2d: Sum(rhs),rhsMax =  -6.06219519028173E-11  8.77204576256908E-02
 cg2d: Sum(rhs),rhsMax =  -5.29223331824369E-11  1.00338253712461E-01
 cg2d: Sum(rhs),rhsMax =  -4.71030991988641E-11  1.12602521291746E-01
 cg2d: Sum(rhs),rhsMax =  -4.25424140360064E-11  1.24489466785767E-01
 cg2d: Sum(rhs),rhsMax =  -3.88798993000705E-11  1.35976296328342E-01
 cg2d: Sum(rhs),rhsMax =  -3.59363649948818E-11  1.47041315516547E-01
 cg2d: Sum(rhs),rhsMax =  -3.33869598634351E-11  1.57825625296721E-01
 cg2d: Sum(rhs),rhsMax =  -3.13109538296885E-11  1.68201531502579E-01
 cg2d: Sum(rhs),rhsMax =  -2.95189983567923E-11  1.78129960409503E-01
 cg2d: Sum(rhs),rhsMax =  -2.79509193568117E-11  1.87768425036370E-01
 cg2d: Sum(rhs),rhsMax =  -2.65769073415356E-11  1.97049323372271E-01
 cg2d: Sum(rhs),rhsMax =  -2.53190801657865E-11  2.05898747817868E-01
 cg2d: Sum(rhs),rhsMax =  -2.42129927219281E-11  2.14598011627545E-01
 cg2d: Sum(rhs),rhsMax =  -2.32130425992239E-11  2.22842154016074E-01
 cg2d: Sum(rhs),rhsMax =  -2.23737972593341E-11  2.31010053700348E-01
 cg2d: Sum(rhs),rhsMax =  -2.15828466210155E-11  2.38779402372570E-01
 cg2d: Sum(rhs),rhsMax =  -2.08006112334402E-11  2.46567447542205E-01
 cg2d: Sum(rhs),rhsMax =  -2.01002409161433E-11  2.54115370129501E-01
 cg2d: Sum(rhs),rhsMax =  -1.94893406968433E-11  2.61594022682721E-01
 cg2d: Sum(rhs),rhsMax =  -1.89516319304417E-11  2.69174102115098E-01
 cg2d: Sum(rhs),rhsMax =  -1.85466329793993E-11  2.76775275467840E-01
 cg2d: Sum(rhs),rhsMax =  -1.81183471004154E-11  2.84525491541698E-01
(PID.TID 0000.0001)      cg2d_init_res =   2.76016964919605E-01
(PID.TID 0000.0001)      cg2d_iters(min,last) =      -1      38
(PID.TID 0000.0001)      cg2d_last_res =   7.13060620407066E-14
(PID.TID 0000.0001) // =======================================================
(PID.TID 0000.0001) // Begin MONITOR dynamic field statistics
(PID.TID 0000.0001) // =======================================================
(PID.TID 0000.0001) %MON time_tsnumber                =                   480
(PID.TID 0000.0001) %MON time_secondsf                =   7.2000000000000E+03
(PID.TID 0000.0001) %MON dynstat_eta_max              =   8.6812191179099E-02
(PID.TID 0000.0001) %MON dynstat_eta_min              =  -7.2285618419055E-02
(PID.TID 0000.0001) %MON dynstat_eta_mean             =   1.1080574462007E-14
(PID.TID 0000.0001) %MON dynstat_eta_sd               =   5.4196037598154E-02
(PID.TID 0000.0001) %MON dynstat_eta_del2             =   4.5374210999939E-05
(PID.TID 0000.0001) %MON dynstat_uvel_max             =   1.7746426061667E+00
(PID.TID 0000.0001) %MON dynstat_uvel_min             =  -2.8648901506065E-02
(PID.TID 0000.0001) %MON dynstat_uvel_mean            =   6.9639969129374E-01
(PID.TID 0000.0001) %MON dynstat_uvel_sd              =   8.2140848464413E-02
(PID.TID 0000.0001) %MON dynstat_uvel_del2            =   5.3902640828418E-04
(PID.TID 0000.0001) %MON dynstat_vvel_max             =   0.0000000000000E+00
(PID.TID 0000.0001) %MON dynstat_vvel_min             =   0.0000000000000E+00
(PID.TID 0000.0001) %MON dynstat_vvel_mean            =   0.0000000000000E+00
(PID.TID 0000.0001) %MON dynstat_vvel_sd              =   0.0000000000000E+00
(PID.TID 0000.0001) %MON dynstat_vvel_del2            =   0.0000000000000E+00
(PID.TID 0000.0001) %MON dynstat_wvel_max             =   3.9419911139707E-02
(PID.TID 0000.0001) %MON dynstat_wvel_min             =  -4.6960015819476E-02
(PID.TID 0000.0001) %MON dynstat_wvel_mean            =   1.8365099866772E-20
(PID.TID 0000.0001) %MON dynstat_wvel_sd              =   3.5978299419161E-03
(PID.TID 0000.0001) %MON dynstat_wvel_del2            =   8.0003915009774E-05
(PID.TID 0000.0001) %MON dynstat_theta_max            =   1.5000000000002E+01
(PID.TID 0000.0001) %MON dynstat_theta_min            =   9.9999999999991E+00
(PID.TID 0000.0001) %MON dynstat_theta_mean           =   1.3335030888281E+01
(PID.TID 0000.0001) %MON dynstat_theta_sd             =   2.3120257790894E+00
(PID.TID 0000.0001) %MON dynstat_theta_del2           =   1.1200804734285E-03
(PID.TID 0000.0001) %MON dynstat_salt_max             =   3.5000000000000E+01
(PID.TID 0000.0001) %MON dynstat_salt_min             =   3.5000000000000E+01
(PID.TID 0000.0001) %MON dynstat_salt_mean            =   3.5000000000000E+01
(PID.TID 0000.0001) %MON dynstat_salt_sd              =   2.1316282072803E-14
(PID.TID 0000.0001) %MON dynstat_salt_del2            =   0.0000000000000E+00
(PID.TID 0000.0001) %MON dynstat_sst_max              =   1.5000000000000E+01
(PID.TID 0000.0001) %MON dynstat_sst_min              =   1.4999999999999E+01
(PID.TID 0000.0001) %MON dynstat_sst_mean             =   1.4999999999999E+01
(PID.TID 0000.0001) %MON dynstat_sst_sd               =   2.7897213797471E-13
(PID.TID 0000.0001) %MON dynstat_sst_del2             =   1.5927885557682E-15
(PID.TID 0000.0001) %MON dynstat_sss_max              =   3.5000000000000E+01
(PID.TID 0000.0001) %MON dynstat_sss_min              =   3.5000000000000E+01
(PID.TID 0000.0001) %MON dynstat_sss_mean             =   3.5000000000000E+01
(PID.TID 0000.0001) %MON dynstat_sss_sd               =   7.8159700933611E-14
(PID.TID 0000.0001) %MON dynstat_sss_del2             =   0.0000000000000E+00
(PID.TID 0000.0001) %MON forcing_qnet_max             =   0.0000000000000E+00
(PID.TID 0000.0001) %MON forcing_qnet_min             =   0.0000000000000E+00
(PID.TID 0000.0001) %MON forcing_qnet_mean            =   0.0000000000000E+00
(PID.TID 0000.0001) %MON forcing_qnet_sd              =   0.0000000000000E+00
(PID.TID 0000.0001) %MON forcing_qnet_del2            =   0.0000000000000E+00
(PID.TID 0000.0001) %MON forcing_qsw_max              =   0.0000000000000E+00
(PID.TID 0000.0001) %MON forcing_qsw_min              =   0.0000000000000E+00
(PID.TID 0000.0001) %MON forcing_qsw_mean             =   0.0000000000000E+00
(PID.TID 0000.0001) %MON forcing_qsw_sd               =   0.0000000000000E+00
(PID.TID 0000.0001) %MON forcing_qsw_del2             =   0.0000000000000E+00
(PID.TID 0000.0001) %MON forcing_empmr_max            =   0.0000000000000E+00
(PID.TID 0000.0001) %MON forcing_empmr_min            =   0.0000000000000E+00
(PID.TID 0000.0001) %MON forcing_empmr_mean           =   0.0000000000000E+00
(PID.TID 0000.0001) %MON forcing_empmr_sd             =   0.0000000000000E+00
(PID.TID 0000.0001) %MON forcing_empmr_del2           =   0.0000000000000E+00
(PID.TID 0000.0001) %MON forcing_fu_max               =   0.0000000000000E+00
(PID.TID 0000.0001) %MON forcing_fu_min               =   0.0000000000000E+00
(PID.TID 0000.0001) %MON forcing_fu_mean              =   0.0000000000000E+00
(PID.TID 0000.0001) %MON forcing_fu_sd                =   0.0000000000000E+00
(PID.TID 0000.0001) %MON forcing_fu_del2              =   0.0000000000000E+00
(PID.TID 0000.0001) %MON forcing_fv_max               =   0.0000000000000E+00
(PID.TID 0000.0001) %MON forcing_fv_min               =   0.0000000000000E+00
(PID.TID 0000.0001) %MON forcing_fv_mean              =   0.0000000000000E+00
(PID.TID 0000.0001) %MON forcing_fv_sd                =   0.0000000000000E+00
(PID.TID 0000.0001) %MON forcing_fv_del2              =   0.0000000000000E+00
(PID.TID 0000.0001) %MON advcfl_uvel_max              =   1.2469679212087E-01
(PID.TID 0000.0001) %MON advcfl_vvel_max              =   0.0000000000000E+00
(PID.TID 0000.0001) %MON advcfl_wvel_max              =   3.0139768560075E-01
(PID.TID 0000.0001) %MON advcfl_W_hf_max              =   3.0391949089197E-01
(PID.TID 0000.0001) %MON pe_b_mean                    =   7.3380684618495E-05
(PID.TID 0000.0001) %MON ke_max                       =   1.2707263955868E+00
(PID.TID 0000.0001) %MON ke_mean                      =   2.4597214349691E-01
(PID.TID 0000.0001) %MON ke_vol                       =   9.5889217545975E+10
(PID.TID 0000.0001) %MON vort_r_min                   =   0.0000000000000E+00
(PID.TID 0000.0001) %MON vort_r_max                   =   0.0000000000000E+00
(PID.TID 0000.0001) %MON vort_a_mean                  =   0.0000000000000E+00
(PID.TID 0000.0001) %MON vort_a_sd                    =   0.0000000000000E+00
(PID.TID 0000.0001) %MON vort_p_mean                  =   0.0000000000000E+00
(PID.TID 0000.0001) %MON vort_p_sd                    =   0.0000000000000E+00
(PID.TID 0000.0001) %MON surfExpan_theta_mean         =  -6.8602879256376E-18
(PID.TID 0000.0001) %MON surfExpan_salt_mean          =   2.7858281044391E-18
(PID.TID 0000.0001) // =======================================================
(PID.TID 0000.0001) // End MONITOR dynamic field statistics
(PID.TID 0000.0001) // =======================================================
(PID.TID 0000.0001) // =======================================================
(PID.TID 0000.0001) // Begin OBCS MONITOR field statistics
(PID.TID 0000.0001) // =======================================================
(PID.TID 0000.0001) %MON obc_E_uVel_max               =   6.6809804669674E-01
(PID.TID 0000.0001) %MON obc_E_uVel_min               =   6.6809804669674E-01
(PID.TID 0000.0001) %MON obc_E_uVel_mean              =   6.6809804669674E-01
(PID.TID 0000.0001) %MON obc_E_uVel_sd                =   1.6660004686563E-08
(PID.TID 0000.0001) %MON obc_E_uVel_Int               =   6.6809804669674E+05
(PID.TID 0000.0001) %MON obc_W_uVel_max               =   6.6809804669674E-01
(PID.TID 0000.0001) %MON obc_W_uVel_min               =   6.6809804669674E-01
(PID.TID 0000.0001) %MON obc_W_uVel_mean              =   6.6809804669674E-01
(PID.TID 0000.0001) %MON obc_W_uVel_sd                =   1.6660004686563E-08
(PID.TID 0000.0001) %MON obc_W_uVel_Int               =   6.6809804669674E+05
(PID.TID 0000.0001) // =======================================================
(PID.TID 0000.0001) // End OBCS MONITOR field statistics
(PID.TID 0000.0001) // =======================================================
 cg2d: Sum(rhs),rhsMax =  -1.76470574264620E-11  2.92573302868845E-01
 cg2d: Sum(rhs),rhsMax =  -1.72234448925224E-11  3.01085733197385E-01
 cg2d: Sum(rhs),rhsMax =  -1.66979902127551E-11  3.10247577811880E-01
 cg2d: Sum(rhs),rhsMax =  -1.61617941252246E-11  3.20263794385097E-01
 cg2d: Sum(rhs),rhsMax =  -1.56257506933599E-11  3.31477759057880E-01
 cg2d: Sum(rhs),rhsMax =  -1.50477685867401E-11  3.44643221596218E-01
 cg2d: Sum(rhs),rhsMax =  -1.44618206299185E-11  3.58598414969626E-01
 cg2d: Sum(rhs),rhsMax =  -1.39238065521852E-11  3.73709175783331E-01
 cg2d: Sum(rhs),rhsMax =  -1.33698607740484E-11  3.90175655843963E-01
 cg2d: Sum(rhs),rhsMax =  -1.28497767981628E-11  4.08154144877475E-01
 cg2d: Sum(rhs),rhsMax =  -1.23008270236369E-11  4.28567948631092E-01
 cg2d: Sum(rhs),rhsMax =  -1.17713061520419E-11  4.50605917370622E-01
 cg2d: Sum(rhs),rhsMax =  -1.12677089880719E-11  4.72813290980812E-01
 cg2d: Sum(rhs),rhsMax =  -1.08451581048996E-11  4.95123946421666E-01
 cg2d: Sum(rhs),rhsMax =  -1.04392605670967E-11  5.17468738962688E-01
 cg2d: Sum(rhs),rhsMax =  -1.00571773131719E-11  5.39775893243839E-01
 cg2d: Sum(rhs),rhsMax =  -9.74842429002365E-12  5.61971428735885E-01
 cg2d: Sum(rhs),rhsMax =  -9.41424715961148E-12  5.83979615891649E-01
 cg2d: Sum(rhs),rhsMax =  -9.13602526964041E-12  6.05723458827134E-01
 cg2d: Sum(rhs),rhsMax =  -8.89877060927802E-12  6.27125199996209E-01
 cg2d: Sum(rhs),rhsMax =  -8.66695604173628E-12  6.48106842034092E-01
 cg2d: Sum(rhs),rhsMax =  -8.47955039517956E-12  6.68590681735871E-01
 cg2d: Sum(rhs),rhsMax =  -8.26971824352540E-12  6.88499850992424E-01
 cg2d: Sum(rhs),rhsMax =  -8.12772071867585E-12  7.07758859411677E-01
 cg2d: Sum(rhs),rhsMax =  -7.94320165198314E-12  7.26294133290903E-01
 cg2d: Sum(rhs),rhsMax =  -7.80853159909611E-12  7.44034545634251E-01
 cg2d: Sum(rhs),rhsMax =  -7.70883357148477E-12  7.60911931896366E-01
 cg2d: Sum(rhs),rhsMax =  -7.58149099056027E-12  7.76861586202177E-01
 cg2d: Sum(rhs),rhsMax =  -7.53208606596445E-12  7.91822732912690E-01
 cg2d: Sum(rhs),rhsMax =  -7.41817718363791E-12  8.05738968567828E-01
 cg2d: Sum(rhs),rhsMax =  -7.33946237119198E-12  8.18558669452498E-01
 cg2d: Sum(rhs),rhsMax =  -7.26085858104852E-12  8.30235360308393E-01
 cg2d: Sum(rhs),rhsMax =  -7.28594962140505E-12  8.40728040058514E-01
 cg2d: Sum(rhs),rhsMax =  -7.27995441707208E-12  8.50001460831476E-01
 cg2d: Sum(rhs),rhsMax =  -7.27984339476961E-12  8.58026357069843E-01
 cg2d: Sum(rhs),rhsMax =  -7.27973237246715E-12  8.64779622078487E-01
 cg2d: Sum(rhs),rhsMax =  -7.27362614583171E-12  8.70244430009491E-01
 cg2d: Sum(rhs),rhsMax =  -7.32147675819306E-12  8.74410301980686E-01
 cg2d: Sum(rhs),rhsMax =  -7.35411731511704E-12  8.77273115766155E-01
 cg2d: Sum(rhs),rhsMax =  -7.41651184910097E-12  8.78835059290744E-01
 cg2d: Sum(rhs),rhsMax =  -7.44904138372249E-12  8.79104529515724E-01
 cg2d: Sum(rhs),rhsMax =  -7.50388640113897E-12  8.78095978367486E-01
 cg2d: Sum(rhs),rhsMax =  -7.54063478325406E-12  8.75829704684385E-01
 cg2d: Sum(rhs),rhsMax =  -7.60902452157097E-12  8.72331599500848E-01
 cg2d: Sum(rhs),rhsMax =  -7.63900054323585E-12  8.74047187976832E-01
 cg2d: Sum(rhs),rhsMax =  -7.59003970784988E-12  8.81471093186543E-01
 cg2d: Sum(rhs),rhsMax =  -7.56150697611702E-12  8.87387247086225E-01
 cg2d: Sum(rhs),rhsMax =  -7.52509166090931E-12  8.91782703565856E-01
 cg2d: Sum(rhs),rhsMax =  -7.48345829748587E-12  8.94651784947630E-01
 cg2d: Sum(rhs),rhsMax =  -7.50077777667002E-12  8.95996040591057E-01
 cg2d: Sum(rhs),rhsMax =  -7.55295825882740E-12  8.95824152669049E-01
 cg2d: Sum(rhs),rhsMax =  -7.61624097123104E-12  8.94151790143528E-01
 cg2d: Sum(rhs),rhsMax =  -7.68940466855383E-12  8.91001412432160E-01
 cg2d: Sum(rhs),rhsMax =  -7.78221931341250E-12  8.86402024840365E-01
 cg2d: Sum(rhs),rhsMax =  -7.86781750861110E-12  8.80388888036475E-01
 cg2d: Sum(rhs),rhsMax =  -7.97928390028346E-12  8.73003184555966E-01
 cg2d: Sum(rhs),rhsMax =  -8.16258172164908E-12  8.64291646572610E-01
 cg2d: Sum(rhs),rhsMax =  -8.36841707041458E-12  8.54306146567003E-01
 cg2d: Sum(rhs),rhsMax =  -8.60667093149914E-12  8.43103259222424E-01
 cg2d: Sum(rhs),rhsMax =  -8.72002470231337E-12  8.30743799697365E-01
 cg2d: Sum(rhs),rhsMax =  -8.84803341705265E-12  8.17292339830432E-01
 cg2d: Sum(rhs),rhsMax =  -8.95405971590435E-12  8.02816710066206E-01
 cg2d: Sum(rhs),rhsMax =  -9.09650132996376E-12  7.87387491574291E-01
 cg2d: Sum(rhs),rhsMax =  -9.23361387350496E-12  7.71077498690843E-01
 cg2d: Sum(rhs),rhsMax =  -9.35806987456544E-12  7.53961262424330E-01
 cg2d: Sum(rhs),rhsMax =  -9.53870316067196E-12  7.36114520157671E-01
 cg2d: Sum(rhs),rhsMax =  -9.71733804533415E-12  7.17613719660642E-01
 cg2d: Sum(rhs),rhsMax =  -9.91318138687802E-12  6.98535540808316E-01
 cg2d: Sum(rhs),rhsMax =  -1.00959240967313E-11  6.78956433625496E-01
 cg2d: Sum(rhs),rhsMax =  -1.03321795563716E-11  6.58952174730827E-01
 cg2d: Sum(rhs),rhsMax =  -1.05664366145675E-11  6.38597446540182E-01
 cg2d: Sum(rhs),rhsMax =  -1.08197895087869E-11  6.17965442419245E-01
 cg2d: Sum(rhs),rhsMax =  -1.11073372721648E-11  5.97127499879809E-01
 cg2d: Sum(rhs),rhsMax =  -1.13639098131557E-11  5.76152763394506E-01
 cg2d: Sum(rhs),rhsMax =  -1.16827658658281E-11  5.55107877932285E-01
 cg2d: Sum(rhs),rhsMax =  -1.21114229756358E-11  5.34056713866989E-01
 cg2d: Sum(rhs),rhsMax =  -1.25306431897343E-11  5.13060123813502E-01
 cg2d: Sum(rhs),rhsMax =  -1.29819488492444E-11  4.92175730477286E-01
 cg2d: Sum(rhs),rhsMax =  -1.34975364218803E-11  4.71457747233809E-01
 cg2d: Sum(rhs),rhsMax =  -1.40525369118905E-11  4.50956831781628E-01
 cg2d: Sum(rhs),rhsMax =  -1.46015421975676E-11  4.30719972046020E-01
 cg2d: Sum(rhs),rhsMax =  -1.52649004547811E-11  4.10790401442422E-01
 cg2d: Sum(rhs),rhsMax =  -1.59271484889700E-11  3.91207543394700E-01
 cg2d: Sum(rhs),rhsMax =  -1.66995306472018E-11  3.72006984950456E-01
 cg2d: Sum(rhs),rhsMax =  -1.74852354817290E-11  3.53220479156525E-01
 cg2d: Sum(rhs),rhsMax =  -1.83697501654478E-11  3.34875973541701E-01
 cg2d: Sum(rhs),rhsMax =  -1.93648430624194E-11  3.16997659163254E-01
 cg2d: Sum(rhs),rhsMax =  -2.04070094156350E-11  2.99606047645611E-01
 cg2d: Sum(rhs),rhsMax =  -2.15661932756461E-11  2.82718063128102E-01
 cg2d: Sum(rhs),rhsMax =  -2.28198571150529E-11  2.66347154915628E-01
 cg2d: Sum(rhs),rhsMax =  -2.42137421224697E-11  2.50503425850088E-01
 cg2d: Sum(rhs),rhsMax =  -2.57993626462394E-11  2.35193774645536E-01
 cg2d: Sum(rhs),rhsMax =  -2.70041766725626E-11  2.24926184035598E-01
 cg2d: Sum(rhs),rhsMax =  -2.79227752031375E-11  2.17151185938543E-01
 cg2d: Sum(rhs),rhsMax =  -2.87980750357519E-11  2.09498525968305E-01
 cg2d: Sum(rhs),rhsMax =  -2.98377988983134E-11  2.01906577371372E-01
 cg2d: Sum(rhs),rhsMax =  -3.08310044161431E-11  1.94514221035299E-01
 cg2d: Sum(rhs),rhsMax =  -3.16551229673223E-11  1.88618548710338E-01
 cg2d: Sum(rhs),rhsMax =  -3.26281224261038E-11  1.82542792645708E-01
 cg2d: Sum(rhs),rhsMax =  -3.36966010650031E-11  1.76291288893246E-01
 cg2d: Sum(rhs),rhsMax =  -3.48384654458300E-11  1.69867946635896E-01
 cg2d: Sum(rhs),rhsMax =  -3.62485597094064E-11  1.63276253483079E-01
 cg2d: Sum(rhs),rhsMax =  -3.77247122429480E-11  1.56519290975243E-01
 cg2d: Sum(rhs),rhsMax =  -3.94438925965801E-11  1.49599760064791E-01
 cg2d: Sum(rhs),rhsMax =  -4.12997414045435E-11  1.42520016174184E-01
 cg2d: Sum(rhs),rhsMax =  -4.35346203531140E-11  1.35282113337358E-01
 cg2d: Sum(rhs),rhsMax =  -4.60610438679510E-11  1.27887856725078E-01
 cg2d: Sum(rhs),rhsMax =  -4.89432938621803E-11  1.20424994610977E-01
 cg2d: Sum(rhs),rhsMax =  -5.20945508952764E-11  1.12855072383163E-01
 cg2d: Sum(rhs),rhsMax =  -5.57610069229497E-11  1.05252376142017E-01
 cg2d: Sum(rhs),rhsMax =  -6.01828586965780E-11  9.76112797212138E-02
 cg2d: Sum(rhs),rhsMax =  -6.52742859763578E-11  9.00123633362892E-02
 cg2d: Sum(rhs),rhsMax =  -7.13142322972260E-11  8.25182506455795E-02
 cg2d: Sum(rhs),rhsMax =  -7.83234033185920E-11  7.51958074001980E-02
 cg2d: Sum(rhs),rhsMax =  -8.66877125638155E-11  6.81136398559187E-02
 cg2d: Sum(rhs),rhsMax =  -9.62902813039790E-11  6.13254323170202E-02
 cg2d: Sum(rhs),rhsMax =  -1.07405750092437E-10  5.50189425173826E-02
 cg2d: Sum(rhs),rhsMax =  -1.16717899234509E-10  5.06348039289039E-02
 cg2d: Sum(rhs),rhsMax =  -1.23487581271675E-10  4.79077106362973E-02
 cg2d: Sum(rhs),rhsMax =  -1.30757515925950E-10  4.52760014709545E-02
 cg2d: Sum(rhs),rhsMax =  -1.38715594566463E-10  4.27195832588126E-02
 cg2d: Sum(rhs),rhsMax =  -1.47444167986066E-10  4.02174744881670E-02
 cg2d: Sum(rhs),rhsMax =  -1.34307454047189E-10  4.41524777265781E-02
 cg2d: Sum(rhs),rhsMax =  -1.15393139488162E-10  5.14170828187837E-02
 cg2d: Sum(rhs),rhsMax =  -1.00418229287413E-10  5.91057587172119E-02
 cg2d: Sum(rhs),rhsMax =  -8.85406192807636E-11  6.71065136045149E-02
 cg2d: Sum(rhs),rhsMax =  -7.88950016428203E-11  7.53055941643592E-02
 cg2d: Sum(rhs),rhsMax =  -7.10641545609292E-11  8.36801476399772E-02
 cg2d: Sum(rhs),rhsMax =  -6.46026565576108E-11  9.21354197147820E-02
 cg2d: Sum(rhs),rhsMax =  -5.92206284011354E-11  1.00634218150414E-01
 cg2d: Sum(rhs),rhsMax =  -5.46579448368334E-11  1.09145308523815E-01
 cg2d: Sum(rhs),rhsMax =  -5.07535125038316E-11  1.17638363024221E-01
 cg2d: Sum(rhs),rhsMax =  -4.73757699737121E-11  1.26084068336223E-01
 cg2d: Sum(rhs),rhsMax =  -4.45296022277830E-11  1.34477995945408E-01
 cg2d: Sum(rhs),rhsMax =  -4.20753432095466E-11  1.42832765481446E-01
 cg2d: Sum(rhs),rhsMax =  -3.99287269914339E-11  1.51081955650126E-01
 cg2d: Sum(rhs),rhsMax =  -3.79434261787992E-11  1.59201313445094E-01
 cg2d: Sum(rhs),rhsMax =  -3.62294638733829E-11  1.67275477570632E-01
 cg2d: Sum(rhs),rhsMax =  -3.46362938330458E-11  1.75219384600149E-01
 cg2d: Sum(rhs),rhsMax =  -3.32744942710406E-11  1.82991755290965E-01
 cg2d: Sum(rhs),rhsMax =  -3.19860804509631E-11  1.90733781208909E-01
 cg2d: Sum(rhs),rhsMax =  -3.08324477060751E-11  1.98300278870430E-01
 cg2d: Sum(rhs),rhsMax =  -2.98188140845923E-11  2.05717847955170E-01
 cg2d: Sum(rhs),rhsMax =  -2.88048473962021E-11  2.13077477714684E-01
 cg2d: Sum(rhs),rhsMax =  -2.79720691054308E-11  2.20237192809885E-01
 cg2d: Sum(rhs),rhsMax =  -2.71292988074379E-11  2.27326108867145E-01
 cg2d: Sum(rhs),rhsMax =  -2.64152033579990E-11  2.34299066622283E-01
 cg2d: Sum(rhs),rhsMax =  -2.55671039894878E-11  2.42455252493377E-01
 cg2d: Sum(rhs),rhsMax =  -2.43354225659687E-11  2.54783758904821E-01
 cg2d: Sum(rhs),rhsMax =  -2.31890062707407E-11  2.67421458939820E-01
 cg2d: Sum(rhs),rhsMax =  -2.21882512363436E-11  2.80354590720624E-01
 cg2d: Sum(rhs),rhsMax =  -2.11857198451071E-11  2.93567185095986E-01
 cg2d: Sum(rhs),rhsMax =  -2.02731165188652E-11  3.07041073755762E-01
 cg2d: Sum(rhs),rhsMax =  -1.94397831165816E-11  3.20755911325923E-01
 cg2d: Sum(rhs),rhsMax =  -1.86859416828611E-11  3.34689212599833E-01
 cg2d: Sum(rhs),rhsMax =  -1.79678494305335E-11  3.48816406779937E-01
 cg2d: Sum(rhs),rhsMax =  -1.73332459496578E-11  3.63110909463090E-01
 cg2d: Sum(rhs),rhsMax =  -1.66938685097762E-11  3.77544213576693E-01
 cg2d: Sum(rhs),rhsMax =  -1.61497482054074E-11  3.92085999162538E-01
 cg2d: Sum(rhs),rhsMax =  -1.56692436803496E-11  4.06704261633874E-01
 cg2d: Sum(rhs),rhsMax =  -1.51325618702458E-11  4.21365457402033E-01
 cg2d: Sum(rhs),rhsMax =  -1.47291068230970E-11  4.36034665181285E-01
 cg2d: Sum(rhs),rhsMax =  -1.43627332249707E-11  4.50675760945256E-01
 cg2d: Sum(rhs),rhsMax =  -1.39001032906094E-11  4.65251604208957E-01
 cg2d: Sum(rhs),rhsMax =  -1.35900179998316E-11  4.79724233158131E-01
 cg2d: Sum(rhs),rhsMax =  -1.32360788995811E-11  4.94055066178047E-01
 cg2d: Sum(rhs),rhsMax =  -1.29292132555747E-11  5.08205107504564E-01
 cg2d: Sum(rhs),rhsMax =  -1.26358923324688E-11  5.22135154993471E-01
 cg2d: Sum(rhs),rhsMax =  -1.24349419650116E-11  5.35806008333509E-01
 cg2d: Sum(rhs),rhsMax =  -1.22519772105534E-11  5.49178676368015E-01
 cg2d: Sum(rhs),rhsMax =  -1.20774501510823E-11  5.62214582511566E-01
 cg2d: Sum(rhs),rhsMax =  -1.19425580535903E-11  5.74875767458778E-01
 cg2d: Sum(rhs),rhsMax =  -1.17936771459881E-11  5.87125088533554E-01
 cg2d: Sum(rhs),rhsMax =  -1.17095222407215E-11  5.98926415144010E-01
 cg2d: Sum(rhs),rhsMax =  -1.15858433957783E-11  6.10244819735754E-01
 cg2d: Sum(rhs),rhsMax =  -1.15147891222023E-11  6.21046763582042E-01
 cg2d: Sum(rhs),rhsMax =  -1.13152820446771E-11  6.37028778693766E-01
 cg2d: Sum(rhs),rhsMax =  -1.10280673482066E-11  6.59794886925015E-01
 cg2d: Sum(rhs),rhsMax =  -1.07664988036049E-11  6.82276693082257E-01
 cg2d: Sum(rhs),rhsMax =  -1.04954933632939E-11  7.04408067078449E-01
 cg2d: Sum(rhs),rhsMax =  -1.02871045015718E-11  7.26123035686425E-01
 cg2d: Sum(rhs),rhsMax =  -1.00849328887875E-11  7.47356121201027E-01
 cg2d: Sum(rhs),rhsMax =  -9.89130999329291E-12  7.68042680627473E-01
 cg2d: Sum(rhs),rhsMax =  -9.67825819486734E-12  7.88119243116056E-01
 cg2d: Sum(rhs),rhsMax =  -9.54281098586307E-12  8.07523843444906E-01
 cg2d: Sum(rhs),rhsMax =  -9.38837896313771E-12  8.26196349378890E-01
 cg2d: Sum(rhs),rhsMax =  -9.25204357571374E-12  8.44078780751432E-01
 cg2d: Sum(rhs),rhsMax =  -9.08939590260616E-12  8.61115618126308E-01
 cg2d: Sum(rhs),rhsMax =  -8.98281449224214E-12  8.77254098945058E-01
 cg2d: Sum(rhs),rhsMax =  -8.83804140983102E-12  8.92444499027495E-01
 cg2d: Sum(rhs),rhsMax =  -8.78486172695148E-12  9.06640397345148E-01
 cg2d: Sum(rhs),rhsMax =  -8.74489369806497E-12  9.19798922028787E-01
 cg2d: Sum(rhs),rhsMax =  -8.67816929428500E-12  9.31880975636121E-01
 cg2d: Sum(rhs),rhsMax =  -8.62498961140545E-12  9.42851437799107E-01
 cg2d: Sum(rhs),rhsMax =  -8.52662385142366E-12  9.52679343497786E-01
 cg2d: Sum(rhs),rhsMax =  -8.44491143681125E-12  9.61338035372640E-01
 cg2d: Sum(rhs),rhsMax =  -8.38151770210516E-12  9.68805288693944E-01
 cg2d: Sum(rhs),rhsMax =  -8.30246982275185E-12  9.75063407848661E-01
 cg2d: Sum(rhs),rhsMax =  -8.29059043638836E-12  9.80099293486587E-01
 cg2d: Sum(rhs),rhsMax =  -8.26372303919243E-12  9.83904479773575E-01
 cg2d: Sum(rhs),rhsMax =  -8.22697465707733E-12  9.86475141540758E-01
 cg2d: Sum(rhs),rhsMax =  -8.28359603133322E-12  9.87812071624974E-01
 cg2d: Sum(rhs),rhsMax =  -8.34754487755163E-12  9.87920630273290E-01
 cg2d: Sum(rhs),rhsMax =  -8.40716385397400E-12  9.86810662091616E-01
 cg2d: Sum(rhs),rhsMax =  -8.48998649161103E-12  9.84496386280092E-01
 cg2d: Sum(rhs),rhsMax =  -8.59801119190706E-12  9.80996261443578E-01
 cg2d: Sum(rhs),rhsMax =  -8.68072280724164E-12  9.76332826265063E-01
 cg2d: Sum(rhs),rhsMax =  -8.80728823204890E-12  9.70532517579107E-01
 cg2d: Sum(rhs),rhsMax =  -8.90265638986421E-12  9.63625467303840E-01
 cg2d: Sum(rhs),rhsMax =  -9.01823060672768E-12  9.55645279525480E-01
 cg2d: Sum(rhs),rhsMax =  -9.15667541789844E-12  9.46628790968941E-01
 cg2d: Sum(rhs),rhsMax =  -9.28535026645250E-12  9.36615821934313E-01
 cg2d: Sum(rhs),rhsMax =  -9.46043243743588E-12  9.25648914645457E-01
 cg2d: Sum(rhs),rhsMax =  -9.62663282422227E-12  9.13773060223220E-01
 cg2d: Sum(rhs),rhsMax =  -9.82003367511197E-12  9.01035417803055E-01
 cg2d: Sum(rhs),rhsMax =  -1.00415231685247E-11  8.87485028499834E-01
 cg2d: Sum(rhs),rhsMax =  -1.02610142604931E-11  8.73172524366232E-01
 cg2d: Sum(rhs),rhsMax =  -1.04839470438378E-11  8.58149835115157E-01
 cg2d: Sum(rhs),rhsMax =  -1.07516218150749E-11  8.42469897019680E-01
 cg2d: Sum(rhs),rhsMax =  -1.10195186309170E-11  8.26186366282354E-01
 cg2d: Sum(rhs),rhsMax =  -1.13294928993923E-11  8.09353337489909E-01
 cg2d: Sum(rhs),rhsMax =  -1.15918386001113E-11  7.92025068003855E-01
 cg2d: Sum(rhs),rhsMax =  -1.19471099679913E-11  7.74255709709610E-01
 cg2d: Sum(rhs),rhsMax =  -1.23107080085560E-11  7.56099049794538E-01
 cg2d: Sum(rhs),rhsMax =  -1.26411103806845E-11  7.37608261344450E-01
 cg2d: Sum(rhs),rhsMax =  -1.30322419522599E-11  7.18835664844302E-01
 cg2d: Sum(rhs),rhsMax =  -1.34303679288905E-11  6.99832503203435E-01
 cg2d: Sum(rhs),rhsMax =  -1.38425937379338E-11  6.80648731443189E-01
 cg2d: Sum(rhs),rhsMax =  -1.43108858097207E-11  6.61332821420713E-01
 cg2d: Sum(rhs),rhsMax =  -1.47927226024080E-11  6.41931581935504E-01
 cg2d: Sum(rhs),rhsMax =  -1.52475809755970E-11  6.22489994816565E-01
 cg2d: Sum(rhs),rhsMax =  -1.57582835669245E-11  6.03051066263367E-01
 cg2d: Sum(rhs),rhsMax =  -1.63822289067639E-11  5.83655698025401E-01
 cg2d: Sum(rhs),rhsMax =  -1.68269842504287E-11  5.64342573942584E-01
 cg2d: Sum(rhs),rhsMax =  -1.73361325295218E-11  5.45148065116673E-01
 cg2d: Sum(rhs),rhsMax =  -1.78589365518178E-11  5.26106151048964E-01
 cg2d: Sum(rhs),rhsMax =  -1.84798842894907E-11  5.07248356686220E-01
 cg2d: Sum(rhs),rhsMax =  -1.91521243309012E-11  4.88603705120037E-01
 cg2d: Sum(rhs),rhsMax =  -1.98860927724809E-11  4.70198685999502E-01
 cg2d: Sum(rhs),rhsMax =  -2.06762384991066E-11  4.52057239014848E-01
 cg2d: Sum(rhs),rhsMax =  -2.15156781280257E-11  4.34200751762400E-01
 cg2d: Sum(rhs),rhsMax =  -2.23885354699860E-11  4.16648071131645E-01
 cg2d: Sum(rhs),rhsMax =  -2.33861818799141E-11  3.99415527244033E-01
 cg2d: Sum(rhs),rhsMax =  -2.43803865984660E-11  3.82516969012670E-01
 cg2d: Sum(rhs),rhsMax =  -2.54695153856233E-11  3.65963810156207E-01
 cg2d: Sum(rhs),rhsMax =  -2.65911737074020E-11  3.49765085188786E-01
 cg2d: Sum(rhs),rhsMax =  -2.78292944244640E-11  3.33927513549795E-01
 cg2d: Sum(rhs),rhsMax =  -2.91687785036743E-11  3.18455571848795E-01
 cg2d: Sum(rhs),rhsMax =  -3.04980485310580E-11  3.03351573979452E-01
 cg2d: Sum(rhs),rhsMax =  -3.20299342604358E-11  2.88615756614452E-01
 cg2d: Sum(rhs),rhsMax =  -3.37019301355213E-11  2.74246370944032E-01
 cg2d: Sum(rhs),rhsMax =  -3.54605234065275E-11  2.60239779729973E-01
 cg2d: Sum(rhs),rhsMax =  -3.73701070088828E-11  2.46590557659300E-01
 cg2d: Sum(rhs),rhsMax =  -3.94465571318392E-11  2.33291594397729E-01
 cg2d: Sum(rhs),rhsMax =  -4.17321732726350E-11  2.20334200381949E-01
 cg2d: Sum(rhs),rhsMax =  -4.41927605621117E-11  2.07708215217903E-01
 cg2d: Sum(rhs),rhsMax =  -4.68810545939391E-11  1.95402117810976E-01
 cg2d: Sum(rhs),rhsMax =  -4.98874275223216E-11  1.83403137268726E-01
 cg2d: Sum(rhs),rhsMax =  -5.31952260018898E-11  1.71697363663457E-01
 cg2d: Sum(rhs),rhsMax =  -5.69359004387593E-11  1.60269857909988E-01
 cg2d: Sum(rhs),rhsMax =  -6.11434236574837E-11  1.49104760113123E-01
 cg2d: Sum(rhs),rhsMax =  -6.58790799690223E-11  1.38185395924668E-01
 cg2d: Sum(rhs),rhsMax =  -7.14263093115619E-11  1.27494380265901E-01
 cg2d: Sum(rhs),rhsMax =  -7.77874431534542E-11  1.17013718767467E-01
 cg2d: Sum(rhs),rhsMax =  -8.31776869603118E-11  1.09302105437566E-01
 cg2d: Sum(rhs),rhsMax =  -8.58713100626574E-11  1.05765601381447E-01
 cg2d: Sum(rhs),rhsMax =  -8.88049633829269E-11  1.02286871139406E-01
 cg2d: Sum(rhs),rhsMax =  -9.18263243221418E-11  9.88483353674968E-02
 cg2d: Sum(rhs),rhsMax =  -9.50521883424926E-11  9.54319314724465E-02
 cg2d: Sum(rhs),rhsMax =  -9.84630155187460E-11  9.20191717154558E-02
 cg2d: Sum(rhs),rhsMax =  -1.02279074098988E-10  8.85912026592371E-02
 cg2d: Sum(rhs),rhsMax =  -1.06330277915845E-10  8.51288644095831E-02
 cg2d: Sum(rhs),rhsMax =  -1.10850884027514E-10  8.16127483601368E-02
 cg2d: Sum(rhs),rhsMax =  -1.15877529793806E-10  7.80232525874610E-02
 cg2d: Sum(rhs),rhsMax =  -1.21533005881247E-10  7.43406345670150E-02
 cg2d: Sum(rhs),rhsMax =  -1.27975408048542E-10  7.05450621212776E-02
 cg2d: Sum(rhs),rhsMax =  -1.35394584432902E-10  6.66166631903500E-02
 cg2d: Sum(rhs),rhsMax =  -1.44170675397959E-10  6.25355759992967E-02
 cg2d: Sum(rhs),rhsMax =  -1.54591228707091E-10  5.82820017569939E-02
 cg2d: Sum(rhs),rhsMax =  -1.54631196735977E-10  5.82398299675861E-02
 cg2d: Sum(rhs),rhsMax =  -1.32341804182090E-10  6.79995031619482E-02
 cg2d: Sum(rhs),rhsMax =  -1.15790044219466E-10  7.76881005969503E-02
 cg2d: Sum(rhs),rhsMax =  -1.02986286165674E-10  8.73299997651727E-02
 cg2d: Sum(rhs),rhsMax =  -9.27361520908221E-11  9.69294707950818E-02
 cg2d: Sum(rhs),rhsMax =  -8.44252445730831E-11  1.06467780667786E-01
 cg2d: Sum(rhs),rhsMax =  -7.74326713859352E-11  1.16012824425474E-01
 cg2d: Sum(rhs),rhsMax =  -7.15114911731263E-11  1.25537552813965E-01
 cg2d: Sum(rhs),rhsMax =  -6.63562399472184E-11  1.35144606565337E-01
 cg2d: Sum(rhs),rhsMax =  -6.18085235770671E-11  1.44988732118793E-01
 cg2d: Sum(rhs),rhsMax =  -5.77898562337253E-11  1.54901224773057E-01
 cg2d: Sum(rhs),rhsMax =  -5.42362127431417E-11  1.64832469604494E-01
 cg2d: Sum(rhs),rhsMax =  -5.09808861792749E-11  1.74890275337998E-01
 cg2d: Sum(rhs),rhsMax =  -4.81181761102789E-11  1.85095194621616E-01
 cg2d: Sum(rhs),rhsMax =  -4.55317450409609E-11  1.95494519504130E-01
 cg2d: Sum(rhs),rhsMax =  -4.31040758641643E-11  2.06058070666657E-01
 cg2d: Sum(rhs),rhsMax =  -4.09278166912941E-11  2.16967848093570E-01
 cg2d: Sum(rhs),rhsMax =  -3.88005738649611E-11  2.28158840451346E-01
 cg2d: Sum(rhs),rhsMax =  -3.68239327919184E-11  2.39704505082796E-01
 cg2d: Sum(rhs),rhsMax =  -3.49617557127146E-11  2.52173104476481E-01
 cg2d: Sum(rhs),rhsMax =  -3.32414651360580E-11  2.65236186449988E-01
 cg2d: Sum(rhs),rhsMax =  -3.16853765447433E-11  2.78440737270201E-01
 cg2d: Sum(rhs),rhsMax =  -3.02435299026627E-11  2.91773597503989E-01
 cg2d: Sum(rhs),rhsMax =  -2.89332446890000E-11  3.05220253765162E-01
 cg2d: Sum(rhs),rhsMax =  -2.77625700206841E-11  3.18764883067395E-01
 cg2d: Sum(rhs),rhsMax =  -2.66565103324012E-11  3.32390402142721E-01
 cg2d: Sum(rhs),rhsMax =  -2.56287213673545E-11  3.46078521859937E-01
 cg2d: Sum(rhs),rhsMax =  -2.47130094166437E-11  3.59809806971906E-01
 cg2d: Sum(rhs),rhsMax =  -2.38137287666973E-11  3.73563741484182E-01
 cg2d: Sum(rhs),rhsMax =  -2.29835039888826E-11  3.87318799986899E-01
 cg2d: Sum(rhs),rhsMax =  -2.21851426118747E-11  4.01052525258109E-01
 cg2d: Sum(rhs),rhsMax =  -2.14351869587404E-11  4.14741612372211E-01
 cg2d: Sum(rhs),rhsMax =  -2.07681649655456E-11  4.28361999439886E-01
 cg2d: Sum(rhs),rhsMax =  -2.01335614846698E-11  4.41888964944893E-01
 cg2d: Sum(rhs),rhsMax =  -1.95790050838696E-11  4.55297231449061E-01
 cg2d: Sum(rhs),rhsMax =  -1.90899518415222E-11  4.68561075232249E-01
 cg2d: Sum(rhs),rhsMax =  -1.86251014611116E-11  4.81654441223775E-01
 cg2d: Sum(rhs),rhsMax =  -1.81912263030881E-11  4.94551062391855E-01
 cg2d: Sum(rhs),rhsMax =  -1.77714509774773E-11  5.07224582596175E-01
 cg2d: Sum(rhs),rhsMax =  -1.73682179749335E-11  5.19648681803629E-01
 cg2d: Sum(rhs),rhsMax =  -1.69825264961787E-11  5.31797202486016E-01
 cg2d: Sum(rhs),rhsMax =  -1.66364699794030E-11  5.43644275993575E-01
 cg2d: Sum(rhs),rhsMax =  -1.63599134239689E-11  5.55164447725631E-01
 cg2d: Sum(rhs),rhsMax =  -1.61075597304716E-11  5.66332799991191E-01
 cg2d: Sum(rhs),rhsMax =  -1.58960622442805E-11  5.77125071554228E-01
 cg2d: Sum(rhs),rhsMax =  -1.56429313946660E-11  5.87517772982611E-01
 cg2d: Sum(rhs),rhsMax =  -1.54605217517201E-11  5.97488297052161E-01
 cg2d: Sum(rhs),rhsMax =  -1.52733381497683E-11  6.07015023574794E-01
 cg2d: Sum(rhs),rhsMax =  -1.51133550119198E-11  6.16077418134208E-01
 cg2d: Sum(rhs),rhsMax =  -1.49593670784043E-11  6.24656124310490E-01
 cg2d: Sum(rhs),rhsMax =  -1.48170364866473E-11  6.32733049050070E-01
 cg2d: Sum(rhs),rhsMax =  -1.46676004675328E-11  6.40291440886845E-01
 cg2d: Sum(rhs),rhsMax =  -1.45462530909413E-11  6.47315960750123E-01
 cg2d: Sum(rhs),rhsMax =  -1.44485534647742E-11  6.53792745073462E-01
 cg2d: Sum(rhs),rhsMax =  -1.43336453817255E-11  6.59709461017990E-01
 cg2d: Sum(rhs),rhsMax =  -1.42601486174954E-11  6.65055353539125E-01
 cg2d: Sum(rhs),rhsMax =  -1.41633371697480E-11  6.69821284002431E-01
 cg2d: Sum(rhs),rhsMax =  -1.40886191601908E-11  6.73999760152880E-01
 cg2d: Sum(rhs),rhsMax =  -1.40280009830462E-11  6.77584957363633E-01
 cg2d: Sum(rhs),rhsMax =  -1.39824818390366E-11  6.80572731019571E-01
 cg2d: Sum(rhs),rhsMax =  -1.39763756124012E-11  6.82960618865821E-01
 cg2d: Sum(rhs),rhsMax =  -1.39470657245511E-11  6.84747834381289E-01
 cg2d: Sum(rhs),rhsMax =  -1.38922207071346E-11  6.88070564815618E-01
 cg2d: Sum(rhs),rhsMax =  -1.37923006349183E-11  6.94679490052497E-01
 cg2d: Sum(rhs),rhsMax =  -1.36688438345800E-11  7.00524024115976E-01
 cg2d: Sum(rhs),rhsMax =  -1.35729205652524E-11  7.05592427762463E-01
 cg2d: Sum(rhs),rhsMax =  -1.35036426485158E-11  7.09875405156137E-01
 cg2d: Sum(rhs),rhsMax =  -1.34248168137674E-11  7.13366123647899E-01
 cg2d: Sum(rhs),rhsMax =  -1.33720812200977E-11  7.16060220538908E-01
 cg2d: Sum(rhs),rhsMax =  -1.33822952719242E-11  7.17955796946807E-01
 cg2d: Sum(rhs),rhsMax =  -1.34073863122808E-11  7.19053399002471E-01
 cg2d: Sum(rhs),rhsMax =  -1.34587896383209E-11  7.19355986565790E-01
 cg2d: Sum(rhs),rhsMax =  -1.35359501385324E-11  7.18868889975863E-01
 cg2d: Sum(rhs),rhsMax =  -1.36501920877663E-11  7.17599755408614E-01
 cg2d: Sum(rhs),rhsMax =  -1.37684308398889E-11  7.15558479612849E-01
 cg2d: Sum(rhs),rhsMax =  -1.38892231049681E-11  7.12757134759960E-01
 cg2d: Sum(rhs),rhsMax =  -1.40107925261646E-11  7.09209884124569E-01
 cg2d: Sum(rhs),rhsMax =  -1.42058587115912E-11  7.04932888831517E-01
 cg2d: Sum(rhs),rhsMax =  -1.43565159760328E-11  6.99944209153035E-01
 cg2d: Sum(rhs),rhsMax =  -1.45051748390301E-11  6.94263699480571E-01
 cg2d: Sum(rhs),rhsMax =  -1.46183065652394E-11  6.87912896534535E-01
 cg2d: Sum(rhs),rhsMax =  -1.46901379949327E-11  6.80914901981982E-01
 cg2d: Sum(rhs),rhsMax =  -1.47744039225017E-11  6.73294259999554E-01
 cg2d: Sum(rhs),rhsMax =  -1.48399070809546E-11  6.65076830645737E-01
 cg2d: Sum(rhs),rhsMax =  -1.49389389747512E-11  6.56289657358406E-01
 cg2d: Sum(rhs),rhsMax =  -1.50964796219455E-11  6.46960829558744E-01
 cg2d: Sum(rhs),rhsMax =  -1.52906576289524E-11  6.37119342479925E-01
 cg2d: Sum(rhs),rhsMax =  -1.54981583122549E-11  6.26794953943306E-01
 cg2d: Sum(rhs),rhsMax =  -1.57522883625916E-11  6.16018041114729E-01
 cg2d: Sum(rhs),rhsMax =  -1.59713353653501E-11  6.04819456213993E-01
 cg2d: Sum(rhs),rhsMax =  -1.62407864934266E-11  5.93230383274851E-01
 cg2d: Sum(rhs),rhsMax =  -1.65056857071022E-11  5.81282195576063E-01
 cg2d: Sum(rhs),rhsMax =  -1.68275393619410E-11  5.69006315385006E-01
 cg2d: Sum(rhs),rhsMax =  -1.71425096340272E-11  5.56434077423311E-01
 cg2d: Sum(rhs),rhsMax =  -1.74692482701744E-11  5.43596597393904E-01
 cg2d: Sum(rhs),rhsMax =  -1.78158598984623E-11  5.30524646544229E-01
 cg2d: Sum(rhs),rhsMax =  -1.82396320269618E-11  5.17248532787053E-01
 cg2d: Sum(rhs),rhsMax =  -1.86397564050367E-11  5.03797988619541E-01
 cg2d: Sum(rhs),rhsMax =  -1.91151539041812E-11  4.90202065827869E-01
 cg2d: Sum(rhs),rhsMax =  -1.96116456407935E-11  4.76489037179592E-01
 cg2d: Sum(rhs),rhsMax =  -2.00952587903203E-11  4.62686304949381E-01
 cg2d: Sum(rhs),rhsMax =  -2.06716865847056E-11  4.48820317096187E-01
 cg2d: Sum(rhs),rhsMax =  -2.12522222042821E-11  4.34916491171118E-01
 cg2d: Sum(rhs),rhsMax =  -2.19306794946306E-11  4.20999144943895E-01
 cg2d: Sum(rhs),rhsMax =  -2.26334506692183E-11  4.07091433834654E-01
 cg2d: Sum(rhs),rhsMax =  -2.34269270649179E-11  3.93215295788301E-01
 cg2d: Sum(rhs),rhsMax =  -2.43085551687727E-11  3.79391404430511E-01
 cg2d: Sum(rhs),rhsMax =  -2.51906273618374E-11  3.65639129301409E-01
 cg2d: Sum(rhs),rhsMax =  -2.61487498320889E-11  3.51976505700019E-01
 cg2d: Sum(rhs),rhsMax =  -2.71943578766809E-11  3.38420210221131E-01
 cg2d: Sum(rhs),rhsMax =  -2.82678325191910E-11  3.24985543528085E-01
 cg2d: Sum(rhs),rhsMax =  -2.94565483116571E-11  3.11686423429568E-01
 cg2d: Sum(rhs),rhsMax =  -3.06802361293990E-11  2.98535382050982E-01
 cg2d: Sum(rhs),rhsMax =  -3.20103943352024E-11  2.85543570078618E-01
 cg2d: Sum(rhs),rhsMax =  -3.33534311280914E-11  2.73894625574871E-01
 cg2d: Sum(rhs),rhsMax =  -3.44118067374666E-11  2.64957905232398E-01
 cg2d: Sum(rhs),rhsMax =  -3.54760665288723E-11  2.56191283606134E-01
 cg2d: Sum(rhs),rhsMax =  -3.66185970435140E-11  2.47596242785691E-01
 cg2d: Sum(rhs),rhsMax =  -3.77924358474502E-11  2.39173389424803E-01
 cg2d: Sum(rhs),rhsMax =  -3.91319199266604E-11  2.30922453792567E-01
 cg2d: Sum(rhs),rhsMax =  -4.04545286158964E-11  2.22842290888318E-01
 cg2d: Sum(rhs),rhsMax =  -4.18947099234401E-11  2.14930883408640E-01
 cg2d: Sum(rhs),rhsMax =  -4.34309255226140E-11  2.07185346945986E-01
 cg2d: Sum(rhs),rhsMax =  -4.50104398197482E-11  1.99601937439889E-01
 cg2d: Sum(rhs),rhsMax =  -4.67385019575772E-11  1.92176060953679E-01
 cg2d: Sum(rhs),rhsMax =  -4.85129714178356E-11  1.84902285869940E-01
 cg2d: Sum(rhs),rhsMax =  -5.04453145921957E-11  1.77774357444715E-01
 cg2d: Sum(rhs),rhsMax =  -5.24159604609054E-11  1.70785214624696E-01
 cg2d: Sum(rhs),rhsMax =  -5.44648770528511E-11  1.63927009511431E-01
 cg2d: Sum(rhs),rhsMax =  -5.67532687512085E-11  1.57191129236509E-01
 cg2d: Sum(rhs),rhsMax =  -5.92736970617125E-11  1.50568220024277E-01
 cg2d: Sum(rhs),rhsMax =  -6.19178042171598E-11  1.44048213362861E-01
 cg2d: Sum(rhs),rhsMax =  -6.49057474433334E-11  1.37620354647118E-01
 cg2d: Sum(rhs),rhsMax =  -6.80845935185914E-11  1.31273234057707E-01
 cg2d: Sum(rhs),rhsMax =  -7.15992820587985E-11  1.24994819480518E-01
 cg2d: Sum(rhs),rhsMax =  -7.53939688458161E-11  1.18772491439874E-01
 cg2d: Sum(rhs),rhsMax =  -7.96451238294082E-11  1.12593080027462E-01
 cg2d: Sum(rhs),rhsMax =  -8.43277669915210E-11  1.06442903956414E-01
 cg2d: Sum(rhs),rhsMax =  -8.96142327011518E-11  1.00307811724413E-01
 cg2d: Sum(rhs),rhsMax =  -9.55917150990970E-11  9.41732248907827E-02
 cg2d: Sum(rhs),rhsMax =  -1.02390325384949E-10  8.80241834892179E-02
 cg2d: Sum(rhs),rhsMax =  -1.10266809572046E-10  8.18453936246330E-02
 cg2d: Sum(rhs),rhsMax =  -1.19373844142956E-10  7.56212773287906E-02
 cg2d: Sum(rhs),rhsMax =  -1.30265354059134E-10  6.93360247445717E-02
 cg2d: Sum(rhs),rhsMax =  -1.43483780412623E-10  6.29736487247189E-02
 cg2d: Sum(rhs),rhsMax =  -1.59985247272232E-10  5.65180419371245E-02
 cg2d: Sum(rhs),rhsMax =  -1.79258496935120E-10  5.04444415293299E-02
 cg2d: Sum(rhs),rhsMax =  -1.54647405992137E-10  5.85041974454710E-02
 cg2d: Sum(rhs),rhsMax =  -1.35908173604093E-10  6.65798034290619E-02
 cg2d: Sum(rhs),rhsMax =  -1.21158416632738E-10  7.47602937314982E-02
 cg2d: Sum(rhs),rhsMax =  -1.09095621425581E-10  8.30172014871669E-02
 cg2d: Sum(rhs),rhsMax =  -9.89462956013654E-11  9.16051009146940E-02
 cg2d: Sum(rhs),rhsMax =  -9.03873642599251E-11  1.00320833609780E-01
 cg2d: Sum(rhs),rhsMax =  -8.31499313846962E-11  1.09095421264488E-01
 cg2d: Sum(rhs),rhsMax =  -7.69505570374918E-11  1.17934890945652E-01
 cg2d: Sum(rhs),rhsMax =  -7.16440240466909E-11  1.26844576404173E-01
 cg2d: Sum(rhs),rhsMax =  -6.70192790153123E-11  1.35829082944534E-01
 cg2d: Sum(rhs),rhsMax =  -6.29567509236040E-11  1.44892254782329E-01
 cg2d: Sum(rhs),rhsMax =  -5.93218807409812E-11  1.54037145440465E-01
 cg2d: Sum(rhs),rhsMax =  -5.60214097333755E-11  1.63265991738641E-01
 cg2d: Sum(rhs),rhsMax =  -5.31139576764872E-11  1.72580191858215E-01
 cg2d: Sum(rhs),rhsMax =  -5.04345454288568E-11  1.81980287831870E-01
 cg2d: Sum(rhs),rhsMax =  -4.80404604985551E-11  1.91465952661074E-01
 cg2d: Sum(rhs),rhsMax =  -4.58111326651078E-11  2.01035981980677E-01
 cg2d: Sum(rhs),rhsMax =  -4.37649916307237E-11  2.10688290511394E-01
 cg2d: Sum(rhs),rhsMax =  -4.18802770241200E-11  2.20419912557933E-01
 cg2d: Sum(rhs),rhsMax =  -4.01115807235897E-11  2.30227006269028E-01
 cg2d: Sum(rhs),rhsMax =  -3.85572684891144E-11  2.40104861339168E-01
 cg2d: Sum(rhs),rhsMax =  -3.70961039664053E-11  2.50047909702286E-01
 cg2d: Sum(rhs),rhsMax =  -3.57467389022759E-11  2.60049738655948E-01
 cg2d: Sum(rhs),rhsMax =  -3.44764217174998E-11  2.70103106458884E-01
 cg2d: Sum(rhs),rhsMax =  -3.32660565760534E-11  2.80199960242362E-01
 cg2d: Sum(rhs),rhsMax =  -3.22084581227955E-11  2.90331456283479E-01
 cg2d: Sum(rhs),rhsMax =  -3.12301295934958E-11  3.00487982922232E-01
 cg2d: Sum(rhs),rhsMax =  -3.01634273114360E-11  3.10659186623988E-01
 cg2d: Sum(rhs),rhsMax =  -2.92366131304789E-11  3.20834001785809E-01
 cg2d: Sum(rhs),rhsMax =  -2.83739698403451E-11  3.31000684732500E-01
 cg2d: Sum(rhs),rhsMax =  -2.75499623114683E-11  3.41146852703870E-01
 cg2d: Sum(rhs),rhsMax =  -2.67352806559984E-11  3.51259528276977E-01
 cg2d: Sum(rhs),rhsMax =  -2.59983146122522E-11  3.61325189364213E-01
 cg2d: Sum(rhs),rhsMax =  -2.53153054075028E-11  3.71329824671367E-01
 cg2d: Sum(rhs),rhsMax =  -2.46367370948519E-11  3.81258994285131E-01
 cg2d: Sum(rhs),rhsMax =  -2.40110153981732E-11  3.91097894670008E-01
 cg2d: Sum(rhs),rhsMax =  -2.34370300944420E-11  4.00831427046798E-01
 cg2d: Sum(rhs),rhsMax =  -2.29909424831476E-11  4.10444267883273E-01
 cg2d: Sum(rhs),rhsMax =  -2.24869012299678E-11  4.19920940136596E-01
 cg2d: Sum(rhs),rhsMax =  -2.20838902720288E-11  4.29245884138037E-01
 cg2d: Sum(rhs),rhsMax =  -2.16446860434871E-11  4.38403526990461E-01
 cg2d: Sum(rhs),rhsMax =  -2.09640083070894E-11  4.54250254646071E-01
 cg2d: Sum(rhs),rhsMax =  -2.02990957376414E-11  4.70912364346163E-01
 cg2d: Sum(rhs),rhsMax =  -1.96572758071056E-11  4.87535347238611E-01
 cg2d: Sum(rhs),rhsMax =  -1.90695237378691E-11  5.04088704928368E-01
 cg2d: Sum(rhs),rhsMax =  -1.85017556830758E-11  5.20541395669362E-01
 cg2d: Sum(rhs),rhsMax =  -1.80289116968879E-11  5.36861946265253E-01
 cg2d: Sum(rhs),rhsMax =  -1.75559566883976E-11  5.53018567608375E-01
 cg2d: Sum(rhs),rhsMax =  -1.71292979800342E-11  5.68979273255479E-01
 cg2d: Sum(rhs),rhsMax =  -1.67308389364962E-11  5.84712000402159E-01
 cg2d: Sum(rhs),rhsMax =  -1.63532520858212E-11  6.00184732610034E-01
 cg2d: Sum(rhs),rhsMax =  -1.59894320006515E-11  6.15365623608662E-01
 cg2d: Sum(rhs),rhsMax =  -1.56732404832383E-11  6.30223121490929E-01
 cg2d: Sum(rhs),rhsMax =  -1.53559387428004E-11  6.44726092618229E-01
(PID.TID 0000.0001)      cg2d_init_res =   7.02566878722682E-02
(PID.TID 0000.0001)      cg2d_iters(min,last) =      -1      37
(PID.TID 0000.0001)      cg2d_last_res =   5.76551439512794E-14
(PID.TID 0000.0001) // =======================================================
(PID.TID 0000.0001) // Begin MONITOR dynamic field statistics
(PID.TID 0000.0001) // =======================================================
(PID.TID 0000.0001) %MON time_tsnumber                =                   960
(PID.TID 0000.0001) %MON time_secondsf                =   1.4400000000000E+04
(PID.TID 0000.0001) %MON dynstat_eta_max              =   1.1015436786242E-01
(PID.TID 0000.0001) %MON dynstat_eta_min              =  -1.0834505016568E-01
(PID.TID 0000.0001) %MON dynstat_eta_mean             =   2.1308911759994E-14
(PID.TID 0000.0001) %MON dynstat_eta_sd               =   7.6397161772222E-02
(PID.TID 0000.0001) %MON dynstat_eta_del2             =   2.9981981687336E-05
(PID.TID 0000.0001) %MON dynstat_uvel_max             =   1.5342804220694E+00
(PID.TID 0000.0001) %MON dynstat_uvel_min             =   8.5365942776014E-02
(PID.TID 0000.0001) %MON dynstat_uvel_mean            =   6.7392647919281E-01
(PID.TID 0000.0001) %MON dynstat_uvel_sd              =   9.4275746764266E-02
(PID.TID 0000.0001) %MON dynstat_uvel_del2            =   7.3681480039139E-04
(PID.TID 0000.0001) %MON dynstat_vvel_max             =   0.0000000000000E+00
(PID.TID 0000.0001) %MON dynstat_vvel_min             =   0.0000000000000E+00
(PID.TID 0000.0001) %MON dynstat_vvel_mean            =   0.0000000000000E+00
(PID.TID 0000.0001) %MON dynstat_vvel_sd              =   0.0000000000000E+00
(PID.TID 0000.0001) %MON dynstat_vvel_del2            =   0.0000000000000E+00
(PID.TID 0000.0001) %MON dynstat_wvel_max             =   2.4389082275131E-02
(PID.TID 0000.0001) %MON dynstat_wvel_min             =  -2.8548724926158E-02
(PID.TID 0000.0001) %MON dynstat_wvel_mean            =   7.9878875722521E-20
(PID.TID 0000.0001) %MON dynstat_wvel_sd              =   3.5703912973631E-03
(PID.TID 0000.0001) %MON dynstat_wvel_del2            =   7.7164341266983E-05
(PID.TID 0000.0001) %MON dynstat_theta_max            =   1.5000000000003E+01
(PID.TID 0000.0001) %MON dynstat_theta_min            =   9.9999999999983E+00
(PID.TID 0000.0001) %MON dynstat_theta_mean           =   1.3335035848194E+01
(PID.TID 0000.0001) %MON dynstat_theta_sd             =   2.3001690277001E+00
(PID.TID 0000.0001) %MON dynstat_theta_del2           =   1.0883198222014E-03
(PID.TID 0000.0001) %MON dynstat_salt_max             =   3.5000000000000E+01
(PID.TID 0000.0001) %MON dynstat_salt_min             =   3.5000000000000E+01
(PID.TID 0000.0001) %MON dynstat_salt_mean            =   3.5000000000000E+01
(PID.TID 0000.0001) %MON dynstat_salt_sd              =   2.1316282072803E-14
(PID.TID 0000.0001) %MON dynstat_salt_del2            =   0.0000000000000E+00
(PID.TID 0000.0001) %MON dynstat_sst_max              =   1.5000000000000E+01
(PID.TID 0000.0001) %MON dynstat_sst_min              =   1.4999999999998E+01
(PID.TID 0000.0001) %MON dynstat_sst_mean             =   1.4999999999999E+01
(PID.TID 0000.0001) %MON dynstat_sst_sd               =   5.5373554622913E-13
(PID.TID 0000.0001) %MON dynstat_sst_del2             =   3.7436422486748E-15
(PID.TID 0000.0001) %MON dynstat_sss_max              =   3.5000000000000E+01
(PID.TID 0000.0001) %MON dynstat_sss_min              =   3.5000000000000E+01
(PID.TID 0000.0001) %MON dynstat_sss_mean             =   3.5000000000000E+01
(PID.TID 0000.0001) %MON dynstat_sss_sd               =   7.8159700933611E-14
(PID.TID 0000.0001) %MON dynstat_sss_del2             =   0.0000000000000E+00
(PID.TID 0000.0001) %MON forcing_qnet_max             =   0.0000000000000E+00
(PID.TID 0000.0001) %MON forcing_qnet_min             =   0.0000000000000E+00
(PID.TID 0000.0001) %MON forcing_qnet_mean            =   0.0000000000000E+00
(PID.TID 0000.0001) %MON forcing_qnet_sd              =   0.0000000000000E+00
(PID.TID 0000.0001) %MON forcing_qnet_del2            =   0.0000000000000E+00
(PID.TID 0000.0001) %MON forcing_qsw_max              =   0.0000000000000E+00
(PID.TID 0000.0001) %MON forcing_qsw_min              =   0.0000000000000E+00
(PID.TID 0000.0001) %MON forcing_qsw_mean             =   0.0000000000000E+00
(PID.TID 0000.0001) %MON forcing_qsw_sd               =   0.0000000000000E+00
(PID.TID 0000.0001) %MON forcing_qsw_del2             =   0.0000000000000E+00
(PID.TID 0000.0001) %MON forcing_empmr_max            =   0.0000000000000E+00
(PID.TID 0000.0001) %MON forcing_empmr_min            =   0.0000000000000E+00
(PID.TID 0000.0001) %MON forcing_empmr_mean           =   0.0000000000000E+00
(PID.TID 0000.0001) %MON forcing_empmr_sd             =   0.0000000000000E+00
(PID.TID 0000.0001) %MON forcing_empmr_del2           =   0.0000000000000E+00
(PID.TID 0000.0001) %MON forcing_fu_max               =   0.0000000000000E+00
(PID.TID 0000.0001) %MON forcing_fu_min               =   0.0000000000000E+00
(PID.TID 0000.0001) %MON forcing_fu_mean              =   0.0000000000000E+00
(PID.TID 0000.0001) %MON forcing_fu_sd                =   0.0000000000000E+00
(PID.TID 0000.0001) %MON forcing_fu_del2              =   0.0000000000000E+00
(PID.TID 0000.0001) %MON forcing_fv_max               =   0.0000000000000E+00
(PID.TID 0000.0001) %MON forcing_fv_min               =   0.0000000000000E+00
(PID.TID 0000.0001) %MON forcing_fv_mean              =   0.0000000000000E+00
(PID.TID 0000.0001) %MON forcing_fv_sd                =   0.0000000000000E+00
(PID.TID 0000.0001) %MON forcing_fv_del2              =   0.0000000000000E+00
(PID.TID 0000.0001) %MON advcfl_uvel_max              =   9.8883443936004E-02
(PID.TID 0000.0001) %MON advcfl_vvel_max              =   0.0000000000000E+00
(PID.TID 0000.0001) %MON advcfl_wvel_max              =   3.0682938327372E-01
(PID.TID 0000.0001) %MON advcfl_W_hf_max              =   3.0939663577501E-01
(PID.TID 0000.0001) %MON pe_b_mean                    =   1.4581464247145E-04
(PID.TID 0000.0001) %MON ke_max                       =   9.8195548156836E-01
(PID.TID 0000.0001) %MON ke_mean                      =   2.3148248245462E-01
(PID.TID 0000.0001) %MON ke_vol                       =   9.5889217545975E+10
(PID.TID 0000.0001) %MON vort_r_min                   =   0.0000000000000E+00
(PID.TID 0000.0001) %MON vort_r_max                   =   0.0000000000000E+00
(PID.TID 0000.0001) %MON vort_a_mean                  =   0.0000000000000E+00
(PID.TID 0000.0001) %MON vort_a_sd                    =   0.0000000000000E+00
(PID.TID 0000.0001) %MON vort_p_mean                  =   0.0000000000000E+00
(PID.TID 0000.0001) %MON vort_p_sd                    =   0.0000000000000E+00
(PID.TID 0000.0001) %MON surfExpan_theta_mean         =   2.0269878955094E-17
(PID.TID 0000.0001) %MON surfExpan_salt_mean          =   3.9180363180080E-18
(PID.TID 0000.0001) // =======================================================
(PID.TID 0000.0001) // End MONITOR dynamic field statistics
(PID.TID 0000.0001) // =======================================================
(PID.TID 0000.0001) // =======================================================
(PID.TID 0000.0001) // Begin OBCS MONITOR field statistics
(PID.TID 0000.0001) // =======================================================
(PID.TID 0000.0001) %MON obc_E_uVel_max               =   6.6809804669674E-01
(PID.TID 0000.0001) %MON obc_E_uVel_min               =   6.6809804669674E-01
(PID.TID 0000.0001) %MON obc_E_uVel_mean              =   6.6809804669674E-01
(PID.TID 0000.0001) %MON obc_E_uVel_sd                =   1.6660004686563E-08
(PID.TID 0000.0001) %MON obc_E_uVel_Int               =   6.6809804669674E+05
(PID.TID 0000.0001) %MON obc_W_uVel_max               =   6.6809804669674E-01
(PID.TID 0000.0001) %MON obc_W_uVel_min               =   6.6809804669674E-01
(PID.TID 0000.0001) %MON obc_W_uVel_mean              =   6.6809804669674E-01
(PID.TID 0000.0001) %MON obc_W_uVel_sd                =   1.6660004686563E-08
(PID.TID 0000.0001) %MON obc_W_uVel_Int               =   6.6809804669674E+05
(PID.TID 0000.0001) // =======================================================
(PID.TID 0000.0001) // End OBCS MONITOR field statistics
(PID.TID 0000.0001) // =======================================================
 cg2d: Sum(rhs),rhsMax =  -1.50947032651061E-11  6.58843944547666E-01
 cg2d: Sum(rhs),rhsMax =  -1.47886147772169E-11  6.72546747290626E-01
 cg2d: Sum(rhs),rhsMax =  -1.45737866219520E-11  6.85805352210768E-01
 cg2d: Sum(rhs),rhsMax =  -1.43224321291768E-11  6.98591507870862E-01
 cg2d: Sum(rhs),rhsMax =  -1.41282541221699E-11  7.10877972142436E-01
 cg2d: Sum(rhs),rhsMax =  -1.39227518403118E-11  7.22638619900216E-01
 cg2d: Sum(rhs),rhsMax =  -1.37930777910356E-11  7.33848545635800E-01
 cg2d: Sum(rhs),rhsMax =  -1.36602951172904E-11  7.44484160343798E-01
 cg2d: Sum(rhs),rhsMax =  -1.35188527039531E-11  7.54523282061366E-01
 cg2d: Sum(rhs),rhsMax =  -1.33856259409981E-11  7.63945219481683E-01
 cg2d: Sum(rhs),rhsMax =  -1.32845956457572E-11  7.72730848114109E-01
 cg2d: Sum(rhs),rhsMax =  -1.31693544958011E-11  7.80862678529037E-01
 cg2d: Sum(rhs),rhsMax =  -1.30866428804666E-11  7.88324916302805E-01
 cg2d: Sum(rhs),rhsMax =  -1.29727339981400E-11  7.95103513364799E-01
 cg2d: Sum(rhs),rhsMax =  -1.28850263791946E-11  8.01186210541529E-01
 cg2d: Sum(rhs),rhsMax =  -1.28326238524323E-11  8.06562571190193E-01
 cg2d: Sum(rhs),rhsMax =  -1.27717836306829E-11  8.11224005896644E-01
 cg2d: Sum(rhs),rhsMax =  -1.26584298598686E-11  8.15163788303788E-01
 cg2d: Sum(rhs),rhsMax =  -1.26443300274559E-11  8.18377062469601E-01
 cg2d: Sum(rhs),rhsMax =  -1.26109123144147E-11  8.20860842100398E-01
 cg2d: Sum(rhs),rhsMax =  -1.25984778165389E-11  8.22613999860144E-01
 cg2d: Sum(rhs),rhsMax =  -1.25529586725293E-11  8.23637249184238E-01
 cg2d: Sum(rhs),rhsMax =  -1.25420784868879E-11  8.23933118688637E-01
 cg2d: Sum(rhs),rhsMax =  -1.26305632619506E-11  8.23505919681878E-01
 cg2d: Sum(rhs),rhsMax =  -1.26814114764784E-11  8.22361706700453E-01
 cg2d: Sum(rhs),rhsMax =  -1.27480248579559E-11  8.20508231164377E-01
 cg2d: Sum(rhs),rhsMax =  -1.28010935185330E-11  8.17954888508587E-01
 cg2d: Sum(rhs),rhsMax =  -1.29106725310635E-11  8.14712658873485E-01
 cg2d: Sum(rhs),rhsMax =  -1.29855015629232E-11  8.10794042425500E-01
 cg2d: Sum(rhs),rhsMax =  -1.31044064488606E-11  8.06212988564628E-01
 cg2d: Sum(rhs),rhsMax =  -1.32394095686550E-11  8.00984821471024E-01
 cg2d: Sum(rhs),rhsMax =  -1.33787425582454E-11  7.95126162349197E-01
 cg2d: Sum(rhs),rhsMax =  -1.35501609932476E-11  7.88654846903776E-01
 cg2d: Sum(rhs),rhsMax =  -1.37264644095580E-11  7.81589838955368E-01
 cg2d: Sum(rhs),rhsMax =  -1.39254163755709E-11  7.73951139961413E-01
 cg2d: Sum(rhs),rhsMax =  -1.41369138617620E-11  7.65759697656224E-01
 cg2d: Sum(rhs),rhsMax =  -1.43361988946822E-11  7.57037310723089E-01
 cg2d: Sum(rhs),rhsMax =  -1.45928824579755E-11  7.47806532294817E-01
 cg2d: Sum(rhs),rhsMax =  -1.49525947179541E-11  7.38090572218090E-01
 cg2d: Sum(rhs),rhsMax =  -1.52119428165065E-11  7.27913199732686E-01
 cg2d: Sum(rhs),rhsMax =  -1.54551926812019E-11  7.17298646359166E-01
 cg2d: Sum(rhs),rhsMax =  -1.56592516731280E-11  7.06271509438658E-01
 cg2d: Sum(rhs),rhsMax =  -1.59637858487827E-11  6.94856656546894E-01
 cg2d: Sum(rhs),rhsMax =  -1.61558544320428E-11  6.83079130638846E-01
 cg2d: Sum(rhs),rhsMax =  -1.63501434613522E-11  6.70964056331735E-01
 cg2d: Sum(rhs),rhsMax =  -1.65344404834400E-11  6.58536547728815E-01
 cg2d: Sum(rhs),rhsMax =  -1.67694746977531E-11  6.45821618362059E-01
 cg2d: Sum(rhs),rhsMax =  -1.70072844696278E-11  6.32844093664616E-01
 cg2d: Sum(rhs),rhsMax =  -1.72853953372964E-11  6.19628526088043E-01
 cg2d: Sum(rhs),rhsMax =  -1.76222370029677E-11  6.06199112878170E-01
 cg2d: Sum(rhs),rhsMax =  -1.79920522924704E-11  5.92579617152859E-01
 cg2d: Sum(rhs),rhsMax =  -1.84031678784891E-11  5.78793292462657E-01
 cg2d: Sum(rhs),rhsMax =  -1.88246085386368E-11  5.64862810256934E-01
 cg2d: Sum(rhs),rhsMax =  -1.93172144946629E-11  5.50810193713264E-01
 cg2d: Sum(rhs),rhsMax =  -1.98354666025580E-11  5.36656754164343E-01
 cg2d: Sum(rhs),rhsMax =  -2.03674854759583E-11  5.22423034193092E-01
 cg2d: Sum(rhs),rhsMax =  -2.09214867652463E-11  5.08128755200993E-01
 cg2d: Sum(rhs),rhsMax =  -2.14932516229283E-11  4.93792769892032E-01
 cg2d: Sum(rhs),rhsMax =  -2.21029861080524E-11  4.79433020577531E-01
 cg2d: Sum(rhs),rhsMax =  -2.27707852573644E-11  4.65066503118490E-01
 cg2d: Sum(rhs),rhsMax =  -2.34480213023858E-11  4.50709236794582E-01
 cg2d: Sum(rhs),rhsMax =  -2.41593411942631E-11  4.36376240157015E-01
 cg2d: Sum(rhs),rhsMax =  -2.49438247834632E-11  4.22081512773497E-01
 cg2d: Sum(rhs),rhsMax =  -2.57964760663754E-11  4.07838022670812E-01
 cg2d: Sum(rhs),rhsMax =  -2.66725530551071E-11  3.93657699145727E-01
 cg2d: Sum(rhs),rhsMax =  -2.76478839822403E-11  3.79551430616536E-01
 cg2d: Sum(rhs),rhsMax =  -2.86399792770453E-11  3.65529067462681E-01
 cg2d: Sum(rhs),rhsMax =  -2.97514235469976E-11  3.51599429140752E-01
 cg2d: Sum(rhs),rhsMax =  -3.08959524630836E-11  3.37770315208584E-01
 cg2d: Sum(rhs),rhsMax =  -3.21055404484127E-11  3.24048520525032E-01
 cg2d: Sum(rhs),rhsMax =  -3.34580141370111E-11  3.10439854262253E-01
 cg2d: Sum(rhs),rhsMax =  -3.49169582136710E-11  2.96949161557499E-01
 cg2d: Sum(rhs),rhsMax =  -3.64817065445777E-11  2.83580348586528E-01
 cg2d: Sum(rhs),rhsMax =  -3.82081033478698E-11  2.70336410342229E-01
 cg2d: Sum(rhs),rhsMax =  -4.00952604451277E-11  2.57219461502058E-01
 cg2d: Sum(rhs),rhsMax =  -4.22214485595873E-11  2.44230768947646E-01
 cg2d: Sum(rhs),rhsMax =  -4.45149472838580E-11  2.31370786906481E-01
 cg2d: Sum(rhs),rhsMax =  -4.70370409288989E-11  2.18639193893393E-01
 cg2d: Sum(rhs),rhsMax =  -4.99099650497214E-11  2.06034932217262E-01
 cg2d: Sum(rhs),rhsMax =  -5.30422372690964E-11  1.93556249617590E-01
 cg2d: Sum(rhs),rhsMax =  -5.65754110226635E-11  1.81200743001613E-01
 cg2d: Sum(rhs),rhsMax =  -6.06107386502686E-11  1.68965404115485E-01
 cg2d: Sum(rhs),rhsMax =  -6.52493614694549E-11  1.56846666996858E-01
 cg2d: Sum(rhs),rhsMax =  -7.05393521371889E-11  1.44840456771367E-01
 cg2d: Sum(rhs),rhsMax =  -7.49134088096071E-11  1.36297995375824E-01
 cg2d: Sum(rhs),rhsMax =  -7.83892950551035E-11  1.30165723732568E-01
 cg2d: Sum(rhs),rhsMax =  -8.22489854002129E-11  1.24013066832465E-01
 cg2d: Sum(rhs),rhsMax =  -8.65441052155802E-11  1.17830404070069E-01
 cg2d: Sum(rhs),rhsMax =  -9.13092934595738E-11  1.11607927873507E-01
 cg2d: Sum(rhs),rhsMax =  -9.67270707974421E-11  1.05335686544204E-01
 cg2d: Sum(rhs),rhsMax =  -1.02834962767417E-10  9.90036287878953E-02
 cg2d: Sum(rhs),rhsMax =  -1.09886766352929E-10  9.26016499655733E-02
 cg2d: Sum(rhs),rhsMax =  -1.18076659560984E-10  8.61196391626833E-02
 cg2d: Sum(rhs),rhsMax =  -1.27780896974627E-10  7.95475269179885E-02
 cg2d: Sum(rhs),rhsMax =  -1.39428246725970E-10  7.28753335687931E-02
 cg2d: Sum(rhs),rhsMax =  -1.53639545530382E-10  6.60932178351724E-02
 cg2d: Sum(rhs),rhsMax =  -1.71461511655480E-10  5.91915256160834E-02
 cg2d: Sum(rhs),rhsMax =  -1.94495086702773E-10  5.21608392036565E-02
 cg2d: Sum(rhs),rhsMax =  -2.07729611290119E-10  4.88173567523332E-02
 cg2d: Sum(rhs),rhsMax =  -2.10036987802198E-10  4.82593491789888E-02
 cg2d: Sum(rhs),rhsMax =  -1.77346470842110E-10  5.71339213354140E-02
 cg2d: Sum(rhs),rhsMax =  -1.51155865601993E-10  6.70044874615728E-02
 cg2d: Sum(rhs),rhsMax =  -1.31740091058319E-10  7.68511481255543E-02
 cg2d: Sum(rhs),rhsMax =  -1.16718787412928E-10  8.67152634170183E-02
 cg2d: Sum(rhs),rhsMax =  -1.04647899720756E-10  9.66863112067171E-02
 cg2d: Sum(rhs),rhsMax =  -9.48300882264164E-11  1.06641850740746E-01
 cg2d: Sum(rhs),rhsMax =  -8.66696991952409E-11  1.16658602755884E-01
 cg2d: Sum(rhs),rhsMax =  -7.96214205678325E-11  1.26777014791164E-01
 cg2d: Sum(rhs),rhsMax =  -7.36404270895719E-11  1.36886696387860E-01
 cg2d: Sum(rhs),rhsMax =  -6.84066137068839E-11  1.47193447281077E-01
 cg2d: Sum(rhs),rhsMax =  -6.38419872522888E-11  1.57509095334257E-01
 cg2d: Sum(rhs),rhsMax =  -5.97698557314175E-11  1.68031192989351E-01
 cg2d: Sum(rhs),rhsMax =  -5.61489188477537E-11  1.78763146027502E-01
 cg2d: Sum(rhs),rhsMax =  -5.28367904983895E-11  1.89740036655106E-01
 cg2d: Sum(rhs),rhsMax =  -4.97970553681171E-11  2.00717783554882E-01
 cg2d: Sum(rhs),rhsMax =  -4.71031547100154E-11  2.11693432799713E-01
 cg2d: Sum(rhs),rhsMax =  -4.47296644168205E-11  2.22663454910329E-01
 cg2d: Sum(rhs),rhsMax =  -4.25123269920391E-11  2.33623751368246E-01
 cg2d: Sum(rhs),rhsMax =  -4.05687705651303E-11  2.44569663376061E-01
 cg2d: Sum(rhs),rhsMax =  -3.87558873882199E-11  2.55495982817089E-01
 cg2d: Sum(rhs),rhsMax =  -3.70771191526842E-11  2.66396965364968E-01
 cg2d: Sum(rhs),rhsMax =  -3.56522589228803E-11  2.77266345681423E-01
 cg2d: Sum(rhs),rhsMax =  -3.43280959214098E-11  2.88097354642079E-01
 cg2d: Sum(rhs),rhsMax =  -3.32051053320015E-11  2.98882738540503E-01
 cg2d: Sum(rhs),rhsMax =  -3.20994342217773E-11  3.09614780226002E-01
 cg2d: Sum(rhs),rhsMax =  -3.10509395973213E-11  3.20285322129083E-01
 cg2d: Sum(rhs),rhsMax =  -3.00601765701458E-11  3.30885791124537E-01
 cg2d: Sum(rhs),rhsMax =  -2.91948687447530E-11  3.41407225182179E-01
 cg2d: Sum(rhs),rhsMax =  -2.83489898222911E-11  3.51840301759462E-01
 cg2d: Sum(rhs),rhsMax =  -2.75852674036514E-11  3.62175367888311E-01
 cg2d: Sum(rhs),rhsMax =  -2.68908229017484E-11  3.72402471909244E-01
 cg2d: Sum(rhs),rhsMax =  -2.62809773943218E-11  3.82511396810635E-01
 cg2d: Sum(rhs),rhsMax =  -2.56769050466232E-11  3.92491695098443E-01
 cg2d: Sum(rhs),rhsMax =  -2.50950371594172E-11  4.02332725120040E-01
 cg2d: Sum(rhs),rhsMax =  -2.45450326730179E-11  4.12023688741508E-01
 cg2d: Sum(rhs),rhsMax =  -2.40240050075613E-11  4.21553670237761E-01
 cg2d: Sum(rhs),rhsMax =  -2.35352848321213E-11  4.30911676293493E-01
 cg2d: Sum(rhs),rhsMax =  -2.30535590617365E-11  4.40086676847285E-01
 cg2d: Sum(rhs),rhsMax =  -2.25727214697713E-11  4.49067646619620E-01
 cg2d: Sum(rhs),rhsMax =  -2.21659357535486E-11  4.57843607039824E-01
 cg2d: Sum(rhs),rhsMax =  -2.17846851668924E-11  4.66403668306258E-01
 cg2d: Sum(rhs),rhsMax =  -2.13855599895396E-11  4.74737071297430E-01
 cg2d: Sum(rhs),rhsMax =  -2.10309547554743E-11  4.82833229043344E-01
 cg2d: Sum(rhs),rhsMax =  -2.06995531826237E-11  4.90681767461850E-01
 cg2d: Sum(rhs),rhsMax =  -2.03661532083288E-11  4.98272565068490E-01
 cg2d: Sum(rhs),rhsMax =  -2.00621741441864E-11  5.05595791388754E-01
 cg2d: Sum(rhs),rhsMax =  -1.98050464916832E-11  5.12641943839278E-01
 cg2d: Sum(rhs),rhsMax =  -1.95532479096983E-11  5.19401882877593E-01
 cg2d: Sum(rhs),rhsMax =  -1.93061122644167E-11  5.25866865264265E-01
 cg2d: Sum(rhs),rhsMax =  -1.90470972327716E-11  5.32028575319875E-01
 cg2d: Sum(rhs),rhsMax =  -1.88884463625527E-11  5.37879154103966E-01
 cg2d: Sum(rhs),rhsMax =  -1.86927140433113E-11  5.43411226487830E-01
 cg2d: Sum(rhs),rhsMax =  -1.84930959434837E-11  5.48617926136421E-01
 cg2d: Sum(rhs),rhsMax =  -1.83320025826106E-11  5.53492918412655E-01
 cg2d: Sum(rhs),rhsMax =  -1.81861192771748E-11  5.58030421240196E-01
 cg2d: Sum(rhs),rhsMax =  -1.80396808602268E-11  5.62225224002649E-01
 cg2d: Sum(rhs),rhsMax =  -1.79043446735250E-11  5.66072704289977E-01
 cg2d: Sum(rhs),rhsMax =  -1.78014269991422E-11  5.69937810289452E-01
 cg2d: Sum(rhs),rhsMax =  -1.76072489921353E-11  5.76320054973573E-01
 cg2d: Sum(rhs),rhsMax =  -1.74242842376771E-11  5.82241057257983E-01
 cg2d: Sum(rhs),rhsMax =  -1.72797331998709E-11  5.87690883066087E-01
 cg2d: Sum(rhs),rhsMax =  -1.71428427009346E-11  5.92660642998380E-01
 cg2d: Sum(rhs),rhsMax =  -1.70167213653372E-11  5.97142522096208E-01
 cg2d: Sum(rhs),rhsMax =  -1.68730585059507E-11  6.01129804502078E-01
 cg2d: Sum(rhs),rhsMax =  -1.67957869834368E-11  6.04616892623797E-01
 cg2d: Sum(rhs),rhsMax =  -1.67446057020015E-11  6.07599320608947E-01
 cg2d: Sum(rhs),rhsMax =  -1.67295066688666E-11  6.10073761971095E-01
 cg2d: Sum(rhs),rhsMax =  -1.66886504615604E-11  6.12038031539908E-01
 cg2d: Sum(rhs),rhsMax =  -1.66614499974571E-11  6.13491081925357E-01
 cg2d: Sum(rhs),rhsMax =  -1.66732183615181E-11  6.14432994760999E-01
 cg2d: Sum(rhs),rhsMax =  -1.67476033041680E-11  6.14864967196219E-01
 cg2d: Sum(rhs),rhsMax =  -1.68335345662740E-11  6.14789293756429E-01
 cg2d: Sum(rhs),rhsMax =  -1.69123604010224E-11  6.14209343945500E-01
 cg2d: Sum(rhs),rhsMax =  -1.70207181682258E-11  6.13129535789759E-01
 cg2d: Sum(rhs),rhsMax =  -1.71995750974929E-11  6.11555305586165E-01
 cg2d: Sum(rhs),rhsMax =  -1.73462355590459E-11  6.09493074303961E-01
 cg2d: Sum(rhs),rhsMax =  -1.74492642557311E-11  6.06950211661011E-01
 cg2d: Sum(rhs),rhsMax =  -1.75279790681770E-11  6.03934997051072E-01
 cg2d: Sum(rhs),rhsMax =  -1.75438552574292E-11  6.00456577454273E-01
 cg2d: Sum(rhs),rhsMax =  -1.75172099048382E-11  5.96524922887215E-01
 cg2d: Sum(rhs),rhsMax =  -1.76243464267145E-11  5.92150779484452E-01
 cg2d: Sum(rhs),rhsMax =  -1.77288184133317E-11  5.87345620908761E-01
 cg2d: Sum(rhs),rhsMax =  -1.78065340250555E-11  5.82121597940010E-01
 cg2d: Sum(rhs),rhsMax =  -1.79526393750962E-11  5.76491486664409E-01
 cg2d: Sum(rhs),rhsMax =  -1.80536696703371E-11  5.70468633497741E-01
 cg2d: Sum(rhs),rhsMax =  -1.81791248721197E-11  5.64066900441001E-01
 cg2d: Sum(rhs),rhsMax =  -1.83083548321861E-11  5.57300609263445E-01
 cg2d: Sum(rhs),rhsMax =  -1.85083059989211E-11  5.50184484017368E-01
 cg2d: Sum(rhs),rhsMax =  -1.87179161059703E-11  5.42733595152580E-01
 cg2d: Sum(rhs),rhsMax =  -1.89394055993830E-11  5.34963301500929E-01
 cg2d: Sum(rhs),rhsMax =  -1.92024174339167E-11  5.26889194310951E-01
 cg2d: Sum(rhs),rhsMax =  -1.94838589706592E-11  5.18527040445311E-01
 cg2d: Sum(rhs),rhsMax =  -1.98191463240960E-11  5.09892725930774E-01
 cg2d: Sum(rhs),rhsMax =  -2.00962579910424E-11  5.01002200692253E-01
 cg2d: Sum(rhs),rhsMax =  -2.04730676856002E-11  4.91871424568440E-01
 cg2d: Sum(rhs),rhsMax =  -2.08715267291382E-11  4.82516314999087E-01
 cg2d: Sum(rhs),rhsMax =  -2.12728723525402E-11  4.72952696662425E-01
 cg2d: Sum(rhs),rhsMax =  -2.17460494056354E-11  4.63196253126626E-01
 cg2d: Sum(rhs),rhsMax =  -2.22053486709228E-11  4.53262481024190E-01
 cg2d: Sum(rhs),rhsMax =  -2.27384777673478E-11  4.43166646188706E-01
 cg2d: Sum(rhs),rhsMax =  -2.32168728686588E-11  4.32923742113271E-01
 cg2d: Sum(rhs),rhsMax =  -2.38001840457969E-11  4.22548451434639E-01
 cg2d: Sum(rhs),rhsMax =  -2.43476350192395E-11  4.12055110132983E-01
 cg2d: Sum(rhs),rhsMax =  -2.49367193561056E-11  4.01457673870898E-01
 cg2d: Sum(rhs),rhsMax =  -2.53824739004926E-11  3.93195393436246E-01
 cg2d: Sum(rhs),rhsMax =  -2.58391086305210E-11  3.85199186421189E-01
 cg2d: Sum(rhs),rhsMax =  -2.63259414268191E-11  3.77171492376114E-01
 cg2d: Sum(rhs),rhsMax =  -2.67872390935509E-11  3.69118727299338E-01
 cg2d: Sum(rhs),rhsMax =  -2.73224776137226E-11  3.61046843481328E-01
 cg2d: Sum(rhs),rhsMax =  -2.78905787354233E-11  3.52961314286615E-01
 cg2d: Sum(rhs),rhsMax =  -2.85140799860528E-11  3.44867120960720E-01
 cg2d: Sum(rhs),rhsMax =  -2.91638935223659E-11  3.36768741520636E-01
 cg2d: Sum(rhs),rhsMax =  -2.98424618350168E-11  3.28670141685537E-01
 cg2d: Sum(rhs),rhsMax =  -3.05442338088824E-11  3.20574767779676E-01
 cg2d: Sum(rhs),rhsMax =  -3.13015169339792E-11  3.12485541739977E-01
 cg2d: Sum(rhs),rhsMax =  -3.21038751138758E-11  3.04404857475451E-01
 cg2d: Sum(rhs),rhsMax =  -3.29374305607644E-11  2.96334579276067E-01
 cg2d: Sum(rhs),rhsMax =  -3.37868621969051E-11  2.88276041997700E-01
 cg2d: Sum(rhs),rhsMax =  -3.47499806707674E-11  2.80230052946324E-01
 cg2d: Sum(rhs),rhsMax =  -3.57581741994295E-11  2.72196895616905E-01
 cg2d: Sum(rhs),rhsMax =  -3.68015617979722E-11  2.64176334909561E-01
 cg2d: Sum(rhs),rhsMax =  -3.79374309744662E-11  2.56167623838127E-01
 cg2d: Sum(rhs),rhsMax =  -3.91465748705855E-11  2.48169511963342E-01
 cg2d: Sum(rhs),rhsMax =  -4.02278210742679E-11  2.40180255960071E-01
 cg2d: Sum(rhs),rhsMax =  -4.15089074223829E-11  2.32197631673140E-01
 cg2d: Sum(rhs),rhsMax =  -4.29705160343019E-11  2.24218947908014E-01
 cg2d: Sum(rhs),rhsMax =  -4.46007675236615E-11  2.16241062132674E-01
 cg2d: Sum(rhs),rhsMax =  -4.63367122449654E-11  2.08260398014159E-01
 cg2d: Sum(rhs),rhsMax =  -4.82309747695808E-11  2.00272964784563E-01
 cg2d: Sum(rhs),rhsMax =  -5.02952124392664E-11  1.92274378242839E-01
 cg2d: Sum(rhs),rhsMax =  -5.25581800303598E-11  1.84259883484790E-01
 cg2d: Sum(rhs),rhsMax =  -5.50020029521647E-11  1.76224379180591E-01
 cg2d: Sum(rhs),rhsMax =  -5.77580205884942E-11  1.68162443715433E-01
 cg2d: Sum(rhs),rhsMax =  -6.07843775313199E-11  1.60068362800192E-01
 cg2d: Sum(rhs),rhsMax =  -6.41537933887548E-11  1.51936158446658E-01
 cg2d: Sum(rhs),rhsMax =  -6.79427625271956E-11  1.43759619321593E-01
 cg2d: Sum(rhs),rhsMax =  -7.21395165825811E-11  1.35532332342395E-01
 cg2d: Sum(rhs),rhsMax =  -7.69468933015105E-11  1.27247715826711E-01
 cg2d: Sum(rhs),rhsMax =  -8.24475487881671E-11  1.18899053810222E-01
 cg2d: Sum(rhs),rhsMax =  -8.88414342092858E-11  1.10479531409735E-01
 cg2d: Sum(rhs),rhsMax =  -9.63668866926781E-11  1.01982271187368E-01
 cg2d: Sum(rhs),rhsMax =  -1.05365632885324E-10  9.34003705006806E-02
 cg2d: Sum(rhs),rhsMax =  -1.16299688629473E-10  8.47269397779084E-02
 cg2d: Sum(rhs),rhsMax =  -1.29790622693804E-10  7.59551415841692E-02
 cg2d: Sum(rhs),rhsMax =  -1.47002743311475E-10  6.70782304132072E-02
 cg2d: Sum(rhs),rhsMax =  -1.69801617211363E-10  5.80895929845654E-02
 cg2d: Sum(rhs),rhsMax =  -2.01449745773630E-10  4.89827888607649E-02
 cg2d: Sum(rhs),rhsMax =  -1.97103999788339E-10  5.00904651789739E-02
 cg2d: Sum(rhs),rhsMax =  -1.68438374359425E-10  5.86572361996427E-02
 cg2d: Sum(rhs),rhsMax =  -1.46959666658120E-10  6.72474625726213E-02
 cg2d: Sum(rhs),rhsMax =  -1.30202848502847E-10  7.59365050139708E-02
 cg2d: Sum(rhs),rhsMax =  -1.16573417585641E-10  8.48554138605861E-02
 cg2d: Sum(rhs),rhsMax =  -1.05416120277368E-10  9.38601823960284E-02
 cg2d: Sum(rhs),rhsMax =  -9.61897228535236E-11  1.02844800813186E-01
 cg2d: Sum(rhs),rhsMax =  -8.85296280728198E-11  1.11810586692603E-01
 cg2d: Sum(rhs),rhsMax =  -8.21009926710303E-11  1.20758577477370E-01
 cg2d: Sum(rhs),rhsMax =  -7.65467689234356E-11  1.29689513348374E-01
 cg2d: Sum(rhs),rhsMax =  -7.16969816849655E-11  1.38603822395049E-01
 cg2d: Sum(rhs),rhsMax =  -6.74167388581282E-11  1.47501607960833E-01
 cg2d: Sum(rhs),rhsMax =  -6.37112584911392E-11  1.56382638080250E-01
 cg2d: Sum(rhs),rhsMax =  -6.03361804962788E-11  1.65246336786735E-01
 cg2d: Sum(rhs),rhsMax =  -5.73203706721870E-11  1.74091777471693E-01
 cg2d: Sum(rhs),rhsMax =  -5.46451772720502E-11  1.82917678176402E-01
 cg2d: Sum(rhs),rhsMax =  -5.21600540537293E-11  1.91722398721324E-01
 cg2d: Sum(rhs),rhsMax =  -4.99689178923290E-11  2.00503939472013E-01
 cg2d: Sum(rhs),rhsMax =  -4.79243311701794E-11  2.09259941716894E-01
 cg2d: Sum(rhs),rhsMax =  -4.60641524924199E-11  2.17987689580679E-01
 cg2d: Sum(rhs),rhsMax =  -4.43014513962225E-11  2.26684113425159E-01
 cg2d: Sum(rhs),rhsMax =  -4.27486934739818E-11  2.35345794725454E-01
 cg2d: Sum(rhs),rhsMax =  -4.13497014406516E-11  2.43968972358755E-01
 cg2d: Sum(rhs),rhsMax =  -3.99698052433450E-11  2.52549550704872E-01
 cg2d: Sum(rhs),rhsMax =  -3.87778698041075E-11  2.61083109242760E-01
 cg2d: Sum(rhs),rhsMax =  -3.76192410556087E-11  2.69564913675147E-01
 cg2d: Sum(rhs),rhsMax =  -3.65441010785617E-11  2.77989928974408E-01
 cg2d: Sum(rhs),rhsMax =  -3.55638851701201E-11  2.86352834286331E-01
 cg2d: Sum(rhs),rhsMax =  -3.45794504141850E-11  2.94648039726674E-01
 cg2d: Sum(rhs),rhsMax =  -3.36823902102878E-11  3.02869705007320E-01
 cg2d: Sum(rhs),rhsMax =  -3.29007932009517E-11  3.11011759872285E-01
 cg2d: Sum(rhs),rhsMax =  -3.18927106945921E-11  3.20662904050856E-01
 cg2d: Sum(rhs),rhsMax =  -3.06454861487282E-11  3.34138228625874E-01
 cg2d: Sum(rhs),rhsMax =  -2.94647639620393E-11  3.47628625068554E-01
 cg2d: Sum(rhs),rhsMax =  -2.83897350072948E-11  3.61119257770229E-01
 cg2d: Sum(rhs),rhsMax =  -2.74106293218779E-11  3.74594780823573E-01
 cg2d: Sum(rhs),rhsMax =  -2.64961386164941E-11  3.88039378050211E-01
 cg2d: Sum(rhs),rhsMax =  -2.56699106415681E-11  4.01436805442701E-01
 cg2d: Sum(rhs),rhsMax =  -2.48325804363958E-11  4.14770435829915E-01
 cg2d: Sum(rhs),rhsMax =  -2.40752973112990E-11  4.28023305557410E-01
 cg2d: Sum(rhs),rhsMax =  -2.33684183115201E-11  4.41178162957934E-01
 cg2d: Sum(rhs),rhsMax =  -2.26929586233382E-11  4.54217518378123E-01
 cg2d: Sum(rhs),rhsMax =  -2.20482521129384E-11  4.67123695525493E-01
 cg2d: Sum(rhs),rhsMax =  -2.14717132962505E-11  4.79878883903696E-01
 cg2d: Sum(rhs),rhsMax =  -2.09319228616778E-11  4.92465192111607E-01
 cg2d: Sum(rhs),rhsMax =  -2.04009031889996E-11  5.04864701791947E-01
 cg2d: Sum(rhs),rhsMax =  -1.99096295006029E-11  5.17059522026235E-01
 cg2d: Sum(rhs),rhsMax =  -1.94801952346779E-11  5.29031843983076E-01
 cg2d: Sum(rhs),rhsMax =  -1.90473192773766E-11  5.40763995635301E-01
 cg2d: Sum(rhs),rhsMax =  -1.86906046195645E-11  5.52238496365265E-01
 cg2d: Sum(rhs),rhsMax =  -1.82944770443783E-11  5.63438111276481E-01
 cg2d: Sum(rhs),rhsMax =  -1.79425363455721E-11  5.74345905024738E-01
 cg2d: Sum(rhs),rhsMax =  -1.76346715008435E-11  5.84945294973592E-01
 cg2d: Sum(rhs),rhsMax =  -1.73223657640165E-11  5.95220103466970E-01
 cg2d: Sum(rhs),rhsMax =  -1.70571334834335E-11  6.05154608992969E-01
 cg2d: Sum(rhs),rhsMax =  -1.67866831546348E-11  6.14733595990828E-01
 cg2d: Sum(rhs),rhsMax =  -1.65308877697612E-11  6.23942403033415E-01
 cg2d: Sum(rhs),rhsMax =  -1.63162816591012E-11  6.32766969103022E-01
 cg2d: Sum(rhs),rhsMax =  -1.60970126117377E-11  6.41193877670803E-01
 cg2d: Sum(rhs),rhsMax =  -1.59202651062174E-11  6.49210398291423E-01
 cg2d: Sum(rhs),rhsMax =  -1.57466262251660E-11  6.56804525434699E-01
 cg2d: Sum(rhs),rhsMax =  -1.55544466196034E-11  6.63965014298051E-01
 cg2d: Sum(rhs),rhsMax =  -1.54265489271666E-11  6.70681413371890E-01
 cg2d: Sum(rhs),rhsMax =  -1.52801105102185E-11  6.76944093571443E-01
 cg2d: Sum(rhs),rhsMax =  -1.51381129853689E-11  6.82744273788275E-01
 cg2d: Sum(rhs),rhsMax =  -1.50386370023625E-11  6.88074042765899E-01
 cg2d: Sum(rhs),rhsMax =  -1.49369405733069E-11  6.92926377304448E-01
 cg2d: Sum(rhs),rhsMax =  -1.48195899996040E-11  6.97295156809849E-01
 cg2d: Sum(rhs),rhsMax =  -1.47725165433599E-11  7.01175174247348E-01
 cg2d: Sum(rhs),rhsMax =  -1.47160061914064E-11  7.04562143807587E-01
 cg2d: Sum(rhs),rhsMax =  -1.46305190185103E-11  7.07452704359208E-01
 cg2d: Sum(rhs),rhsMax =  -1.46128664724188E-11  7.09844419775191E-01
 cg2d: Sum(rhs),rhsMax =  -1.46022083313824E-11  7.11735776337489E-01
 cg2d: Sum(rhs),rhsMax =  -1.45293777009670E-11  7.13126177225428E-01
 cg2d: Sum(rhs),rhsMax =  -1.45120582217828E-11  7.14015934106250E-01
 cg2d: Sum(rhs),rhsMax =  -1.45096157311286E-11  7.14406255876808E-01
 cg2d: Sum(rhs),rhsMax =  -1.45468082024536E-11  7.14299234598622E-01
 cg2d: Sum(rhs),rhsMax =  -1.45833345399637E-11  7.13697828680745E-01
 cg2d: Sum(rhs),rhsMax =  -1.46351819552137E-11  7.12605843331218E-01
 cg2d: Sum(rhs),rhsMax =  -1.47031276043208E-11  7.11027908465299E-01
 cg2d: Sum(rhs),rhsMax =  -1.47915013570810E-11  7.08969454315617E-01
 cg2d: Sum(rhs),rhsMax =  -1.48772105745820E-11  7.06436683784262E-01
 cg2d: Sum(rhs),rhsMax =  -1.50026657763647E-11  7.03436543330641E-01
 cg2d: Sum(rhs),rhsMax =  -1.51249013313759E-11  6.99976691660757E-01
 cg2d: Sum(rhs),rhsMax =  -1.52197143776789E-11  6.96065467047286E-01
 cg2d: Sum(rhs),rhsMax =  -1.53738133334969E-11  6.91711852094607E-01
 cg2d: Sum(rhs),rhsMax =  -1.54707358035466E-11  6.86925436592577E-01
 cg2d: Sum(rhs),rhsMax =  -1.54819490560953E-11  6.81716378750730E-01
 cg2d: Sum(rhs),rhsMax =  -1.55068180518469E-11  6.76095366180779E-01
 cg2d: Sum(rhs),rhsMax =  -1.55909729571135E-11  6.70073574673963E-01
 cg2d: Sum(rhs),rhsMax =  -1.57190926941553E-11  6.63662627065499E-01
 cg2d: Sum(rhs),rhsMax =  -1.58627555535418E-11  6.56874550929370E-01
 cg2d: Sum(rhs),rhsMax =  -1.60317314978897E-11  6.49721736054122E-01
 cg2d: Sum(rhs),rhsMax =  -1.61943791709973E-11  6.42216892547458E-01
 cg2d: Sum(rhs),rhsMax =  -1.64083191478426E-11  6.34373009041839E-01
 cg2d: Sum(rhs),rhsMax =  -1.66225921915952E-11  6.26203311047015E-01
 cg2d: Sum(rhs),rhsMax =  -1.68702829483891E-11  6.17721219688822E-01
 cg2d: Sum(rhs),rhsMax =  -1.70838898583270E-11  6.08940310574818E-01
 cg2d: Sum(rhs),rhsMax =  -1.73534520087060E-11  5.99874273314297E-01
 cg2d: Sum(rhs),rhsMax =  -1.76416659058987E-11  5.90536871723059E-01
 cg2d: Sum(rhs),rhsMax =  -1.79234405095485E-11  5.80941904700237E-01
 cg2d: Sum(rhs),rhsMax =  -1.81977766189334E-11  5.71103167886446E-01
 cg2d: Sum(rhs),rhsMax =  -1.85185200507476E-11  5.61034415950141E-01
 cg2d: Sum(rhs),rhsMax =  -1.88227211594949E-11  5.50749326231333E-01
 cg2d: Sum(rhs),rhsMax =  -1.91626714496351E-11  5.40261463329881E-01
 cg2d: Sum(rhs),rhsMax =  -1.95247151779654E-11  5.29584244293869E-01
 cg2d: Sum(rhs),rhsMax =  -1.98947525120730E-11  5.18730905653288E-01
 cg2d: Sum(rhs),rhsMax =  -2.03186356628748E-11  5.07714472594686E-01
 cg2d: Sum(rhs),rhsMax =  -2.07368566762511E-11  4.96547728446736E-01
 cg2d: Sum(rhs),rhsMax =  -2.11982653652854E-11  4.85243186833812E-01
 cg2d: Sum(rhs),rhsMax =  -2.16704432176584E-11  4.73813065620436E-01
 cg2d: Sum(rhs),rhsMax =  -2.21384022225379E-11  4.62269262198078E-01
 cg2d: Sum(rhs),rhsMax =  -2.26733076758023E-11  4.50623330480152E-01
 cg2d: Sum(rhs),rhsMax =  -2.32160957125416E-11  4.38886460264990E-01
 cg2d: Sum(rhs),rhsMax =  -2.38233877070115E-11  4.27069458619111E-01
 cg2d: Sum(rhs),rhsMax =  -2.44599895893316E-11  4.15182733334307E-01
 cg2d: Sum(rhs),rhsMax =  -2.51562104480740E-11  4.03236278520085E-01
 cg2d: Sum(rhs),rhsMax =  -2.58660870500194E-11  3.91239662156522E-01
 cg2d: Sum(rhs),rhsMax =  -2.66549005090155E-11  3.79202015662003E-01
 cg2d: Sum(rhs),rhsMax =  -2.74916756026755E-11  3.67132025474556E-01
 cg2d: Sum(rhs),rhsMax =  -2.83424395064458E-11  3.55037926709975E-01
 cg2d: Sum(rhs),rhsMax =  -2.92978974414382E-11  3.42927498520648E-01
 cg2d: Sum(rhs),rhsMax =  -3.02802227736265E-11  3.30808061081303E-01
 cg2d: Sum(rhs),rhsMax =  -3.13480352787110E-11  3.18686474656177E-01
 cg2d: Sum(rhs),rhsMax =  -3.25303117776343E-11  3.06569140759990E-01
 cg2d: Sum(rhs),rhsMax =  -3.37710970299554E-11  2.94462004759485E-01
 cg2d: Sum(rhs),rhsMax =  -3.51627615913230E-11  2.82370560239677E-01
 cg2d: Sum(rhs),rhsMax =  -3.65970587168363E-11  2.70299855209930E-01
 cg2d: Sum(rhs),rhsMax =  -3.82068821025427E-11  2.58254500128280E-01
 cg2d: Sum(rhs),rhsMax =  -3.99629218605924E-11  2.46238677988264E-01
 cg2d: Sum(rhs),rhsMax =  -4.19845269661323E-11  2.34256155641050E-01
 cg2d: Sum(rhs),rhsMax =  -4.41523484440154E-11  2.22310296895411E-01
 cg2d: Sum(rhs),rhsMax =  -4.66159333356586E-11  2.10404077195350E-01
 cg2d: Sum(rhs),rhsMax =  -4.93565188719458E-11  1.98540099668734E-01
 cg2d: Sum(rhs),rhsMax =  -5.24268406465467E-11  1.86720612974541E-01
 cg2d: Sum(rhs),rhsMax =  -5.59009505352037E-11  1.74947530538971E-01
 cg2d: Sum(rhs),rhsMax =  -5.98224803027847E-11  1.63222450989764E-01
 cg2d: Sum(rhs),rhsMax =  -6.43627373619893E-11  1.51546679566432E-01
 cg2d: Sum(rhs),rhsMax =  -6.93627377756911E-11  1.40387075946787E-01
 cg2d: Sum(rhs),rhsMax =  -7.32316429719049E-11  1.32853956278884E-01
 cg2d: Sum(rhs),rhsMax =  -7.75792763363370E-11  1.25256643041902E-01
 cg2d: Sum(rhs),rhsMax =  -8.25584045571759E-11  1.17591733553111E-01
 cg2d: Sum(rhs),rhsMax =  -8.83130235607155E-11  1.09855826509606E-01
 cg2d: Sum(rhs),rhsMax =  -9.50681755540472E-11  1.02045551063436E-01
 cg2d: Sum(rhs),rhsMax =  -1.02990505013167E-10  9.41575972988171E-02
 cg2d: Sum(rhs),rhsMax =  -1.12459042078683E-10  8.61887469717593E-02
 cg2d: Sum(rhs),rhsMax =  -1.23987042854878E-10  7.81359041456449E-02
 cg2d: Sum(rhs),rhsMax =  -1.38364431023774E-10  6.99961247241387E-02
 cg2d: Sum(rhs),rhsMax =  -1.55222057429683E-10  6.23709171717623E-02
 cg2d: Sum(rhs),rhsMax =  -1.56340718149295E-10  6.18874138734171E-02
 cg2d: Sum(rhs),rhsMax =  -1.57541424350427E-10  6.13992613079683E-02
 cg2d: Sum(rhs),rhsMax =  -1.58733470811967E-10  6.09088790187180E-02
 cg2d: Sum(rhs),rhsMax =  -1.59943502886506E-10  6.04183105150202E-02
 cg2d: Sum(rhs),rhsMax =  -1.61189839253950E-10  5.99291761911502E-02
 cg2d: Sum(rhs),rhsMax =  -1.62475033427256E-10  5.94431146001551E-02
 cg2d: Sum(rhs),rhsMax =  -1.63746526754549E-10  5.89614545166966E-02
 cg2d: Sum(rhs),rhsMax =  -1.44528680690037E-10  6.67679303545696E-02
 cg2d: Sum(rhs),rhsMax =  -1.26452570636815E-10  7.63042702741704E-02
 cg2d: Sum(rhs),rhsMax =  -1.12123144102583E-10  8.60056153683700E-02
 cg2d: Sum(rhs),rhsMax =  -1.00818853265849E-10  9.56562085853135E-02
 cg2d: Sum(rhs),rhsMax =  -9.14031073051547E-11  1.05355654311977E-01
 cg2d: Sum(rhs),rhsMax =  -8.35568836343725E-11  1.15124958882235E-01
 cg2d: Sum(rhs),rhsMax =  -7.69662111821390E-11  1.24870756294053E-01
 cg2d: Sum(rhs),rhsMax =  -7.12155889814881E-11  1.34761187597108E-01
 cg2d: Sum(rhs),rhsMax =  -6.62370158721615E-11  1.44667160676477E-01
 cg2d: Sum(rhs),rhsMax =  -6.19154727488080E-11  1.54677912041050E-01
 cg2d: Sum(rhs),rhsMax =  -5.79521985955012E-11  1.64839375359737E-01
 cg2d: Sum(rhs),rhsMax =  -5.44806422198008E-11  1.74965232298560E-01
 cg2d: Sum(rhs),rhsMax =  -5.14142062257861E-11  1.85029393103913E-01
 cg2d: Sum(rhs),rhsMax =  -4.87030415996514E-11  1.95029535886811E-01
 cg2d: Sum(rhs),rhsMax =  -4.62717641980248E-11  2.04963114028779E-01
 cg2d: Sum(rhs),rhsMax =  -4.40674163826316E-11  2.14827355064189E-01
 cg2d: Sum(rhs),rhsMax =  -4.21017665175327E-11  2.24619261369445E-01
 cg2d: Sum(rhs),rhsMax =  -4.02741173743948E-11  2.34335612719954E-01
 cg2d: Sum(rhs),rhsMax =  -3.86434217958254E-11  2.43972970711936E-01
 cg2d: Sum(rhs),rhsMax =  -3.70407038374765E-11  2.53527684979931E-01
 cg2d: Sum(rhs),rhsMax =  -3.56830121006624E-11  2.62995901064676E-01
 cg2d: Sum(rhs),rhsMax =  -3.44947403974061E-11  2.72373569730942E-01
 cg2d: Sum(rhs),rhsMax =  -3.34691163672574E-11  2.81656457499817E-01
 cg2d: Sum(rhs),rhsMax =  -3.25206528373201E-11  2.90840158140608E-01
 cg2d: Sum(rhs),rhsMax =  -3.16368042874160E-11  2.99920104861889E-01
 cg2d: Sum(rhs),rhsMax =  -3.08534309212405E-11  3.08891582952907E-01
 cg2d: Sum(rhs),rhsMax =  -3.00914848594402E-11  3.17749742659023E-01
 cg2d: Sum(rhs),rhsMax =  -2.93799429229580E-11  3.26489612121104E-01
 cg2d: Sum(rhs),rhsMax =  -2.86856094433574E-11  3.35106110268353E-01
 cg2d: Sum(rhs),rhsMax =  -2.80437895128216E-11  3.43594059617279E-01
 cg2d: Sum(rhs),rhsMax =  -2.74694711421830E-11  3.51948198984619E-01
 cg2d: Sum(rhs),rhsMax =  -2.68929323254952E-11  3.60163196195205E-01
 cg2d: Sum(rhs),rhsMax =  -2.63862265370562E-11  3.68233660864458E-01
 cg2d: Sum(rhs),rhsMax =  -2.58667531838341E-11  3.76154157358821E-01
 cg2d: Sum(rhs),rhsMax =  -2.54279930445023E-11  3.83919218113596E-01
 cg2d: Sum(rhs),rhsMax =  -2.49803511209734E-11  3.91523357398113E-01
 cg2d: Sum(rhs),rhsMax =  -2.45724551817261E-11  3.98961085640365E-01
 cg2d: Sum(rhs),rhsMax =  -2.42110775872106E-11  4.06226924326517E-01
 cg2d: Sum(rhs),rhsMax =  -2.38423725207326E-11  4.13315421500804E-01
 cg2d: Sum(rhs),rhsMax =  -2.34924302233708E-11  4.20221167849885E-01
 cg2d: Sum(rhs),rhsMax =  -2.31746843937231E-11  4.26938813310288E-01
 cg2d: Sum(rhs),rhsMax =  -2.29009033958505E-11  4.33463084095039E-01
 cg2d: Sum(rhs),rhsMax =  -2.25884866367210E-11  4.39788800002900E-01
 cg2d: Sum(rhs),rhsMax =  -2.23069340776760E-11  4.45910891838758E-01
 cg2d: Sum(rhs),rhsMax =  -2.20690132834989E-11  4.51824418761532E-01
 cg2d: Sum(rhs),rhsMax =  -2.18256523965010E-11  4.57524585382734E-01
 cg2d: Sum(rhs),rhsMax =  -2.16144879772173E-11  4.63006758452830E-01
 cg2d: Sum(rhs),rhsMax =  -2.14100959183838E-11  4.68266482990910E-01
 cg2d: Sum(rhs),rhsMax =  -2.12250217401788E-11  4.73299497635545E-01
 cg2d: Sum(rhs),rhsMax =  -2.10272910194931E-11  4.78101749172643E-01
 cg2d: Sum(rhs),rhsMax =  -2.07913686267602E-11  4.84092418196984E-01
 cg2d: Sum(rhs),rhsMax =  -2.05702122002549E-11  4.90154869963083E-01
 cg2d: Sum(rhs),rhsMax =  -2.03873584680991E-11  4.95904701557159E-01
 cg2d: Sum(rhs),rhsMax =  -2.02226013712448E-11  5.01334515246294E-01
 cg2d: Sum(rhs),rhsMax =  -2.01026972845852E-11  5.06437407613479E-01
 cg2d: Sum(rhs),rhsMax =  -1.99295024927437E-11  5.11206986980440E-01
 cg2d: Sum(rhs),rhsMax =  -1.98273619744782E-11  5.15637389283577E-01
 cg2d: Sum(rhs),rhsMax =  -1.97462046713781E-11  5.19723292350735E-01
 cg2d: Sum(rhs),rhsMax =  -1.96289651199777E-11  5.23459928661788E-01
 cg2d: Sum(rhs),rhsMax =  -1.95625737831051E-11  5.26843096409687E-01
 cg2d: Sum(rhs),rhsMax =  -1.94859683944060E-11  5.29869168852333E-01
 cg2d: Sum(rhs),rhsMax =  -1.94225746596999E-11  5.32535101915389E-01
 cg2d: Sum(rhs),rhsMax =  -1.93816074300912E-11  5.34838439978604E-01
 cg2d: Sum(rhs),rhsMax =  -1.93388638436431E-11  5.36777319657811E-01
 cg2d: Sum(rhs),rhsMax =  -1.93842719653503E-11  5.38350471538103E-01
 cg2d: Sum(rhs),rhsMax =  -1.93588478580864E-11  5.39557219747913E-01
 cg2d: Sum(rhs),rhsMax =  -1.94307903100821E-11  5.40397479289319E-01
 cg2d: Sum(rhs),rhsMax =  -1.94909643980168E-11  5.40871751077634E-01
 cg2d: Sum(rhs),rhsMax =  -1.95993221652202E-11  5.40981114678686E-01
 cg2d: Sum(rhs),rhsMax =  -1.96264116070211E-11  5.40727218911626E-01
 cg2d: Sum(rhs),rhsMax =  -1.95671256975061E-11  5.40112270270979E-01
 cg2d: Sum(rhs),rhsMax =  -1.95383709211683E-11  5.39139019846988E-01
 cg2d: Sum(rhs),rhsMax =  -1.95754523701908E-11  5.37810748696419E-01
 cg2d: Sum(rhs),rhsMax =  -1.95610194708706E-11  5.36131251472084E-01
 cg2d: Sum(rhs),rhsMax =  -1.95397031887978E-11  5.34104818684497E-01
 cg2d: Sum(rhs),rhsMax =  -1.96127558638182E-11  5.31736217874238E-01
 cg2d: Sum(rhs),rhsMax =  -1.96693772380740E-11  5.29030673773887E-01
(PID.TID 0000.0001)      cg2d_init_res =   2.29571175538268E-02
(PID.TID 0000.0001)      cg2d_iters(min,last) =      -1      35
(PID.TID 0000.0001)      cg2d_last_res =   6.45477405661175E-14
(PID.TID 0000.0001) // =======================================================
(PID.TID 0000.0001) // Begin MONITOR dynamic field statistics
(PID.TID 0000.0001) // =======================================================
(PID.TID 0000.0001) %MON time_tsnumber                =                  1440
(PID.TID 0000.0001) %MON time_secondsf                =   2.1600000000000E+04
(PID.TID 0000.0001) %MON dynstat_eta_max              =   1.0693186680665E-01
(PID.TID 0000.0001) %MON dynstat_eta_min              =  -8.6714729386286E-02
(PID.TID 0000.0001) %MON dynstat_eta_mean             =   2.2320946831682E-14
(PID.TID 0000.0001) %MON dynstat_eta_sd               =   6.8029024352594E-02
(PID.TID 0000.0001) %MON dynstat_eta_del2             =   3.1103801675990E-05
(PID.TID 0000.0001) %MON dynstat_uvel_max             =   1.3664365575022E+00
(PID.TID 0000.0001) %MON dynstat_uvel_min             =   9.4713268491391E-02
(PID.TID 0000.0001) %MON dynstat_uvel_mean            =   6.7867957271584E-01
(PID.TID 0000.0001) %MON dynstat_uvel_sd              =   1.0277054346525E-01
(PID.TID 0000.0001) %MON dynstat_uvel_del2            =   8.3635337211938E-04
(PID.TID 0000.0001) %MON dynstat_vvel_max             =   0.0000000000000E+00
(PID.TID 0000.0001) %MON dynstat_vvel_min             =   0.0000000000000E+00
(PID.TID 0000.0001) %MON dynstat_vvel_mean            =   0.0000000000000E+00
(PID.TID 0000.0001) %MON dynstat_vvel_sd              =   0.0000000000000E+00
(PID.TID 0000.0001) %MON dynstat_vvel_del2            =   0.0000000000000E+00
(PID.TID 0000.0001) %MON dynstat_wvel_max             =   2.3486912025136E-02
(PID.TID 0000.0001) %MON dynstat_wvel_min             =  -3.2951583985608E-02
(PID.TID 0000.0001) %MON dynstat_wvel_mean            =   1.3793160363452E-20
(PID.TID 0000.0001) %MON dynstat_wvel_sd              =   3.7035406779787E-03
(PID.TID 0000.0001) %MON dynstat_wvel_del2            =   8.4659535377728E-05
(PID.TID 0000.0001) %MON dynstat_theta_max            =   1.5000000000004E+01
(PID.TID 0000.0001) %MON dynstat_theta_min            =   9.9999999999974E+00
(PID.TID 0000.0001) %MON dynstat_theta_mean           =   1.3335036475762E+01
(PID.TID 0000.0001) %MON dynstat_theta_sd             =   2.2900753452872E+00
(PID.TID 0000.0001) %MON dynstat_theta_del2           =   1.0802425609791E-03
(PID.TID 0000.0001) %MON dynstat_salt_max             =   3.5000000000000E+01
(PID.TID 0000.0001) %MON dynstat_salt_min             =   3.5000000000000E+01
(PID.TID 0000.0001) %MON dynstat_salt_mean            =   3.5000000000000E+01
(PID.TID 0000.0001) %MON dynstat_salt_sd              =   2.1316282072803E-14
(PID.TID 0000.0001) %MON dynstat_salt_del2            =   0.0000000000000E+00
(PID.TID 0000.0001) %MON dynstat_sst_max              =   1.5000000000000E+01
(PID.TID 0000.0001) %MON dynstat_sst_min              =   1.4999999999997E+01
(PID.TID 0000.0001) %MON dynstat_sst_mean             =   1.4999999999998E+01
(PID.TID 0000.0001) %MON dynstat_sst_sd               =   8.5544046257294E-13
(PID.TID 0000.0001) %MON dynstat_sst_del2             =   3.5384802931803E-15
(PID.TID 0000.0001) %MON dynstat_sss_max              =   3.5000000000000E+01
(PID.TID 0000.0001) %MON dynstat_sss_min              =   3.5000000000000E+01
(PID.TID 0000.0001) %MON dynstat_sss_mean             =   3.5000000000000E+01
(PID.TID 0000.0001) %MON dynstat_sss_sd               =   7.8159700933611E-14
(PID.TID 0000.0001) %MON dynstat_sss_del2             =   0.0000000000000E+00
(PID.TID 0000.0001) %MON forcing_qnet_max             =   0.0000000000000E+00
(PID.TID 0000.0001) %MON forcing_qnet_min             =   0.0000000000000E+00
(PID.TID 0000.0001) %MON forcing_qnet_mean            =   0.0000000000000E+00
(PID.TID 0000.0001) %MON forcing_qnet_sd              =   0.0000000000000E+00
(PID.TID 0000.0001) %MON forcing_qnet_del2            =   0.0000000000000E+00
(PID.TID 0000.0001) %MON forcing_qsw_max              =   0.0000000000000E+00
(PID.TID 0000.0001) %MON forcing_qsw_min              =   0.0000000000000E+00
(PID.TID 0000.0001) %MON forcing_qsw_mean             =   0.0000000000000E+00
(PID.TID 0000.0001) %MON forcing_qsw_sd               =   0.0000000000000E+00
(PID.TID 0000.0001) %MON forcing_qsw_del2             =   0.0000000000000E+00
(PID.TID 0000.0001) %MON forcing_empmr_max            =   0.0000000000000E+00
(PID.TID 0000.0001) %MON forcing_empmr_min            =   0.0000000000000E+00
(PID.TID 0000.0001) %MON forcing_empmr_mean           =   0.0000000000000E+00
(PID.TID 0000.0001) %MON forcing_empmr_sd             =   0.0000000000000E+00
(PID.TID 0000.0001) %MON forcing_empmr_del2           =   0.0000000000000E+00
(PID.TID 0000.0001) %MON forcing_fu_max               =   0.0000000000000E+00
(PID.TID 0000.0001) %MON forcing_fu_min               =   0.0000000000000E+00
(PID.TID 0000.0001) %MON forcing_fu_mean              =   0.0000000000000E+00
(PID.TID 0000.0001) %MON forcing_fu_sd                =   0.0000000000000E+00
(PID.TID 0000.0001) %MON forcing_fu_del2              =   0.0000000000000E+00
(PID.TID 0000.0001) %MON forcing_fv_max               =   0.0000000000000E+00
(PID.TID 0000.0001) %MON forcing_fv_min               =   0.0000000000000E+00
(PID.TID 0000.0001) %MON forcing_fv_mean              =   0.0000000000000E+00
(PID.TID 0000.0001) %MON forcing_fv_sd                =   0.0000000000000E+00
(PID.TID 0000.0001) %MON forcing_fv_del2              =   0.0000000000000E+00
(PID.TID 0000.0001) %MON advcfl_uvel_max              =   9.9809514535154E-02
(PID.TID 0000.0001) %MON advcfl_vvel_max              =   0.0000000000000E+00
(PID.TID 0000.0001) %MON advcfl_wvel_max              =   4.0956758320056E-01
(PID.TID 0000.0001) %MON advcfl_W_hf_max              =   4.0956758320056E-01
(PID.TID 0000.0001) %MON pe_b_mean                    =   1.1562058795156E-04
(PID.TID 0000.0001) %MON ke_max                       =   8.4912648181387E-01
(PID.TID 0000.0001) %MON ke_mean                      =   2.3557982708627E-01
(PID.TID 0000.0001) %MON ke_vol                       =   9.5889217545975E+10
(PID.TID 0000.0001) %MON vort_r_min                   =   0.0000000000000E+00
(PID.TID 0000.0001) %MON vort_r_max                   =   0.0000000000000E+00
(PID.TID 0000.0001) %MON vort_a_mean                  =   0.0000000000000E+00
(PID.TID 0000.0001) %MON vort_a_sd                    =   0.0000000000000E+00
(PID.TID 0000.0001) %MON vort_p_mean                  =   0.0000000000000E+00
(PID.TID 0000.0001) %MON vort_p_sd                    =   0.0000000000000E+00
(PID.TID 0000.0001) %MON surfExpan_theta_mean         =   2.3873206082159E-18
(PID.TID 0000.0001) %MON surfExpan_salt_mean          =   4.0595623447041E-19
(PID.TID 0000.0001) // =======================================================
(PID.TID 0000.0001) // End MONITOR dynamic field statistics
(PID.TID 0000.0001) // =======================================================
(PID.TID 0000.0001) // =======================================================
(PID.TID 0000.0001) // Begin OBCS MONITOR field statistics
(PID.TID 0000.0001) // =======================================================
(PID.TID 0000.0001) %MON obc_E_uVel_max               =   6.6809804669674E-01
(PID.TID 0000.0001) %MON obc_E_uVel_min               =   6.6809804669674E-01
(PID.TID 0000.0001) %MON obc_E_uVel_mean              =   6.6809804669674E-01
(PID.TID 0000.0001) %MON obc_E_uVel_sd                =   1.6660004686563E-08
(PID.TID 0000.0001) %MON obc_E_uVel_Int               =   6.6809804669674E+05
(PID.TID 0000.0001) %MON obc_W_uVel_max               =   6.6809804669674E-01
(PID.TID 0000.0001) %MON obc_W_uVel_min               =   6.6809804669674E-01
(PID.TID 0000.0001) %MON obc_W_uVel_mean              =   6.6809804669674E-01
(PID.TID 0000.0001) %MON obc_W_uVel_sd                =   1.6660004686563E-08
(PID.TID 0000.0001) %MON obc_W_uVel_Int               =   6.6809804669674E+05
(PID.TID 0000.0001) // =======================================================
(PID.TID 0000.0001) // End OBCS MONITOR field statistics
(PID.TID 0000.0001) // =======================================================
(PID.TID 0000.0001) %CHECKPOINT      1440 0000001440
 cg2d: Sum(rhs),rhsMax =  -1.97775129606725E-11  5.25993847663270E-01
 cg2d: Sum(rhs),rhsMax =  -1.98616678659391E-11  5.22631816666511E-01
 cg2d: Sum(rhs),rhsMax =  -2.00244265613492E-11  5.18951052142419E-01
 cg2d: Sum(rhs),rhsMax =  -2.01442196257062E-11  5.14958397760151E-01
 cg2d: Sum(rhs),rhsMax =  -2.03431715917191E-11  5.10661046522932E-01
 cg2d: Sum(rhs),rhsMax =  -2.05000461050986E-11  5.06066517603698E-01
 cg2d: Sum(rhs),rhsMax =  -2.06935579782908E-11  5.01182632990809E-01
 cg2d: Sum(rhs),rhsMax =  -2.09154915609133E-11  4.96017492872566E-01
 cg2d: Sum(rhs),rhsMax =  -2.11181072629074E-11  4.90579450560510E-01
 cg2d: Sum(rhs),rhsMax =  -2.13747908262008E-11  4.84877087514133E-01
 cg2d: Sum(rhs),rhsMax =  -2.15928386282371E-11  4.78919186448033E-01
 cg2d: Sum(rhs),rhsMax =  -2.18485229908083E-11  4.72714705313872E-01
 cg2d: Sum(rhs),rhsMax =  -2.21420659585192E-11  4.67725980872679E-01
 cg2d: Sum(rhs),rhsMax =  -2.22989404718987E-11  4.62898735659291E-01
 cg2d: Sum(rhs),rhsMax =  -2.25235385897804E-11  4.57903965622442E-01
 cg2d: Sum(rhs),rhsMax =  -2.27582397371862E-11  4.52746730033826E-01
 cg2d: Sum(rhs),rhsMax =  -2.29857244349319E-11  4.47432061602656E-01
 cg2d: Sum(rhs),rhsMax =  -2.32536212507739E-11  4.41964951042928E-01
 cg2d: Sum(rhs),rhsMax =  -2.34782193686556E-11  4.36350331791963E-01
 cg2d: Sum(rhs),rhsMax =  -2.37208030995362E-11  4.30593064933281E-01
 cg2d: Sum(rhs),rhsMax =  -2.40123476658027E-11  4.24697924400947E-01
 cg2d: Sum(rhs),rhsMax =  -2.43211006889510E-11  4.18669582160334E-01
 cg2d: Sum(rhs),rhsMax =  -2.46336284703830E-11  4.12512594339119E-01
 cg2d: Sum(rhs),rhsMax =  -2.49475995417470E-11  4.06231388077860E-01
 cg2d: Sum(rhs),rhsMax =  -2.52832199620912E-11  3.99830248544547E-01
 cg2d: Sum(rhs),rhsMax =  -2.56253906982806E-11  3.93313306248981E-01
 cg2d: Sum(rhs),rhsMax =  -2.59988697237645E-11  3.86684524624718E-01
 cg2d: Sum(rhs),rhsMax =  -2.64176458486531E-11  3.79947689274228E-01
 cg2d: Sum(rhs),rhsMax =  -2.68105537770680E-11  3.73106397737515E-01
 cg2d: Sum(rhs),rhsMax =  -2.72349920393822E-11  3.66164049967619E-01
 cg2d: Sum(rhs),rhsMax =  -2.77077250032676E-11  3.59123839715815E-01
 cg2d: Sum(rhs),rhsMax =  -2.81703549376289E-11  3.51988747061480E-01
 cg2d: Sum(rhs),rhsMax =  -2.87994073033815E-11  3.44761532055156E-01
 cg2d: Sum(rhs),rhsMax =  -2.93290947084301E-11  3.37444729619008E-01
 cg2d: Sum(rhs),rhsMax =  -2.98830959977181E-11  3.30040646100252E-01
 cg2d: Sum(rhs),rhsMax =  -3.04767322489852E-11  3.22551357204425E-01
 cg2d: Sum(rhs),rhsMax =  -3.10893533139733E-11  3.14978707347647E-01
 cg2d: Sum(rhs),rhsMax =  -3.16692227997351E-11  3.07324310465092E-01
 cg2d: Sum(rhs),rhsMax =  -3.23595594764470E-11  2.99589552466623E-01
 cg2d: Sum(rhs),rhsMax =  -3.32135430269886E-11  2.91775594754987E-01
 cg2d: Sum(rhs),rhsMax =  -3.41797701253199E-11  2.83883379304803E-01
 cg2d: Sum(rhs),rhsMax =  -3.52092799360548E-11  2.75913635223549E-01
 cg2d: Sum(rhs),rhsMax =  -3.63808982939418E-11  2.67866886450296E-01
 cg2d: Sum(rhs),rhsMax =  -3.75905973015733E-11  2.59743460533184E-01
 cg2d: Sum(rhs),rhsMax =  -3.88303833531722E-11  2.51543498268632E-01
 cg2d: Sum(rhs),rhsMax =  -4.02190503123734E-11  2.43266963954477E-01
 cg2d: Sum(rhs),rhsMax =  -4.17000878272233E-11  2.34913656452614E-01
 cg2d: Sum(rhs),rhsMax =  -4.33351132755888E-11  2.26483221078423E-01
 cg2d: Sum(rhs),rhsMax =  -4.50771642235281E-11  2.17975161565854E-01
 cg2d: Sum(rhs),rhsMax =  -4.70159466914311E-11  2.09388852407818E-01
 cg2d: Sum(rhs),rhsMax =  -4.91257035051262E-11  2.00723551560775E-01
 cg2d: Sum(rhs),rhsMax =  -5.14532860762529E-11  1.91978413566875E-01
 cg2d: Sum(rhs),rhsMax =  -5.40230082890503E-11  1.83152502580760E-01
 cg2d: Sum(rhs),rhsMax =  -5.69105873537978E-11  1.74244805513305E-01
 cg2d: Sum(rhs),rhsMax =  -6.01400040878275E-11  1.65254245441997E-01
 cg2d: Sum(rhs),rhsMax =  -6.37477848286494E-11  1.56179695185647E-01
 cg2d: Sum(rhs),rhsMax =  -6.78067602066790E-11  1.47019991203341E-01
 cg2d: Sum(rhs),rhsMax =  -7.24401094664984E-11  1.37773947735202E-01
 cg2d: Sum(rhs),rhsMax =  -7.77752307001833E-11  1.28440371168884E-01
 cg2d: Sum(rhs),rhsMax =  -8.40167935223235E-11  1.19018074684195E-01
 cg2d: Sum(rhs),rhsMax =  -9.14192610501630E-11  1.09505893325529E-01
 cg2d: Sum(rhs),rhsMax =  -1.00314756501518E-10  9.99026995760159E-02
 cg2d: Sum(rhs),rhsMax =  -1.11196607477382E-10  9.02074198712249E-02
 cg2d: Sum(rhs),rhsMax =  -1.24884158569927E-10  8.04190517756142E-02
 cg2d: Sum(rhs),rhsMax =  -1.42427396265798E-10  7.05366819554440E-02
 cg2d: Sum(rhs),rhsMax =  -1.65932170781424E-10  6.05595050931022E-02
 cg2d: Sum(rhs),rhsMax =  -1.79253611953811E-10  5.60845015657912E-02
 cg2d: Sum(rhs),rhsMax =  -1.78407622009047E-10  5.63727419871314E-02
 cg2d: Sum(rhs),rhsMax =  -1.77558634462116E-10  5.66685130786548E-02
 cg2d: Sum(rhs),rhsMax =  -1.76713976784981E-10  5.69702963524319E-02
 cg2d: Sum(rhs),rhsMax =  -1.75798042789665E-10  5.72793099556313E-02
 cg2d: Sum(rhs),rhsMax =  -1.64889102372001E-10  6.11033713617581E-02
 cg2d: Sum(rhs),rhsMax =  -1.45142786678321E-10  6.94486539576500E-02
 cg2d: Sum(rhs),rhsMax =  -1.29374289059569E-10  7.79753105691003E-02
 cg2d: Sum(rhs),rhsMax =  -1.16475495914869E-10  8.66082182670784E-02
 cg2d: Sum(rhs),rhsMax =  -1.05989661491890E-10  9.51989727992184E-02
 cg2d: Sum(rhs),rhsMax =  -9.73092717515556E-11  1.03746902917100E-01
 cg2d: Sum(rhs),rhsMax =  -9.00519658841858E-11  1.12251219192918E-01
 cg2d: Sum(rhs),rhsMax =  -8.38391578383835E-11  1.20711001545882E-01
 cg2d: Sum(rhs),rhsMax =  -7.84585729718401E-11  1.29125189489939E-01
 cg2d: Sum(rhs),rhsMax =  -7.37437888531645E-11  1.37492575358266E-01
 cg2d: Sum(rhs),rhsMax =  -6.96216417850337E-11  1.45811800338368E-01
 cg2d: Sum(rhs),rhsMax =  -6.59716725692761E-11  1.54081352889618E-01
 cg2d: Sum(rhs),rhsMax =  -6.26747542753492E-11  1.62299569082937E-01
 cg2d: Sum(rhs),rhsMax =  -5.97566440774244E-11  1.70464634019492E-01
 cg2d: Sum(rhs),rhsMax =  -5.70485880757587E-11  1.78574583929904E-01
 cg2d: Sum(rhs),rhsMax =  -5.46656053757033E-11  1.86627308725441E-01
 cg2d: Sum(rhs),rhsMax =  -5.24369436760708E-11  1.94620554657467E-01
 cg2d: Sum(rhs),rhsMax =  -5.04262187561721E-11  2.02551926868270E-01
 cg2d: Sum(rhs),rhsMax =  -4.86177764713602E-11  2.10418891816556E-01
 cg2d: Sum(rhs),rhsMax =  -4.69240202249921E-11  2.18218779839953E-01
 cg2d: Sum(rhs),rhsMax =  -4.47784032076015E-11  2.29213829921553E-01
 cg2d: Sum(rhs),rhsMax =  -4.26597646097093E-11  2.41111616777368E-01
 cg2d: Sum(rhs),rhsMax =  -4.07242017885778E-11  2.53009338342623E-01
 cg2d: Sum(rhs),rhsMax =  -3.89729359895341E-11  2.64898517297940E-01
 cg2d: Sum(rhs),rhsMax =  -3.73879815995792E-11  2.76770395877237E-01
 cg2d: Sum(rhs),rhsMax =  -3.59364760171843E-11  2.88615947589675E-01
 cg2d: Sum(rhs),rhsMax =  -3.45603545781614E-11  3.00425888997221E-01
 cg2d: Sum(rhs),rhsMax =  -3.33355565373950E-11  3.12190691809612E-01
 cg2d: Sum(rhs),rhsMax =  -3.21742632536370E-11  3.23900595591434E-01
 cg2d: Sum(rhs),rhsMax =  -3.10870218456216E-11  3.35545621393680E-01
 cg2d: Sum(rhs),rhsMax =  -3.00998115321249E-11  3.47115586602760E-01
 cg2d: Sum(rhs),rhsMax =  -2.91757729087294E-11  3.58600121257381E-01
 cg2d: Sum(rhs),rhsMax =  -2.83181256222065E-11  3.69988686023413E-01
 cg2d: Sum(rhs),rhsMax =  -2.74932299149100E-11  3.81270591947317E-01
 cg2d: Sum(rhs),rhsMax =  -2.67507127560407E-11  3.92435022033767E-01
 cg2d: Sum(rhs),rhsMax =  -2.60724775102972E-11  4.03471054620303E-01
 cg2d: Sum(rhs),rhsMax =  -2.54672949395740E-11  4.14367688453217E-01
 cg2d: Sum(rhs),rhsMax =  -2.48613352127336E-11  4.25113869307236E-01
 cg2d: Sum(rhs),rhsMax =  -2.43113307263343E-11  4.35698517939824E-01
 cg2d: Sum(rhs),rhsMax =  -2.38017383580313E-11  4.46110559129072E-01
 cg2d: Sum(rhs),rhsMax =  -2.33152386286406E-11  4.56338951517777E-01
 cg2d: Sum(rhs),rhsMax =  -2.28601582108467E-11  4.66372717973884E-01
 cg2d: Sum(rhs),rhsMax =  -2.24026353023987E-11  4.76200976176042E-01
 cg2d: Sum(rhs),rhsMax =  -2.20051754595829E-11  4.85812969139604E-01
 cg2d: Sum(rhs),rhsMax =  -2.16249240736488E-11  4.95198095411173E-01
 cg2d: Sum(rhs),rhsMax =  -2.12473372229738E-11  5.04345938677741E-01
 cg2d: Sum(rhs),rhsMax =  -2.09351425084492E-11  5.13246296557514E-01
 cg2d: Sum(rhs),rhsMax =  -2.05556682786323E-11  5.21889208363004E-01
 cg2d: Sum(rhs),rhsMax =  -2.02984296038267E-11  5.30264981653709E-01
 cg2d: Sum(rhs),rhsMax =  -2.00481853340762E-11  5.38364217428167E-01
 cg2d: Sum(rhs),rhsMax =  -1.97940552837395E-11  5.46177833840970E-01
 cg2d: Sum(rhs),rhsMax =  -1.95521376866736E-11  5.53697088365767E-01
 cg2d: Sum(rhs),rhsMax =  -1.93131066694718E-11  5.60913598361288E-01
 cg2d: Sum(rhs),rhsMax =  -1.91068272314965E-11  5.67819360033908E-01
 cg2d: Sum(rhs),rhsMax =  -1.89160909158659E-11  5.74406765821731E-01
 cg2d: Sum(rhs),rhsMax =  -1.87456716815859E-11  5.80668620255571E-01
 cg2d: Sum(rhs),rhsMax =  -1.85756965365158E-11  5.86598154388478E-01
 cg2d: Sum(rhs),rhsMax =  -1.84237070044446E-11  5.92189038845663E-01
 cg2d: Sum(rhs),rhsMax =  -1.82913684199093E-11  5.97435395602737E-01
 cg2d: Sum(rhs),rhsMax =  -1.81370474194864E-11  6.02331808697543E-01
 cg2d: Sum(rhs),rhsMax =  -1.80209180911106E-11  6.06873333852610E-01
 cg2d: Sum(rhs),rhsMax =  -1.79158909929811E-11  6.11055507116481E-01
 cg2d: Sum(rhs),rhsMax =  -1.78370651582327E-11  6.14874352474377E-01
 cg2d: Sum(rhs),rhsMax =  -1.77778902710202E-11  6.18326388154544E-01
 cg2d: Sum(rhs),rhsMax =  -1.77324821493130E-11  6.21408631938550E-01
 cg2d: Sum(rhs),rhsMax =  -1.76477721325341E-11  6.24118605582636E-01
 cg2d: Sum(rhs),rhsMax =  -1.76687553476995E-11  6.26454338220675E-01
 cg2d: Sum(rhs),rhsMax =  -1.76231251813874E-11  6.28414368598676E-01
 cg2d: Sum(rhs),rhsMax =  -1.76023640108269E-11  6.29997746021144E-01
 cg2d: Sum(rhs),rhsMax =  -1.75864878215748E-11  6.31204029890927E-01
 cg2d: Sum(rhs),rhsMax =  -1.76115788619313E-11  6.32033287811558E-01
 cg2d: Sum(rhs),rhsMax =  -1.76539893814720E-11  6.32486092213873E-01
 cg2d: Sum(rhs),rhsMax =  -1.76850756261615E-11  6.32563515486918E-01
 cg2d: Sum(rhs),rhsMax =  -1.77421410896272E-11  6.32267123485147E-01
 cg2d: Sum(rhs),rhsMax =  -1.77632353270951E-11  6.31598967765864E-01
 cg2d: Sum(rhs),rhsMax =  -1.79267711786224E-11  6.30561576410825E-01
 cg2d: Sum(rhs),rhsMax =  -1.79253278886904E-11  6.29157943209437E-01
 cg2d: Sum(rhs),rhsMax =  -1.79496417729297E-11  6.27391515409280E-01
 cg2d: Sum(rhs),rhsMax =  -1.79921633147728E-11  6.25266180836242E-01
 cg2d: Sum(rhs),rhsMax =  -1.80184756004564E-11  6.22786253657734E-01
 cg2d: Sum(rhs),rhsMax =  -1.81096249107782E-11  6.19956459852356E-01
 cg2d: Sum(rhs),rhsMax =  -1.82276416182958E-11  6.16781921196397E-01
 cg2d: Sum(rhs),rhsMax =  -1.82963644235201E-11  6.13268137949821E-01
 cg2d: Sum(rhs),rhsMax =  -1.84167125993895E-11  6.09420971239299E-01
 cg2d: Sum(rhs),rhsMax =  -1.85478299385977E-11  6.05246625275741E-01
 cg2d: Sum(rhs),rhsMax =  -1.86443083194376E-11  6.00751628637340E-01
 cg2d: Sum(rhs),rhsMax =  -1.87980742083482E-11  5.95942814427699E-01
 cg2d: Sum(rhs),rhsMax =  -1.89539495210056E-11  5.90827301159662E-01
 cg2d: Sum(rhs),rhsMax =  -1.91195947962797E-11  5.85412471891475E-01
 cg2d: Sum(rhs),rhsMax =  -1.92862392722759E-11  5.79705953297155E-01
 cg2d: Sum(rhs),rhsMax =  -1.94725346958080E-11  5.73715594828109E-01
 cg2d: Sum(rhs),rhsMax =  -1.96302973876072E-11  5.67449447440905E-01
 cg2d: Sum(rhs),rhsMax =  -1.98425720299156E-11  5.60915741800891E-01
 cg2d: Sum(rhs),rhsMax =  -2.00499616909156E-11  5.54122865778537E-01
 cg2d: Sum(rhs),rhsMax =  -2.02551309058663E-11  5.47079341866460E-01
 cg2d: Sum(rhs),rhsMax =  -2.04971595252346E-11  5.39793804563465E-01
 cg2d: Sum(rhs),rhsMax =  -2.07566186460895E-11  5.32274977541713E-01
 cg2d: Sum(rhs),rhsMax =  -2.10023110014390E-11  5.24531650752763E-01
 cg2d: Sum(rhs),rhsMax =  -2.13326023512650E-11  5.16572657815059E-01
 cg2d: Sum(rhs),rhsMax =  -2.16144879772173E-11  5.08406853909204E-01
 cg2d: Sum(rhs),rhsMax =  -2.19457785277655E-11  5.00043094127820E-01
 cg2d: Sum(rhs),rhsMax =  -2.22810658812023E-11  4.91490212498347E-01
 cg2d: Sum(rhs),rhsMax =  -2.26485497023532E-11  4.82757001093300E-01
 cg2d: Sum(rhs),rhsMax =  -2.29941621299190E-11  4.73852191764560E-01
 cg2d: Sum(rhs),rhsMax =  -2.33953967310185E-11  4.64784438545412E-01
 cg2d: Sum(rhs),rhsMax =  -2.38091768522963E-11  4.55562300357266E-01
 cg2d: Sum(rhs),rhsMax =  -2.42446063225543E-11  4.46194225592168E-01
 cg2d: Sum(rhs),rhsMax =  -2.47134535058535E-11  4.36688538129450E-01
 cg2d: Sum(rhs),rhsMax =  -2.51904053172325E-11  4.27053424207492E-01
 cg2d: Sum(rhs),rhsMax =  -2.57028842653995E-11  4.17296920204136E-01
 cg2d: Sum(rhs),rhsMax =  -2.62503352388421E-11  4.07426901435204E-01
 cg2d: Sum(rhs),rhsMax =  -2.68565170102875E-11  3.97451072382248E-01
 cg2d: Sum(rhs),rhsMax =  -2.75521827575176E-11  3.87376957887412E-01
 cg2d: Sum(rhs),rhsMax =  -2.82117662564474E-11  3.77211895090493E-01
 cg2d: Sum(rhs),rhsMax =  -2.89428481181631E-11  3.66963026234199E-01
 cg2d: Sum(rhs),rhsMax =  -2.96999091986550E-11  3.56637292311677E-01
 cg2d: Sum(rhs),rhsMax =  -3.05737657413374E-11  3.46241427517510E-01
 cg2d: Sum(rhs),rhsMax =  -3.14664960754385E-11  3.35781954620955E-01
 cg2d: Sum(rhs),rhsMax =  -3.24199556089866E-11  3.25265180849549E-01
 cg2d: Sum(rhs),rhsMax =  -3.34485772413018E-11  3.14697194514914E-01
 cg2d: Sum(rhs),rhsMax =  -3.45168338355961E-11  3.04083862642878E-01
 cg2d: Sum(rhs),rhsMax =  -3.56978890891924E-11  2.93430829596995E-01
 cg2d: Sum(rhs),rhsMax =  -3.69521080401114E-11  2.82743516585573E-01
 cg2d: Sum(rhs),rhsMax =  -3.83321152597205E-11  2.72027121754515E-01
 cg2d: Sum(rhs),rhsMax =  -3.98053812133981E-11  2.61286621224157E-01
 cg2d: Sum(rhs),rhsMax =  -4.14174250451538E-11  2.50526771224466E-01
 cg2d: Sum(rhs),rhsMax =  -4.31943369960663E-11  2.39752111204435E-01
 cg2d: Sum(rhs),rhsMax =  -4.51225723452353E-11  2.28966968216956E-01
 cg2d: Sum(rhs),rhsMax =  -4.72748507007736E-11  2.18175461355735E-01
 cg2d: Sum(rhs),rhsMax =  -4.95792296106856E-11  2.07381507300497E-01
 cg2d: Sum(rhs),rhsMax =  -5.22358822863112E-11  1.96588826702775E-01
 cg2d: Sum(rhs),rhsMax =  -5.52348167204286E-11  1.85800950997378E-01
 cg2d: Sum(rhs),rhsMax =  -5.85970161282034E-11  1.75021229879737E-01
 cg2d: Sum(rhs),rhsMax =  -6.23618934270098E-11  1.64252839323199E-01
 cg2d: Sum(rhs),rhsMax =  -6.66832145057583E-11  1.53498789713594E-01
 cg2d: Sum(rhs),rhsMax =  -7.16552372992396E-11  1.42761934063013E-01
 cg2d: Sum(rhs),rhsMax =  -7.73734409875715E-11  1.32044976526182E-01
 cg2d: Sum(rhs),rhsMax =  -8.41274827578786E-11  1.21350480809438E-01
 cg2d: Sum(rhs),rhsMax =  -9.21689391475411E-11  1.10680878440842E-01
 cg2d: Sum(rhs),rhsMax =  -1.00905950262131E-10  1.00986008675988E-01
 cg2d: Sum(rhs),rhsMax =  -1.09867670516905E-10  9.26417147852216E-02
 cg2d: Sum(rhs),rhsMax =  -1.20812249093660E-10  8.42246539549770E-02
 cg2d: Sum(rhs),rhsMax =  -1.34309896537843E-10  7.57355198494822E-02
 cg2d: Sum(rhs),rhsMax =  -1.51330059594557E-10  6.71751256353738E-02
 cg2d: Sum(rhs),rhsMax =  -1.59579460756731E-10  6.36833541672821E-02
 cg2d: Sum(rhs),rhsMax =  -1.60029212104007E-10  6.34692898662062E-02
 cg2d: Sum(rhs),rhsMax =  -1.60463309306635E-10  6.32602775906660E-02
 cg2d: Sum(rhs),rhsMax =  -1.60944702010113E-10  6.30556355384822E-02
 cg2d: Sum(rhs),rhsMax =  -1.61410773635851E-10  6.28549770562642E-02
 cg2d: Sum(rhs),rhsMax =  -1.61871849257977E-10  6.26565576431461E-02
 cg2d: Sum(rhs),rhsMax =  -1.62332799980014E-10  6.24613735843574E-02
 cg2d: Sum(rhs),rhsMax =  -1.62819556448479E-10  6.22696130760527E-02
 cg2d: Sum(rhs),rhsMax =  -1.63208363490597E-10  6.20820540301434E-02
 cg2d: Sum(rhs),rhsMax =  -1.63604518821359E-10  6.19002037349751E-02
 cg2d: Sum(rhs),rhsMax =  -1.64076086051068E-10  6.17249272771190E-02
 cg2d: Sum(rhs),rhsMax =  -1.45317424760094E-10  6.96459040808407E-02
 cg2d: Sum(rhs),rhsMax =  -1.28643207197854E-10  7.86544500179975E-02
 cg2d: Sum(rhs),rhsMax =  -1.15349507723295E-10  8.76068639071661E-02
 cg2d: Sum(rhs),rhsMax =  -1.04429465075384E-10  9.67056501269348E-02
 cg2d: Sum(rhs),rhsMax =  -9.53640499901098E-11  1.05762068887648E-01
 cg2d: Sum(rhs),rhsMax =  -8.76690942064329E-11  1.14891040982923E-01
 cg2d: Sum(rhs),rhsMax =  -8.11302136582981E-11  1.24045487141062E-01
 cg2d: Sum(rhs),rhsMax =  -7.54414308801188E-11  1.33287082270511E-01
 cg2d: Sum(rhs),rhsMax =  -7.04319935707076E-11  1.42555700846275E-01
 cg2d: Sum(rhs),rhsMax =  -6.59053922547059E-11  1.51952095647240E-01
 cg2d: Sum(rhs),rhsMax =  -6.19808648849585E-11  1.61275690289999E-01
 cg2d: Sum(rhs),rhsMax =  -5.85659298835139E-11  1.70524208317500E-01
 cg2d: Sum(rhs),rhsMax =  -5.55135937219120E-11  1.79695294181285E-01
 cg2d: Sum(rhs),rhsMax =  -5.27269339301029E-11  1.88786515081921E-01
 cg2d: Sum(rhs),rhsMax =  -5.02723418449591E-11  1.97795363236756E-01
 cg2d: Sum(rhs),rhsMax =  -4.80456785467709E-11  2.06719258460943E-01
 cg2d: Sum(rhs),rhsMax =  -4.60205207275521E-11  2.15555550964148E-01
 cg2d: Sum(rhs),rhsMax =  -4.41499059533612E-11  2.24301524281573E-01
 cg2d: Sum(rhs),rhsMax =  -4.25071089438234E-11  2.32954398268619E-01
 cg2d: Sum(rhs),rhsMax =  -4.09505762632989E-11  2.41511332083385E-01
 cg2d: Sum(rhs),rhsMax =  -3.94636545664184E-11  2.49969427082018E-01
 cg2d: Sum(rhs),rhsMax =  -3.81397136095529E-11  2.58325729557702E-01
 cg2d: Sum(rhs),rhsMax =  -3.69134722788544E-11  2.66577233260552E-01
 cg2d: Sum(rhs),rhsMax =  -3.57319729360484E-11  2.74720881643507E-01
 cg2d: Sum(rhs),rhsMax =  -3.48295836616330E-11  2.82753569793390E-01
 cg2d: Sum(rhs),rhsMax =  -3.39769323787209E-11  2.90672146032511E-01
 cg2d: Sum(rhs),rhsMax =  -3.32061045327237E-11  2.98473413211668E-01
 cg2d: Sum(rhs),rhsMax =  -3.24524851436081E-11  3.06154129766649E-01
 cg2d: Sum(rhs),rhsMax =  -3.17526005488844E-11  3.13711010666829E-01
 cg2d: Sum(rhs),rhsMax =  -3.10989012319851E-11  3.21140728438139E-01
 cg2d: Sum(rhs),rhsMax =  -3.04885006130462E-11  3.28439914492868E-01
 cg2d: Sum(rhs),rhsMax =  -2.99029689898589E-11  3.35605161035424E-01
 cg2d: Sum(rhs),rhsMax =  -2.92823543190934E-11  3.42633023794297E-01
 cg2d: Sum(rhs),rhsMax =  -2.87903034745796E-11  3.49520025834961E-01
 cg2d: Sum(rhs),rhsMax =  -2.83377765697423E-11  3.56262662734129E-01
 cg2d: Sum(rhs),rhsMax =  -2.78550515986353E-11  3.62857409290207E-01
 cg2d: Sum(rhs),rhsMax =  -2.74722466997446E-11  3.69300727812333E-01
 cg2d: Sum(rhs),rhsMax =  -2.70702349425278E-11  3.75589077999298E-01
 cg2d: Sum(rhs),rhsMax =  -2.66908717350134E-11  3.81853106408014E-01
 cg2d: Sum(rhs),rhsMax =  -2.62667665396066E-11  3.88790729839375E-01
 cg2d: Sum(rhs),rhsMax =  -2.58666421615317E-11  3.95527441727177E-01
 cg2d: Sum(rhs),rhsMax =  -2.56127341557999E-11  4.02056641267798E-01
 cg2d: Sum(rhs),rhsMax =  -2.52629028807405E-11  4.08371928337637E-01
 cg2d: Sum(rhs),rhsMax =  -2.50504061938273E-11  4.14467118628862E-01
 cg2d: Sum(rhs),rhsMax =  -2.48452369788765E-11  4.20336257483592E-01
 cg2d: Sum(rhs),rhsMax =  -2.46643816481651E-11  4.25973632163140E-01
 cg2d: Sum(rhs),rhsMax =  -2.45234943463402E-11  4.31373782326385E-01
 cg2d: Sum(rhs),rhsMax =  -2.43357556328760E-11  4.36531508692037E-01
 cg2d: Sum(rhs),rhsMax =  -2.41966446878905E-11  4.41441880138643E-01
 cg2d: Sum(rhs),rhsMax =  -2.40758524228113E-11  4.46100239686402E-01
 cg2d: Sum(rhs),rhsMax =  -2.39060993223461E-11  4.50502209895330E-01
 cg2d: Sum(rhs),rhsMax =  -2.37809771874709E-11  4.54643698277227E-01
 cg2d: Sum(rhs),rhsMax =  -2.36572983425276E-11  4.58520903291466E-01
 cg2d: Sum(rhs),rhsMax =  -2.35560460026818E-11  4.62130321281454E-01
 cg2d: Sum(rhs),rhsMax =  -2.35040875651293E-11  4.65468754396403E-01
 cg2d: Sum(rhs),rhsMax =  -2.33884023259634E-11  4.68533319270380E-01
 cg2d: Sum(rhs),rhsMax =  -2.32912578113087E-11  4.71321456118609E-01
 cg2d: Sum(rhs),rhsMax =  -2.31430430375212E-11  4.73830937979899E-01
 cg2d: Sum(rhs),rhsMax =  -2.30185870364608E-11  4.76059879842218E-01
 cg2d: Sum(rhs),rhsMax =  -2.28661534151797E-11  4.78006747313453E-01
 cg2d: Sum(rhs),rhsMax =  -2.26992868945786E-11  4.79670364357043E-01
 cg2d: Sum(rhs),rhsMax =  -2.25370833106808E-11  4.81049919531652E-01
 cg2d: Sum(rhs),rhsMax =  -2.24078533506145E-11  4.82144970166950E-01
 cg2d: Sum(rhs),rhsMax =  -2.23001617172258E-11  4.82955444059334E-01
 cg2d: Sum(rhs),rhsMax =  -2.22247775738538E-11  4.83481638544088E-01
 cg2d: Sum(rhs),rhsMax =  -2.21505036535063E-11  4.83724216608525E-01
 cg2d: Sum(rhs),rhsMax =  -2.21216378548661E-11  4.83684200323787E-01
 cg2d: Sum(rhs),rhsMax =  -2.21099805131075E-11  4.83362962397032E-01
 cg2d: Sum(rhs),rhsMax =  -2.21399565347724E-11  4.82762215950479E-01
 cg2d: Sum(rhs),rhsMax =  -2.21512808096236E-11  4.81884002676754E-01
 cg2d: Sum(rhs),rhsMax =  -2.22196705479405E-11  4.80730680079604E-01
 cg2d: Sum(rhs),rhsMax =  -2.22579732422901E-11  4.79304908448499E-01
 cg2d: Sum(rhs),rhsMax =  -2.23141505273361E-11  4.77609637811434E-01
 cg2d: Sum(rhs),rhsMax =  -2.24120721981080E-11  4.75930491129538E-01
 cg2d: Sum(rhs),rhsMax =  -2.24288365657799E-11  4.74889269774240E-01
 cg2d: Sum(rhs),rhsMax =  -2.24799068249126E-11  4.73641639341300E-01
 cg2d: Sum(rhs),rhsMax =  -2.24806839810299E-11  4.72189018685590E-01
 cg2d: Sum(rhs),rhsMax =  -2.25661711539260E-11  4.70532942698303E-01
 cg2d: Sum(rhs),rhsMax =  -2.27012852960229E-11  4.68675057377379E-01
 cg2d: Sum(rhs),rhsMax =  -2.27277086040090E-11  4.66617114933898E-01
 cg2d: Sum(rhs),rhsMax =  -2.28019825243564E-11  4.64360969136655E-01
 cg2d: Sum(rhs),rhsMax =  -2.28851382289008E-11  4.61908571044005E-01
 cg2d: Sum(rhs),rhsMax =  -2.29153362951706E-11  4.59261963849512E-01
 cg2d: Sum(rhs),rhsMax =  -2.29678498442354E-11  4.56423278015483E-01
 cg2d: Sum(rhs),rhsMax =  -2.30392371847188E-11  4.53394726271885E-01
 cg2d: Sum(rhs),rhsMax =  -2.31235031122878E-11  4.50178598565062E-01
 cg2d: Sum(rhs),rhsMax =  -2.32391883514538E-11  4.46777255776383E-01
 cg2d: Sum(rhs),rhsMax =  -2.34214869720972E-11  4.43193123050178E-01
 cg2d: Sum(rhs),rhsMax =  -2.35882424703959E-11  4.39428682449833E-01
 cg2d: Sum(rhs),rhsMax =  -2.37554420579045E-11  4.35486465073579E-01
 cg2d: Sum(rhs),rhsMax =  -2.39240849353450E-11  4.31369042668106E-01
 cg2d: Sum(rhs),rhsMax =  -2.41557884805843E-11  4.27079018724377E-01
 cg2d: Sum(rhs),rhsMax =  -2.43378650566228E-11  4.22619019232849E-01
 cg2d: Sum(rhs),rhsMax =  -2.45701237133744E-11  4.17991683375820E-01
 cg2d: Sum(rhs),rhsMax =  -2.48080445075516E-11  4.13199654053447E-01
 cg2d: Sum(rhs),rhsMax =  -2.50539589075061E-11  4.08245568594531E-01
 cg2d: Sum(rhs),rhsMax =  -2.53315146636623E-11  4.03132049912984E-01
 cg2d: Sum(rhs),rhsMax =  -2.56155097133615E-11  3.97861698288471E-01
 cg2d: Sum(rhs),rhsMax =  -2.58411070319653E-11  3.92437083836174E-01
 cg2d: Sum(rhs),rhsMax =  -2.61676236235076E-11  3.86860739435768E-01
 cg2d: Sum(rhs),rhsMax =  -2.65174548985669E-11  3.81135155553873E-01
 cg2d: Sum(rhs),rhsMax =  -2.67929012309764E-11  3.75262775654927E-01
 cg2d: Sum(rhs),rhsMax =  -2.70390376755358E-11  3.69245992319014E-01
 cg2d: Sum(rhs),rhsMax =  -2.73686628915470E-11  3.63087144123537E-01
 cg2d: Sum(rhs),rhsMax =  -2.77281531069207E-11  3.56788513168245E-01
 cg2d: Sum(rhs),rhsMax =  -2.81628054210614E-11  3.50352324271299E-01
 cg2d: Sum(rhs),rhsMax =  -2.86108914338001E-11  3.43780744674710E-01
 cg2d: Sum(rhs),rhsMax =  -2.92387225542257E-11  3.37075884263391E-01
 cg2d: Sum(rhs),rhsMax =  -2.99207325582529E-11  3.30239796190585E-01
 cg2d: Sum(rhs),rhsMax =  -3.06106251457550E-11  3.23274477964755E-01
 cg2d: Sum(rhs),rhsMax =  -3.13601367096794E-11  3.16181872976006E-01
 cg2d: Sum(rhs),rhsMax =  -3.21948023795926E-11  3.08963872308396E-01
 cg2d: Sum(rhs),rhsMax =  -3.30414584581717E-11  3.01622316785227E-01
 cg2d: Sum(rhs),rhsMax =  -3.39799299808874E-11  2.94158999290095E-01
 cg2d: Sum(rhs),rhsMax =  -3.49659190490570E-11  2.86575667130575E-01
 cg2d: Sum(rhs),rhsMax =  -3.59756668899536E-11  2.78874024608607E-01
 cg2d: Sum(rhs),rhsMax =  -3.70734554167029E-11  2.71055735285140E-01
 cg2d: Sum(rhs),rhsMax =  -3.82230913587023E-11  2.63122424498930E-01
 cg2d: Sum(rhs),rhsMax =  -3.94636545664184E-11  2.55075682118412E-01
 cg2d: Sum(rhs),rhsMax =  -4.08304501320345E-11  2.46917065494989E-01
 cg2d: Sum(rhs),rhsMax =  -4.23173718289149E-11  2.38648102615447E-01
 cg2d: Sum(rhs),rhsMax =  -4.39253078354795E-11  2.30270295478526E-01
 cg2d: Sum(rhs),rhsMax =  -4.56611415344810E-11  2.21785123459144E-01
 cg2d: Sum(rhs),rhsMax =  -4.75900430174647E-11  2.13194047176028E-01
 cg2d: Sum(rhs),rhsMax =  -4.97276664290780E-11  2.04498512827564E-01
 cg2d: Sum(rhs),rhsMax =  -5.20152809713181E-11  1.95699956990766E-01
 cg2d: Sum(rhs),rhsMax =  -5.46435119375133E-11  1.86799811934754E-01
 cg2d: Sum(rhs),rhsMax =  -5.75099967647930E-11  1.77799511471980E-01
 cg2d: Sum(rhs),rhsMax =  -6.07354166959340E-11  1.68700497003682E-01
 cg2d: Sum(rhs),rhsMax =  -6.43771702613094E-11  1.59504224232047E-01
 cg2d: Sum(rhs),rhsMax =  -6.84954315488540E-11  1.50212170492393E-01
 cg2d: Sum(rhs),rhsMax =  -7.31790184005376E-11  1.40825842852916E-01
 cg2d: Sum(rhs),rhsMax =  -7.84983189561217E-11  1.31346786567448E-01
 cg2d: Sum(rhs),rhsMax =  -8.47424352912185E-11  1.21776594158612E-01
 cg2d: Sum(rhs),rhsMax =  -9.21162035538714E-11  1.12116915143416E-01
 cg2d: Sum(rhs),rhsMax =  -1.00974284489297E-10  1.02369466189389E-01
 cg2d: Sum(rhs),rhsMax =  -1.11821940596002E-10  9.25360416100507E-02
 cg2d: Sum(rhs),rhsMax =  -1.25370047676654E-10  8.26185240977326E-02
 cg2d: Sum(rhs),rhsMax =  -1.42700462557599E-10  7.26188954876055E-02
 cg2d: Sum(rhs),rhsMax =  -1.65718411215821E-10  6.25392476554184E-02
 cg2d: Sum(rhs),rhsMax =  -1.79623024787468E-10  5.77246854550557E-02
 cg2d: Sum(rhs),rhsMax =  -1.78518075322209E-10  5.81017985024103E-02
 cg2d: Sum(rhs),rhsMax =  -1.77414111179885E-10  5.84791675185255E-02
 cg2d: Sum(rhs),rhsMax =  -1.76339054469565E-10  5.88578989922636E-02
 cg2d: Sum(rhs),rhsMax =  -1.75222836240607E-10  5.92381282559387E-02
 cg2d: Sum(rhs),rhsMax =  -1.74206760128470E-10  5.96199718699782E-02
 cg2d: Sum(rhs),rhsMax =  -1.73100200839826E-10  6.00036340705772E-02
 cg2d: Sum(rhs),rhsMax =  -1.72089564820510E-10  6.03892575421483E-02
 cg2d: Sum(rhs),rhsMax =  -1.71021863337728E-10  6.07773704214144E-02
 cg2d: Sum(rhs),rhsMax =  -1.53068668851120E-10  6.79297698092304E-02
 cg2d: Sum(rhs),rhsMax =  -1.36933131500427E-10  7.59382805663916E-02
 cg2d: Sum(rhs),rhsMax =  -1.23884680292008E-10  8.39635212234163E-02
 cg2d: Sum(rhs),rhsMax =  -1.13172360372005E-10  9.19435952159995E-02
 cg2d: Sum(rhs),rhsMax =  -1.04271258294375E-10  9.98768738575748E-02
 cg2d: Sum(rhs),rhsMax =  -9.67208535485042E-11  1.07761701930395E-01
 cg2d: Sum(rhs),rhsMax =  -9.02440344674460E-11  1.15596393405656E-01
 cg2d: Sum(rhs),rhsMax =  -8.45672420979326E-11  1.23379227220556E-01
 cg2d: Sum(rhs),rhsMax =  -7.91552379197924E-11  1.31985660471696E-01
 cg2d: Sum(rhs),rhsMax =  -7.36479766061393E-11  1.42036351584183E-01
 cg2d: Sum(rhs),rhsMax =  -6.87508938668202E-11  1.52275049589244E-01
 cg2d: Sum(rhs),rhsMax =  -6.44205799815722E-11  1.62699887585567E-01
 cg2d: Sum(rhs),rhsMax =  -6.04775118873135E-11  1.73332866486801E-01
 cg2d: Sum(rhs),rhsMax =  -5.69306823905436E-11  1.84260800949375E-01
 cg2d: Sum(rhs),rhsMax =  -5.37826450042189E-11  1.95216190669167E-01
 cg2d: Sum(rhs),rhsMax =  -5.10395059549751E-11  2.06144838220755E-01
 cg2d: Sum(rhs),rhsMax =  -4.85693707474866E-11  2.17040166008563E-01
 cg2d: Sum(rhs),rhsMax =  -4.63745708501051E-11  2.27895455099785E-01
 cg2d: Sum(rhs),rhsMax =  -4.43288739049308E-11  2.38703854448336E-01
 cg2d: Sum(rhs),rhsMax =  -4.25159907280204E-11  2.49458390785032E-01
 cg2d: Sum(rhs),rhsMax =  -4.08459932543792E-11  2.60151979100630E-01
 cg2d: Sum(rhs),rhsMax =  -3.93001187148911E-11  2.70777433640173E-01
 cg2d: Sum(rhs),rhsMax =  -3.78943543211108E-11  2.81327479322548E-01
 cg2d: Sum(rhs),rhsMax =  -3.65929508916452E-11  2.91794763499379E-01
 cg2d: Sum(rhs),rhsMax =  -3.53986839840559E-11  3.02171867961890E-01
 cg2d: Sum(rhs),rhsMax =  -3.42786909968140E-11  3.12451321110652E-01
 cg2d: Sum(rhs),rhsMax =  -3.32378569112279E-11  3.22625610219471E-01
 cg2d: Sum(rhs),rhsMax =  -3.22787352402543E-11  3.32687193741280E-01
 cg2d: Sum(rhs),rhsMax =  -3.14215320429412E-11  3.42628513619722E-01
 cg2d: Sum(rhs),rhsMax =  -3.05496739017030E-11  3.52442007587309E-01
 cg2d: Sum(rhs),rhsMax =  -2.97630808887561E-11  3.62120121440761E-01
 cg2d: Sum(rhs),rhsMax =  -2.90385493428857E-11  3.71655321298521E-01
 cg2d: Sum(rhs),rhsMax =  -2.84127166239045E-11  3.81040105861325E-01
 cg2d: Sum(rhs),rhsMax =  -2.78148615251439E-11  3.90267018711023E-01
 cg2d: Sum(rhs),rhsMax =  -2.72706301984726E-11  3.99328660692099E-01
 cg2d: Sum(rhs),rhsMax =  -2.67169619760921E-11  4.08217702421318E-01
 cg2d: Sum(rhs),rhsMax =  -2.62199151279674E-11  4.16926896965747E-01
 cg2d: Sum(rhs),rhsMax =  -2.57629473310317E-11  4.25449092717680E-01
 cg2d: Sum(rhs),rhsMax =  -2.53278509276811E-11  4.33777246478201E-01
 cg2d: Sum(rhs),rhsMax =  -2.48966403049167E-11  4.41904436742808E-01
 cg2d: Sum(rhs),rhsMax =  -2.45472531190671E-11  4.49823877162537E-01
 cg2d: Sum(rhs),rhsMax =  -2.41575648374237E-11  4.57528930133688E-01
 cg2d: Sum(rhs),rhsMax =  -2.38024044918461E-11  4.65013120445593E-01
 cg2d: Sum(rhs),rhsMax =  -2.35242936241775E-11  4.72270148895202E-01
 cg2d: Sum(rhs),rhsMax =  -2.31900054714629E-11  4.79293905757634E-01
 cg2d: Sum(rhs),rhsMax =  -2.29254393246947E-11  4.86078483985347E-01
 cg2d: Sum(rhs),rhsMax =  -2.26568763750379E-11  4.92618191997419E-01
 cg2d: Sum(rhs),rhsMax =  -2.23981944103002E-11  4.98907565907741E-01
 cg2d: Sum(rhs),rhsMax =  -2.21592744154009E-11  5.04941381096746E-01
 cg2d: Sum(rhs),rhsMax =  -2.19493312414443E-11  5.10714662976251E-01
 cg2d: Sum(rhs),rhsMax =  -2.17840190330776E-11  5.16222696811136E-01
 cg2d: Sum(rhs),rhsMax =  -2.16565654298506E-11  5.21461036609986E-01
 cg2d: Sum(rhs),rhsMax =  -2.15105711021124E-11  5.26425513058727E-01
 cg2d: Sum(rhs),rhsMax =  -2.13599138376708E-11  5.31112240401104E-01
 cg2d: Sum(rhs),rhsMax =  -2.12689865719540E-11  5.35517622228998E-01
 cg2d: Sum(rhs),rhsMax =  -2.11762829493978E-11  5.39638356448554E-01
 cg2d: Sum(rhs),rhsMax =  -2.10358397367827E-11  5.43471439234629E-01
 cg2d: Sum(rhs),rhsMax =  -2.09740003143111E-11  5.47014168023483E-01
 cg2d: Sum(rhs),rhsMax =  -2.08840722493164E-11  5.50264143884336E-01
 cg2d: Sum(rhs),rhsMax =  -2.08414396851708E-11  5.53219273374623E-01
 cg2d: Sum(rhs),rhsMax =  -2.07640571403545E-11  5.55877769975604E-01
 cg2d: Sum(rhs),rhsMax =  -2.07406314345349E-11  5.58238155110301E-01
 cg2d: Sum(rhs),rhsMax =  -2.07478478841949E-11  5.60299258789113E-01
 cg2d: Sum(rhs),rhsMax =  -2.07541761554353E-11  5.62060219915434E-01
 cg2d: Sum(rhs),rhsMax =  -2.07756034598106E-11  5.63520486259927E-01
 cg2d: Sum(rhs),rhsMax =  -2.07442951705161E-11  5.64679814089102E-01
 cg2d: Sum(rhs),rhsMax =  -2.07399653007201E-11  5.65538267410588E-01
 cg2d: Sum(rhs),rhsMax =  -2.07943662289267E-11  5.66096216778164E-01
 cg2d: Sum(rhs),rhsMax =  -2.06967776250622E-11  5.66354337479705E-01
 cg2d: Sum(rhs),rhsMax =  -2.06343830910782E-11  5.66313607330811E-01
 cg2d: Sum(rhs),rhsMax =  -2.06117345413759E-11  5.65975303795478E-01
 cg2d: Sum(rhs),rhsMax =  -2.06281658421403E-11  5.65341000347649E-01
 cg2d: Sum(rhs),rhsMax =  -2.06085148946045E-11  5.64412561804276E-01
 cg2d: Sum(rhs),rhsMax =  -2.06747952091746E-11  5.63192138983214E-01
 cg2d: Sum(rhs),rhsMax =  -2.07424077913743E-11  5.61682163027176E-01
 cg2d: Sum(rhs),rhsMax =  -2.07929229389947E-11  5.59885338123665E-01
 cg2d: Sum(rhs),rhsMax =  -2.08424388858930E-11  5.57804634496222E-01
 cg2d: Sum(rhs),rhsMax =  -2.09415818019920E-11  5.55443279984931E-01
 cg2d: Sum(rhs),rhsMax =  -2.10103046072163E-11  5.52804750757503E-01
 cg2d: Sum(rhs),rhsMax =  -2.11053396981242E-11  5.49892761214226E-01
 cg2d: Sum(rhs),rhsMax =  -2.12052597703405E-11  5.46711253548247E-01
 cg2d: Sum(rhs),rhsMax =  -2.13262740800246E-11  5.43264387586371E-01
 cg2d: Sum(rhs),rhsMax =  -2.14492867911531E-11  5.39556528821457E-01
 cg2d: Sum(rhs),rhsMax =  -2.15858442231820E-11  5.35592236472226E-01
 cg2d: Sum(rhs),rhsMax =  -2.16945350572928E-11  5.31376252310895E-01
 cg2d: Sum(rhs),rhsMax =  -2.18512985483699E-11  5.26913488472386E-01
 cg2d: Sum(rhs),rhsMax =  -2.20068407941199E-11  5.22209015507493E-01
 cg2d: Sum(rhs),rhsMax =  -2.21643814413142E-11  5.17268050636577E-01
 cg2d: Sum(rhs),rhsMax =  -2.23479013072847E-11  5.12095946646938E-01
 cg2d: Sum(rhs),rhsMax =  -2.25199858761016E-11  5.06698181134820E-01
 cg2d: Sum(rhs),rhsMax =  -2.27496910198965E-11  5.01080345691296E-01
 cg2d: Sum(rhs),rhsMax =  -2.29540830787300E-11  4.95248135570045E-01
 cg2d: Sum(rhs),rhsMax =  -2.32422969759227E-11  4.89207339756181E-01
 cg2d: Sum(rhs),rhsMax =  -2.35018671190801E-11  4.82963831029492E-01
 cg2d: Sum(rhs),rhsMax =  -2.37878605702235E-11  4.76523556337126E-01
 cg2d: Sum(rhs),rhsMax =  -2.40655273486823E-11  4.69892527116258E-01
 cg2d: Sum(rhs),rhsMax =  -2.43512987552208E-11  4.63076809337871E-01
 cg2d: Sum(rhs),rhsMax =  -2.46902498446389E-11  4.56082513178569E-01
 cg2d: Sum(rhs),rhsMax =  -2.50249820865633E-11  4.48915782063214E-01
 cg2d: Sum(rhs),rhsMax =  -2.53860266141714E-11  4.41582781114665E-01
 cg2d: Sum(rhs),rhsMax =  -2.57882604159931E-11  4.34089686022004E-01
 cg2d: Sum(rhs),rhsMax =  -2.61827226566425E-11  4.26442671148026E-01
 cg2d: Sum(rhs),rhsMax =  -2.65913957520070E-11  4.18647896817820E-01
 cg2d: Sum(rhs),rhsMax =  -2.70167221927409E-11  4.10711496529845E-01
 cg2d: Sum(rhs),rhsMax =  -2.74519296183939E-11  4.02639565020662E-01
(PID.TID 0000.0001)      cg2d_init_res =   9.40875658001565E-02
(PID.TID 0000.0001)      cg2d_iters(min,last) =      -1      37
(PID.TID 0000.0001)      cg2d_last_res =   8.71616603225296E-14
(PID.TID 0000.0001) // =======================================================
(PID.TID 0000.0001) // Begin MONITOR dynamic field statistics
(PID.TID 0000.0001) // =======================================================
(PID.TID 0000.0001) %MON time_tsnumber                =                  1920
(PID.TID 0000.0001) %MON time_secondsf                =   2.8800000000000E+04
(PID.TID 0000.0001) %MON dynstat_eta_max              =   6.7983515404724E-02
(PID.TID 0000.0001) %MON dynstat_eta_min              =  -6.7667580843727E-02
(PID.TID 0000.0001) %MON dynstat_eta_mean             =   2.3634725786324E-14
(PID.TID 0000.0001) %MON dynstat_eta_sd               =   4.8184138787931E-02
(PID.TID 0000.0001) %MON dynstat_eta_del2             =   2.7590011516045E-05
(PID.TID 0000.0001) %MON dynstat_uvel_max             =   1.4039346443907E+00
(PID.TID 0000.0001) %MON dynstat_uvel_min             =   4.7257575717933E-02
(PID.TID 0000.0001) %MON dynstat_uvel_mean            =   6.8900089588613E-01
(PID.TID 0000.0001) %MON dynstat_uvel_sd              =   1.1027314405244E-01
(PID.TID 0000.0001) %MON dynstat_uvel_del2            =   9.3266143578134E-04
(PID.TID 0000.0001) %MON dynstat_vvel_max             =   0.0000000000000E+00
(PID.TID 0000.0001) %MON dynstat_vvel_min             =   0.0000000000000E+00
(PID.TID 0000.0001) %MON dynstat_vvel_mean            =   0.0000000000000E+00
(PID.TID 0000.0001) %MON dynstat_vvel_sd              =   0.0000000000000E+00
(PID.TID 0000.0001) %MON dynstat_vvel_del2            =   0.0000000000000E+00
(PID.TID 0000.0001) %MON dynstat_wvel_max             =   3.3966719586907E-02
(PID.TID 0000.0001) %MON dynstat_wvel_min             =  -3.2850552181703E-02
(PID.TID 0000.0001) %MON dynstat_wvel_mean            =   6.7610019321199E-20
(PID.TID 0000.0001) %MON dynstat_wvel_sd              =   3.9111203229490E-03
(PID.TID 0000.0001) %MON dynstat_wvel_del2            =   8.8120199304771E-05
(PID.TID 0000.0001) %MON dynstat_theta_max            =   1.5000000000005E+01
(PID.TID 0000.0001) %MON dynstat_theta_min            =   9.9999999999966E+00
(PID.TID 0000.0001) %MON dynstat_theta_mean           =   1.3331545172606E+01
(PID.TID 0000.0001) %MON dynstat_theta_sd             =   2.2789643382356E+00
(PID.TID 0000.0001) %MON dynstat_theta_del2           =   1.1356264542502E-03
(PID.TID 0000.0001) %MON dynstat_salt_max             =   3.5000000000000E+01
(PID.TID 0000.0001) %MON dynstat_salt_min             =   3.5000000000000E+01
(PID.TID 0000.0001) %MON dynstat_salt_mean            =   3.5000000000000E+01
(PID.TID 0000.0001) %MON dynstat_salt_sd              =   2.1316282072803E-14
(PID.TID 0000.0001) %MON dynstat_salt_del2            =   0.0000000000000E+00
(PID.TID 0000.0001) %MON dynstat_sst_max              =   1.5000000000000E+01
(PID.TID 0000.0001) %MON dynstat_sst_min              =   1.4999999999148E+01
(PID.TID 0000.0001) %MON dynstat_sst_mean             =   1.4999999999990E+01
(PID.TID 0000.0001) %MON dynstat_sst_sd               =   6.9068323462890E-11
(PID.TID 0000.0001) %MON dynstat_sst_del2             =   4.9791672235286E-12
(PID.TID 0000.0001) %MON dynstat_sss_max              =   3.5000000000000E+01
(PID.TID 0000.0001) %MON dynstat_sss_min              =   3.5000000000000E+01
(PID.TID 0000.0001) %MON dynstat_sss_mean             =   3.5000000000000E+01
(PID.TID 0000.0001) %MON dynstat_sss_sd               =   7.8159700933611E-14
(PID.TID 0000.0001) %MON dynstat_sss_del2             =   0.0000000000000E+00
(PID.TID 0000.0001) %MON forcing_qnet_max             =   0.0000000000000E+00
(PID.TID 0000.0001) %MON forcing_qnet_min             =   0.0000000000000E+00
(PID.TID 0000.0001) %MON forcing_qnet_mean            =   0.0000000000000E+00
(PID.TID 0000.0001) %MON forcing_qnet_sd              =   0.0000000000000E+00
(PID.TID 0000.0001) %MON forcing_qnet_del2            =   0.0000000000000E+00
(PID.TID 0000.0001) %MON forcing_qsw_max              =   0.0000000000000E+00
(PID.TID 0000.0001) %MON forcing_qsw_min              =   0.0000000000000E+00
(PID.TID 0000.0001) %MON forcing_qsw_mean             =   0.0000000000000E+00
(PID.TID 0000.0001) %MON forcing_qsw_sd               =   0.0000000000000E+00
(PID.TID 0000.0001) %MON forcing_qsw_del2             =   0.0000000000000E+00
(PID.TID 0000.0001) %MON forcing_empmr_max            =   0.0000000000000E+00
(PID.TID 0000.0001) %MON forcing_empmr_min            =   0.0000000000000E+00
(PID.TID 0000.0001) %MON forcing_empmr_mean           =   0.0000000000000E+00
(PID.TID 0000.0001) %MON forcing_empmr_sd             =   0.0000000000000E+00
(PID.TID 0000.0001) %MON forcing_empmr_del2           =   0.0000000000000E+00
(PID.TID 0000.0001) %MON forcing_fu_max               =   0.0000000000000E+00
(PID.TID 0000.0001) %MON forcing_fu_min               =   0.0000000000000E+00
(PID.TID 0000.0001) %MON forcing_fu_mean              =   0.0000000000000E+00
(PID.TID 0000.0001) %MON forcing_fu_sd                =   0.0000000000000E+00
(PID.TID 0000.0001) %MON forcing_fu_del2              =   0.0000000000000E+00
(PID.TID 0000.0001) %MON forcing_fv_max               =   0.0000000000000E+00
(PID.TID 0000.0001) %MON forcing_fv_min               =   0.0000000000000E+00
(PID.TID 0000.0001) %MON forcing_fv_mean              =   0.0000000000000E+00
(PID.TID 0000.0001) %MON forcing_fv_sd                =   0.0000000000000E+00
(PID.TID 0000.0001) %MON forcing_fv_del2              =   0.0000000000000E+00
(PID.TID 0000.0001) %MON advcfl_uvel_max              =   1.0264810824920E-01
(PID.TID 0000.0001) %MON advcfl_vvel_max              =   0.0000000000000E+00
(PID.TID 0000.0001) %MON advcfl_wvel_max              =   4.0944106541408E-01
(PID.TID 0000.0001) %MON advcfl_W_hf_max              =   4.1218209197750E-01
(PID.TID 0000.0001) %MON pe_b_mean                    =   5.8003592217866E-05
(PID.TID 0000.0001) %MON ke_max                       =   9.0071334672453E-01
(PID.TID 0000.0001) %MON ke_mean                      =   2.4352613077488E-01
(PID.TID 0000.0001) %MON ke_vol                       =   9.5889217545975E+10
(PID.TID 0000.0001) %MON vort_r_min                   =   0.0000000000000E+00
(PID.TID 0000.0001) %MON vort_r_max                   =   0.0000000000000E+00
(PID.TID 0000.0001) %MON vort_a_mean                  =   0.0000000000000E+00
(PID.TID 0000.0001) %MON vort_a_sd                    =   0.0000000000000E+00
(PID.TID 0000.0001) %MON vort_p_mean                  =   0.0000000000000E+00
(PID.TID 0000.0001) %MON vort_p_sd                    =   0.0000000000000E+00
(PID.TID 0000.0001) %MON surfExpan_theta_mean         =  -3.9168445198884E-16
(PID.TID 0000.0001) %MON surfExpan_salt_mean          =   4.2010883714002E-18
(PID.TID 0000.0001) // =======================================================
(PID.TID 0000.0001) // End MONITOR dynamic field statistics
(PID.TID 0000.0001) // =======================================================
(PID.TID 0000.0001) // =======================================================
(PID.TID 0000.0001) // Begin OBCS MONITOR field statistics
(PID.TID 0000.0001) // =======================================================
(PID.TID 0000.0001) %MON obc_E_uVel_max               =   6.6809804669674E-01
(PID.TID 0000.0001) %MON obc_E_uVel_min               =   6.6809804669674E-01
(PID.TID 0000.0001) %MON obc_E_uVel_mean              =   6.6809804669674E-01
(PID.TID 0000.0001) %MON obc_E_uVel_sd                =   1.6660004686563E-08
(PID.TID 0000.0001) %MON obc_E_uVel_Int               =   6.6809804669674E+05
(PID.TID 0000.0001) %MON obc_W_uVel_max               =   6.6809804669674E-01
(PID.TID 0000.0001) %MON obc_W_uVel_min               =   6.6809804669674E-01
(PID.TID 0000.0001) %MON obc_W_uVel_mean              =   6.6809804669674E-01
(PID.TID 0000.0001) %MON obc_W_uVel_sd                =   1.6660004686563E-08
(PID.TID 0000.0001) %MON obc_W_uVel_Int               =   6.6809804669674E+05
(PID.TID 0000.0001) // =======================================================
(PID.TID 0000.0001) // End OBCS MONITOR field statistics
(PID.TID 0000.0001) // =======================================================
 cg2d: Sum(rhs),rhsMax =  -2.79544165593393E-11  3.94438146422599E-01
 cg2d: Sum(rhs),rhsMax =  -2.84868795219495E-11  3.86113222866030E-01
 cg2d: Sum(rhs),rhsMax =  -2.90325541385528E-11  3.77670703948258E-01
 cg2d: Sum(rhs),rhsMax =  -2.96062063753766E-11  3.69116417216494E-01
 cg2d: Sum(rhs),rhsMax =  -3.02486924397272E-11  3.60456100242138E-01
 cg2d: Sum(rhs),rhsMax =  -3.09823278143995E-11  3.51695394009454E-01
 cg2d: Sum(rhs),rhsMax =  -3.17192938581456E-11  3.42839837593985E-01
 cg2d: Sum(rhs),rhsMax =  -3.25300897330294E-11  3.33894864065261E-01
 cg2d: Sum(rhs),rhsMax =  -3.33704175403682E-11  3.24865797504745E-01
 cg2d: Sum(rhs),rhsMax =  -3.42660344543333E-11  3.15757851115528E-01
 cg2d: Sum(rhs),rhsMax =  -3.52471385411945E-11  3.06576125877967E-01
 cg2d: Sum(rhs),rhsMax =  -3.62682106569423E-11  2.97325609759585E-01
 cg2d: Sum(rhs),rhsMax =  -3.73612252246858E-11  2.88011177479085E-01
 cg2d: Sum(rhs),rhsMax =  -3.85292908688939E-11  2.78637590563090E-01
 cg2d: Sum(rhs),rhsMax =  -3.98150401537123E-11  2.69209497668601E-01
 cg2d: Sum(rhs),rhsMax =  -4.11818357193283E-11  2.59731434542708E-01
 cg2d: Sum(rhs),rhsMax =  -4.26702007061408E-11  2.50207823912595E-01
 cg2d: Sum(rhs),rhsMax =  -4.42488268248553E-11  2.40642975547913E-01
 cg2d: Sum(rhs),rhsMax =  -4.60435023441619E-11  2.31041086451718E-01
 cg2d: Sum(rhs),rhsMax =  -4.79284389953705E-11  2.21406241313374E-01
 cg2d: Sum(rhs),rhsMax =  -5.00077756981909E-11  2.11742412987015E-01
 cg2d: Sum(rhs),rhsMax =  -5.22822896087405E-11  2.02053463102987E-01
 cg2d: Sum(rhs),rhsMax =  -5.48002754285903E-11  1.92343143274639E-01
 cg2d: Sum(rhs),rhsMax =  -5.76220182679776E-11  1.82615096803438E-01
 cg2d: Sum(rhs),rhsMax =  -6.07193184620769E-11  1.72872860730357E-01
 cg2d: Sum(rhs),rhsMax =  -6.43018971402398E-11  1.63119868598846E-01
 cg2d: Sum(rhs),rhsMax =  -6.83103573706489E-11  1.53359453799911E-01
 cg2d: Sum(rhs),rhsMax =  -7.29112326069981E-11  1.43594853466134E-01
 cg2d: Sum(rhs),rhsMax =  -7.81552600415125E-11  1.33829212932651E-01
 cg2d: Sum(rhs),rhsMax =  -8.42351743912673E-11  1.24065590449778E-01
 cg2d: Sum(rhs),rhsMax =  -9.13489284215530E-11  1.14306962101232E-01
 cg2d: Sum(rhs),rhsMax =  -9.97669724611683E-11  1.04556226768421E-01
 cg2d: Sum(rhs),rhsMax =  -1.09944275905605E-10  9.48162110730965E-02
 cg2d: Sum(rhs),rhsMax =  -1.22408305713861E-10  8.50896742932393E-02
 cg2d: Sum(rhs),rhsMax =  -1.38083766643149E-10  7.53793128508833E-02
 cg2d: Sum(rhs),rhsMax =  -1.58424939833424E-10  6.56877643184584E-02
 cg2d: Sum(rhs),rhsMax =  -1.73213554610641E-10  6.00391048016357E-02
 cg2d: Sum(rhs),rhsMax =  -1.73776104617218E-10  5.98250400435271E-02
 cg2d: Sum(rhs),rhsMax =  -1.74340319958333E-10  5.96179668769122E-02
 cg2d: Sum(rhs),rhsMax =  -1.74899372762383E-10  5.94178234843642E-02
 cg2d: Sum(rhs),rhsMax =  -1.75426589921202E-10  5.92245621490980E-02
 cg2d: Sum(rhs),rhsMax =  -1.75963077442276E-10  5.90380313667906E-02
 cg2d: Sum(rhs),rhsMax =  -1.76448050615008E-10  5.88586867908487E-02
 cg2d: Sum(rhs),rhsMax =  -1.76958170339248E-10  5.86868518283628E-02
 cg2d: Sum(rhs),rhsMax =  -1.77376113796868E-10  5.85221912624804E-02
 cg2d: Sum(rhs),rhsMax =  -1.77848846760753E-10  5.83646840611202E-02
 cg2d: Sum(rhs),rhsMax =  -1.73964509464497E-10  5.96420147400028E-02
 cg2d: Sum(rhs),rhsMax =  -1.54821822029305E-10  6.69827020069585E-02
 cg2d: Sum(rhs),rhsMax =  -1.39426137302223E-10  7.43383304343543E-02
 cg2d: Sum(rhs),rhsMax =  -1.26758936680460E-10  8.16915518879369E-02
 cg2d: Sum(rhs),rhsMax =  -1.16191611887473E-10  8.90388619296652E-02
 cg2d: Sum(rhs),rhsMax =  -1.07211572952792E-10  9.63766813616671E-02
 cg2d: Sum(rhs),rhsMax =  -9.95962201599809E-11  1.03701354731423E-01
 cg2d: Sum(rhs),rhsMax =  -9.28854770876342E-11  1.11009152504000E-01
 cg2d: Sum(rhs),rhsMax =  -8.71003269509174E-11  1.18296275015603E-01
 cg2d: Sum(rhs),rhsMax =  -8.20046253124929E-11  1.25558857877042E-01
 cg2d: Sum(rhs),rhsMax =  -7.73822117494660E-11  1.32792989148137E-01
 cg2d: Sum(rhs),rhsMax =  -7.32987004425922E-11  1.39994714911167E-01
 cg2d: Sum(rhs),rhsMax =  -6.96268598332495E-11  1.47160010516587E-01
 cg2d: Sum(rhs),rhsMax =  -6.57865983910710E-11  1.55541505037848E-01
 cg2d: Sum(rhs),rhsMax =  -6.22079054934943E-11  1.64276454709639E-01
 cg2d: Sum(rhs),rhsMax =  -5.89848170307050E-11  1.72964725886357E-01
 cg2d: Sum(rhs),rhsMax =  -5.61530821840961E-11  1.81601044838284E-01
 cg2d: Sum(rhs),rhsMax =  -5.35458344330664E-11  1.90180074374691E-01
 cg2d: Sum(rhs),rhsMax =  -5.11762854316089E-11  1.98696420731251E-01
 cg2d: Sum(rhs),rhsMax =  -4.90177898271327E-11  2.07144642339173E-01
 cg2d: Sum(rhs),rhsMax =  -4.70334882152201E-11  2.15519260091429E-01
 cg2d: Sum(rhs),rhsMax =  -4.52721193866523E-11  2.23814768447840E-01
 cg2d: Sum(rhs),rhsMax =  -4.36121139202328E-11  2.32025646693447E-01
 cg2d: Sum(rhs),rhsMax =  -4.20788959232254E-11  2.40146369801461E-01
 cg2d: Sum(rhs),rhsMax =  -4.06851219381110E-11  2.48171418556390E-01
 cg2d: Sum(rhs),rhsMax =  -3.93969301626385E-11  2.56095288785339E-01
 cg2d: Sum(rhs),rhsMax =  -3.81428222340219E-11  2.63912499681687E-01
 cg2d: Sum(rhs),rhsMax =  -3.69644315156847E-11  2.71617601284925E-01
 cg2d: Sum(rhs),rhsMax =  -3.58828522450949E-11  2.79205181229331E-01
 cg2d: Sum(rhs),rhsMax =  -3.48755468948525E-11  2.86669870918786E-01
 cg2d: Sum(rhs),rhsMax =  -3.39280825656374E-11  2.94006351319792E-01
 cg2d: Sum(rhs),rhsMax =  -3.30562244243993E-11  3.01209358567680E-01
 cg2d: Sum(rhs),rhsMax =  -3.22479820624721E-11  3.08273689474858E-01
 cg2d: Sum(rhs),rhsMax =  -3.14523962430258E-11  3.15194206963140E-01
 cg2d: Sum(rhs),rhsMax =  -3.07420755518706E-11  3.21965845604297E-01
 cg2d: Sum(rhs),rhsMax =  -3.00875990788541E-11  3.28583617673124E-01
 cg2d: Sum(rhs),rhsMax =  -2.94618773821753E-11  3.35042620085710E-01
 cg2d: Sum(rhs),rhsMax =  -2.88641333057171E-11  3.41338042267893E-01
 cg2d: Sum(rhs),rhsMax =  -2.82993628530903E-11  3.47465174620979E-01
 cg2d: Sum(rhs),rhsMax =  -2.77549094818141E-11  3.53419417089064E-01
 cg2d: Sum(rhs),rhsMax =  -2.72726285999170E-11  3.59196287461120E-01
 cg2d: Sum(rhs),rhsMax =  -2.67859068259213E-11  3.64791429342763E-01
 cg2d: Sum(rhs),rhsMax =  -2.63562505153914E-11  3.70200620061561E-01
 cg2d: Sum(rhs),rhsMax =  -2.59755550402474E-11  3.75419778878763E-01
 cg2d: Sum(rhs),rhsMax =  -2.55810927995981E-11  3.80444975817938E-01
 cg2d: Sum(rhs),rhsMax =  -2.52210474727121E-11  3.85272441195865E-01
 cg2d: Sum(rhs),rhsMax =  -2.48805420710596E-11  3.89898575691453E-01
 cg2d: Sum(rhs),rhsMax =  -2.45081732686003E-11  3.94319960574414E-01
 cg2d: Sum(rhs),rhsMax =  -2.41224817898456E-11  3.98533367002953E-01
 cg2d: Sum(rhs),rhsMax =  -2.37941888414639E-11  4.02535764503456E-01
 cg2d: Sum(rhs),rhsMax =  -2.34755548333965E-11  4.06324329099357E-01
 cg2d: Sum(rhs),rhsMax =  -2.31905605829752E-11  4.09896450326299E-01
 cg2d: Sum(rhs),rhsMax =  -2.28803642698949E-11  4.13249735941101E-01
 cg2d: Sum(rhs),rhsMax =  -2.26462182340015E-11  4.16382013914076E-01
 cg2d: Sum(rhs),rhsMax =  -2.23564500245743E-11  4.19291332336407E-01
 cg2d: Sum(rhs),rhsMax =  -2.21460627614078E-11  4.21975958324544E-01
 cg2d: Sum(rhs),rhsMax =  -2.19662066314186E-11  4.24434376747084E-01
 cg2d: Sum(rhs),rhsMax =  -2.17506013200364E-11  4.26665289103347E-01
 cg2d: Sum(rhs),rhsMax =  -2.16318074564015E-11  4.28667612479262E-01
 cg2d: Sum(rhs),rhsMax =  -2.14478435012211E-11  4.30440478415741E-01
 cg2d: Sum(rhs),rhsMax =  -2.13367101764561E-11  4.31983231398556E-01
 cg2d: Sum(rhs),rhsMax =  -2.12387885056842E-11  4.33295426967948E-01
 cg2d: Sum(rhs),rhsMax =  -2.11257678017773E-11  4.34376830184624E-01
 cg2d: Sum(rhs),rhsMax =  -2.10698125613362E-11  4.35227414969351E-01
 cg2d: Sum(rhs),rhsMax =  -2.09349204638443E-11  4.36105098654654E-01
 cg2d: Sum(rhs),rhsMax =  -2.08270067858507E-11  4.37443756528507E-01
 cg2d: Sum(rhs),rhsMax =  -2.07487360626146E-11  4.38591415730987E-01
 cg2d: Sum(rhs),rhsMax =  -2.06872297070504E-11  4.39547488934292E-01
 cg2d: Sum(rhs),rhsMax =  -2.06628048005086E-11  4.40311494983952E-01
 cg2d: Sum(rhs),rhsMax =  -2.05900851923957E-11  4.40883059535606E-01
 cg2d: Sum(rhs),rhsMax =  -2.05636618844096E-11  4.41261915276207E-01
 cg2d: Sum(rhs),rhsMax =  -2.05090389115981E-11  4.41447901697571E-01
 cg2d: Sum(rhs),rhsMax =  -2.05531147656757E-11  4.41440964402544E-01
 cg2d: Sum(rhs),rhsMax =  -2.05513384088363E-11  4.41241153919305E-01
 cg2d: Sum(rhs),rhsMax =  -2.05673256203909E-11  4.40848623675549E-01
 cg2d: Sum(rhs),rhsMax =  -2.06118455636783E-11  4.40263628003661E-01
 cg2d: Sum(rhs),rhsMax =  -2.05819805643159E-11  4.39486519622794E-01
 cg2d: Sum(rhs),rhsMax =  -2.05537808994904E-11  4.38517746137717E-01
 cg2d: Sum(rhs),rhsMax =  -2.05538919217929E-11  4.37357845655765E-01
 cg2d: Sum(rhs),rhsMax =  -2.06124006751907E-11  4.36007442565726E-01
 cg2d: Sum(rhs),rhsMax =  -2.06197281471532E-11  4.34467242832169E-01
 cg2d: Sum(rhs),rhsMax =  -2.06381578493620E-11  4.32738028866281E-01
 cg2d: Sum(rhs),rhsMax =  -2.06916705991489E-11  4.30820654250907E-01
 cg2d: Sum(rhs),rhsMax =  -2.07345252078994E-11  4.28716038790555E-01
 cg2d: Sum(rhs),rhsMax =  -2.07689421216628E-11  4.26425163612773E-01
 cg2d: Sum(rhs),rhsMax =  -2.07825978648657E-11  4.23949066351504E-01
 cg2d: Sum(rhs),rhsMax =  -2.08065786821976E-11  4.21288837366188E-01
 cg2d: Sum(rhs),rhsMax =  -2.08523198708122E-11  4.18445616825866E-01
 cg2d: Sum(rhs),rhsMax =  -2.09083861335557E-11  4.15420593168507E-01
 cg2d: Sum(rhs),rhsMax =  -2.09401385120600E-11  4.12215001849763E-01
 cg2d: Sum(rhs),rhsMax =  -2.09746664481258E-11  4.08830125218133E-01
 cg2d: Sum(rhs),rhsMax =  -2.11242134895429E-11  4.05267293209974E-01
 cg2d: Sum(rhs),rhsMax =  -2.12345696581906E-11  4.01527884871665E-01
 cg2d: Sum(rhs),rhsMax =  -2.13323803066601E-11  3.97613330412157E-01
 cg2d: Sum(rhs),rhsMax =  -2.14325224234813E-11  3.93525113619578E-01
 cg2d: Sum(rhs),rhsMax =  -2.15492068633694E-11  3.89264774376020E-01
 cg2d: Sum(rhs),rhsMax =  -2.16903162097992E-11  3.84833910958184E-01
 cg2d: Sum(rhs),rhsMax =  -2.18941531571204E-11  3.80234181635402E-01
 cg2d: Sum(rhs),rhsMax =  -2.21330731520197E-11  3.75467305607548E-01
 cg2d: Sum(rhs),rhsMax =  -2.23493445972167E-11  3.70535063230591E-01
 cg2d: Sum(rhs),rhsMax =  -2.27380336781380E-11  3.65439295432338E-01
 cg2d: Sum(rhs),rhsMax =  -2.31309416065528E-11  3.60181901888638E-01
 cg2d: Sum(rhs),rhsMax =  -2.35523822667005E-11  3.54764838852427E-01
 cg2d: Sum(rhs),rhsMax =  -2.40404363083258E-11  3.49190116197147E-01
 cg2d: Sum(rhs),rhsMax =  -2.44859688081078E-11  3.43459793388319E-01
 cg2d: Sum(rhs),rhsMax =  -2.49547049691046E-11  3.37575974627592E-01
 cg2d: Sum(rhs),rhsMax =  -2.54904986007887E-11  3.31540803227478E-01
 cg2d: Sum(rhs),rhsMax =  -2.60522714512490E-11  3.25356455855831E-01
 cg2d: Sum(rhs),rhsMax =  -2.66386912528560E-11  3.19025137019484E-01
 cg2d: Sum(rhs),rhsMax =  -2.72392108868758E-11  3.12549073328571E-01
 cg2d: Sum(rhs),rhsMax =  -2.79581913176230E-11  3.05930507795476E-01
 cg2d: Sum(rhs),rhsMax =  -2.86968226959061E-11  2.99171694549415E-01
 cg2d: Sum(rhs),rhsMax =  -2.94599900030335E-11  2.92274894231553E-01
 cg2d: Sum(rhs),rhsMax =  -3.02248226446977E-11  2.85242370292794E-01
 cg2d: Sum(rhs),rhsMax =  -3.10107495238299E-11  2.78076386338162E-01
 cg2d: Sum(rhs),rhsMax =  -3.19009263449743E-11  2.70779204682804E-01
 cg2d: Sum(rhs),rhsMax =  -3.28692628670524E-11  2.63353086411845E-01
 cg2d: Sum(rhs),rhsMax =  -3.39072103727744E-11  2.55800292962475E-01
 cg2d: Sum(rhs),rhsMax =  -3.50131035276036E-11  2.48123088722538E-01
 cg2d: Sum(rhs),rhsMax =  -3.62134766618283E-11  2.40323745108983E-01
 cg2d: Sum(rhs),rhsMax =  -3.75158792920161E-11  2.32404545936699E-01
 cg2d: Sum(rhs),rhsMax =  -3.89094312325255E-11  2.24367793770012E-01
 cg2d: Sum(rhs),rhsMax =  -4.04547506605013E-11  2.16215816896715E-01
 cg2d: Sum(rhs),rhsMax =  -4.21356283197838E-11  2.07950976685169E-01
 cg2d: Sum(rhs),rhsMax =  -4.40070202500920E-11  1.99575674486406E-01
 cg2d: Sum(rhs),rhsMax =  -4.60401716750880E-11  1.91092358217314E-01
 cg2d: Sum(rhs),rhsMax =  -4.83025841546691E-11  1.82503528284634E-01
 cg2d: Sum(rhs),rhsMax =  -5.08622033379424E-11  1.73811742607068E-01
 cg2d: Sum(rhs),rhsMax =  -5.36932720507366E-11  1.65019620439477E-01
 cg2d: Sum(rhs),rhsMax =  -5.68631808306463E-11  1.56129844941239E-01
 cg2d: Sum(rhs),rhsMax =  -6.05101524442375E-11  1.47145164755147E-01
 cg2d: Sum(rhs),rhsMax =  -6.45230535667451E-11  1.38068394322304E-01
 cg2d: Sum(rhs),rhsMax =  -6.91503521110803E-11  1.28902413628340E-01
 cg2d: Sum(rhs),rhsMax =  -7.45907779986510E-11  1.19650167668488E-01
 cg2d: Sum(rhs),rhsMax =  -8.09966538284357E-11  1.10314666052408E-01
 cg2d: Sum(rhs),rhsMax =  -8.86283268997090E-11  1.00898983152813E-01
 cg2d: Sum(rhs),rhsMax =  -9.79317738014629E-11  9.14062588885306E-02
 cg2d: Sum(rhs),rhsMax =  -1.09476983034540E-10  8.18397004922974E-02
 cg2d: Sum(rhs),rhsMax =  -1.24183996419447E-10  7.22025853867495E-02
 cg2d: Sum(rhs),rhsMax =  -1.43544287567465E-10  6.24982651578347E-02
 cg2d: Sum(rhs),rhsMax =  -1.59895874318750E-10  5.61299066628932E-02
 cg2d: Sum(rhs),rhsMax =  -1.59089963425174E-10  5.64212136185047E-02
 cg2d: Sum(rhs),rhsMax =  -1.58306978637057E-10  5.67227872615934E-02
 cg2d: Sum(rhs),rhsMax =  -1.57524736310588E-10  5.70345705635214E-02
 cg2d: Sum(rhs),rhsMax =  -1.56687662844490E-10  5.73559509255855E-02
 cg2d: Sum(rhs),rhsMax =  -1.55814000590837E-10  5.76868032003071E-02
 cg2d: Sum(rhs),rhsMax =  -1.54921631079219E-10  5.80270219204410E-02
 cg2d: Sum(rhs),rhsMax =  -1.54015022957310E-10  5.83757095414837E-02
 cg2d: Sum(rhs),rhsMax =  -1.53126622493005E-10  5.87332511446275E-02
 cg2d: Sum(rhs),rhsMax =  -1.52248103013619E-10  5.90991975190941E-02
 cg2d: Sum(rhs),rhsMax =  -1.51367918199696E-10  5.94712149898208E-02
 cg2d: Sum(rhs),rhsMax =  -1.33968725002376E-10  6.72116081133889E-02
 cg2d: Sum(rhs),rhsMax =  -1.18738352483660E-10  7.58474961375194E-02
 cg2d: Sum(rhs),rhsMax =  -1.06428310608919E-10  8.46275319042740E-02
 cg2d: Sum(rhs),rhsMax =  -9.63086277394609E-11  9.36012360595025E-02
 cg2d: Sum(rhs),rhsMax =  -8.79164518963194E-11  1.02631795148436E-01
 cg2d: Sum(rhs),rhsMax =  -8.07207634068163E-11  1.11900171003839E-01
 cg2d: Sum(rhs),rhsMax =  -7.46013251173849E-11  1.21215729647896E-01
 cg2d: Sum(rhs),rhsMax =  -6.92399471091676E-11  1.30702274052086E-01
 cg2d: Sum(rhs),rhsMax =  -6.45379305552751E-11  1.40303664974040E-01
 cg2d: Sum(rhs),rhsMax =  -6.04073457921572E-11  1.50037847219966E-01
 cg2d: Sum(rhs),rhsMax =  -5.67375035842588E-11  1.59976051941128E-01
 cg2d: Sum(rhs),rhsMax =  -5.34161603837902E-11  1.70070590615547E-01
 cg2d: Sum(rhs),rhsMax =  -5.04759567476754E-11  1.80121697357569E-01
 cg2d: Sum(rhs),rhsMax =  -4.79332129543764E-11  1.90123690951421E-01
 cg2d: Sum(rhs),rhsMax =  -4.56626958467155E-11  2.00070855272599E-01
 cg2d: Sum(rhs),rhsMax =  -4.35887992367157E-11  2.09957448280314E-01
 cg2d: Sum(rhs),rhsMax =  -4.17361700755237E-11  2.19777711012598E-01
 cg2d: Sum(rhs),rhsMax =  -4.00581789961052E-11  2.29525876322570E-01
 cg2d: Sum(rhs),rhsMax =  -3.85277365566594E-11  2.39196177088694E-01
 cg2d: Sum(rhs),rhsMax =  -3.71184194492002E-11  2.48782853653315E-01
 cg2d: Sum(rhs),rhsMax =  -3.58493235097512E-11  2.58280160296154E-01
 cg2d: Sum(rhs),rhsMax =  -3.46571660259087E-11  2.67682370627898E-01
 cg2d: Sum(rhs),rhsMax =  -3.35336203249881E-11  2.76983781883141E-01
 cg2d: Sum(rhs),rhsMax =  -3.25354188035476E-11  2.86178718187376E-01
 cg2d: Sum(rhs),rhsMax =  -3.15835135822340E-11  2.95261532961866E-01
 cg2d: Sum(rhs),rhsMax =  -3.07007752553545E-11  3.04226610713603E-01
 cg2d: Sum(rhs),rhsMax =  -2.98933100495447E-11  3.13068368522313E-01
 cg2d: Sum(rhs),rhsMax =  -2.91207058467080E-11  3.21781257571886E-01
 cg2d: Sum(rhs),rhsMax =  -2.84037238174051E-11  3.30359765073338E-01
 cg2d: Sum(rhs),rhsMax =  -2.77444733853827E-11  3.38798416890468E-01
 cg2d: Sum(rhs),rhsMax =  -2.71196398671236E-11  3.47091781121802E-01
 cg2d: Sum(rhs),rhsMax =  -2.65698574253292E-11  3.55234472820533E-01
 cg2d: Sum(rhs),rhsMax =  -2.61091148701098E-11  3.63221159948821E-01
 cg2d: Sum(rhs),rhsMax =  -2.56529242292913E-11  3.71046570577168E-01
 cg2d: Sum(rhs),rhsMax =  -2.51988430122196E-11  3.78705501257453E-01
 cg2d: Sum(rhs),rhsMax =  -2.48052689499900E-11  3.86192826425720E-01
 cg2d: Sum(rhs),rhsMax =  -2.43804976207684E-11  3.93503508633492E-01
 cg2d: Sum(rhs),rhsMax =  -2.40311104349189E-11  4.00632609369732E-01
 cg2d: Sum(rhs),rhsMax =  -2.36931585462230E-11  4.07575300216864E-01
 cg2d: Sum(rhs),rhsMax =  -2.33665309323783E-11  4.14326874084382E-01
 cg2d: Sum(rhs),rhsMax =  -2.30784280574881E-11  4.20882756283992E-01
 cg2d: Sum(rhs),rhsMax =  -2.27823315768205E-11  4.27238515232400E-01
 cg2d: Sum(rhs),rhsMax =  -2.24894547429244E-11  4.33389872610241E-01
 cg2d: Sum(rhs),rhsMax =  -2.22351026479828E-11  4.39332712830247E-01
 cg2d: Sum(rhs),rhsMax =  -2.20173879128538E-11  4.45063091727043E-01
 cg2d: Sum(rhs),rhsMax =  -2.17924567280647E-11  4.50577244379991E-01
 cg2d: Sum(rhs),rhsMax =  -2.15915063606076E-11  4.55871591977544E-01
 cg2d: Sum(rhs),rhsMax =  -2.13935535953169E-11  4.60942747749035E-01
 cg2d: Sum(rhs),rhsMax =  -2.12119211084882E-11  4.65787521990773E-01
 cg2d: Sum(rhs),rhsMax =  -2.10479411677511E-11  4.70402926148531E-01
 cg2d: Sum(rhs),rhsMax =  -2.08555395175836E-11  4.74786175908173E-01
 cg2d: Sum(rhs),rhsMax =  -2.07827088871682E-11  4.78934693480770E-01
 cg2d: Sum(rhs),rhsMax =  -2.06690220494465E-11  4.82846109058143E-01
 cg2d: Sum(rhs),rhsMax =  -2.06118455636783E-11  4.86518261567938E-01
 cg2d: Sum(rhs),rhsMax =  -2.05265804353871E-11  4.89949198574787E-01
 cg2d: Sum(rhs),rhsMax =  -2.04597450093047E-11  4.93137175781429E-01
 cg2d: Sum(rhs),rhsMax =  -2.04080086163572E-11  4.96080656115896E-01
 cg2d: Sum(rhs),rhsMax =  -2.03739247695012E-11  4.98778308572125E-01
 cg2d: Sum(rhs),rhsMax =  -2.03281835808866E-11  5.01229006880419E-01
 cg2d: Sum(rhs),rhsMax =  -2.02751149203095E-11  5.03431828091859E-01
 cg2d: Sum(rhs),rhsMax =  -2.03764782824578E-11  5.05386051158730E-01
 cg2d: Sum(rhs),rhsMax =  -2.04442018869599E-11  5.07091155583360E-01
 cg2d: Sum(rhs),rhsMax =  -2.04593009200948E-11  5.08546820180936E-01
 cg2d: Sum(rhs),rhsMax =  -2.05140349152089E-11  5.09752921974063E-01
 cg2d: Sum(rhs),rhsMax =  -2.04074535048449E-11  5.10709535203194E-01
 cg2d: Sum(rhs),rhsMax =  -2.03269623355595E-11  5.11416930367597E-01
 cg2d: Sum(rhs),rhsMax =  -2.02754479872169E-11  5.11875573333352E-01
 cg2d: Sum(rhs),rhsMax =  -2.02048378028508E-11  5.12086124483195E-01
 cg2d: Sum(rhs),rhsMax =  -2.01377803321634E-11  5.12049437694829E-01
 cg2d: Sum(rhs),rhsMax =  -2.00985894593941E-11  5.11766559075986E-01
 cg2d: Sum(rhs),rhsMax =  -2.01280103695467E-11  5.11238725376548E-01
 cg2d: Sum(rhs),rhsMax =  -2.01221261875162E-11  5.10467361782066E-01
 cg2d: Sum(rhs),rhsMax =  -2.01539895883229E-11  5.09454080040129E-01
 cg2d: Sum(rhs),rhsMax =  -2.02100558510665E-11  5.08200675914180E-01
 cg2d: Sum(rhs),rhsMax =  -2.02320382669541E-11  5.06709125747448E-01
 cg2d: Sum(rhs),rhsMax =  -2.02963201800799E-11  5.04981583038117E-01
 cg2d: Sum(rhs),rhsMax =  -2.03265182463497E-11  5.03020374324044E-01
 cg2d: Sum(rhs),rhsMax =  -2.03869143788893E-11  5.00827994451765E-01
 cg2d: Sum(rhs),rhsMax =  -2.04694039496189E-11  4.98407101300820E-01
 cg2d: Sum(rhs),rhsMax =  -2.05743200254460E-11  4.95760510072059E-01
 cg2d: Sum(rhs),rhsMax =  -2.06232808608320E-11  4.92891187433377E-01
 cg2d: Sum(rhs),rhsMax =  -2.07042161193272E-11  4.89802244420098E-01
 cg2d: Sum(rhs),rhsMax =  -2.08211226038202E-11  4.86496929192931E-01
 cg2d: Sum(rhs),rhsMax =  -2.09173789400552E-11  4.82978619958707E-01
 cg2d: Sum(rhs),rhsMax =  -2.10342854245482E-11  4.79250817484166E-01
 cg2d: Sum(rhs),rhsMax =  -2.11521911097634E-11  4.75317136681807E-01
 cg2d: Sum(rhs),rhsMax =  -2.12444506431098E-11  4.71181298459902E-01
 cg2d: Sum(rhs),rhsMax =  -2.14001039111622E-11  4.66847121960277E-01
 cg2d: Sum(rhs),rhsMax =  -2.15719664353742E-11  4.62318516668039E-01
 cg2d: Sum(rhs),rhsMax =  -2.17715845352018E-11  4.57599474990393E-01
 cg2d: Sum(rhs),rhsMax =  -2.19555484903822E-11  4.52694065102773E-01
 cg2d: Sum(rhs),rhsMax =  -2.21459517391054E-11  4.47606424055382E-01
 cg2d: Sum(rhs),rhsMax =  -2.23921992059672E-11  4.42340751744469E-01
 cg2d: Sum(rhs),rhsMax =  -2.25961471755909E-11  4.36901305375528E-01
 cg2d: Sum(rhs),rhsMax =  -2.28691510173462E-11  4.31292394522429E-01
 cg2d: Sum(rhs),rhsMax =  -2.31004104733756E-11  4.25518376759613E-01
 cg2d: Sum(rhs),rhsMax =  -2.33758568057851E-11  4.19583653778013E-01
 cg2d: Sum(rhs),rhsMax =  -2.36498598482626E-11  4.13492667681160E-01
 cg2d: Sum(rhs),rhsMax =  -2.39905872945201E-11  4.07249897454734E-01
 cg2d: Sum(rhs),rhsMax =  -2.42892372881442E-11  4.00859856117163E-01
 cg2d: Sum(rhs),rhsMax =  -2.46270781545377E-11  3.94327087345096E-01
 cg2d: Sum(rhs),rhsMax =  -2.49683607123075E-11  3.87656161423219E-01
 cg2d: Sum(rhs),rhsMax =  -2.53409515593717E-11  3.80851669956219E-01
 cg2d: Sum(rhs),rhsMax =  -2.57199816999787E-11  3.73918220839733E-01
 cg2d: Sum(rhs),rhsMax =  -2.61561883263539E-11  3.66860432300859E-01
 cg2d: Sum(rhs),rhsMax =  -2.65736321836130E-11  3.59682925849625E-01
 cg2d: Sum(rhs),rhsMax =  -2.70010680480937E-11  3.52390318354357E-01
 cg2d: Sum(rhs),rhsMax =  -2.75126588178409E-11  3.44987213355296E-01
 cg2d: Sum(rhs),rhsMax =  -2.80137024688543E-11  3.37478191934162E-01
 cg2d: Sum(rhs),rhsMax =  -2.86118906345223E-11  3.29867803462927E-01
 cg2d: Sum(rhs),rhsMax =  -2.92565971449221E-11  3.22160556546487E-01
 cg2d: Sum(rhs),rhsMax =  -2.99253954949563E-11  3.14360910178275E-01
 cg2d: Sum(rhs),rhsMax =  -3.06431546803765E-11  3.06473265401117E-01
 cg2d: Sum(rhs),rhsMax =  -3.13866710399680E-11  2.98501957827692E-01
 cg2d: Sum(rhs),rhsMax =  -3.22185611523196E-11  2.90451251048775E-01
 cg2d: Sum(rhs),rhsMax =  -3.30637739409667E-11  2.82325331070256E-01
 cg2d: Sum(rhs),rhsMax =  -3.39769323787209E-11  2.74128302127394E-01
 cg2d: Sum(rhs),rhsMax =  -3.49641426922176E-11  2.65864183808537E-01
 cg2d: Sum(rhs),rhsMax =  -3.60235175023149E-11  2.57536909425121E-01
 cg2d: Sum(rhs),rhsMax =  -3.71563890766424E-11  2.49150325518718E-01
 cg2d: Sum(rhs),rhsMax =  -3.83499898504169E-11  2.40708191962873E-01
 cg2d: Sum(rhs),rhsMax =  -3.97163413268231E-11  2.32214183116634E-01
 cg2d: Sum(rhs),rhsMax =  -4.11373157760409E-11  2.23671889841281E-01
 cg2d: Sum(rhs),rhsMax =  -4.26884083637447E-11  2.15084822141610E-01
 cg2d: Sum(rhs),rhsMax =  -4.43926007065443E-11  2.06456412504419E-01
 cg2d: Sum(rhs),rhsMax =  -4.62123672662074E-11  1.97790019103970E-01
 cg2d: Sum(rhs),rhsMax =  -4.82259787659700E-11  1.89088929335967E-01
 cg2d: Sum(rhs),rhsMax =  -5.04252195554500E-11  1.80356363642448E-01
 cg2d: Sum(rhs),rhsMax =  -5.28771471053346E-11  1.71595479342546E-01
 cg2d: Sum(rhs),rhsMax =  -5.56247270466770E-11  1.62809374283825E-01
 cg2d: Sum(rhs),rhsMax =  -5.86718451600632E-11  1.54001090525324E-01
 cg2d: Sum(rhs),rhsMax =  -6.20505868909049E-11  1.45173617799771E-01
 cg2d: Sum(rhs),rhsMax =  -6.60475008018580E-11  1.36329897037939E-01
 cg2d: Sum(rhs),rhsMax =  -7.05493441444105E-11  1.27472823591176E-01
 cg2d: Sum(rhs),rhsMax =  -7.57671703155438E-11  1.18605250017857E-01
 cg2d: Sum(rhs),rhsMax =  -8.18100032162761E-11  1.09729988532851E-01
 cg2d: Sum(rhs),rhsMax =  -8.89317508523391E-11  1.00849813135287E-01
 cg2d: Sum(rhs),rhsMax =  -9.74029745748339E-11  9.19674616057314E-02
 cg2d: Sum(rhs),rhsMax =  -1.07718833852744E-10  8.30856373810988E-02
 cg2d: Sum(rhs),rhsMax =  -1.20481180587717E-10  7.42070112234031E-02
 cg2d: Sum(rhs),rhsMax =  -1.36714195519971E-10  6.53342228155201E-02
 cg2d: Sum(rhs),rhsMax =  -1.41763989436328E-10  6.29348924056864E-02
 cg2d: Sum(rhs),rhsMax =  -1.41887446236666E-10  6.28545082595898E-02
 cg2d: Sum(rhs),rhsMax =  -1.42070660791305E-10  6.27624410053534E-02
 cg2d: Sum(rhs),rhsMax =  -1.42181030837740E-10  6.26559669071661E-02
 cg2d: Sum(rhs),rhsMax =  -1.42349833309741E-10  6.25323377941798E-02
 cg2d: Sum(rhs),rhsMax =  -1.42486328291724E-10  6.23941980553022E-02
 cg2d: Sum(rhs),rhsMax =  -1.42688638682387E-10  6.22456577259846E-02
 cg2d: Sum(rhs),rhsMax =  -1.42941269931640E-10  6.20885511459917E-02
 cg2d: Sum(rhs),rhsMax =  -1.43191236645634E-10  6.19211378851994E-02
 cg2d: Sum(rhs),rhsMax =  -1.37915345810313E-10  6.42115040771771E-02
 cg2d: Sum(rhs),rhsMax =  -1.24317556249309E-10  7.11600084473908E-02
 cg2d: Sum(rhs),rhsMax =  -1.13150488978420E-10  7.80986028052236E-02
 cg2d: Sum(rhs),rhsMax =  -1.03821062857890E-10  8.50241192680293E-02
 cg2d: Sum(rhs),rhsMax =  -9.59333723571376E-11  9.19324459211785E-02
 cg2d: Sum(rhs),rhsMax =  -8.91485774090484E-11  9.88190888695993E-02
 cg2d: Sum(rhs),rhsMax =  -8.32920399318482E-11  1.05680164875533E-01
 cg2d: Sum(rhs),rhsMax =  -7.81671394278760E-11  1.12512156327482E-01
 cg2d: Sum(rhs),rhsMax =  -7.36442018478556E-11  1.19311568161198E-01
 cg2d: Sum(rhs),rhsMax =  -6.95721258381354E-11  1.26074833038849E-01
 cg2d: Sum(rhs),rhsMax =  -6.59505783318082E-11  1.32798296869088E-01
 cg2d: Sum(rhs),rhsMax =  -6.26267926406854E-11  1.39478277621890E-01
 cg2d: Sum(rhs),rhsMax =  -5.97325522377901E-11  1.46110938255816E-01
 cg2d: Sum(rhs),rhsMax =  -5.70296032620377E-11  1.52721796685191E-01
 cg2d: Sum(rhs),rhsMax =  -5.45209433155946E-11  1.59491746267693E-01
 cg2d: Sum(rhs),rhsMax =  -5.21990228818936E-11  1.66203386318352E-01
 cg2d: Sum(rhs),rhsMax =  -4.99179586554988E-11  1.73641548601575E-01
 cg2d: Sum(rhs),rhsMax =  -4.76928496695450E-11  1.81363605222150E-01
 cg2d: Sum(rhs),rhsMax =  -4.56781279467577E-11  1.89011711775726E-01
 cg2d: Sum(rhs),rhsMax =  -4.38303837668741E-11  1.96581423530530E-01
 cg2d: Sum(rhs),rhsMax =  -4.21859214227993E-11  2.04068326467974E-01
 cg2d: Sum(rhs),rhsMax =  -4.06171762890040E-11  2.11468043231107E-01
 cg2d: Sum(rhs),rhsMax =  -3.92228471923772E-11  2.18776237825716E-01
 cg2d: Sum(rhs),rhsMax =  -3.79078990420112E-11  2.25988618871732E-01
 cg2d: Sum(rhs),rhsMax =  -3.67027519487806E-11  2.33100941657409E-01
 cg2d: Sum(rhs),rhsMax =  -3.55446783117941E-11  2.40109009023151E-01
 cg2d: Sum(rhs),rhsMax =  -3.45354855824098E-11  2.47008671556850E-01
 cg2d: Sum(rhs),rhsMax =  -3.35628191905357E-11  2.53795828391681E-01
 cg2d: Sum(rhs),rhsMax =  -3.26669802319657E-11  2.60466429116475E-01
 cg2d: Sum(rhs),rhsMax =  -3.17654791359701E-11  2.67016476596804E-01
 cg2d: Sum(rhs),rhsMax =  -3.09249292840263E-11  2.73442030196514E-01
 cg2d: Sum(rhs),rhsMax =  -3.01196845242657E-11  2.79739209376457E-01
 cg2d: Sum(rhs),rhsMax =  -2.93872703949205E-11  2.85904197551992E-01
 cg2d: Sum(rhs),rhsMax =  -2.86858314879623E-11  2.91933246018225E-01
 cg2d: Sum(rhs),rhsMax =  -2.80709899769249E-11  2.97822678188382E-01
 cg2d: Sum(rhs),rhsMax =  -2.74352762730246E-11  3.03568894290462E-01
 cg2d: Sum(rhs),rhsMax =  -2.68607358577810E-11  3.09168377480999E-01
 cg2d: Sum(rhs),rhsMax =  -2.63434829506082E-11  3.14617700710499E-01
 cg2d: Sum(rhs),rhsMax =  -2.58041366052453E-11  3.19913534287382E-01
 cg2d: Sum(rhs),rhsMax =  -2.53701504249193E-11  3.25052653688858E-01
 cg2d: Sum(rhs),rhsMax =  -2.49071874236506E-11  3.30031946968631E-01
 cg2d: Sum(rhs),rhsMax =  -2.44874120980398E-11  3.34848421395955E-01
 cg2d: Sum(rhs),rhsMax =  -2.41064945782909E-11  3.39499209374638E-01
 cg2d: Sum(rhs),rhsMax =  -2.37164732297401E-11  3.43981573843300E-01
 cg2d: Sum(rhs),rhsMax =  -2.33854047237969E-11  3.48292913178122E-01
 cg2d: Sum(rhs),rhsMax =  -2.30405694523483E-11  3.52430765355496E-01
 cg2d: Sum(rhs),rhsMax =  -2.27247110018425E-11  3.56392811051744E-01
 cg2d: Sum(rhs),rhsMax =  -2.24268381643355E-11  3.60176875509461E-01
 cg2d: Sum(rhs),rhsMax =  -2.21435092484512E-11  3.63780929288785E-01
 cg2d: Sum(rhs),rhsMax =  -2.18823847930594E-11  3.67203088296246E-01
 cg2d: Sum(rhs),rhsMax =  -2.16687778831215E-11  3.70441613210651E-01
 cg2d: Sum(rhs),rhsMax =  -2.14457340774743E-11  3.73494908144768E-01
 cg2d: Sum(rhs),rhsMax =  -2.12410089517334E-11  3.76361518700298E-01
 cg2d: Sum(rhs),rhsMax =  -2.10464978778191E-11  3.79040129662435E-01
 cg2d: Sum(rhs),rhsMax =  -2.07984740541178E-11  3.81529562882145E-01
 cg2d: Sum(rhs),rhsMax =  -2.05917505269326E-11  3.83828775861512E-01
 cg2d: Sum(rhs),rhsMax =  -2.04161132444369E-11  3.85936861133575E-01
 cg2d: Sum(rhs),rhsMax =  -2.02459160547619E-11  3.87853046230903E-01
 cg2d: Sum(rhs),rhsMax =  -2.00827132701420E-11  3.89576694079202E-01
 cg2d: Sum(rhs),rhsMax =  -1.99401606337801E-11  3.91107303827033E-01
 cg2d: Sum(rhs),rhsMax =  -1.98021599118192E-11  3.92958973719531E-01
 cg2d: Sum(rhs),rhsMax =  -1.96098692839541E-11  3.95124762725477E-01
 cg2d: Sum(rhs),rhsMax =  -1.94900762195971E-11  3.97117379450260E-01
 cg2d: Sum(rhs),rhsMax =  -1.93716154228696E-11  3.98935572552444E-01
 cg2d: Sum(rhs),rhsMax =  -1.92514892916051E-11  4.00578168473472E-01
 cg2d: Sum(rhs),rhsMax =  -1.91503479740618E-11  4.02044074812035E-01
 cg2d: Sum(rhs),rhsMax =  -1.90025772894842E-11  4.03332283529608E-01
 cg2d: Sum(rhs),rhsMax =  -1.89874782563493E-11  4.04441873918067E-01
 cg2d: Sum(rhs),rhsMax =  -1.89315230159082E-11  4.05372015196188E-01
 cg2d: Sum(rhs),rhsMax =  -1.88590254524001E-11  4.06121968859799E-01
 cg2d: Sum(rhs),rhsMax =  -1.88492554897834E-11  4.06691090525672E-01
 cg2d: Sum(rhs),rhsMax =  -1.88318249882968E-11  4.07078831221587E-01
 cg2d: Sum(rhs),rhsMax =  -1.88031812342615E-11  4.07284738093602E-01
 cg2d: Sum(rhs),rhsMax =  -1.87875270896143E-11  4.07308454520146E-01
 cg2d: Sum(rhs),rhsMax =  -1.88012938551196E-11  4.07149719641045E-01
 cg2d: Sum(rhs),rhsMax =  -1.87683202312883E-11  4.06808367074888E-01
 cg2d: Sum(rhs),rhsMax =  -1.87675430751710E-11  4.06284323647462E-01
 cg2d: Sum(rhs),rhsMax =  -1.87276860685870E-11  4.05577607647465E-01
 cg2d: Sum(rhs),rhsMax =  -1.87238002880008E-11  4.04688326568071E-01
 cg2d: Sum(rhs),rhsMax =  -1.87347914959446E-11  4.03616674472706E-01
 cg2d: Sum(rhs),rhsMax =  -1.87206916635319E-11  4.02362929591863E-01
 cg2d: Sum(rhs),rhsMax =  -1.87232451764885E-11  4.00927452160813E-01
 cg2d: Sum(rhs),rhsMax =  -1.86912707533793E-11  3.99310682306778E-01
 cg2d: Sum(rhs),rhsMax =  -1.87189153066925E-11  3.97513138117526E-01
 cg2d: Sum(rhs),rhsMax =  -1.87188042843900E-11  3.95535414205180E-01
 cg2d: Sum(rhs),rhsMax =  -1.86826110137872E-11  3.93378180265154E-01
 cg2d: Sum(rhs),rhsMax =  -1.87660997852390E-11  3.91042179544056E-01
 cg2d: Sum(rhs),rhsMax =  -1.88064008810329E-11  3.88528227700964E-01
 cg2d: Sum(rhs),rhsMax =  -1.88521420696475E-11  3.85837211889670E-01
 cg2d: Sum(rhs),rhsMax =  -1.88985493920768E-11  3.82970090187650E-01
 cg2d: Sum(rhs),rhsMax =  -1.89297466590688E-11  3.79927890610499E-01
 cg2d: Sum(rhs),rhsMax =  -1.90318871773343E-11  3.76711709944964E-01
 cg2d: Sum(rhs),rhsMax =  -1.91568982899071E-11  3.73322712598781E-01
 cg2d: Sum(rhs),rhsMax =  -1.92074134375275E-11  3.69762129352652E-01
 cg2d: Sum(rhs),rhsMax =  -1.94839699929616E-11  3.66031256145393E-01
 cg2d: Sum(rhs),rhsMax =  -1.97114546907073E-11  3.62131453078676E-01
 cg2d: Sum(rhs),rhsMax =  -2.00095495728192E-11  3.58064143375467E-01
 cg2d: Sum(rhs),rhsMax =  -2.03672634313534E-11  3.53830812357909E-01
 cg2d: Sum(rhs),rhsMax =  -2.07173167510177E-11  3.49433006411324E-01
 cg2d: Sum(rhs),rhsMax =  -2.10890194196622E-11  3.44872331899446E-01
 cg2d: Sum(rhs),rhsMax =  -2.14563922185107E-11  3.40150454101369E-01
 cg2d: Sum(rhs),rhsMax =  -2.18027818021937E-11  3.35269096175165E-01
 cg2d: Sum(rhs),rhsMax =  -2.22056817378302E-11  3.30230037626655E-01
 cg2d: Sum(rhs),rhsMax =  -2.26084706511642E-11  3.25035113454646E-01
 cg2d: Sum(rhs),rhsMax =  -2.30734320538772E-11  3.19686212925155E-01
 cg2d: Sum(rhs),rhsMax =  -2.35340635867942E-11  3.14185277883090E-01
 cg2d: Sum(rhs),rhsMax =  -2.40109043758707E-11  3.08534300759070E-01
 cg2d: Sum(rhs),rhsMax =  -2.45699016687695E-11  3.02735322275283E-01
 cg2d: Sum(rhs),rhsMax =  -2.51308973631126E-11  2.96790429341098E-01
 cg2d: Sum(rhs),rhsMax =  -2.57437404727057E-11  2.90701753502983E-01
 cg2d: Sum(rhs),rhsMax =  -2.63963295665803E-11  2.84471469401013E-01
 cg2d: Sum(rhs),rhsMax =  -2.71441757959678E-11  2.78101793521838E-01
 cg2d: Sum(rhs),rhsMax =  -2.78191913949399E-11  2.71594983445809E-01
 cg2d: Sum(rhs),rhsMax =  -2.85487189444211E-11  2.64953337734992E-01
 cg2d: Sum(rhs),rhsMax =  -2.93728374956004E-11  2.58179196528388E-01
 cg2d: Sum(rhs),rhsMax =  -3.02377012317834E-11  2.51274942853758E-01
 cg2d: Sum(rhs),rhsMax =  -3.11757286652892E-11  2.44243004526274E-01
 cg2d: Sum(rhs),rhsMax =  -3.21523918600519E-11  2.37085856855306E-01
 cg2d: Sum(rhs),rhsMax =  -3.32277538817038E-11  2.29806025766890E-01
 cg2d: Sum(rhs),rhsMax =  -3.44152484288429E-11  2.22406091073424E-01
 cg2d: Sum(rhs),rhsMax =  -3.56861207251313E-11  2.14888690037262E-01
 cg2d: Sum(rhs),rhsMax =  -3.70783403980113E-11  2.07256521011998E-01
 cg2d: Sum(rhs),rhsMax =  -3.86581877620529E-11  1.99512346940200E-01
 cg2d: Sum(rhs),rhsMax =  -4.03113098457197E-11  1.91658998579502E-01
 cg2d: Sum(rhs),rhsMax =  -4.21394030780675E-11  1.83699377305660E-01
 cg2d: Sum(rhs),rhsMax =  -4.41714442800389E-11  1.75636457034412E-01
 cg2d: Sum(rhs),rhsMax =  -4.64474014805205E-11  1.67473285664455E-01
 cg2d: Sum(rhs),rhsMax =  -4.89728257946354E-11  1.59212985991975E-01
 cg2d: Sum(rhs),rhsMax =  -5.18167730945152E-11  1.50858755924381E-01
 cg2d: Sum(rhs),rhsMax =  -5.49954526363194E-11  1.42413867955375E-01
 cg2d: Sum(rhs),rhsMax =  -5.85579362777366E-11  1.33881667941049E-01
 cg2d: Sum(rhs),rhsMax =  -6.26512175472271E-11  1.25265573441028E-01
 cg2d: Sum(rhs),rhsMax =  -6.73873179479756E-11  1.16569071278303E-01
(PID.TID 0000.0001)      cg2d_init_res =   3.97141933177755E-01
(PID.TID 0000.0001)      cg2d_iters(min,last) =      -1      39
(PID.TID 0000.0001)      cg2d_last_res =   5.97462099959713E-14
(PID.TID 0000.0001) // =======================================================
(PID.TID 0000.0001) // Begin MONITOR dynamic field statistics
(PID.TID 0000.0001) // =======================================================
(PID.TID 0000.0001) %MON time_tsnumber                =                  2400
(PID.TID 0000.0001) %MON time_secondsf                =   3.6000000000000E+04
(PID.TID 0000.0001) %MON dynstat_eta_max              =   1.8974942428122E-02
(PID.TID 0000.0001) %MON dynstat_eta_min              =  -5.3074448725255E-02
(PID.TID 0000.0001) %MON dynstat_eta_mean             =   1.6847535558834E-14
(PID.TID 0000.0001) %MON dynstat_eta_sd               =   1.6635973932713E-02
(PID.TID 0000.0001) %MON dynstat_eta_del2             =   2.6060418752423E-05
(PID.TID 0000.0001) %MON dynstat_uvel_max             =   1.3365754108424E+00
(PID.TID 0000.0001) %MON dynstat_uvel_min             =  -3.0525990487819E-02
(PID.TID 0000.0001) %MON dynstat_uvel_mean            =   6.7090858279462E-01
(PID.TID 0000.0001) %MON dynstat_uvel_sd              =   1.0980246787589E-01
(PID.TID 0000.0001) %MON dynstat_uvel_del2            =   9.6290540497378E-04
(PID.TID 0000.0001) %MON dynstat_vvel_max             =   0.0000000000000E+00
(PID.TID 0000.0001) %MON dynstat_vvel_min             =   0.0000000000000E+00
(PID.TID 0000.0001) %MON dynstat_vvel_mean            =   0.0000000000000E+00
(PID.TID 0000.0001) %MON dynstat_vvel_sd              =   0.0000000000000E+00
(PID.TID 0000.0001) %MON dynstat_vvel_del2            =   0.0000000000000E+00
(PID.TID 0000.0001) %MON dynstat_wvel_max             =   2.9548275408361E-02
(PID.TID 0000.0001) %MON dynstat_wvel_min             =  -3.2228395386830E-02
(PID.TID 0000.0001) %MON dynstat_wvel_mean            =  -1.0878281290995E-19
(PID.TID 0000.0001) %MON dynstat_wvel_sd              =   3.6603803869538E-03
(PID.TID 0000.0001) %MON dynstat_wvel_del2            =   8.3844228343648E-05
(PID.TID 0000.0001) %MON dynstat_theta_max            =   1.5000000000005E+01
(PID.TID 0000.0001) %MON dynstat_theta_min            =   9.9999999999966E+00
(PID.TID 0000.0001) %MON dynstat_theta_mean           =   1.3301947610062E+01
(PID.TID 0000.0001) %MON dynstat_theta_sd             =   2.2774414509009E+00
(PID.TID 0000.0001) %MON dynstat_theta_del2           =   1.0350069182810E-03
(PID.TID 0000.0001) %MON dynstat_salt_max             =   3.5000000000000E+01
(PID.TID 0000.0001) %MON dynstat_salt_min             =   3.5000000000000E+01
(PID.TID 0000.0001) %MON dynstat_salt_mean            =   3.5000000000000E+01
(PID.TID 0000.0001) %MON dynstat_salt_sd              =   2.1316282072803E-14
(PID.TID 0000.0001) %MON dynstat_salt_del2            =   0.0000000000000E+00
(PID.TID 0000.0001) %MON dynstat_sst_max              =   1.5000000000000E+01
(PID.TID 0000.0001) %MON dynstat_sst_min              =   1.4999882892466E+01
(PID.TID 0000.0001) %MON dynstat_sst_mean             =   1.4999998510217E+01
(PID.TID 0000.0001) %MON dynstat_sst_sd               =   1.1545843883387E-05
(PID.TID 0000.0001) %MON dynstat_sst_del2             =   5.9733377351023E-07
(PID.TID 0000.0001) %MON dynstat_sss_max              =   3.5000000000000E+01
(PID.TID 0000.0001) %MON dynstat_sss_min              =   3.5000000000000E+01
(PID.TID 0000.0001) %MON dynstat_sss_mean             =   3.5000000000000E+01
(PID.TID 0000.0001) %MON dynstat_sss_sd               =   7.8159700933611E-14
(PID.TID 0000.0001) %MON dynstat_sss_del2             =   0.0000000000000E+00
(PID.TID 0000.0001) %MON forcing_qnet_max             =   0.0000000000000E+00
(PID.TID 0000.0001) %MON forcing_qnet_min             =   0.0000000000000E+00
(PID.TID 0000.0001) %MON forcing_qnet_mean            =   0.0000000000000E+00
(PID.TID 0000.0001) %MON forcing_qnet_sd              =   0.0000000000000E+00
(PID.TID 0000.0001) %MON forcing_qnet_del2            =   0.0000000000000E+00
(PID.TID 0000.0001) %MON forcing_qsw_max              =   0.0000000000000E+00
(PID.TID 0000.0001) %MON forcing_qsw_min              =   0.0000000000000E+00
(PID.TID 0000.0001) %MON forcing_qsw_mean             =   0.0000000000000E+00
(PID.TID 0000.0001) %MON forcing_qsw_sd               =   0.0000000000000E+00
(PID.TID 0000.0001) %MON forcing_qsw_del2             =   0.0000000000000E+00
(PID.TID 0000.0001) %MON forcing_empmr_max            =   0.0000000000000E+00
(PID.TID 0000.0001) %MON forcing_empmr_min            =   0.0000000000000E+00
(PID.TID 0000.0001) %MON forcing_empmr_mean           =   0.0000000000000E+00
(PID.TID 0000.0001) %MON forcing_empmr_sd             =   0.0000000000000E+00
(PID.TID 0000.0001) %MON forcing_empmr_del2           =   0.0000000000000E+00
(PID.TID 0000.0001) %MON forcing_fu_max               =   0.0000000000000E+00
(PID.TID 0000.0001) %MON forcing_fu_min               =   0.0000000000000E+00
(PID.TID 0000.0001) %MON forcing_fu_mean              =   0.0000000000000E+00
(PID.TID 0000.0001) %MON forcing_fu_sd                =   0.0000000000000E+00
(PID.TID 0000.0001) %MON forcing_fu_del2              =   0.0000000000000E+00
(PID.TID 0000.0001) %MON forcing_fv_max               =   0.0000000000000E+00
(PID.TID 0000.0001) %MON forcing_fv_min               =   0.0000000000000E+00
(PID.TID 0000.0001) %MON forcing_fv_mean              =   0.0000000000000E+00
(PID.TID 0000.0001) %MON forcing_fv_sd                =   0.0000000000000E+00
(PID.TID 0000.0001) %MON forcing_fv_del2              =   0.0000000000000E+00
(PID.TID 0000.0001) %MON advcfl_uvel_max              =   1.0024315581318E-01
(PID.TID 0000.0001) %MON advcfl_vvel_max              =   0.0000000000000E+00
(PID.TID 0000.0001) %MON advcfl_wvel_max              =   3.9252152281166E-01
(PID.TID 0000.0001) %MON advcfl_W_hf_max              =   3.9580576453094E-01
(PID.TID 0000.0001) %MON pe_b_mean                    =   6.9142193129028E-06
(PID.TID 0000.0001) %MON ke_max                       =   8.5703034277577E-01
(PID.TID 0000.0001) %MON ke_mean                      =   2.3103249009252E-01
(PID.TID 0000.0001) %MON ke_vol                       =   9.5889217545975E+10
(PID.TID 0000.0001) %MON vort_r_min                   =   0.0000000000000E+00
(PID.TID 0000.0001) %MON vort_r_max                   =   0.0000000000000E+00
(PID.TID 0000.0001) %MON vort_a_mean                  =   0.0000000000000E+00
(PID.TID 0000.0001) %MON vort_a_sd                    =   0.0000000000000E+00
(PID.TID 0000.0001) %MON vort_p_mean                  =   0.0000000000000E+00
(PID.TID 0000.0001) %MON vort_p_sd                    =   0.0000000000000E+00
(PID.TID 0000.0001) %MON surfExpan_theta_mean         =   9.2635081697368E-11
(PID.TID 0000.0001) %MON surfExpan_salt_mean          =  -6.2345939128758E-18
(PID.TID 0000.0001) // =======================================================
(PID.TID 0000.0001) // End MONITOR dynamic field statistics
(PID.TID 0000.0001) // =======================================================
(PID.TID 0000.0001) // =======================================================
(PID.TID 0000.0001) // Begin OBCS MONITOR field statistics
(PID.TID 0000.0001) // =======================================================
(PID.TID 0000.0001) %MON obc_E_uVel_max               =   6.6809804669674E-01
(PID.TID 0000.0001) %MON obc_E_uVel_min               =   6.6809804669674E-01
(PID.TID 0000.0001) %MON obc_E_uVel_mean              =   6.6809804669674E-01
(PID.TID 0000.0001) %MON obc_E_uVel_sd                =   1.6660004686563E-08
(PID.TID 0000.0001) %MON obc_E_uVel_Int               =   6.6809804669674E+05
(PID.TID 0000.0001) %MON obc_W_uVel_max               =   6.6809804669674E-01
(PID.TID 0000.0001) %MON obc_W_uVel_min               =   6.6809804669674E-01
(PID.TID 0000.0001) %MON obc_W_uVel_mean              =   6.6809804669674E-01
(PID.TID 0000.0001) %MON obc_W_uVel_sd                =   1.6660004686563E-08
(PID.TID 0000.0001) %MON obc_W_uVel_Int               =   6.6809804669674E+05
(PID.TID 0000.0001) // =======================================================
(PID.TID 0000.0001) // End OBCS MONITOR field statistics
(PID.TID 0000.0001) // =======================================================
 cg2d: Sum(rhs),rhsMax =  -7.29333260451881E-11  1.07795714840823E-01
 cg2d: Sum(rhs),rhsMax =  -7.95228327632458E-11  9.89491212128173E-02
 cg2d: Sum(rhs),rhsMax =  -8.74865735411845E-11  9.00329682519379E-02
 cg2d: Sum(rhs),rhsMax =  -9.73091607292531E-11  8.10509920566338E-02
 cg2d: Sum(rhs),rhsMax =  -1.09631526079568E-10  7.20069844179487E-02
 cg2d: Sum(rhs),rhsMax =  -1.25553567542624E-10  6.29047906750479E-02
 cg2d: Sum(rhs),rhsMax =  -1.25793597760548E-10  6.28108700787791E-02
 cg2d: Sum(rhs),rhsMax =  -1.25403354367393E-10  6.30138514396629E-02
 cg2d: Sum(rhs),rhsMax =  -1.25066068612512E-10  6.32236102409098E-02
 cg2d: Sum(rhs),rhsMax =  -1.24713239735286E-10  6.34360306006813E-02
 cg2d: Sum(rhs),rhsMax =  -1.24326965389443E-10  6.36512786116153E-02
 cg2d: Sum(rhs),rhsMax =  -1.23962215492490E-10  6.38708073268689E-02
 cg2d: Sum(rhs),rhsMax =  -1.23589081676978E-10  6.40939801641788E-02
 cg2d: Sum(rhs),rhsMax =  -1.23149823672009E-10  6.43174365185053E-02
 cg2d: Sum(rhs),rhsMax =  -1.22788806899976E-10  6.45424667676604E-02
 cg2d: Sum(rhs),rhsMax =  -1.22374943511971E-10  6.47687480369625E-02
 cg2d: Sum(rhs),rhsMax =  -1.21966714505817E-10  6.49960949426326E-02
 cg2d: Sum(rhs),rhsMax =  -1.21588294987873E-10  6.52244901113836E-02
 cg2d: Sum(rhs),rhsMax =  -1.20174648010618E-10  6.60066989925837E-02
 cg2d: Sum(rhs),rhsMax =  -1.07024944462353E-10  7.41268238884907E-02
 cg2d: Sum(rhs),rhsMax =  -9.62262491910337E-11  8.24666080468648E-02
 cg2d: Sum(rhs),rhsMax =  -8.73948691193505E-11  9.08516361279994E-02
 cg2d: Sum(rhs),rhsMax =  -7.99792454486692E-11  9.93950062769809E-02
 cg2d: Sum(rhs),rhsMax =  -7.36468663831147E-11  1.08014106680538E-01
 cg2d: Sum(rhs),rhsMax =  -6.82295331344562E-11  1.16743316324447E-01
 cg2d: Sum(rhs),rhsMax =  -6.34636787566478E-11  1.25590620888332E-01
 cg2d: Sum(rhs),rhsMax =  -5.92978999236493E-11  1.34527555109430E-01
 cg2d: Sum(rhs),rhsMax =  -5.56015233854623E-11  1.43615487014037E-01
 cg2d: Sum(rhs),rhsMax =  -5.22731857799386E-11  1.52872745699870E-01
 cg2d: Sum(rhs),rhsMax =  -4.93706187043585E-11  1.62080225945204E-01
 cg2d: Sum(rhs),rhsMax =  -4.68455274571511E-11  1.71232943040999E-01
 cg2d: Sum(rhs),rhsMax =  -4.45452563724302E-11  1.80325911776318E-01
 cg2d: Sum(rhs),rhsMax =  -4.25418589244941E-11  1.89354151015969E-01
 cg2d: Sum(rhs),rhsMax =  -4.06936706554006E-11  1.98312687698951E-01
 cg2d: Sum(rhs),rhsMax =  -3.90549814710539E-11  2.07196560340248E-01
 cg2d: Sum(rhs),rhsMax =  -3.75374176186938E-11  2.16000822181178E-01
 cg2d: Sum(rhs),rhsMax =  -3.61504159940296E-11  2.24720544193393E-01
 cg2d: Sum(rhs),rhsMax =  -3.48649997761186E-11  2.33350818208377E-01
 cg2d: Sum(rhs),rhsMax =  -3.37088135182739E-11  2.41886760475170E-01
 cg2d: Sum(rhs),rhsMax =  -3.26713101017617E-11  2.50323515946894E-01
 cg2d: Sum(rhs),rhsMax =  -3.16874304573389E-11  2.58656263560590E-01
 cg2d: Sum(rhs),rhsMax =  -3.07687209044616E-11  2.66880222705049E-01
 cg2d: Sum(rhs),rhsMax =  -2.99292812755425E-11  2.74990660961246E-01
 cg2d: Sum(rhs),rhsMax =  -2.91571211619157E-11  2.82982903069712E-01
 cg2d: Sum(rhs),rhsMax =  -2.84017254159608E-11  2.90852340945452E-01
 cg2d: Sum(rhs),rhsMax =  -2.77234901702172E-11  2.98594444433956E-01
 cg2d: Sum(rhs),rhsMax =  -2.70858890871750E-11  3.06204772389034E-01
 cg2d: Sum(rhs),rhsMax =  -2.64906985236735E-11  3.13678983568854E-01
 cg2d: Sum(rhs),rhsMax =  -2.59642307653962E-11  3.21012846806049E-01
 cg2d: Sum(rhs),rhsMax =  -2.55097054591147E-11  3.28202249921766E-01
 cg2d: Sum(rhs),rhsMax =  -2.50601761564440E-11  3.35243206923849E-01
 cg2d: Sum(rhs),rhsMax =  -2.46360709610371E-11  3.42131863147334E-01
 cg2d: Sum(rhs),rhsMax =  -2.42471598355110E-11  3.48864498147088E-01
 cg2d: Sum(rhs),rhsMax =  -2.38850050848782E-11  3.55437526328152E-01
 cg2d: Sum(rhs),rhsMax =  -2.35335084752819E-11  3.61847495468559E-01
 cg2d: Sum(rhs),rhsMax =  -2.32190933147081E-11  3.68091083442975E-01
 cg2d: Sum(rhs),rhsMax =  -2.28818075598269E-11  3.74165093575150E-01
 cg2d: Sum(rhs),rhsMax =  -2.25748308935181E-11  3.80066449137712E-01
 cg2d: Sum(rhs),rhsMax =  -2.23330243187547E-11  3.85792187545803E-01
 cg2d: Sum(rhs),rhsMax =  -2.20623519453511E-11  3.91339454772258E-01
 cg2d: Sum(rhs),rhsMax =  -2.18367546267473E-11  3.96705500452096E-01
 cg2d: Sum(rhs),rhsMax =  -2.16199280700380E-11  4.01887674073090E-01
 cg2d: Sum(rhs),rhsMax =  -2.13994377773474E-11  4.06883422472807E-01
 cg2d: Sum(rhs),rhsMax =  -2.12304618329995E-11  4.11690288771639E-01
 cg2d: Sum(rhs),rhsMax =  -2.10063078043277E-11  4.16305912814046E-01
 cg2d: Sum(rhs),rhsMax =  -2.08383310607019E-11  4.20728032998732E-01
 cg2d: Sum(rhs),rhsMax =  -2.06691330717490E-11  4.24954489214171E-01
 cg2d: Sum(rhs),rhsMax =  -2.05256922569674E-11  4.28983226701787E-01
 cg2d: Sum(rhs),rhsMax =  -2.04235517387019E-11  4.32812300722491E-01
 cg2d: Sum(rhs),rhsMax =  -2.03188577074798E-11  4.36439881474847E-01
 cg2d: Sum(rhs),rhsMax =  -2.02570182850081E-11  4.39864259274070E-01
 cg2d: Sum(rhs),rhsMax =  -2.02041716690360E-11  4.43083849580489E-01
 cg2d: Sum(rhs),rhsMax =  -2.01256789011950E-11  4.46097197947911E-01
 cg2d: Sum(rhs),rhsMax =  -2.02076133604123E-11  4.48902984672112E-01
 cg2d: Sum(rhs),rhsMax =  -2.01387795328856E-11  4.51500029094942E-01
 cg2d: Sum(rhs),rhsMax =  -2.01241245889605E-11  4.53887293517946E-01
 cg2d: Sum(rhs),rhsMax =  -2.00809369133026E-11  4.56063886708470E-01
 cg2d: Sum(rhs),rhsMax =  -2.01285654810590E-11  4.58029067004147E-01
 cg2d: Sum(rhs),rhsMax =  -2.00842675823765E-11  4.59782245026577E-01
 cg2d: Sum(rhs),rhsMax =  -2.00468530664466E-11  4.61322986007825E-01
 cg2d: Sum(rhs),rhsMax =  -2.00417460405333E-11  4.62651011717755E-01
 cg2d: Sum(rhs),rhsMax =  -1.99773531051051E-11  4.63766201957339E-01
 cg2d: Sum(rhs),rhsMax =  -1.98906446868818E-11  4.64668595507245E-01
 cg2d: Sum(rhs),rhsMax =  -1.97649674404943E-11  4.65358390604317E-01
 cg2d: Sum(rhs),rhsMax =  -1.96912486316592E-11  4.65835944854495E-01
 cg2d: Sum(rhs),rhsMax =  -1.96266336516260E-11  4.66101774433264E-01
 cg2d: Sum(rhs),rhsMax =  -1.95522487089761E-11  4.66156552550271E-01
 cg2d: Sum(rhs),rhsMax =  -1.95188309959349E-11  4.66001107182409E-01
 cg2d: Sum(rhs),rhsMax =  -1.95006233383310E-11  4.65636417990384E-01
 cg2d: Sum(rhs),rhsMax =  -1.95299332261811E-11  4.65063612563169E-01
 cg2d: Sum(rhs),rhsMax =  -1.95778948608449E-11  4.64283962589341E-01
 cg2d: Sum(rhs),rhsMax =  -1.96412885955510E-11  4.63298879413142E-01
 cg2d: Sum(rhs),rhsMax =  -1.96688221265617E-11  4.62109908677374E-01
 cg2d: Sum(rhs),rhsMax =  -1.97085681108433E-11  4.60718725353948E-01
 cg2d: Sum(rhs),rhsMax =  -1.97514227195938E-11  4.59127128730980E-01
 cg2d: Sum(rhs),rhsMax =  -1.97775129606725E-11  4.57337037345809E-01
 cg2d: Sum(rhs),rhsMax =  -1.98301375320398E-11  4.55350484002162E-01
 cg2d: Sum(rhs),rhsMax =  -1.98956406904927E-11  4.53169610971561E-01
 cg2d: Sum(rhs),rhsMax =  -1.99538163769830E-11  4.50796665755227E-01
 cg2d: Sum(rhs),rhsMax =  -2.00277572304230E-11  4.48233996274992E-01
 cg2d: Sum(rhs),rhsMax =  -2.00710559283834E-11  4.45484046575812E-01
 cg2d: Sum(rhs),rhsMax =  -2.01434424695890E-11  4.42549352822530E-01
 cg2d: Sum(rhs),rhsMax =  -2.02344807576083E-11  4.39432539876818E-01
 cg2d: Sum(rhs),rhsMax =  -2.03296268708186E-11  4.36136316949572E-01
 cg2d: Sum(rhs),rhsMax =  -2.04062322595178E-11  4.32663473265173E-01
 cg2d: Sum(rhs),rhsMax =  -2.05053751756168E-11  4.29016873986360E-01
 cg2d: Sum(rhs),rhsMax =  -2.06548111947313E-11  4.25199455963091E-01
 cg2d: Sum(rhs),rhsMax =  -2.07951433850440E-11  4.21214223419766E-01
 cg2d: Sum(rhs),rhsMax =  -2.09740003143111E-11  4.17064243512045E-01
 cg2d: Sum(rhs),rhsMax =  -2.11484163514797E-11  4.12752642098152E-01
 cg2d: Sum(rhs),rhsMax =  -2.13391526671103E-11  4.08282599237227E-01
 cg2d: Sum(rhs),rhsMax =  -2.15221174215685E-11  4.03657344631458E-01
 cg2d: Sum(rhs),rhsMax =  -2.17321716178276E-11  3.98880153008312E-01
 cg2d: Sum(rhs),rhsMax =  -2.19463336392778E-11  3.93954339575356E-01
 cg2d: Sum(rhs),rhsMax =  -2.21587193038886E-11  3.88883255543738E-01
 cg2d: Sum(rhs),rhsMax =  -2.24025242800963E-11  3.83670283667918E-01
 cg2d: Sum(rhs),rhsMax =  -2.26615393117413E-11  3.78318833361620E-01
 cg2d: Sum(rhs),rhsMax =  -2.29323227074474E-11  3.72832336742209E-01
 cg2d: Sum(rhs),rhsMax =  -2.32135421995849E-11  3.67214244361721E-01
 cg2d: Sum(rhs),rhsMax =  -2.35130803716288E-11  3.61468020672774E-01
 cg2d: Sum(rhs),rhsMax =  -2.38269404206903E-11  3.55597139359949E-01
 cg2d: Sum(rhs),rhsMax =  -2.41706654691143E-11  3.49605078220483E-01
 cg2d: Sum(rhs),rhsMax =  -2.45106157592545E-11  3.43495315246603E-01
 cg2d: Sum(rhs),rhsMax =  -2.48578935213573E-11  3.37271324597346E-01
 cg2d: Sum(rhs),rhsMax =  -2.52441401116243E-11  3.30936572504391E-01
 cg2d: Sum(rhs),rhsMax =  -2.56469290249584E-11  3.24494513380317E-01
 cg2d: Sum(rhs),rhsMax =  -2.61016763758448E-11  3.17948586296113E-01
 cg2d: Sum(rhs),rhsMax =  -2.65670818677677E-11  3.11302211906775E-01
 cg2d: Sum(rhs),rhsMax =  -2.70580224892569E-11  3.04558789785227E-01
 cg2d: Sum(rhs),rhsMax =  -2.75729439280781E-11  2.97721696246402E-01
 cg2d: Sum(rhs),rhsMax =  -2.81646928002033E-11  2.90794282711890E-01
 cg2d: Sum(rhs),rhsMax =  -2.88369328416138E-11  2.83779874406509E-01
 cg2d: Sum(rhs),rhsMax =  -2.95098390168391E-11  2.76681769455415E-01
 cg2d: Sum(rhs),rhsMax =  -3.02625702275350E-11  2.69503237946099E-01
 cg2d: Sum(rhs),rhsMax =  -3.10197423303293E-11  2.62247521346230E-01
 cg2d: Sum(rhs),rhsMax =  -3.18367554541510E-11  2.54917832180740E-01
 cg2d: Sum(rhs),rhsMax =  -3.27480265127633E-11  2.47517353797286E-01
 cg2d: Sum(rhs),rhsMax =  -3.36628502850544E-11  2.40049240047502E-01
 cg2d: Sum(rhs),rhsMax =  -3.46630502079392E-11  2.32516615040712E-01
 cg2d: Sum(rhs),rhsMax =  -3.57843754628107E-11  2.24922572430686E-01
 cg2d: Sum(rhs),rhsMax =  -3.69442254566366E-11  2.17270174721376E-01
 cg2d: Sum(rhs),rhsMax =  -3.82209819349555E-11  2.09562452575579E-01
 cg2d: Sum(rhs),rhsMax =  -3.96322974438590E-11  2.01802404125373E-01
 cg2d: Sum(rhs),rhsMax =  -4.10951273011051E-11  1.93992994227437E-01
 cg2d: Sum(rhs),rhsMax =  -4.27561319682468E-11  1.86137153438683E-01
 cg2d: Sum(rhs),rhsMax =  -4.45309344954126E-11  1.78237777188201E-01
 cg2d: Sum(rhs),rhsMax =  -4.64882576878267E-11  1.70297725309229E-01
 cg2d: Sum(rhs),rhsMax =  -4.86732876225915E-11  1.62319822191748E-01
 cg2d: Sum(rhs),rhsMax =  -5.10698150435474E-11  1.54306857152480E-01
 cg2d: Sum(rhs),rhsMax =  -5.37671018818742E-11  1.46261585628379E-01
 cg2d: Sum(rhs),rhsMax =  -5.68070035456003E-11  1.38186731507384E-01
 cg2d: Sum(rhs),rhsMax =  -6.02189409448783E-11  1.30084990611805E-01
 cg2d: Sum(rhs),rhsMax =  -6.40907327209561E-11  1.21959035303998E-01
 cg2d: Sum(rhs),rhsMax =  -6.86040113606623E-11  1.13811520250683E-01
 cg2d: Sum(rhs),rhsMax =  -7.38398231447945E-11  1.05645089274277E-01
 cg2d: Sum(rhs),rhsMax =  -7.99662558392811E-11  9.74623830139794E-02
 cg2d: Sum(rhs),rhsMax =  -8.72112382310775E-11  8.92660473543229E-02
 cg2d: Sum(rhs),rhsMax =  -9.59528567712198E-11  8.10587422160113E-02
 cg2d: Sum(rhs),rhsMax =  -1.06666842025760E-10  7.28431500915786E-02
 cg2d: Sum(rhs),rhsMax =  -1.11941678149208E-10  6.93175699362480E-02
 cg2d: Sum(rhs),rhsMax =  -1.12265752250096E-10  6.90653687887698E-02
 cg2d: Sum(rhs),rhsMax =  -1.12541420627110E-10  6.88022101228925E-02
 cg2d: Sum(rhs),rhsMax =  -1.12874948970942E-10  6.85296713594433E-02
 cg2d: Sum(rhs),rhsMax =  -1.13236961474250E-10  6.82504210815719E-02
 cg2d: Sum(rhs),rhsMax =  -1.13599102347095E-10  6.79648218733524E-02
 cg2d: Sum(rhs),rhsMax =  -1.14035503262500E-10  6.76534142300021E-02
 cg2d: Sum(rhs),rhsMax =  -1.14467546552532E-10  6.73325418264665E-02
 cg2d: Sum(rhs),rhsMax =  -1.14891873792544E-10  6.70104787659655E-02
 cg2d: Sum(rhs),rhsMax =  -1.15336518113907E-10  6.66750640971529E-02
 cg2d: Sum(rhs),rhsMax =  -1.15846554571419E-10  6.63279072067234E-02
 cg2d: Sum(rhs),rhsMax =  -1.16370357794437E-10  6.59772001862602E-02
 cg2d: Sum(rhs),rhsMax =  -1.08668851694915E-10  7.05986479653197E-02
 cg2d: Sum(rhs),rhsMax =  -9.96267512931581E-11  7.69300029347733E-02
 cg2d: Sum(rhs),rhsMax =  -9.20108433888345E-11  8.32341653559717E-02
 cg2d: Sum(rhs),rhsMax =  -8.45840064656045E-11  9.04640166414775E-02
 cg2d: Sum(rhs),rhsMax =  -7.80457920512845E-11  9.79814983475493E-02
 cg2d: Sum(rhs),rhsMax =  -7.24620363712347E-11  1.05460439633088E-01
 cg2d: Sum(rhs),rhsMax =  -6.75796085758407E-11  1.12897107560878E-01
 cg2d: Sum(rhs),rhsMax =  -6.33069152655708E-11  1.20287767477632E-01
 cg2d: Sum(rhs),rhsMax =  -5.95887783561011E-11  1.27628684353863E-01
 cg2d: Sum(rhs),rhsMax =  -5.62135893389382E-11  1.34916125197533E-01
 cg2d: Sum(rhs),rhsMax =  -5.32539567998924E-11  1.42146363152939E-01
 cg2d: Sum(rhs),rhsMax =  -5.05873121170453E-11  1.49315678513789E-01
 cg2d: Sum(rhs),rhsMax =  -4.82343054386547E-11  1.56420360088790E-01
 cg2d: Sum(rhs),rhsMax =  -4.60400606527855E-11  1.63456711115462E-01
 cg2d: Sum(rhs),rhsMax =  -4.40781855459704E-11  1.70421056066981E-01
 cg2d: Sum(rhs),rhsMax =  -4.22720747295102E-11  1.77309745981568E-01
 cg2d: Sum(rhs),rhsMax =  -4.06428224408728E-11  1.84119163289401E-01
 cg2d: Sum(rhs),rhsMax =  -3.91003895927611E-11  1.90845724496808E-01
 cg2d: Sum(rhs),rhsMax =  -3.77140541019116E-11  1.97485882412119E-01
 cg2d: Sum(rhs),rhsMax =  -3.64781538308989E-11  2.04036129242672E-01
 cg2d: Sum(rhs),rhsMax =  -3.52613493959097E-11  2.10493000732611E-01
 cg2d: Sum(rhs),rhsMax =  -3.41735528763820E-11  2.16853080439796E-01
 cg2d: Sum(rhs),rhsMax =  -3.31387139951289E-11  2.23113004770238E-01
 cg2d: Sum(rhs),rhsMax =  -3.21906945544015E-11  2.29269462443611E-01
 cg2d: Sum(rhs),rhsMax =  -3.12797565626965E-11  2.35319195402082E-01
 cg2d: Sum(rhs),rhsMax =  -3.04679614870906E-11  2.41259001878518E-01
 cg2d: Sum(rhs),rhsMax =  -2.96860314108471E-11  2.47085741026870E-01
 cg2d: Sum(rhs),rhsMax =  -2.89903656636170E-11  2.52796337876435E-01
 cg2d: Sum(rhs),rhsMax =  -2.83066903250528E-11  2.58387787961370E-01
 cg2d: Sum(rhs),rhsMax =  -2.76243472541182E-11  2.63857161214940E-01
 cg2d: Sum(rhs),rhsMax =  -2.69810840336504E-11  2.69201605198733E-01
 cg2d: Sum(rhs),rhsMax =  -2.63794541766060E-11  2.74418349614976E-01
 cg2d: Sum(rhs),rhsMax =  -2.57791565871912E-11  2.79504706456486E-01
 cg2d: Sum(rhs),rhsMax =  -2.52490250929327E-11  2.84458072890393E-01
 cg2d: Sum(rhs),rhsMax =  -2.47337705872042E-11  2.89275935223848E-01
 cg2d: Sum(rhs),rhsMax =  -2.42507125491898E-11  2.93955872865816E-01
 cg2d: Sum(rhs),rhsMax =  -2.38246089523386E-11  2.98495561348555E-01
 cg2d: Sum(rhs),rhsMax =  -2.34585684211197E-11  3.02892772521352E-01
 cg2d: Sum(rhs),rhsMax =  -2.30410135415582E-11  3.07145379837035E-01
 cg2d: Sum(rhs),rhsMax =  -2.26342278253355E-11  3.11251363226565E-01
 cg2d: Sum(rhs),rhsMax =  -2.23137064381262E-11  3.15208809068385E-01
 cg2d: Sum(rhs),rhsMax =  -2.19857465566520E-11  3.19015909141614E-01
 cg2d: Sum(rhs),rhsMax =  -2.16933138119657E-11  3.22670955414124E-01
 cg2d: Sum(rhs),rhsMax =  -2.14022133349090E-11  3.26172336426176E-01
 cg2d: Sum(rhs),rhsMax =  -2.11197725974444E-11  3.29518534652221E-01
 cg2d: Sum(rhs),rhsMax =  -2.08607575657993E-11  3.32708159818053E-01
 cg2d: Sum(rhs),rhsMax =  -2.05989669765927E-11  3.35739818681363E-01
 cg2d: Sum(rhs),rhsMax =  -2.03950190069691E-11  3.38612260013428E-01
 cg2d: Sum(rhs),rhsMax =  -2.01586525250264E-11  3.41324344967384E-01
 cg2d: Sum(rhs),rhsMax =  -1.99765759489878E-11  3.43875027035734E-01
 cg2d: Sum(rhs),rhsMax =  -1.97977190197207E-11  3.46263342170847E-01
 cg2d: Sum(rhs),rhsMax =  -1.96257454732063E-11  3.48488413232127E-01
 cg2d: Sum(rhs),rhsMax =  -1.94503302353155E-11  3.50549451640413E-01
 cg2d: Sum(rhs),rhsMax =  -1.92835747370168E-11  3.52445764217933E-01
 cg2d: Sum(rhs),rhsMax =  -1.90697457824740E-11  3.54375855628950E-01
 cg2d: Sum(rhs),rhsMax =  -1.88600246531223E-11  3.57002259308464E-01
 cg2d: Sum(rhs),rhsMax =  -1.86690662928868E-11  3.59470017251815E-01
 cg2d: Sum(rhs),rhsMax =  -1.84960935456502E-11  3.61777728805675E-01
 cg2d: Sum(rhs),rhsMax =  -1.83197901293397E-11  3.63924057515500E-01
 cg2d: Sum(rhs),rhsMax =  -1.81507031626893E-11  3.65907731040915E-01
 cg2d: Sum(rhs),rhsMax =  -1.80454540199548E-11  3.67727541175776E-01
 cg2d: Sum(rhs),rhsMax =  -1.79388726095908E-11  3.69382344068021E-01
 cg2d: Sum(rhs),rhsMax =  -1.78250747495667E-11  3.70871060705366E-01
 cg2d: Sum(rhs),rhsMax =  -1.77413639335100E-11  3.72192677699906E-01
 cg2d: Sum(rhs),rhsMax =  -1.76638703663912E-11  3.73346248385025E-01
 cg2d: Sum(rhs),rhsMax =  -1.76506587123981E-11  3.74330894131989E-01
 cg2d: Sum(rhs),rhsMax =  -1.75687242531808E-11  3.75145806090537E-01
 cg2d: Sum(rhs),rhsMax =  -1.75283121350844E-11  3.75790247086410E-01
 cg2d: Sum(rhs),rhsMax =  -1.74987802026294E-11  3.76263553610433E-01
 cg2d: Sum(rhs),rhsMax =  -1.74829040133773E-11  3.76565137830376E-01
 cg2d: Sum(rhs),rhsMax =  -1.74550374154592E-11  3.76694489558742E-01
 cg2d: Sum(rhs),rhsMax =  -1.74416037168612E-11  3.76651178098609E-01
 cg2d: Sum(rhs),rhsMax =  -1.73885350562841E-11  3.76434853829337E-01
 cg2d: Sum(rhs),rhsMax =  -1.73411285331326E-11  3.76045249509693E-01
 cg2d: Sum(rhs),rhsMax =  -1.73564496108725E-11  3.75482181634270E-01
 cg2d: Sum(rhs),rhsMax =  -1.73188130503377E-11  3.74745551228620E-01
 cg2d: Sum(rhs),rhsMax =  -1.73051573071348E-11  3.73835344239207E-01
 cg2d: Sum(rhs),rhsMax =  -1.73032699279929E-11  3.72751631327606E-01
 cg2d: Sum(rhs),rhsMax =  -1.73538960979158E-11  3.71494567759039E-01
 cg2d: Sum(rhs),rhsMax =  -1.73678849080261E-11  3.70064392983256E-01
 cg2d: Sum(rhs),rhsMax =  -1.73706604655877E-11  3.68461429892118E-01
 cg2d: Sum(rhs),rhsMax =  -1.74141812081530E-11  3.66686083866736E-01
 cg2d: Sum(rhs),rhsMax =  -1.74438241629105E-11  3.64738842072515E-01
 cg2d: Sum(rhs),rhsMax =  -1.75027770055181E-11  3.62620271875009E-01
 cg2d: Sum(rhs),rhsMax =  -1.75799375057295E-11  3.60331019501034E-01
 cg2d: Sum(rhs),rhsMax =  -1.76568759613360E-11  3.57871809009257E-01
 cg2d: Sum(rhs),rhsMax =  -1.78803638561931E-11  3.55243441287290E-01
 cg2d: Sum(rhs),rhsMax =  -1.80807591121379E-11  3.52446793738628E-01
 cg2d: Sum(rhs),rhsMax =  -1.82907022860945E-11  3.49482819381892E-01
 cg2d: Sum(rhs),rhsMax =  -1.85512716299741E-11  3.46352546288596E-01
 cg2d: Sum(rhs),rhsMax =  -1.88410398394012E-11  3.43057077142519E-01
 cg2d: Sum(rhs),rhsMax =  -1.91817672856587E-11  3.39597588966506E-01
 cg2d: Sum(rhs),rhsMax =  -1.95182758844226E-11  3.35975333155061E-01
 cg2d: Sum(rhs),rhsMax =  -1.97575289462293E-11  3.32191635502501E-01
 cg2d: Sum(rhs),rhsMax =  -2.00567340513658E-11  3.28247896174875E-01
 cg2d: Sum(rhs),rhsMax =  -2.03763672601553E-11  3.24145589615021E-01
 cg2d: Sum(rhs),rhsMax =  -2.07136530150365E-11  3.19886264364908E-01
 cg2d: Sum(rhs),rhsMax =  -2.10497175245905E-11  3.15471542666842E-01
 cg2d: Sum(rhs),rhsMax =  -2.14056550262853E-11  3.10903119937578E-01
 cg2d: Sum(rhs),rhsMax =  -2.17823536985406E-11  3.06182763915945E-01
 cg2d: Sum(rhs),rhsMax =  -2.22007967565219E-11  3.01312313926969E-01
 cg2d: Sum(rhs),rhsMax =  -2.27003971176032E-11  2.96293680331739E-01
 cg2d: Sum(rhs),rhsMax =  -2.31437091713360E-11  2.91128843548224E-01
 cg2d: Sum(rhs),rhsMax =  -2.36568542533178E-11  2.85819852754705E-01
 cg2d: Sum(rhs),rhsMax =  -2.41694442237872E-11  2.80368824411029E-01
 cg2d: Sum(rhs),rhsMax =  -2.47756259952325E-11  2.74777940410370E-01
 cg2d: Sum(rhs),rhsMax =  -2.53878029710108E-11  2.69049446694499E-01
 cg2d: Sum(rhs),rhsMax =  -2.60679255958962E-11  2.63185651835504E-01
 cg2d: Sum(rhs),rhsMax =  -2.67839084244770E-11  2.57188925414811E-01
 cg2d: Sum(rhs),rhsMax =  -2.74822387069662E-11  2.51061696297218E-01
 cg2d: Sum(rhs),rhsMax =  -2.82494028169822E-11  2.44806450911571E-01
 cg2d: Sum(rhs),rhsMax =  -2.90384383205833E-11  2.38425731631450E-01
 cg2d: Sum(rhs),rhsMax =  -2.98799873732492E-11  2.31922135348415E-01
 cg2d: Sum(rhs),rhsMax =  -3.08278957916741E-11  2.25298312298745E-01
 cg2d: Sum(rhs),rhsMax =  -3.18405302124347E-11  2.18556965162840E-01
 cg2d: Sum(rhs),rhsMax =  -3.29314353564314E-11  2.11700848726274E-01
 cg2d: Sum(rhs),rhsMax =  -3.41381367618965E-11  2.04732769758969E-01
 cg2d: Sum(rhs),rhsMax =  -3.54277718273011E-11  1.97655587495233E-01
 cg2d: Sum(rhs),rhsMax =  -3.68620689528143E-11  1.90472214688635E-01
 cg2d: Sum(rhs),rhsMax =  -3.84392517815968E-11  1.83185619169945E-01
 cg2d: Sum(rhs),rhsMax =  -4.01055855192567E-11  1.75798825845937E-01
 cg2d: Sum(rhs),rhsMax =  -4.20039558690632E-11  1.68314919008293E-01
 cg2d: Sum(rhs),rhsMax =  -4.40749658991990E-11  1.60737044716069E-01
 cg2d: Sum(rhs),rhsMax =  -4.64133176336645E-11  1.53068413150740E-01
 cg2d: Sum(rhs),rhsMax =  -4.90150142695711E-11  1.45312300956119E-01
 cg2d: Sum(rhs),rhsMax =  -5.19133624976575E-11  1.37472053268111E-01
 cg2d: Sum(rhs),rhsMax =  -5.52037304757391E-11  1.29551085214725E-01
 cg2d: Sum(rhs),rhsMax =  -5.88934456757784E-11  1.21552882718200E-01
 cg2d: Sum(rhs),rhsMax =  -6.30662189138320E-11  1.13481002603015E-01
 cg2d: Sum(rhs),rhsMax =  -6.80105971540002E-11  1.05339071726396E-01
 cg2d: Sum(rhs),rhsMax =  -7.38484828843866E-11  9.71307851640797E-02
 cg2d: Sum(rhs),rhsMax =  -8.08494382553704E-11  8.88599036515302E-02
 cg2d: Sum(rhs),rhsMax =  -8.93106699706436E-11  8.05302501764716E-02
 cg2d: Sum(rhs),rhsMax =  -9.97547600078974E-11  7.21457061418810E-02
 cg2d: Sum(rhs),rhsMax =  -1.13064557716314E-10  6.37102067065866E-02
 cg2d: Sum(rhs),rhsMax =  -1.15838560965642E-10  6.22055077956928E-02
 cg2d: Sum(rhs),rhsMax =  -1.15454867888332E-10  6.24499787675377E-02
 cg2d: Sum(rhs),rhsMax =  -1.15043419235406E-10  6.26895173802837E-02
 cg2d: Sum(rhs),rhsMax =  -1.14662390693354E-10  6.29221560283545E-02
 cg2d: Sum(rhs),rhsMax =  -1.14317111332696E-10  6.31482254521847E-02
 cg2d: Sum(rhs),rhsMax =  -1.13939080392811E-10  6.33671846887358E-02
 cg2d: Sum(rhs),rhsMax =  -1.13610454377522E-10  6.35783654650121E-02
 cg2d: Sum(rhs),rhsMax =  -1.13301645843222E-10  6.37820894636964E-02
 cg2d: Sum(rhs),rhsMax =  -1.13048119476655E-10  6.39564612333809E-02
 cg2d: Sum(rhs),rhsMax =  -1.12765755067024E-10  6.41377786989577E-02
 cg2d: Sum(rhs),rhsMax =  -1.12501091775741E-10  6.43170763924212E-02
 cg2d: Sum(rhs),rhsMax =  -1.12247378059038E-10  6.44885591934421E-02
 cg2d: Sum(rhs),rhsMax =  -1.11960940518685E-10  6.46564578069558E-02
 cg2d: Sum(rhs),rhsMax =  -1.11677944669708E-10  6.48280949754629E-02
 cg2d: Sum(rhs),rhsMax =  -1.02428954207312E-10  7.07115260299989E-02
 cg2d: Sum(rhs),rhsMax =  -9.24490484166540E-11  7.83725231413201E-02
 cg2d: Sum(rhs),rhsMax =  -8.41382519212175E-11  8.62107264988840E-02
 cg2d: Sum(rhs),rhsMax =  -7.71471775351529E-11  9.40672319714275E-02
 cg2d: Sum(rhs),rhsMax =  -7.12166992045127E-11  1.02067373660752E-01
 cg2d: Sum(rhs),rhsMax =  -6.60561605414500E-11  1.10111039448473E-01
 cg2d: Sum(rhs),rhsMax =  -6.15898443356855E-11  1.18254421752006E-01
 cg2d: Sum(rhs),rhsMax =  -5.76169112420644E-11  1.26529812721514E-01
 cg2d: Sum(rhs),rhsMax =  -5.40919531388795E-11  1.34913560849652E-01
 cg2d: Sum(rhs),rhsMax =  -5.09793318670404E-11  1.43332008532365E-01
 cg2d: Sum(rhs),rhsMax =  -4.82152096026311E-11  1.51697280286191E-01
 cg2d: Sum(rhs),rhsMax =  -4.58120208435275E-11  1.60005147468532E-01
 cg2d: Sum(rhs),rhsMax =  -4.36952696247772E-11  1.68251387394755E-01
 cg2d: Sum(rhs),rhsMax =  -4.17385015438754E-11  1.76431787585862E-01
 cg2d: Sum(rhs),rhsMax =  -3.99879018786464E-11  1.84542150385115E-01
 cg2d: Sum(rhs),rhsMax =  -3.84273723952333E-11  1.92578297851289E-01
 cg2d: Sum(rhs),rhsMax =  -3.70016239870097E-11  2.00536076838909E-01
 cg2d: Sum(rhs),rhsMax =  -3.57024410035933E-11  2.08411364185754E-01
 cg2d: Sum(rhs),rhsMax =  -3.44499984095137E-11  2.16200071933082E-01
 cg2d: Sum(rhs),rhsMax =  -3.33496563698077E-11  2.23898152511999E-01
 cg2d: Sum(rhs),rhsMax =  -3.23107096633635E-11  2.31501603850025E-01
 cg2d: Sum(rhs),rhsMax =  -3.13598036427720E-11  2.39006474361920E-01
 cg2d: Sum(rhs),rhsMax =  -3.04684055763005E-11  2.46408867786580E-01
 cg2d: Sum(rhs),rhsMax =  -2.96909163921555E-11  2.53704947841274E-01
 cg2d: Sum(rhs),rhsMax =  -2.88912227475180E-11  2.60890942659801E-01
 cg2d: Sum(rhs),rhsMax =  -2.82172063492681E-11  2.67963148983377E-01
 cg2d: Sum(rhs),rhsMax =  -2.75289790963029E-11  2.74917936082515E-01
 cg2d: Sum(rhs),rhsMax =  -2.69224642579502E-11  2.81751749397705E-01
 cg2d: Sum(rhs),rhsMax =  -2.62923016691730E-11  2.88461113892410E-01
 cg2d: Sum(rhs),rhsMax =  -2.58604249125938E-11  2.95042637114781E-01
 cg2d: Sum(rhs),rhsMax =  -2.53750354062277E-11  3.01493011967459E-01
 cg2d: Sum(rhs),rhsMax =  -2.49641418648139E-11  3.07809019189636E-01
 cg2d: Sum(rhs),rhsMax =  -2.45492515205115E-11  3.13987529561156E-01
 cg2d: Sum(rhs),rhsMax =  -2.41798803202187E-11  3.20025505846924E-01
 cg2d: Sum(rhs),rhsMax =  -2.38011832465190E-11  3.25920004494644E-01
 cg2d: Sum(rhs),rhsMax =  -2.34731123427423E-11  3.31668177107259E-01
 cg2d: Sum(rhs),rhsMax =  -2.31635821634768E-11  3.37267271707830E-01
 cg2d: Sum(rhs),rhsMax =  -2.28622676345935E-11  3.42714633811984E-01
 cg2d: Sum(rhs),rhsMax =  -2.25830465439003E-11  3.48007707320682E-01
 cg2d: Sum(rhs),rhsMax =  -2.22881713085599E-11  3.53144035242937E-01
 cg2d: Sum(rhs),rhsMax =  -2.20827800490042E-11  3.58121260261335E-01
 cg2d: Sum(rhs),rhsMax =  -2.18393081397039E-11  3.62937125176690E-01
 cg2d: Sum(rhs),rhsMax =  -2.16023865462489E-11  3.67589473215815E-01
 cg2d: Sum(rhs),rhsMax =  -2.13885575917061E-11  3.72076248225931E-01
 cg2d: Sum(rhs),rhsMax =  -2.11924922055573E-11  3.76395494825680E-01
 cg2d: Sum(rhs),rhsMax =  -2.10171879899690E-11  3.80545358525312E-01
 cg2d: Sum(rhs),rhsMax =  -2.08402184398437E-11  3.84524085759717E-01
 cg2d: Sum(rhs),rhsMax =  -2.06902273092169E-11  3.88330023931359E-01
 cg2d: Sum(rhs),rhsMax =  -2.05141459375113E-11  3.91961621580022E-01
 cg2d: Sum(rhs),rhsMax =  -2.06294981097699E-11  3.95417428570481E-01
 cg2d: Sum(rhs),rhsMax =  -2.05634398398047E-11  3.98696096465681E-01
 cg2d: Sum(rhs),rhsMax =  -2.05092609562030E-11  4.01796379001074E-01
 cg2d: Sum(rhs),rhsMax =  -2.04469774445215E-11  4.04717132727758E-01
 cg2d: Sum(rhs),rhsMax =  -2.04002370551848E-11  4.07457317912966E-01
 cg2d: Sum(rhs),rhsMax =  -2.03682626320756E-11  4.10015999607975E-01
 cg2d: Sum(rhs),rhsMax =  -2.03419503463920E-11  4.12392348857770E-01
 cg2d: Sum(rhs),rhsMax =  -2.02722283404455E-11  4.14585644008301E-01
 cg2d: Sum(rhs),rhsMax =  -2.02654559799953E-11  4.16595272046913E-01
 cg2d: Sum(rhs),rhsMax =  -2.02965422246848E-11  4.18420729907898E-01
 cg2d: Sum(rhs),rhsMax =  -2.03291827816088E-11  4.20061625676788E-01
 cg2d: Sum(rhs),rhsMax =  -2.03842498436302E-11  4.21517679633777E-01
 cg2d: Sum(rhs),rhsMax =  -2.03266292686521E-11  4.22788725069648E-01
 cg2d: Sum(rhs),rhsMax =  -2.02003969107523E-11  4.23874708798766E-01
 cg2d: Sum(rhs),rhsMax =  -2.01019201284680E-11  4.24775691407005E-01
 cg2d: Sum(rhs),rhsMax =  -2.00236494052319E-11  4.25491847283293E-01
 cg2d: Sum(rhs),rhsMax =  -1.99351646301693E-11  4.26023464349065E-01
 cg2d: Sum(rhs),rhsMax =  -1.98521199479273E-11  4.26370943526929E-01
 cg2d: Sum(rhs),rhsMax =  -1.98079330715473E-11  4.26534798004068E-01
 cg2d: Sum(rhs),rhsMax =  -1.97536431656431E-11  4.26515652340174E-01
 cg2d: Sum(rhs),rhsMax =  -1.97045713079547E-11  4.26314241395318E-01
 cg2d: Sum(rhs),rhsMax =  -1.97307725713358E-11  4.25931408990643E-01
 cg2d: Sum(rhs),rhsMax =  -1.97616367714204E-11  4.25368107033128E-01
 cg2d: Sum(rhs),rhsMax =  -1.97941663060419E-11  4.24625394115663E-01
 cg2d: Sum(rhs),rhsMax =  -1.98172589449541E-11  4.23704433791847E-01
 cg2d: Sum(rhs),rhsMax =  -1.98662197803401E-11  4.22606492350669E-01
 cg2d: Sum(rhs),rhsMax =  -1.98716598731608E-11  4.21332936818705E-01
 cg2d: Sum(rhs),rhsMax =  -1.98902005976720E-11  4.19885232429556E-01
 cg2d: Sum(rhs),rhsMax =  -1.99261718236698E-11  4.18264939473730E-01
 cg2d: Sum(rhs),rhsMax =  -2.00103267289364E-11  4.16473709631409E-01
 cg2d: Sum(rhs),rhsMax =  -2.00697236607539E-11  4.14513282176755E-01
 cg2d: Sum(rhs),rhsMax =  -2.01181293846275E-11  4.12385479252605E-01
 cg2d: Sum(rhs),rhsMax =  -2.01521022091811E-11  4.10092200684478E-01
 cg2d: Sum(rhs),rhsMax =  -2.02391436943117E-11  4.07635418896828E-01
 cg2d: Sum(rhs),rhsMax =  -2.03221883765536E-11  4.05017173879475E-01
 cg2d: Sum(rhs),rhsMax =  -2.03665972975386E-11  4.02239568349384E-01
 cg2d: Sum(rhs),rhsMax =  -2.04508632251077E-11  3.99304762369651E-01
 cg2d: Sum(rhs),rhsMax =  -2.05284678145290E-11  3.96214968280732E-01
 cg2d: Sum(rhs),rhsMax =  -2.06223926824123E-11  3.92972446153320E-01
 cg2d: Sum(rhs),rhsMax =  -2.07729389245515E-11  3.89579499417620E-01
 cg2d: Sum(rhs),rhsMax =  -2.08897343867420E-11  3.86038471026684E-01
 cg2d: Sum(rhs),rhsMax =  -2.10561568181333E-11  3.82351740077213E-01
 cg2d: Sum(rhs),rhsMax =  -2.12250217401788E-11  3.78521718683610E-01
 cg2d: Sum(rhs),rhsMax =  -2.13965511974834E-11  3.74550849161135E-01
 cg2d: Sum(rhs),rhsMax =  -2.15633066957821E-11  3.70441601262107E-01
 cg2d: Sum(rhs),rhsMax =  -2.17909024158303E-11  3.66196469560064E-01
 cg2d: Sum(rhs),rhsMax =  -2.19901874487505E-11  3.61817971013364E-01
 cg2d: Sum(rhs),rhsMax =  -2.22084572953918E-11  3.57308642722718E-01
 cg2d: Sum(rhs),rhsMax =  -2.24386065283966E-11  3.52671039563681E-01
 cg2d: Sum(rhs),rhsMax =  -2.26835217276289E-11  3.47907732316914E-01
 cg2d: Sum(rhs),rhsMax =  -2.29367635995459E-11  3.43021306087136E-01
 cg2d: Sum(rhs),rhsMax =  -2.31999974786845E-11  3.38014358613970E-01
 cg2d: Sum(rhs),rhsMax =  -2.34925412456732E-11  3.32889498581300E-01
 cg2d: Sum(rhs),rhsMax =  -2.38156161458392E-11  3.27649344069079E-01
 cg2d: Sum(rhs),rhsMax =  -2.41668907108306E-11  3.22296520827380E-01
 cg2d: Sum(rhs),rhsMax =  -2.44861908527128E-11  3.16833661715089E-01
 cg2d: Sum(rhs),rhsMax =  -2.48249198975259E-11  3.11263406132299E-01
 cg2d: Sum(rhs),rhsMax =  -2.52717846649375E-11  3.05588399529490E-01
 cg2d: Sum(rhs),rhsMax =  -2.56678012178213E-11  2.99811293090353E-01
 cg2d: Sum(rhs),rhsMax =  -2.60841348520557E-11  2.93934743662347E-01
 cg2d: Sum(rhs),rhsMax =  -2.65091282258823E-11  2.87961413960721E-01
 cg2d: Sum(rhs),rhsMax =  -2.69750888293174E-11  2.81893973039970E-01
 cg2d: Sum(rhs),rhsMax =  -2.75045541897612E-11  2.75735096959028E-01
 cg2d: Sum(rhs),rhsMax =  -2.80800938057268E-11  2.69487469625746E-01
 cg2d: Sum(rhs),rhsMax =  -2.87001533649800E-11  2.63153784022903E-01
 cg2d: Sum(rhs),rhsMax =  -2.93428614739355E-11  2.56736743317243E-01
 cg2d: Sum(rhs),rhsMax =  -3.00641733730345E-11  2.50239061929255E-01
 cg2d: Sum(rhs),rhsMax =  -3.08247871672052E-11  2.43663466677599E-01
 cg2d: Sum(rhs),rhsMax =  -3.16233705888180E-11  2.37012697811110E-01
 cg2d: Sum(rhs),rhsMax =  -3.24842375221124E-11  2.30289509786540E-01
 cg2d: Sum(rhs),rhsMax =  -3.34062777440636E-11  2.23496671707123E-01
 cg2d: Sum(rhs),rhsMax =  -3.44059225554361E-11  2.16636967448443E-01
 cg2d: Sum(rhs),rhsMax =  -3.54557494475216E-11  2.09713195013873E-01
 cg2d: Sum(rhs),rhsMax =  -3.66329189205317E-11  2.02728165457956E-01
 cg2d: Sum(rhs),rhsMax =  -3.78826969793522E-11  1.95684701325105E-01
 cg2d: Sum(rhs),rhsMax =  -3.92031962448414E-11  1.88585634615710E-01
 cg2d: Sum(rhs),rhsMax =  -4.06552569387486E-11  1.81433804213140E-01
 cg2d: Sum(rhs),rhsMax =  -4.22868406957377E-11  1.74232052705856E-01
 cg2d: Sum(rhs),rhsMax =  -4.40114611421905E-11  1.66983223013024E-01
 cg2d: Sum(rhs),rhsMax =  -4.59147164733054E-11  1.59690154974283E-01
 cg2d: Sum(rhs),rhsMax =  -4.80294692906114E-11  1.52355682180434E-01
 cg2d: Sum(rhs),rhsMax =  -5.03647124006079E-11  1.44982628948557E-01
 cg2d: Sum(rhs),rhsMax =  -5.29235544277640E-11  1.37573807494405E-01
 cg2d: Sum(rhs),rhsMax =  -5.58515456106079E-11  1.30132015926137E-01
 cg2d: Sum(rhs),rhsMax =  -5.91103832547901E-11  1.22660036889673E-01
 cg2d: Sum(rhs),rhsMax =  -6.28127549973101E-11  1.15160636873509E-01
 cg2d: Sum(rhs),rhsMax =  -6.71446231947925E-11  1.07636566140080E-01
 cg2d: Sum(rhs),rhsMax =  -7.21542825488086E-11  1.00090559214204E-01
 cg2d: Sum(rhs),rhsMax =  -7.79279418772205E-11  9.25253358288968E-02
 cg2d: Sum(rhs),rhsMax =  -8.48550119059155E-11  8.49436021464416E-02
 cg2d: Sum(rhs),rhsMax =  -9.30708843327466E-11  7.73480522441283E-02
 cg2d: Sum(rhs),rhsMax =  -1.02094277476539E-10  7.04293548518808E-02
 cg2d: Sum(rhs),rhsMax =  -1.02151676006912E-10  7.03512900702460E-02
 cg2d: Sum(rhs),rhsMax =  -1.02051381234425E-10  7.03426117120743E-02
 cg2d: Sum(rhs),rhsMax =  -1.01966410141763E-10  7.03304511501825E-02
 cg2d: Sum(rhs),rhsMax =  -1.01920943906819E-10  7.02891889312891E-02
 cg2d: Sum(rhs),rhsMax =  -1.01973485211460E-10  7.02212819769422E-02
 cg2d: Sum(rhs),rhsMax =  -1.01995301093893E-10  7.01304711121015E-02
 cg2d: Sum(rhs),rhsMax =  -1.02059749540473E-10  7.00202511712159E-02
 cg2d: Sum(rhs),rhsMax =  -1.02164721127451E-10  6.98877088369682E-02
 cg2d: Sum(rhs),rhsMax =  -1.02285957481740E-10  6.97349061972455E-02
 cg2d: Sum(rhs),rhsMax =  -1.02474584373624E-10  6.95444574208066E-02
 cg2d: Sum(rhs),rhsMax =  -1.02605923757437E-10  6.93625562752600E-02
 cg2d: Sum(rhs),rhsMax =  -1.02821418046517E-10  6.91568814044110E-02
 cg2d: Sum(rhs),rhsMax =  -1.00531805102833E-10  7.06503608001118E-02
 cg2d: Sum(rhs),rhsMax =  -9.15014730651365E-11  7.75736998240930E-02
 cg2d: Sum(rhs),rhsMax =  -8.39494029847287E-11  8.44652950852689E-02
 cg2d: Sum(rhs),rhsMax =  -7.76084752018846E-11  9.13217951967835E-02
 cg2d: Sum(rhs),rhsMax =  -7.21309678652915E-11  9.81398415294621E-02
 cg2d: Sum(rhs),rhsMax =  -6.73862077249510E-11  1.04916068360765E-01
 cg2d: Sum(rhs),rhsMax =  -6.32744967532517E-11  1.11647104051656E-01
(PID.TID 0000.0001)      cg2d_init_res =   3.64204621542609E-01
(PID.TID 0000.0001)      cg2d_iters(min,last) =      -1      39
(PID.TID 0000.0001)      cg2d_last_res =   8.24802820377179E-14
(PID.TID 0000.0001) // =======================================================
(PID.TID 0000.0001) // Begin MONITOR dynamic field statistics
(PID.TID 0000.0001) // =======================================================
(PID.TID 0000.0001) %MON time_tsnumber                =                  2880
(PID.TID 0000.0001) %MON time_secondsf                =   4.3200000000000E+04
(PID.TID 0000.0001) %MON dynstat_eta_max              =   2.3691684332646E-02
(PID.TID 0000.0001) %MON dynstat_eta_min              =  -5.9524306572866E-02
(PID.TID 0000.0001) %MON dynstat_eta_mean             =   1.5123778502352E-14
(PID.TID 0000.0001) %MON dynstat_eta_sd               =   1.8816512074291E-02
(PID.TID 0000.0001) %MON dynstat_eta_del2             =   2.9173328156934E-05
(PID.TID 0000.0001) %MON dynstat_uvel_max             =   1.4132908242693E+00
(PID.TID 0000.0001) %MON dynstat_uvel_min             =  -5.4558153326156E-02
(PID.TID 0000.0001) %MON dynstat_uvel_mean            =   6.8960233815004E-01
(PID.TID 0000.0001) %MON dynstat_uvel_sd              =   1.1534592443443E-01
(PID.TID 0000.0001) %MON dynstat_uvel_del2            =   9.4870320720333E-04
(PID.TID 0000.0001) %MON dynstat_vvel_max             =   0.0000000000000E+00
(PID.TID 0000.0001) %MON dynstat_vvel_min             =   0.0000000000000E+00
(PID.TID 0000.0001) %MON dynstat_vvel_mean            =   0.0000000000000E+00
(PID.TID 0000.0001) %MON dynstat_vvel_sd              =   0.0000000000000E+00
(PID.TID 0000.0001) %MON dynstat_vvel_del2            =   0.0000000000000E+00
(PID.TID 0000.0001) %MON dynstat_wvel_max             =   1.9935575671729E-02
(PID.TID 0000.0001) %MON dynstat_wvel_min             =  -3.4470669843723E-02
(PID.TID 0000.0001) %MON dynstat_wvel_mean            =  -8.6206695956260E-20
(PID.TID 0000.0001) %MON dynstat_wvel_sd              =   3.4826481200252E-03
(PID.TID 0000.0001) %MON dynstat_wvel_del2            =   7.2467572697703E-05
(PID.TID 0000.0001) %MON dynstat_theta_max            =   1.5000000000006E+01
(PID.TID 0000.0001) %MON dynstat_theta_min            =   9.9999999999971E+00
(PID.TID 0000.0001) %MON dynstat_theta_mean           =   1.3291900574371E+01
(PID.TID 0000.0001) %MON dynstat_theta_sd             =   2.2827897898809E+00
(PID.TID 0000.0001) %MON dynstat_theta_del2           =   1.0200648887746E-03
(PID.TID 0000.0001) %MON dynstat_salt_max             =   3.5000000000000E+01
(PID.TID 0000.0001) %MON dynstat_salt_min             =   3.5000000000000E+01
(PID.TID 0000.0001) %MON dynstat_salt_mean            =   3.5000000000000E+01
(PID.TID 0000.0001) %MON dynstat_salt_sd              =   2.1316282072803E-14
(PID.TID 0000.0001) %MON dynstat_salt_del2            =   0.0000000000000E+00
(PID.TID 0000.0001) %MON dynstat_sst_max              =   1.5000000000000E+01
(PID.TID 0000.0001) %MON dynstat_sst_min              =   1.4999870843780E+01
(PID.TID 0000.0001) %MON dynstat_sst_mean             =   1.4999997415455E+01
(PID.TID 0000.0001) %MON dynstat_sst_sd               =   1.6235712335585E-05
(PID.TID 0000.0001) %MON dynstat_sst_del2             =   6.1160914708413E-07
(PID.TID 0000.0001) %MON dynstat_sss_max              =   3.5000000000000E+01
(PID.TID 0000.0001) %MON dynstat_sss_min              =   3.5000000000000E+01
(PID.TID 0000.0001) %MON dynstat_sss_mean             =   3.5000000000000E+01
(PID.TID 0000.0001) %MON dynstat_sss_sd               =   7.8159700933611E-14
(PID.TID 0000.0001) %MON dynstat_sss_del2             =   0.0000000000000E+00
(PID.TID 0000.0001) %MON forcing_qnet_max             =   0.0000000000000E+00
(PID.TID 0000.0001) %MON forcing_qnet_min             =   0.0000000000000E+00
(PID.TID 0000.0001) %MON forcing_qnet_mean            =   0.0000000000000E+00
(PID.TID 0000.0001) %MON forcing_qnet_sd              =   0.0000000000000E+00
(PID.TID 0000.0001) %MON forcing_qnet_del2            =   0.0000000000000E+00
(PID.TID 0000.0001) %MON forcing_qsw_max              =   0.0000000000000E+00
(PID.TID 0000.0001) %MON forcing_qsw_min              =   0.0000000000000E+00
(PID.TID 0000.0001) %MON forcing_qsw_mean             =   0.0000000000000E+00
(PID.TID 0000.0001) %MON forcing_qsw_sd               =   0.0000000000000E+00
(PID.TID 0000.0001) %MON forcing_qsw_del2             =   0.0000000000000E+00
(PID.TID 0000.0001) %MON forcing_empmr_max            =   0.0000000000000E+00
(PID.TID 0000.0001) %MON forcing_empmr_min            =   0.0000000000000E+00
(PID.TID 0000.0001) %MON forcing_empmr_mean           =   0.0000000000000E+00
(PID.TID 0000.0001) %MON forcing_empmr_sd             =   0.0000000000000E+00
(PID.TID 0000.0001) %MON forcing_empmr_del2           =   0.0000000000000E+00
(PID.TID 0000.0001) %MON forcing_fu_max               =   0.0000000000000E+00
(PID.TID 0000.0001) %MON forcing_fu_min               =   0.0000000000000E+00
(PID.TID 0000.0001) %MON forcing_fu_mean              =   0.0000000000000E+00
(PID.TID 0000.0001) %MON forcing_fu_sd                =   0.0000000000000E+00
(PID.TID 0000.0001) %MON forcing_fu_del2              =   0.0000000000000E+00
(PID.TID 0000.0001) %MON forcing_fv_max               =   0.0000000000000E+00
(PID.TID 0000.0001) %MON forcing_fv_min               =   0.0000000000000E+00
(PID.TID 0000.0001) %MON forcing_fv_mean              =   0.0000000000000E+00
(PID.TID 0000.0001) %MON forcing_fv_sd                =   0.0000000000000E+00
(PID.TID 0000.0001) %MON forcing_fv_del2              =   0.0000000000000E+00
(PID.TID 0000.0001) %MON advcfl_uvel_max              =   1.0599681182020E-01
(PID.TID 0000.0001) %MON advcfl_vvel_max              =   0.0000000000000E+00
(PID.TID 0000.0001) %MON advcfl_wvel_max              =   4.2863007938200E-01
(PID.TID 0000.0001) %MON advcfl_W_hf_max              =   4.3221644269467E-01
(PID.TID 0000.0001) %MON pe_b_mean                    =   8.8455519093297E-06
(PID.TID 0000.0001) %MON ke_max                       =   9.4322665518592E-01
(PID.TID 0000.0001) %MON ke_mean                      =   2.4452413884264E-01
(PID.TID 0000.0001) %MON ke_vol                       =   9.5889217545975E+10
(PID.TID 0000.0001) %MON vort_r_min                   =   0.0000000000000E+00
(PID.TID 0000.0001) %MON vort_r_max                   =   0.0000000000000E+00
(PID.TID 0000.0001) %MON vort_a_mean                  =   0.0000000000000E+00
(PID.TID 0000.0001) %MON vort_a_sd                    =   0.0000000000000E+00
(PID.TID 0000.0001) %MON vort_p_mean                  =   0.0000000000000E+00
(PID.TID 0000.0001) %MON vort_p_sd                    =   0.0000000000000E+00
(PID.TID 0000.0001) %MON surfExpan_theta_mean         =  -1.5837653873703E-10
(PID.TID 0000.0001) %MON surfExpan_salt_mean          =  -6.5846846104925E-18
(PID.TID 0000.0001) // =======================================================
(PID.TID 0000.0001) // End MONITOR dynamic field statistics
(PID.TID 0000.0001) // =======================================================
(PID.TID 0000.0001) // =======================================================
(PID.TID 0000.0001) // Begin OBCS MONITOR field statistics
(PID.TID 0000.0001) // =======================================================
(PID.TID 0000.0001) %MON obc_E_uVel_max               =   6.6809804669674E-01
(PID.TID 0000.0001) %MON obc_E_uVel_min               =   6.6809804669674E-01
(PID.TID 0000.0001) %MON obc_E_uVel_mean              =   6.6809804669674E-01
(PID.TID 0000.0001) %MON obc_E_uVel_sd                =   1.6660004686563E-08
(PID.TID 0000.0001) %MON obc_E_uVel_Int               =   6.6809804669674E+05
(PID.TID 0000.0001) %MON obc_W_uVel_max               =   6.6809804669674E-01
(PID.TID 0000.0001) %MON obc_W_uVel_min               =   6.6809804669674E-01
(PID.TID 0000.0001) %MON obc_W_uVel_mean              =   6.6809804669674E-01
(PID.TID 0000.0001) %MON obc_W_uVel_sd                =   1.6660004686563E-08
(PID.TID 0000.0001) %MON obc_W_uVel_Int               =   6.6809804669674E+05
(PID.TID 0000.0001) // =======================================================
(PID.TID 0000.0001) // End OBCS MONITOR field statistics
(PID.TID 0000.0001) // =======================================================
(PID.TID 0000.0001) %CHECKPOINT      2880 0000002880
 cg2d: Sum(rhs),rhsMax =  -5.96314109202467E-11  1.18329573491973E-01
 cg2d: Sum(rhs),rhsMax =  -5.63603608227936E-11  1.24960101980653E-01
 cg2d: Sum(rhs),rhsMax =  -5.34061683765685E-11  1.31535320425117E-01
 cg2d: Sum(rhs),rhsMax =  -5.07393016491164E-11  1.38051871604744E-01
 cg2d: Sum(rhs),rhsMax =  -4.84073892081938E-11  1.44506417349968E-01
 cg2d: Sum(rhs),rhsMax =  -4.62706539750002E-11  1.50895646430954E-01
 cg2d: Sum(rhs),rhsMax =  -4.43316494624924E-11  1.57216282909509E-01
 cg2d: Sum(rhs),rhsMax =  -4.25587343144684E-11  1.63465094696158E-01
 cg2d: Sum(rhs),rhsMax =  -4.09201561524242E-11  1.69638901934151E-01
 cg2d: Sum(rhs),rhsMax =  -3.94220212029950E-11  1.75734584665694E-01
 cg2d: Sum(rhs),rhsMax =  -3.80518949683051E-11  1.81749089293589E-01
 cg2d: Sum(rhs),rhsMax =  -3.67631480813202E-11  1.87679432555613E-01
 cg2d: Sum(rhs),rhsMax =  -3.55958595932293E-11  1.93522704410707E-01
 cg2d: Sum(rhs),rhsMax =  -3.44823058995303E-11  1.99276068255755E-01
 cg2d: Sum(rhs),rhsMax =  -3.34667848989056E-11  2.04936759544642E-01
 cg2d: Sum(rhs),rhsMax =  -3.25158788783142E-11  2.10502083416364E-01
 cg2d: Sum(rhs),rhsMax =  -3.16191517413245E-11  2.15969411940716E-01
 cg2d: Sum(rhs),rhsMax =  -3.07952552347501E-11  2.21336181529132E-01
 cg2d: Sum(rhs),rhsMax =  -3.00299785038760E-11  2.26599890765311E-01
 cg2d: Sum(rhs),rhsMax =  -2.93042257126785E-11  2.31758098690497E-01
 cg2d: Sum(rhs),rhsMax =  -2.86436430130266E-11  2.36808423480439E-01
 cg2d: Sum(rhs),rhsMax =  -2.80173662048355E-11  2.41748541524503E-01
 cg2d: Sum(rhs),rhsMax =  -2.73502331893383E-11  2.46576186916615E-01
 cg2d: Sum(rhs),rhsMax =  -2.67207367343758E-11  2.51289151383009E-01
 cg2d: Sum(rhs),rhsMax =  -2.61471955198544E-11  2.55885284595990E-01
 cg2d: Sum(rhs),rhsMax =  -2.55776511082217E-11  2.60362494715340E-01
 cg2d: Sum(rhs),rhsMax =  -2.50841569737759E-11  2.64718749004097E-01
 cg2d: Sum(rhs),rhsMax =  -2.46022091587861E-11  2.68952074505432E-01
 cg2d: Sum(rhs),rhsMax =  -2.41636710640591E-11  2.73060558925058E-01
 cg2d: Sum(rhs),rhsMax =  -2.37287967053135E-11  2.77042351919123E-01
 cg2d: Sum(rhs),rhsMax =  -2.33300045948681E-11  2.80895667002242E-01
 cg2d: Sum(rhs),rhsMax =  -2.29514185434709E-11  2.84618784038962E-01
 cg2d: Sum(rhs),rhsMax =  -2.25826024546905E-11  2.88210052230623E-01
 cg2d: Sum(rhs),rhsMax =  -2.22546425732162E-11  2.91667893542931E-01
 cg2d: Sum(rhs),rhsMax =  -2.19354534536365E-11  2.94990806472605E-01
 cg2d: Sum(rhs),rhsMax =  -2.16224815829946E-11  2.98177369943202E-01
 cg2d: Sum(rhs),rhsMax =  -2.13329354181724E-11  3.01226247003335E-01
 cg2d: Sum(rhs),rhsMax =  -2.10755857210643E-11  3.04136188018984E-01
 cg2d: Sum(rhs),rhsMax =  -2.08401074175413E-11  3.06906033224387E-01
 cg2d: Sum(rhs),rhsMax =  -2.06014094672469E-11  3.09534714741832E-01
 cg2d: Sum(rhs),rhsMax =  -2.03762562378529E-11  3.12021258395286E-01
 cg2d: Sum(rhs),rhsMax =  -2.01815231193336E-11  3.14364785399176E-01
 cg2d: Sum(rhs),rhsMax =  -1.99776861720125E-11  3.16564513707470E-01
 cg2d: Sum(rhs),rhsMax =  -1.98325800226939E-11  3.18619758432417E-01
 cg2d: Sum(rhs),rhsMax =  -1.96622718107164E-11  3.20529931626840E-01
 cg2d: Sum(rhs),rhsMax =  -1.94594340641174E-11  3.23150937608502E-01
 cg2d: Sum(rhs),rhsMax =  -1.92225124706624E-11  3.25809739566680E-01
 cg2d: Sum(rhs),rhsMax =  -1.89891435908862E-11  3.28319519994026E-01
 cg2d: Sum(rhs),rhsMax =  -1.87815318852813E-11  3.30678985874070E-01
 cg2d: Sum(rhs),rhsMax =  -1.85890192128113E-11  3.32886899725079E-01
 cg2d: Sum(rhs),rhsMax =  -1.84303683425924E-11  3.34942079029279E-01
 cg2d: Sum(rhs),rhsMax =  -1.82879267285330E-11  3.36843396333245E-01
 cg2d: Sum(rhs),rhsMax =  -1.81586967684666E-11  3.38589780027922E-01
 cg2d: Sum(rhs),rhsMax =  -1.80168102659195E-11  3.40180215735479E-01
 cg2d: Sum(rhs),rhsMax =  -1.79041226289200E-11  3.41613748172158E-01
 cg2d: Sum(rhs),rhsMax =  -1.78030923336792E-11  3.42889483312290E-01
 cg2d: Sum(rhs),rhsMax =  -1.76925141204265E-11  3.44006590625145E-01
 cg2d: Sum(rhs),rhsMax =  -1.76222370029677E-11  3.44964305212152E-01
 cg2d: Sum(rhs),rhsMax =  -1.76275660734859E-11  3.45761929743470E-01
 cg2d: Sum(rhs),rhsMax =  -1.75807146618467E-11  3.46398835923385E-01
 cg2d: Sum(rhs),rhsMax =  -1.75515157962991E-11  3.46874465404316E-01
 cg2d: Sum(rhs),rhsMax =  -1.75353065401396E-11  3.47188330138290E-01
 cg2d: Sum(rhs),rhsMax =  -1.74968928234875E-11  3.47340012221593E-01
 cg2d: Sum(rhs),rhsMax =  -1.75107706112954E-11  3.47329163347464E-01
 cg2d: Sum(rhs),rhsMax =  -1.74521508355951E-11  3.47155503982298E-01
 cg2d: Sum(rhs),rhsMax =  -1.73833170080684E-11  3.46818822454381E-01
 cg2d: Sum(rhs),rhsMax =  -1.72990510804993E-11  3.46318974436253E-01
 cg2d: Sum(rhs),rhsMax =  -1.71830327744260E-11  3.45655882684104E-01
 cg2d: Sum(rhs),rhsMax =  -1.72822867128275E-11  3.44829537207313E-01
 cg2d: Sum(rhs),rhsMax =  -1.72614145199645E-11  3.43839995878128E-01
 cg2d: Sum(rhs),rhsMax =  -1.72987180135920E-11  3.42687385749124E-01
 cg2d: Sum(rhs),rhsMax =  -1.73205894071771E-11  3.41371905175283E-01
 cg2d: Sum(rhs),rhsMax =  -1.73486780497001E-11  3.39893826315553E-01
 cg2d: Sum(rhs),rhsMax =  -1.73886460785866E-11  3.38253497875587E-01
 cg2d: Sum(rhs),rhsMax =  -1.75492953502498E-11  3.36451348340916E-01
 cg2d: Sum(rhs),rhsMax =  -1.77171610715732E-11  3.34487888258909E-01
 cg2d: Sum(rhs),rhsMax =  -1.78727033173232E-11  3.32363712387019E-01
 cg2d: Sum(rhs),rhsMax =  -1.80907511193595E-11  3.30079501560788E-01
 cg2d: Sum(rhs),rhsMax =  -1.83083548321861E-11  3.27636023787599E-01
 cg2d: Sum(rhs),rhsMax =  -1.85659265738991E-11  3.25034134925521E-01
 cg2d: Sum(rhs),rhsMax =  -1.88596915862149E-11  3.22274778366722E-01
 cg2d: Sum(rhs),rhsMax =  -1.91372473423712E-11  3.19358983777099E-01
 cg2d: Sum(rhs),rhsMax =  -1.93508542523091E-11  3.16287865318524E-01
 cg2d: Sum(rhs),rhsMax =  -1.96350713466131E-11  3.13062619543804E-01
 cg2d: Sum(rhs),rhsMax =  -1.98676630702721E-11  3.09684523133301E-01
 cg2d: Sum(rhs),rhsMax =  -2.01280103695467E-11  3.06154930592237E-01
 cg2d: Sum(rhs),rhsMax =  -2.04450900653796E-11  3.02475272058473E-01
 cg2d: Sum(rhs),rhsMax =  -2.07509565086639E-11  2.98647051353035E-01
 cg2d: Sum(rhs),rhsMax =  -2.11121120585744E-11  2.94671844408046E-01
 cg2d: Sum(rhs),rhsMax =  -2.14634976458683E-11  2.90551298081425E-01
 cg2d: Sum(rhs),rhsMax =  -2.18318696454389E-11  2.86287129250577E-01
 cg2d: Sum(rhs),rhsMax =  -2.22486473688832E-11  2.81881123992696E-01
 cg2d: Sum(rhs),rhsMax =  -2.26805241254624E-11  2.77335137103532E-01
 cg2d: Sum(rhs),rhsMax =  -2.31469288181074E-11  2.72651092047696E-01
 cg2d: Sum(rhs),rhsMax =  -2.36490826921454E-11  2.67830980531354E-01
 cg2d: Sum(rhs),rhsMax =  -2.41783260079842E-11  2.62876861644375E-01
 cg2d: Sum(rhs),rhsMax =  -2.47437625944258E-11  2.57790860610597E-01
 cg2d: Sum(rhs),rhsMax =  -2.53010945527876E-11  2.52575167014526E-01
 cg2d: Sum(rhs),rhsMax =  -2.59234855803925E-11  2.47232032751402E-01
 cg2d: Sum(rhs),rhsMax =  -2.66427990780471E-11  2.41763770174098E-01
 cg2d: Sum(rhs),rhsMax =  -2.73174816101118E-11  2.36172749898912E-01
 cg2d: Sum(rhs),rhsMax =  -2.80251377660079E-11  2.30461398484621E-01
 cg2d: Sum(rhs),rhsMax =  -2.88278290128119E-11  2.24632196235084E-01
 cg2d: Sum(rhs),rhsMax =  -2.96445090697262E-11  2.18687675356911E-01
 cg2d: Sum(rhs),rhsMax =  -3.05665492916773E-11  2.12630418644349E-01
 cg2d: Sum(rhs),rhsMax =  -3.15585335641799E-11  2.06463058793811E-01
 cg2d: Sum(rhs),rhsMax =  -3.26056959210064E-11  2.00188278399660E-01
 cg2d: Sum(rhs),rhsMax =  -3.37693206731160E-11  1.93808810624369E-01
 cg2d: Sum(rhs),rhsMax =  -3.49953399592096E-11  1.87327440230200E-01
 cg2d: Sum(rhs),rhsMax =  -3.63635788147576E-11  1.80747005220810E-01
 cg2d: Sum(rhs),rhsMax =  -3.78541642476193E-11  1.74070398777974E-01
 cg2d: Sum(rhs),rhsMax =  -3.94484445109811E-11  1.67300571246696E-01
 cg2d: Sum(rhs),rhsMax =  -4.12755385426067E-11  1.60440531924185E-01
 cg2d: Sum(rhs),rhsMax =  -4.32146540774170E-11  1.53493350384407E-01
 cg2d: Sum(rhs),rhsMax =  -4.54096760194034E-11  1.46462157347751E-01
 cg2d: Sum(rhs),rhsMax =  -4.78104222878528E-11  1.39350144604619E-01
 cg2d: Sum(rhs),rhsMax =  -5.05104846837412E-11  1.32160564224957E-01
 cg2d: Sum(rhs),rhsMax =  -5.36216626656483E-11  1.24896726939169E-01
 cg2d: Sum(rhs),rhsMax =  -5.69861935417748E-11  1.17561999630523E-01
 cg2d: Sum(rhs),rhsMax =  -6.08818551128820E-11  1.10159801964767E-01
 cg2d: Sum(rhs),rhsMax =  -6.53750387158425E-11  1.02693602386770E-01
 cg2d: Sum(rhs),rhsMax =  -7.03914704303088E-11  9.54419225732601E-02
 cg2d: Sum(rhs),rhsMax =  -7.52506945644882E-11  8.93819809851480E-02
 cg2d: Sum(rhs),rhsMax =  -8.07655053947087E-11  8.32955983125420E-02
 cg2d: Sum(rhs),rhsMax =  -8.72445449218162E-11  7.71850298154880E-02
 cg2d: Sum(rhs),rhsMax =  -9.48388034771597E-11  7.10525453839061E-02
 cg2d: Sum(rhs),rhsMax =  -1.03915431814983E-10  6.49004273180594E-02
 cg2d: Sum(rhs),rhsMax =  -1.04581232562850E-10  6.45677345215324E-02
 cg2d: Sum(rhs),rhsMax =  -1.04233621733840E-10  6.48355674551161E-02
 cg2d: Sum(rhs),rhsMax =  -1.03903885495527E-10  6.51027424351170E-02
 cg2d: Sum(rhs),rhsMax =  -1.03648978289073E-10  6.53507861819912E-02
 cg2d: Sum(rhs),rhsMax =  -1.03417274743833E-10  6.55742512360386E-02
 cg2d: Sum(rhs),rhsMax =  -1.03203445789291E-10  6.57777594252075E-02
 cg2d: Sum(rhs),rhsMax =  -1.02975461491184E-10  6.59668509354121E-02
 cg2d: Sum(rhs),rhsMax =  -1.02812397484442E-10  6.61471120449759E-02
 cg2d: Sum(rhs),rhsMax =  -1.02628960885198E-10  6.63200309635308E-02
 cg2d: Sum(rhs),rhsMax =  -1.02446384708799E-10  6.64830659864089E-02
 cg2d: Sum(rhs),rhsMax =  -1.02313546523902E-10  6.66364427708434E-02
 cg2d: Sum(rhs),rhsMax =  -1.02240410582155E-10  6.67759145365919E-02
 cg2d: Sum(rhs),rhsMax =  -1.02118591360778E-10  6.69135506175193E-02
 cg2d: Sum(rhs),rhsMax =  -1.02048425265622E-10  6.70392063154634E-02
 cg2d: Sum(rhs),rhsMax =  -1.02001573853983E-10  6.71572923493879E-02
 cg2d: Sum(rhs),rhsMax =  -9.34528565643689E-11  7.33565035564188E-02
 cg2d: Sum(rhs),rhsMax =  -8.52548032170830E-11  8.05175572092955E-02
 cg2d: Sum(rhs),rhsMax =  -7.82280906719279E-11  8.77696719636028E-02
 cg2d: Sum(rhs),rhsMax =  -7.22933934937942E-11  9.50728237444132E-02
 cg2d: Sum(rhs),rhsMax =  -6.71268596263985E-11  1.02484036401126E-01
 cg2d: Sum(rhs),rhsMax =  -6.25988150204648E-11  1.09943764836406E-01
 cg2d: Sum(rhs),rhsMax =  -5.86435344729352E-11  1.17522466241915E-01
 cg2d: Sum(rhs),rhsMax =  -5.50951506639308E-11  1.25220701167349E-01
 cg2d: Sum(rhs),rhsMax =  -5.19222442818545E-11  1.32891682038922E-01
 cg2d: Sum(rhs),rhsMax =  -4.92406115881749E-11  1.40511099582824E-01
 cg2d: Sum(rhs),rhsMax =  -4.68233229966586E-11  1.48075235214228E-01
 cg2d: Sum(rhs),rhsMax =  -4.46548353849607E-11  1.55580390715290E-01
 cg2d: Sum(rhs),rhsMax =  -4.27122781587741E-11  1.63022890664414E-01
 cg2d: Sum(rhs),rhsMax =  -4.09793310396367E-11  1.70399085178819E-01
 cg2d: Sum(rhs),rhsMax =  -3.93863830439045E-11  1.77705352999482E-01
 cg2d: Sum(rhs),rhsMax =  -3.79244413650781E-11  1.84938104908233E-01
 cg2d: Sum(rhs),rhsMax =  -3.65575347771596E-11  1.92093787425980E-01
 cg2d: Sum(rhs),rhsMax =  -3.53647111595023E-11  1.99168886706692E-01
 cg2d: Sum(rhs),rhsMax =  -3.42323946966872E-11  2.06159932521361E-01
 cg2d: Sum(rhs),rhsMax =  -3.31894511873543E-11  2.13063502205264E-01
 cg2d: Sum(rhs),rhsMax =  -3.22345483638742E-11  2.19876224460122E-01
 cg2d: Sum(rhs),rhsMax =  -3.13447046096371E-11  2.26594782907458E-01
 cg2d: Sum(rhs),rhsMax =  -3.04999359101998E-11  2.33215919317497E-01
 cg2d: Sum(rhs),rhsMax =  -2.97186719677711E-11  2.39736436466981E-01
 cg2d: Sum(rhs),rhsMax =  -2.89993584701165E-11  2.46153200608800E-01
 cg2d: Sum(rhs),rhsMax =  -2.83061352135405E-11  2.52463143572480E-01
 cg2d: Sum(rhs),rhsMax =  -2.76905165463859E-11  2.58663264547832E-01
 cg2d: Sum(rhs),rhsMax =  -2.71059841239207E-11  2.64750631627966E-01
 cg2d: Sum(rhs),rhsMax =  -2.66094923873084E-11  2.70722383199077E-01
 cg2d: Sum(rhs),rhsMax =  -2.61521915234653E-11  2.76575729263161E-01
 cg2d: Sum(rhs),rhsMax =  -2.56901167006163E-11  2.82307952772634E-01
 cg2d: Sum(rhs),rhsMax =  -2.52956544599670E-11  2.87916411031654E-01
 cg2d: Sum(rhs),rhsMax =  -2.48833176286212E-11  2.93398537200457E-01
 cg2d: Sum(rhs),rhsMax =  -2.45234943463402E-11  2.98751841912684E-01
 cg2d: Sum(rhs),rhsMax =  -2.41753284058177E-11  3.03973914987112E-01
 cg2d: Sum(rhs),rhsMax =  -2.38523645279543E-11  3.09062427187454E-01
 cg2d: Sum(rhs),rhsMax =  -2.35400587911272E-11  3.14015131971149E-01
 cg2d: Sum(rhs),rhsMax =  -2.32208696715475E-11  3.18829867151862E-01
 cg2d: Sum(rhs),rhsMax =  -2.29555263686620E-11  3.23504556385724E-01
 cg2d: Sum(rhs),rhsMax =  -2.27101670802199E-11  3.28037210439342E-01
 cg2d: Sum(rhs),rhsMax =  -2.24295026995947E-11  3.32425928153735E-01
 cg2d: Sum(rhs),rhsMax =  -2.22306617558843E-11  3.36668897050532E-01
 cg2d: Sum(rhs),rhsMax =  -2.20041762588608E-11  3.40764393644318E-01
 cg2d: Sum(rhs),rhsMax =  -2.18041140698233E-11  3.44710783475443E-01
 cg2d: Sum(rhs),rhsMax =  -2.16270334973956E-11  3.48506520829328E-01
 cg2d: Sum(rhs),rhsMax =  -2.14466222558940E-11  3.52150148265259E-01
 cg2d: Sum(rhs),rhsMax =  -2.13014050842730E-11  3.55640296036586E-01
 cg2d: Sum(rhs),rhsMax =  -2.11424211471467E-11  3.58975681598312E-01
 cg2d: Sum(rhs),rhsMax =  -2.10075290496547E-11  3.62155109080160E-01
 cg2d: Sum(rhs),rhsMax =  -2.09171568954503E-11  3.65177469032082E-01
 cg2d: Sum(rhs),rhsMax =  -2.08277839419679E-11  3.68041738374221E-01
 cg2d: Sum(rhs),rhsMax =  -2.07873718238716E-11  3.70746980604260E-01
 cg2d: Sum(rhs),rhsMax =  -2.07271977359369E-11  3.73292346334093E-01
 cg2d: Sum(rhs),rhsMax =  -2.06680228487244E-11  3.75677074118586E-01
 cg2d: Sum(rhs),rhsMax =  -2.06473727004663E-11  3.77900491415410E-01
 cg2d: Sum(rhs),rhsMax =  -2.05830907873406E-11  3.79962015619737E-01
 cg2d: Sum(rhs),rhsMax =  -2.05705452671623E-11  3.81861155051172E-01
 cg2d: Sum(rhs),rhsMax =  -2.05445660483861E-11  3.83597509766253E-01
 cg2d: Sum(rhs),rhsMax =  -2.05657713081564E-11  3.85170772074291E-01
 cg2d: Sum(rhs),rhsMax =  -2.05815364751061E-11  3.86580726652879E-01
 cg2d: Sum(rhs),rhsMax =  -2.05969685751484E-11  3.87827250180972E-01
 cg2d: Sum(rhs),rhsMax =  -2.05803152297790E-11  3.88910310403169E-01
 cg2d: Sum(rhs),rhsMax =  -2.04390948610467E-11  3.89829964805722E-01
 cg2d: Sum(rhs),rhsMax =  -2.03606020932057E-11  3.90586358795067E-01
 cg2d: Sum(rhs),rhsMax =  -2.03064232096040E-11  3.91179723475642E-01
 cg2d: Sum(rhs),rhsMax =  -2.01946237510242E-11  3.91610373157437E-01
 cg2d: Sum(rhs),rhsMax =  -2.01496597185269E-11  3.91878702741212E-01
 cg2d: Sum(rhs),rhsMax =  -2.00487404455885E-11  3.91985185126406E-01
 cg2d: Sum(rhs),rhsMax =  -2.00403027506013E-11  3.91930368768644E-01
 cg2d: Sum(rhs),rhsMax =  -1.99997796102025E-11  3.91714875307298E-01
 cg2d: Sum(rhs),rhsMax =  -2.00068850375601E-11  3.91339397840883E-01
 cg2d: Sum(rhs),rhsMax =  -2.00385263937619E-11  3.90804699459181E-01
 cg2d: Sum(rhs),rhsMax =  -2.00318650556142E-11  3.90111612010706E-01
 cg2d: Sum(rhs),rhsMax =  -2.00744976197598E-11  3.89261034998503E-01
 cg2d: Sum(rhs),rhsMax =  -2.00497396463106E-11  3.88253934573961E-01
 cg2d: Sum(rhs),rhsMax =  -2.00750527312721E-11  3.87091342976763E-01
 cg2d: Sum(rhs),rhsMax =  -2.00840455377715E-11  3.85774357784714E-01
 cg2d: Sum(rhs),rhsMax =  -2.00863770061233E-11  3.84304140940356E-01
 cg2d: Sum(rhs),rhsMax =  -2.01669791977110E-11  3.82681917635166E-01
 cg2d: Sum(rhs),rhsMax =  -2.02151628769798E-11  3.80908975025242E-01
 cg2d: Sum(rhs),rhsMax =  -2.02441396979225E-11  3.78986660217684E-01
 cg2d: Sum(rhs),rhsMax =  -2.03036476520424E-11  3.76916378285819E-01
 cg2d: Sum(rhs),rhsMax =  -2.03630445838598E-11  3.74699590353343E-01
 cg2d: Sum(rhs),rhsMax =  -2.04144479099000E-11  3.72337811736020E-01
 cg2d: Sum(rhs),rhsMax =  -2.04887218302474E-11  3.69832610573395E-01
 cg2d: Sum(rhs),rhsMax =  -2.05755412707731E-11  3.67185606148514E-01
 cg2d: Sum(rhs),rhsMax =  -2.06503703026328E-11  3.64398467519080E-01
 cg2d: Sum(rhs),rhsMax =  -2.07219796877212E-11  3.61472912583613E-01
 cg2d: Sum(rhs),rhsMax =  -2.08678629931569E-11  3.58410707607483E-01
 cg2d: Sum(rhs),rhsMax =  -2.10108597187286E-11  3.55213667087025E-01
 cg2d: Sum(rhs),rhsMax =  -2.11681783213180E-11  3.51883653782667E-01
 cg2d: Sum(rhs),rhsMax =  -2.13229434109508E-11  3.48422578742043E-01
 cg2d: Sum(rhs),rhsMax =  -2.15123474589518E-11  3.44832401124462E-01
 cg2d: Sum(rhs),rhsMax =  -2.16784368234357E-11  3.41115127726957E-01
 cg2d: Sum(rhs),rhsMax =  -2.18919327110711E-11  3.37272811908731E-01
 cg2d: Sum(rhs),rhsMax =  -2.20699014619186E-11  3.33307551793968E-01
 cg2d: Sum(rhs),rhsMax =  -2.22870610855352E-11  3.29221487727827E-01
 cg2d: Sum(rhs),rhsMax =  -2.25347518423291E-11  3.25016798830549E-01
 cg2d: Sum(rhs),rhsMax =  -2.27521335105507E-11  3.20695699507994E-01
 cg2d: Sum(rhs),rhsMax =  -2.30143681889672E-11  3.16260435155155E-01
 cg2d: Sum(rhs),rhsMax =  -2.33073560451658E-11  3.11713277253490E-01
 cg2d: Sum(rhs),rhsMax =  -2.35638175638542E-11  3.07056518199243E-01
 cg2d: Sum(rhs),rhsMax =  -2.38765673898911E-11  3.02292466177697E-01
 cg2d: Sum(rhs),rhsMax =  -2.41733300043734E-11  2.97423439991325E-01
 cg2d: Sum(rhs),rhsMax =  -2.44958497930270E-11  2.92451765250903E-01
 cg2d: Sum(rhs),rhsMax =  -2.48386866630312E-11  2.87379771148176E-01
 cg2d: Sum(rhs),rhsMax =  -2.51855203359241E-11  2.82209787930000E-01
 cg2d: Sum(rhs),rhsMax =  -2.55526710901677E-11  2.76944145246787E-01
 cg2d: Sum(rhs),rhsMax =  -2.59977595007399E-11  2.71585171481235E-01
 cg2d: Sum(rhs),rhsMax =  -2.64586130782618E-11  2.66135194060299E-01
 cg2d: Sum(rhs),rhsMax =  -2.68826072513662E-11  2.60596540656849E-01
 cg2d: Sum(rhs),rhsMax =  -2.73716604937135E-11  2.54971541122230E-01
 cg2d: Sum(rhs),rhsMax =  -2.78954637167317E-11  2.49262529957683E-01
 cg2d: Sum(rhs),rhsMax =  -2.85247381270892E-11  2.43471849096273E-01
 cg2d: Sum(rhs),rhsMax =  -2.91342505676084E-11  2.37601850753757E-01
 cg2d: Sum(rhs),rhsMax =  -2.98369107198937E-11  2.31654900285937E-01
 cg2d: Sum(rhs),rhsMax =  -3.05726555183128E-11  2.25633378764408E-01
 cg2d: Sum(rhs),rhsMax =  -3.13690184938764E-11  2.19539685134287E-01
 cg2d: Sum(rhs),rhsMax =  -3.21866977515128E-11  2.13376237845584E-01
 cg2d: Sum(rhs),rhsMax =  -3.30636629186642E-11  2.07145475883125E-01
 cg2d: Sum(rhs),rhsMax =  -3.40469874515748E-11  2.00849859328294E-01
 cg2d: Sum(rhs),rhsMax =  -3.51133566667272E-11  1.94491869084381E-01
 cg2d: Sum(rhs),rhsMax =  -3.62461172187523E-11  1.88074006104707E-01
 cg2d: Sum(rhs),rhsMax =  -3.74680286796547E-11  1.81598790229368E-01
 cg2d: Sum(rhs),rhsMax =  -3.87725407335893E-11  1.75068758751791E-01
 cg2d: Sum(rhs),rhsMax =  -4.01924049597824E-11  1.68486464590785E-01
 cg2d: Sum(rhs),rhsMax =  -4.17781365058545E-11  1.61854474204358E-01
 cg2d: Sum(rhs),rhsMax =  -4.34845492947034E-11  1.55175365504604E-01
 cg2d: Sum(rhs),rhsMax =  -4.53589388271780E-11  1.48451725869884E-01
 cg2d: Sum(rhs),rhsMax =  -4.74157380025986E-11  1.41686150388479E-01
 cg2d: Sum(rhs),rhsMax =  -4.96871432886792E-11  1.34881240242461E-01
 cg2d: Sum(rhs),rhsMax =  -5.22386578438727E-11  1.28039601267639E-01
 cg2d: Sum(rhs),rhsMax =  -5.51000356452391E-11  1.21163842766069E-01
 cg2d: Sum(rhs),rhsMax =  -5.83011972032921E-11  1.14256576570928E-01
 cg2d: Sum(rhs),rhsMax =  -6.19265749790543E-11  1.07320416327192E-01
 cg2d: Sum(rhs),rhsMax =  -6.60546062292156E-11  1.00357976920365E-01
 cg2d: Sum(rhs),rhsMax =  -7.09327596659648E-11  9.33718739882482E-02
 cg2d: Sum(rhs),rhsMax =  -7.66242069794032E-11  8.63647234386749E-02
 cg2d: Sum(rhs),rhsMax =  -8.33053626081437E-11  7.93391409933391E-02
 cg2d: Sum(rhs),rhsMax =  -9.13079611919443E-11  7.22977417834352E-02
 cg2d: Sum(rhs),rhsMax =  -9.57657009248436E-11  6.88859966927887E-02
 cg2d: Sum(rhs),rhsMax =  -9.57255941180790E-11  6.88383753742501E-02
 cg2d: Sum(rhs),rhsMax =  -9.56916663963359E-11  6.87771644357788E-02
 cg2d: Sum(rhs),rhsMax =  -9.57075252383532E-11  6.86992663510284E-02
 cg2d: Sum(rhs),rhsMax =  -9.57171286675162E-11  6.86038009596762E-02
 cg2d: Sum(rhs),rhsMax =  -9.57822710034861E-11  6.84895223401312E-02
 cg2d: Sum(rhs),rhsMax =  -9.58733092915054E-11  6.83622207959870E-02
 cg2d: Sum(rhs),rhsMax =  -9.60204138422682E-11  6.82176818344722E-02
 cg2d: Sum(rhs),rhsMax =  -9.61412061073474E-11  6.80564758057126E-02
 cg2d: Sum(rhs),rhsMax =  -9.62661061976178E-11  6.78843584163073E-02
 cg2d: Sum(rhs),rhsMax =  -9.63931157116349E-11  6.77105841630085E-02
 cg2d: Sum(rhs),rhsMax =  -9.65177937573003E-11  6.75323540066335E-02
 cg2d: Sum(rhs),rhsMax =  -9.66605684382671E-11  6.73515256479560E-02
 cg2d: Sum(rhs),rhsMax =  -9.06577035664213E-11  7.17028520755784E-02
 cg2d: Sum(rhs),rhsMax =  -8.32612867540661E-11  7.79747685646675E-02
 cg2d: Sum(rhs),rhsMax =  -7.69959651591989E-11  8.42127979881797E-02
 cg2d: Sum(rhs),rhsMax =  -7.16778858489420E-11  9.04139626811959E-02
 cg2d: Sum(rhs),rhsMax =  -6.70159483462385E-11  9.65753111652328E-02
 cg2d: Sum(rhs),rhsMax =  -6.29262197904268E-11  1.02693922220859E-01
 cg2d: Sum(rhs),rhsMax =  -5.93614046806579E-11  1.08766909969962E-01
 cg2d: Sum(rhs),rhsMax =  -5.61150015343514E-11  1.14791427904236E-01
 cg2d: Sum(rhs),rhsMax =  -5.32304200717704E-11  1.20764671876909E-01
 cg2d: Sum(rhs),rhsMax =  -5.06144015588461E-11  1.26683881671602E-01
 cg2d: Sum(rhs),rhsMax =  -4.82783812927323E-11  1.32546340926089E-01
 cg2d: Sum(rhs),rhsMax =  -4.61685134567347E-11  1.38349375417574E-01
 cg2d: Sum(rhs),rhsMax =  -4.42377245946091E-11  1.44090350557582E-01
 cg2d: Sum(rhs),rhsMax =  -4.24847934610284E-11  1.49766668343129E-01
 cg2d: Sum(rhs),rhsMax =  -4.08564293508107E-11  1.55375764073881E-01
 cg2d: Sum(rhs),rhsMax =  -3.93878263338365E-11  1.60915103358213E-01
 cg2d: Sum(rhs),rhsMax =  -3.80299125524175E-11  1.66382179122171E-01
 cg2d: Sum(rhs),rhsMax =  -3.67523789179813E-11  1.71774509462364E-01
 cg2d: Sum(rhs),rhsMax =  -3.55542262298059E-11  1.77089634799110E-01
 cg2d: Sum(rhs),rhsMax =  -3.44803074980859E-11  1.82325116721471E-01
 cg2d: Sum(rhs),rhsMax =  -3.34560157355668E-11  1.87478536701411E-01
 cg2d: Sum(rhs),rhsMax =  -3.25279803092826E-11  1.92547495175086E-01
 cg2d: Sum(rhs),rhsMax =  -3.16134896038989E-11  1.97529612722599E-01
 cg2d: Sum(rhs),rhsMax =  -3.07958103462624E-11  2.02422532936093E-01
 cg2d: Sum(rhs),rhsMax =  -3.00228730765184E-11  2.07223927497581E-01
 cg2d: Sum(rhs),rhsMax =  -2.92960100622963E-11  2.11931503296493E-01
 cg2d: Sum(rhs),rhsMax =  -2.86373147417862E-11  2.16543010965425E-01
 cg2d: Sum(rhs),rhsMax =  -2.80022671717006E-11  2.21056254374342E-01
 cg2d: Sum(rhs),rhsMax =  -2.74016365153784E-11  2.25469099240041E-01
 cg2d: Sum(rhs),rhsMax =  -2.67972311007725E-11  2.29779481443618E-01
 cg2d: Sum(rhs),rhsMax =  -2.61995980466168E-11  2.33985413511065E-01
 cg2d: Sum(rhs),rhsMax =  -2.56453747127239E-11  2.38084989067393E-01
 cg2d: Sum(rhs),rhsMax =  -2.50988119177009E-11  2.42076385648757E-01
 cg2d: Sum(rhs),rhsMax =  -2.46410669646480E-11  2.45957865773307E-01
 cg2d: Sum(rhs),rhsMax =  -2.41904274389526E-11  2.49727777365290E-01
 cg2d: Sum(rhs),rhsMax =  -2.37704300687369E-11  2.53384552650113E-01
 cg2d: Sum(rhs),rhsMax =  -2.33664199100758E-11  2.56926705864126E-01
 cg2d: Sum(rhs),rhsMax =  -2.29637420190443E-11  2.60352829771323E-01
 cg2d: Sum(rhs),rhsMax =  -2.25778284956846E-11  2.63661591198309E-01
 cg2d: Sum(rhs),rhsMax =  -2.22384333170567E-11  2.66851725477958E-01
 cg2d: Sum(rhs),rhsMax =  -2.19326778960749E-11  2.69922031176791E-01
 cg2d: Sum(rhs),rhsMax =  -2.16117124196558E-11  2.72871364798974E-01
 cg2d: Sum(rhs),rhsMax =  -2.13309370167281E-11  2.75698636403856E-01
 cg2d: Sum(rhs),rhsMax =  -2.10669259814722E-11  2.78402806611944E-01
 cg2d: Sum(rhs),rhsMax =  -2.08350003916280E-11  2.80982885304273E-01
 cg2d: Sum(rhs),rhsMax =  -2.05899741700932E-11  2.83437932191324E-01
 cg2d: Sum(rhs),rhsMax =  -2.03426164802067E-11  2.85767058769700E-01
 cg2d: Sum(rhs),rhsMax =  -2.01326733062501E-11  2.87969432337628E-01
 cg2d: Sum(rhs),rhsMax =  -1.99714689230746E-11  2.90044280805593E-01
 cg2d: Sum(rhs),rhsMax =  -1.97920568822951E-11  2.91990898168856E-01
 cg2d: Sum(rhs),rhsMax =  -1.96334060120762E-11  2.93808650201386E-01
 cg2d: Sum(rhs),rhsMax =  -1.94093630057068E-11  2.96227165499327E-01
 cg2d: Sum(rhs),rhsMax =  -1.91685556316656E-11  2.98748275032486E-01
 cg2d: Sum(rhs),rhsMax =  -1.89277482576244E-11  3.01128941635611E-01
 cg2d: Sum(rhs),rhsMax =  -1.87477811053327E-11  3.03367827338240E-01
 cg2d: Sum(rhs),rhsMax =  -1.85162996046984E-11  3.05463667387279E-01
 cg2d: Sum(rhs),rhsMax =  -1.83933979158724E-11  3.07415273052541E-01
 cg2d: Sum(rhs),rhsMax =  -1.81883397232241E-11  3.09221533371154E-01
 cg2d: Sum(rhs),rhsMax =  -1.80296888530052E-11  3.10881415801476E-01
 cg2d: Sum(rhs),rhsMax =  -1.79164461044934E-11  3.12393965842095E-01
 cg2d: Sum(rhs),rhsMax =  -1.78260739502889E-11  3.13758305731478E-01
 cg2d: Sum(rhs),rhsMax =  -1.77163839154559E-11  3.14973632407417E-01
 cg2d: Sum(rhs),rhsMax =  -1.76146874864003E-11  3.16039214890852E-01
 cg2d: Sum(rhs),rhsMax =  -1.75282011127820E-11  3.16954391540684E-01
 cg2d: Sum(rhs),rhsMax =  -1.74972258903949E-11  3.17718567323875E-01
 cg2d: Sum(rhs),rhsMax =  -1.74678049802424E-11  3.18331211344091E-01
 cg2d: Sum(rhs),rhsMax =  -1.74338321556888E-11  3.18791854872112E-01
 cg2d: Sum(rhs),rhsMax =  -1.74091852045422E-11  3.19100090073009E-01
 cg2d: Sum(rhs),rhsMax =  -1.73516756518666E-11  3.19255569557781E-01
 cg2d: Sum(rhs),rhsMax =  -1.73264735892076E-11  3.19258006809767E-01
 cg2d: Sum(rhs),rhsMax =  -1.72707403933714E-11  3.19107177485590E-01
 cg2d: Sum(rhs),rhsMax =  -1.71935798931599E-11  3.18802921222651E-01
 cg2d: Sum(rhs),rhsMax =  -1.71689329420133E-11  3.18345144431262E-01
 cg2d: Sum(rhs),rhsMax =  -1.71620495592606E-11  3.17733823388846E-01
 cg2d: Sum(rhs),rhsMax =  -1.71662684067542E-11  3.16969007422612E-01
 cg2d: Sum(rhs),rhsMax =  -1.71740399679265E-11  3.16050821944237E-01
 cg2d: Sum(rhs),rhsMax =  -1.71481717714528E-11  3.14979471016561E-01
 cg2d: Sum(rhs),rhsMax =  -1.72648562113409E-11  3.13755239856215E-01
 cg2d: Sum(rhs),rhsMax =  -1.73745462461738E-11  3.12378496618341E-01
 cg2d: Sum(rhs),rhsMax =  -1.75236491983810E-11  3.10849693426649E-01
 cg2d: Sum(rhs),rhsMax =  -1.76996195477841E-11  3.09169366990154E-01
 cg2d: Sum(rhs),rhsMax =  -1.78533854366947E-11  3.07338137797224E-01
 cg2d: Sum(rhs),rhsMax =  -1.80720993725458E-11  3.05356708941509E-01
 cg2d: Sum(rhs),rhsMax =  -1.82812653903852E-11  3.03225864737505E-01
 cg2d: Sum(rhs),rhsMax =  -1.85071957758964E-11  3.00946469032040E-01
 cg2d: Sum(rhs),rhsMax =  -1.87619919600479E-11  2.98519463464136E-01
 cg2d: Sum(rhs),rhsMax =  -1.90649718234681E-11  2.95945865934180E-01
 cg2d: Sum(rhs),rhsMax =  -1.92496019124633E-11  2.93226768684566E-01
 cg2d: Sum(rhs),rhsMax =  -1.94970706246522E-11  2.90363336921249E-01
 cg2d: Sum(rhs),rhsMax =  -1.97161176274108E-11  2.87356807680514E-01
 cg2d: Sum(rhs),rhsMax =  -2.00075511713749E-11  2.84208488983371E-01
 cg2d: Sum(rhs),rhsMax =  -2.02875494181853E-11  2.80919759249078E-01
 cg2d: Sum(rhs),rhsMax =  -2.05965244859385E-11  2.77492066850808E-01
 cg2d: Sum(rhs),rhsMax =  -2.09219308544561E-11  2.73926929695545E-01
 cg2d: Sum(rhs),rhsMax =  -2.12613260330841E-11  2.70225934718410E-01
 cg2d: Sum(rhs),rhsMax =  -2.16588968982023E-11  2.66390737230083E-01
 cg2d: Sum(rhs),rhsMax =  -2.20325979682912E-11  2.62423059987453E-01
 cg2d: Sum(rhs),rhsMax =  -2.24655849478950E-11  2.58324691686936E-01
 cg2d: Sum(rhs),rhsMax =  -2.29222196779233E-11  2.54097485327222E-01
 cg2d: Sum(rhs),rhsMax =  -2.33962849094382E-11  2.49743356619453E-01
 cg2d: Sum(rhs),rhsMax =  -2.39070985230683E-11  2.45264281953351E-01
 cg2d: Sum(rhs),rhsMax =  -2.44506637159247E-11  2.40662296075792E-01
 cg2d: Sum(rhs),rhsMax =  -2.50299780901742E-11  2.35939489663007E-01
 cg2d: Sum(rhs),rhsMax =  -2.56515919616618E-11  2.31098006926403E-01
 cg2d: Sum(rhs),rhsMax =  -2.63119526167088E-11  2.26140043162819E-01
 cg2d: Sum(rhs),rhsMax =  -2.70690136972007E-11  2.21067843351927E-01
 cg2d: Sum(rhs),rhsMax =  -2.77767808753993E-11  2.15883700900747E-01
 cg2d: Sum(rhs),rhsMax =  -2.85393930710143E-11  2.10589956629579E-01
 cg2d: Sum(rhs),rhsMax =  -2.93484125890586E-11  2.05188998093193E-01
 cg2d: Sum(rhs),rhsMax =  -3.02164959720130E-11  1.99683259289289E-01
 cg2d: Sum(rhs),rhsMax =  -3.11779491113384E-11  1.94075220734965E-01
 cg2d: Sum(rhs),rhsMax =  -3.21647153356253E-11  1.88367409831722E-01
 cg2d: Sum(rhs),rhsMax =  -3.32780469847194E-11  1.82562401429949E-01
 cg2d: Sum(rhs),rhsMax =  -3.44606565505501E-11  1.76662818506655E-01
 cg2d: Sum(rhs),rhsMax =  -3.57610607792935E-11  1.70671332521010E-01
 cg2d: Sum(rhs),rhsMax =  -3.71778163810177E-11  1.64590663808912E-01
 cg2d: Sum(rhs),rhsMax =  -3.86890519621375E-11  1.58423581918137E-01
 cg2d: Sum(rhs),rhsMax =  -4.03829192308081E-11  1.52172905715060E-01
 cg2d: Sum(rhs),rhsMax =  -4.22012425005391E-11  1.45841503106990E-01
 cg2d: Sum(rhs),rhsMax =  -4.42340608586278E-11  1.39432290491514E-01
 cg2d: Sum(rhs),rhsMax =  -4.64958072043942E-11  1.32948232095544E-01
 cg2d: Sum(rhs),rhsMax =  -4.89227547362248E-11  1.26531808303313E-01
 cg2d: Sum(rhs),rhsMax =  -5.12052622525516E-11  1.21148316678128E-01
 cg2d: Sum(rhs),rhsMax =  -5.37816458034968E-11  1.15724478774483E-01
 cg2d: Sum(rhs),rhsMax =  -5.65375524175238E-11  1.10262385767670E-01
 cg2d: Sum(rhs),rhsMax =  -5.95674620740283E-11  1.04764147722405E-01
 cg2d: Sum(rhs),rhsMax =  -6.29881702352009E-11  9.92318926371948E-02
 cg2d: Sum(rhs),rhsMax =  -6.67635946527412E-11  9.36677651856055E-02
 cg2d: Sum(rhs),rhsMax =  -7.10692615868425E-11  8.80739256817663E-02
 cg2d: Sum(rhs),rhsMax =  -7.59992069276905E-11  8.24525494858582E-02
 cg2d: Sum(rhs),rhsMax =  -8.16335887776631E-11  7.68058268117559E-02
 cg2d: Sum(rhs),rhsMax =  -8.52921067107104E-11  7.36072303660504E-02
 cg2d: Sum(rhs),rhsMax =  -8.48404679842929E-11  7.40717133770452E-02
 cg2d: Sum(rhs),rhsMax =  -8.43741743139503E-11  7.45438697493273E-02
 cg2d: Sum(rhs),rhsMax =  -8.39295299925880E-11  7.50265014768545E-02
 cg2d: Sum(rhs),rhsMax =  -8.34605717869863E-11  7.55207218970029E-02
 cg2d: Sum(rhs),rhsMax =  -8.29858404216566E-11  7.60262157282739E-02
 cg2d: Sum(rhs),rhsMax =  -8.24998958037781E-11  7.65385474137634E-02
 cg2d: Sum(rhs),rhsMax =  -8.20036261117707E-11  7.70657162289364E-02
 cg2d: Sum(rhs),rhsMax =  -8.15411627108631E-11  7.76038262114984E-02
 cg2d: Sum(rhs),rhsMax =  -8.10657097005674E-11  7.81510930660317E-02
 cg2d: Sum(rhs),rhsMax =  -8.05901734235448E-11  7.87073326133488E-02
 cg2d: Sum(rhs),rhsMax =  -8.00722127491937E-11  7.92727418125699E-02
 cg2d: Sum(rhs),rhsMax =  -7.95656145136103E-11  7.98457579176499E-02
 cg2d: Sum(rhs),rhsMax =  -7.90537219019782E-11  8.04263568032103E-02
 cg2d: Sum(rhs),rhsMax =  -7.85874143538479E-11  8.10128825842486E-02
 cg2d: Sum(rhs),rhsMax =  -7.80596975946679E-11  8.15972686800498E-02
 cg2d: Sum(rhs),rhsMax =  -7.75785546913710E-11  8.21866507434004E-02
 cg2d: Sum(rhs),rhsMax =  -7.70957186979615E-11  8.27739585050848E-02
 cg2d: Sum(rhs),rhsMax =  -7.66610663838208E-11  8.33597190737442E-02
 cg2d: Sum(rhs),rhsMax =  -7.61958829365028E-11  8.39378780660686E-02
 cg2d: Sum(rhs),rhsMax =  -7.25829396586164E-11  8.81630377618777E-02
 cg2d: Sum(rhs),rhsMax =  -6.74920119791977E-11  9.49601779044522E-02
 cg2d: Sum(rhs),rhsMax =  -6.29766239157448E-11  1.01797265229817E-01
 cg2d: Sum(rhs),rhsMax =  -5.90150150969748E-11  1.08717283392882E-01
 cg2d: Sum(rhs),rhsMax =  -5.55334667140528E-11  1.15739609565163E-01
 cg2d: Sum(rhs),rhsMax =  -5.23837639931912E-11  1.22716887202716E-01
 cg2d: Sum(rhs),rhsMax =  -4.97021312995116E-11  1.29645815858096E-01
 cg2d: Sum(rhs),rhsMax =  -4.73056038785558E-11  1.36523101967688E-01
 cg2d: Sum(rhs),rhsMax =  -4.51705339798991E-11  1.43345463469866E-01
 cg2d: Sum(rhs),rhsMax =  -4.31968905090230E-11  1.50109635414354E-01
 cg2d: Sum(rhs),rhsMax =  -4.14448475538620E-11  1.56812376380246E-01
 cg2d: Sum(rhs),rhsMax =  -3.98657773459377E-11  1.63450475470173E-01
 cg2d: Sum(rhs),rhsMax =  -3.83976184181734E-11  1.70020759606723E-01
 cg2d: Sum(rhs),rhsMax =  -3.70574682051483E-11  1.76520100829320E-01
 cg2d: Sum(rhs),rhsMax =  -3.58376661679927E-11  1.82945423280183E-01
 cg2d: Sum(rhs),rhsMax =  -3.47334383477005E-11  1.89293709579481E-01
 cg2d: Sum(rhs),rhsMax =  -3.36549677015796E-11  1.95562006321954E-01
 cg2d: Sum(rhs),rhsMax =  -3.27108340414384E-11  2.01747428480298E-01
 cg2d: Sum(rhs),rhsMax =  -3.18020054734802E-11  2.07847162558302E-01
 cg2d: Sum(rhs),rhsMax =  -3.10048653417994E-11  2.13858468418676E-01
 cg2d: Sum(rhs),rhsMax =  -3.02122771245195E-11  2.19778679793916E-01
 cg2d: Sum(rhs),rhsMax =  -2.94586577354039E-11  2.25605203570714E-01
 cg2d: Sum(rhs),rhsMax =  -2.88130630465844E-11  2.31335518004038E-01
 cg2d: Sum(rhs),rhsMax =  -2.81816792124800E-11  2.36967170078376E-01
 cg2d: Sum(rhs),rhsMax =  -2.76233480533961E-11  2.42497772284809E-01
 cg2d: Sum(rhs),rhsMax =  -2.71123123951611E-11  2.47924999110137E-01
 cg2d: Sum(rhs),rhsMax =  -2.66505706392195E-11  2.53246583534162E-01
 cg2d: Sum(rhs),rhsMax =  -2.61708432702790E-11  2.58460313809215E-01
 cg2d: Sum(rhs),rhsMax =  -2.57671661785253E-11  2.63564030754663E-01
 cg2d: Sum(rhs),rhsMax =  -2.53517207227105E-11  2.68555625754050E-01
 cg2d: Sum(rhs),rhsMax =  -2.50101050980334E-11  2.73433039563219E-01
 cg2d: Sum(rhs),rhsMax =  -2.46466180797711E-11  2.78194261967263E-01
 cg2d: Sum(rhs),rhsMax =  -2.43590703163932E-11  2.82837332272591E-01
 cg2d: Sum(rhs),rhsMax =  -2.40411024421405E-11  2.87360340551267E-01
(PID.TID 0000.0001)      cg2d_init_res =   7.97085929674434E-02
(PID.TID 0000.0001)      cg2d_iters(min,last) =      -1      37
(PID.TID 0000.0001)      cg2d_last_res =   6.50767551339130E-14
(PID.TID 0000.0001) // =======================================================
(PID.TID 0000.0001) // Begin MONITOR dynamic field statistics
(PID.TID 0000.0001) // =======================================================
(PID.TID 0000.0001) %MON time_tsnumber                =                  3360
(PID.TID 0000.0001) %MON time_secondsf                =   5.0400000000000E+04
(PID.TID 0000.0001) %MON dynstat_eta_max              =   4.8925975350264E-02
(PID.TID 0000.0001) %MON dynstat_eta_min              =  -6.6453455275907E-02
(PID.TID 0000.0001) %MON dynstat_eta_mean             =   1.4866191187038E-14
(PID.TID 0000.0001) %MON dynstat_eta_sd               =   3.5880219935067E-02
(PID.TID 0000.0001) %MON dynstat_eta_del2             =   4.1863168760871E-05
(PID.TID 0000.0001) %MON dynstat_uvel_max             =   1.3627670221237E+00
(PID.TID 0000.0001) %MON dynstat_uvel_min             =  -1.9877245788012E-01
(PID.TID 0000.0001) %MON dynstat_uvel_mean            =   6.7599397355846E-01
(PID.TID 0000.0001) %MON dynstat_uvel_sd              =   1.1610338388523E-01
(PID.TID 0000.0001) %MON dynstat_uvel_del2            =   9.6513493106213E-04
(PID.TID 0000.0001) %MON dynstat_vvel_max             =   0.0000000000000E+00
(PID.TID 0000.0001) %MON dynstat_vvel_min             =   0.0000000000000E+00
(PID.TID 0000.0001) %MON dynstat_vvel_mean            =   0.0000000000000E+00
(PID.TID 0000.0001) %MON dynstat_vvel_sd              =   0.0000000000000E+00
(PID.TID 0000.0001) %MON dynstat_vvel_del2            =   0.0000000000000E+00
(PID.TID 0000.0001) %MON dynstat_wvel_max             =   2.3008987540804E-02
(PID.TID 0000.0001) %MON dynstat_wvel_min             =  -3.5289357464827E-02
(PID.TID 0000.0001) %MON dynstat_wvel_mean            =   5.8499276137670E-20
(PID.TID 0000.0001) %MON dynstat_wvel_sd              =   3.4080123545408E-03
(PID.TID 0000.0001) %MON dynstat_wvel_del2            =   7.1953685944034E-05
(PID.TID 0000.0001) %MON dynstat_theta_max            =   1.5000000000006E+01
(PID.TID 0000.0001) %MON dynstat_theta_min            =   9.9999999999965E+00
(PID.TID 0000.0001) %MON dynstat_theta_mean           =   1.3287463775677E+01
(PID.TID 0000.0001) %MON dynstat_theta_sd             =   2.2856848447708E+00
(PID.TID 0000.0001) %MON dynstat_theta_del2           =   1.0606001587736E-03
(PID.TID 0000.0001) %MON dynstat_salt_max             =   3.5000000000000E+01
(PID.TID 0000.0001) %MON dynstat_salt_min             =   3.5000000000000E+01
(PID.TID 0000.0001) %MON dynstat_salt_mean            =   3.5000000000000E+01
(PID.TID 0000.0001) %MON dynstat_salt_sd              =   2.1316282072803E-14
(PID.TID 0000.0001) %MON dynstat_salt_del2            =   0.0000000000000E+00
(PID.TID 0000.0001) %MON dynstat_sst_max              =   1.5000000000000E+01
(PID.TID 0000.0001) %MON dynstat_sst_min              =   1.4999895385071E+01
(PID.TID 0000.0001) %MON dynstat_sst_mean             =   1.4999997267661E+01
(PID.TID 0000.0001) %MON dynstat_sst_sd               =   1.4746351199347E-05
(PID.TID 0000.0001) %MON dynstat_sst_del2             =   3.6778280132870E-07
(PID.TID 0000.0001) %MON dynstat_sss_max              =   3.5000000000000E+01
(PID.TID 0000.0001) %MON dynstat_sss_min              =   3.5000000000000E+01
(PID.TID 0000.0001) %MON dynstat_sss_mean             =   3.5000000000000E+01
(PID.TID 0000.0001) %MON dynstat_sss_sd               =   7.8159700933611E-14
(PID.TID 0000.0001) %MON dynstat_sss_del2             =   0.0000000000000E+00
(PID.TID 0000.0001) %MON forcing_qnet_max             =   0.0000000000000E+00
(PID.TID 0000.0001) %MON forcing_qnet_min             =   0.0000000000000E+00
(PID.TID 0000.0001) %MON forcing_qnet_mean            =   0.0000000000000E+00
(PID.TID 0000.0001) %MON forcing_qnet_sd              =   0.0000000000000E+00
(PID.TID 0000.0001) %MON forcing_qnet_del2            =   0.0000000000000E+00
(PID.TID 0000.0001) %MON forcing_qsw_max              =   0.0000000000000E+00
(PID.TID 0000.0001) %MON forcing_qsw_min              =   0.0000000000000E+00
(PID.TID 0000.0001) %MON forcing_qsw_mean             =   0.0000000000000E+00
(PID.TID 0000.0001) %MON forcing_qsw_sd               =   0.0000000000000E+00
(PID.TID 0000.0001) %MON forcing_qsw_del2             =   0.0000000000000E+00
(PID.TID 0000.0001) %MON forcing_empmr_max            =   0.0000000000000E+00
(PID.TID 0000.0001) %MON forcing_empmr_min            =   0.0000000000000E+00
(PID.TID 0000.0001) %MON forcing_empmr_mean           =   0.0000000000000E+00
(PID.TID 0000.0001) %MON forcing_empmr_sd             =   0.0000000000000E+00
(PID.TID 0000.0001) %MON forcing_empmr_del2           =   0.0000000000000E+00
(PID.TID 0000.0001) %MON forcing_fu_max               =   0.0000000000000E+00
(PID.TID 0000.0001) %MON forcing_fu_min               =   0.0000000000000E+00
(PID.TID 0000.0001) %MON forcing_fu_mean              =   0.0000000000000E+00
(PID.TID 0000.0001) %MON forcing_fu_sd                =   0.0000000000000E+00
(PID.TID 0000.0001) %MON forcing_fu_del2              =   0.0000000000000E+00
(PID.TID 0000.0001) %MON forcing_fv_max               =   0.0000000000000E+00
(PID.TID 0000.0001) %MON forcing_fv_min               =   0.0000000000000E+00
(PID.TID 0000.0001) %MON forcing_fv_mean              =   0.0000000000000E+00
(PID.TID 0000.0001) %MON forcing_fv_sd                =   0.0000000000000E+00
(PID.TID 0000.0001) %MON forcing_fv_del2              =   0.0000000000000E+00
(PID.TID 0000.0001) %MON advcfl_uvel_max              =   1.0220752665928E-01
(PID.TID 0000.0001) %MON advcfl_vvel_max              =   0.0000000000000E+00
(PID.TID 0000.0001) %MON advcfl_wvel_max              =   4.1488818334472E-01
(PID.TID 0000.0001) %MON advcfl_W_hf_max              =   4.1923846694612E-01
(PID.TID 0000.0001) %MON pe_b_mean                    =   3.2163024491437E-05
(PID.TID 0000.0001) %MON ke_max                       =   8.8604310614958E-01
(PID.TID 0000.0001) %MON ke_mean                      =   2.3521580150465E-01
(PID.TID 0000.0001) %MON ke_vol                       =   9.5889217545975E+10
(PID.TID 0000.0001) %MON vort_r_min                   =   0.0000000000000E+00
(PID.TID 0000.0001) %MON vort_r_max                   =   0.0000000000000E+00
(PID.TID 0000.0001) %MON vort_a_mean                  =   0.0000000000000E+00
(PID.TID 0000.0001) %MON vort_a_sd                    =   0.0000000000000E+00
(PID.TID 0000.0001) %MON vort_p_mean                  =   0.0000000000000E+00
(PID.TID 0000.0001) %MON vort_p_sd                    =   0.0000000000000E+00
(PID.TID 0000.0001) %MON surfExpan_theta_mean         =   1.0932053801152E-10
(PID.TID 0000.0001) %MON surfExpan_salt_mean          =   4.6554614044772E-19
(PID.TID 0000.0001) // =======================================================
(PID.TID 0000.0001) // End MONITOR dynamic field statistics
(PID.TID 0000.0001) // =======================================================
(PID.TID 0000.0001) // =======================================================
(PID.TID 0000.0001) // Begin OBCS MONITOR field statistics
(PID.TID 0000.0001) // =======================================================
(PID.TID 0000.0001) %MON obc_E_uVel_max               =   6.6809804669674E-01
(PID.TID 0000.0001) %MON obc_E_uVel_min               =   6.6809804669674E-01
(PID.TID 0000.0001) %MON obc_E_uVel_mean              =   6.6809804669674E-01
(PID.TID 0000.0001) %MON obc_E_uVel_sd                =   1.6660004686563E-08
(PID.TID 0000.0001) %MON obc_E_uVel_Int               =   6.6809804669674E+05
(PID.TID 0000.0001) %MON obc_W_uVel_max               =   6.6809804669674E-01
(PID.TID 0000.0001) %MON obc_W_uVel_min               =   6.6809804669674E-01
(PID.TID 0000.0001) %MON obc_W_uVel_mean              =   6.6809804669674E-01
(PID.TID 0000.0001) %MON obc_W_uVel_sd                =   1.6660004686563E-08
(PID.TID 0000.0001) %MON obc_W_uVel_Int               =   6.6809804669674E+05
(PID.TID 0000.0001) // =======================================================
(PID.TID 0000.0001) // End OBCS MONITOR field statistics
(PID.TID 0000.0001) // =======================================================
 cg2d: Sum(rhs),rhsMax =  -2.38122854767653E-11  2.91761429502124E-01
 cg2d: Sum(rhs),rhsMax =  -2.34969821377717E-11  2.96038796768485E-01
 cg2d: Sum(rhs),rhsMax =  -2.32700525515384E-11  3.00190697540613E-01
 cg2d: Sum(rhs),rhsMax =  -2.29901653270304E-11  3.04215447244286E-01
 cg2d: Sum(rhs),rhsMax =  -2.27738938818334E-11  3.08111424161748E-01
 cg2d: Sum(rhs),rhsMax =  -2.25324203739774E-11  3.11877071903792E-01
 cg2d: Sum(rhs),rhsMax =  -2.23289164935636E-11  3.15510901628152E-01
 cg2d: Sum(rhs),rhsMax =  -2.21661577981536E-11  3.19011493931604E-01
 cg2d: Sum(rhs),rhsMax =  -2.19471107953950E-11  3.22377500456935E-01
 cg2d: Sum(rhs),rhsMax =  -2.18193241252607E-11  3.25607645253735E-01
 cg2d: Sum(rhs),rhsMax =  -2.16229256722045E-11  3.28700726045735E-01
 cg2d: Sum(rhs),rhsMax =  -2.14613882221215E-11  3.31655615294502E-01
 cg2d: Sum(rhs),rhsMax =  -2.14050999147730E-11  3.34471261298362E-01
 cg2d: Sum(rhs),rhsMax =  -2.13201678533892E-11  3.37146689405631E-01
 cg2d: Sum(rhs),rhsMax =  -2.12782014230584E-11  3.39681003242125E-01
 cg2d: Sum(rhs),rhsMax =  -2.12133643984203E-11  3.42073386099456E-01
 cg2d: Sum(rhs),rhsMax =  -2.11554107565348E-11  3.44323102434168E-01
 cg2d: Sum(rhs),rhsMax =  -2.10979012038592E-11  3.46429499404900E-01
 cg2d: Sum(rhs),rhsMax =  -2.10765849217864E-11  3.48392008265907E-01
 cg2d: Sum(rhs),rhsMax =  -2.10119699417533E-11  3.50210145526666E-01
 cg2d: Sum(rhs),rhsMax =  -2.09949835294765E-11  3.51883513731242E-01
 cg2d: Sum(rhs),rhsMax =  -2.10055306482104E-11  3.53411801714237E-01
 cg2d: Sum(rhs),rhsMax =  -2.10124140309631E-11  3.54794784207294E-01
 cg2d: Sum(rhs),rhsMax =  -2.09903205927731E-11  3.56032320665040E-01
 cg2d: Sum(rhs),rhsMax =  -2.09576800358491E-11  3.57124353363299E-01
 cg2d: Sum(rhs),rhsMax =  -2.09314787724679E-11  3.58070904741532E-01
 cg2d: Sum(rhs),rhsMax =  -2.08816297586623E-11  3.58872074008424E-01
 cg2d: Sum(rhs),rhsMax =  -2.07239780891655E-11  3.59528033142870E-01
 cg2d: Sum(rhs),rhsMax =  -2.05941930175868E-11  3.60039022473158E-01
 cg2d: Sum(rhs),rhsMax =  -2.04719574625756E-11  3.60405346049660E-01
 cg2d: Sum(rhs),rhsMax =  -2.03342898075221E-11  3.60627367039449E-01
 cg2d: Sum(rhs),rhsMax =  -2.02642347346682E-11  3.60705503389685E-01
 cg2d: Sum(rhs),rhsMax =  -2.02533545490269E-11  3.60640223870378E-01
 cg2d: Sum(rhs),rhsMax =  -2.02510230806752E-11  3.60432044638587E-01
 cg2d: Sum(rhs),rhsMax =  -2.02869943066730E-11  3.60081526856871E-01
 cg2d: Sum(rhs),rhsMax =  -2.02622363332239E-11  3.59589275024073E-01
 cg2d: Sum(rhs),rhsMax =  -2.02623473555263E-11  3.58955936049098E-01
 cg2d: Sum(rhs),rhsMax =  -2.02472483223914E-11  3.58182198993634E-01
 cg2d: Sum(rhs),rhsMax =  -2.02445837871323E-11  3.57268795295641E-01
 cg2d: Sum(rhs),rhsMax =  -2.02254879511088E-11  3.56216499911861E-01
 cg2d: Sum(rhs),rhsMax =  -2.02752259426120E-11  3.55026132668360E-01
 cg2d: Sum(rhs),rhsMax =  -2.03166372614305E-11  3.53698559662282E-01
 cg2d: Sum(rhs),rhsMax =  -2.03793648623218E-11  3.52234694833007E-01
 cg2d: Sum(rhs),rhsMax =  -2.04227745825847E-11  3.50635500933995E-01
 cg2d: Sum(rhs),rhsMax =  -2.04833927597292E-11  3.48901990149803E-01
 cg2d: Sum(rhs),rhsMax =  -2.05139238929064E-11  3.47035224537771E-01
 cg2d: Sum(rhs),rhsMax =  -2.05709893563721E-11  3.45036316139019E-01
 cg2d: Sum(rhs),rhsMax =  -2.06205053032704E-11  3.42906426611409E-01
 cg2d: Sum(rhs),rhsMax =  -2.06556993731510E-11  3.40646766891387E-01
 cg2d: Sum(rhs),rhsMax =  -2.07203143531842E-11  3.38258596242383E-01
 cg2d: Sum(rhs),rhsMax =  -2.07618366943052E-11  3.35743221113284E-01
 cg2d: Sum(rhs),rhsMax =  -2.08570938298180E-11  3.33101993975487E-01
 cg2d: Sum(rhs),rhsMax =  -2.10500505914979E-11  3.30336312125572E-01
 cg2d: Sum(rhs),rhsMax =  -2.12145856437473E-11  3.27447616660405E-01
 cg2d: Sum(rhs),rhsMax =  -2.13513651203812E-11  3.24437391615039E-01
 cg2d: Sum(rhs),rhsMax =  -2.14979145596317E-11  3.21307163229519E-01
 cg2d: Sum(rhs),rhsMax =  -2.16864304292130E-11  3.18058499304411E-01
 cg2d: Sum(rhs),rhsMax =  -2.18385309835867E-11  3.14693008595241E-01
 cg2d: Sum(rhs),rhsMax =  -2.20560236741107E-11  3.11212340216856E-01
 cg2d: Sum(rhs),rhsMax =  -2.22573071084753E-11  3.07618182966757E-01
 cg2d: Sum(rhs),rhsMax =  -2.24769092227461E-11  3.03912264110331E-01
 cg2d: Sum(rhs),rhsMax =  -2.26932916902456E-11  3.00096348286311E-01
 cg2d: Sum(rhs),rhsMax =  -2.29525287664956E-11  2.96172236298591E-01
 cg2d: Sum(rhs),rhsMax =  -2.31954455642835E-11  2.92141763424361E-01
 cg2d: Sum(rhs),rhsMax =  -2.34607888671690E-11  2.88006797280734E-01
 cg2d: Sum(rhs),rhsMax =  -2.37300179506406E-11  2.83769235340281E-01
 cg2d: Sum(rhs),rhsMax =  -2.40394371076036E-11  2.79431002281127E-01
 cg2d: Sum(rhs),rhsMax =  -2.43574049818562E-11  2.74994047002760E-01
 cg2d: Sum(rhs),rhsMax =  -2.46977993612063E-11  2.70460340192249E-01
 cg2d: Sum(rhs),rhsMax =  -2.49960052656206E-11  2.65831872028606E-01
 cg2d: Sum(rhs),rhsMax =  -2.53697063357095E-11  2.61110649991822E-01
 cg2d: Sum(rhs),rhsMax =  -2.57592835950504E-11  2.56298696986744E-01
 cg2d: Sum(rhs),rhsMax =  -2.61820565228277E-11  2.51398049967085E-01
 cg2d: Sum(rhs),rhsMax =  -2.66179300822955E-11  2.46410759176992E-01
 cg2d: Sum(rhs),rhsMax =  -2.71002109641927E-11  2.41338888050791E-01
 cg2d: Sum(rhs),rhsMax =  -2.76095812878907E-11  2.36184513747536E-01
 cg2d: Sum(rhs),rhsMax =  -2.80995227086578E-11  2.30949728333650E-01
 cg2d: Sum(rhs),rhsMax =  -2.87312396096695E-11  2.25636640255774E-01
 cg2d: Sum(rhs),rhsMax =  -2.94028135172653E-11  2.20247376085998E-01
 cg2d: Sum(rhs),rhsMax =  -3.00980351752855E-11  2.14784082616829E-01
 cg2d: Sum(rhs),rhsMax =  -3.08362224643588E-11  2.09248928964859E-01
 cg2d: Sum(rhs),rhsMax =  -3.16253689902624E-11  2.03644108445147E-01
 cg2d: Sum(rhs),rhsMax =  -3.24905657933527E-11  1.97971840090246E-01
 cg2d: Sum(rhs),rhsMax =  -3.33805205698923E-11  1.92234369652161E-01
 cg2d: Sum(rhs),rhsMax =  -3.43787220913327E-11  1.86433970097889E-01
 cg2d: Sum(rhs),rhsMax =  -3.54130058610735E-11  1.80572941318048E-01
 cg2d: Sum(rhs),rhsMax =  -3.65413255210001E-11  1.74653609214701E-01
 cg2d: Sum(rhs),rhsMax =  -3.77591291567114E-11  1.68678324285699E-01
 cg2d: Sum(rhs),rhsMax =  -3.91009447042734E-11  1.62649459826895E-01
 cg2d: Sum(rhs),rhsMax =  -4.04962730016223E-11  1.56569409593195E-01
 cg2d: Sum(rhs),rhsMax =  -4.20575796411526E-11  1.50440585153713E-01
 cg2d: Sum(rhs),rhsMax =  -4.37784253293216E-11  1.44265413208289E-01
 cg2d: Sum(rhs),rhsMax =  -4.56653603819746E-11  1.38046333023329E-01
 cg2d: Sum(rhs),rhsMax =  -4.77106132379390E-11  1.31785794068513E-01
 cg2d: Sum(rhs),rhsMax =  -5.00098851219377E-11  1.25486254096554E-01
 cg2d: Sum(rhs),rhsMax =  -5.25701149278746E-11  1.19150177513544E-01
 cg2d: Sum(rhs),rhsMax =  -5.54151724507790E-11  1.12780034193546E-01
 cg2d: Sum(rhs),rhsMax =  -5.86636850208322E-11  1.06378298747958E-01
 cg2d: Sum(rhs),rhsMax =  -6.22866758170915E-11  9.99474502111129E-02
 cg2d: Sum(rhs),rhsMax =  -6.65177912750892E-11  9.34899721142322E-02
 cg2d: Sum(rhs),rhsMax =  -7.13836212362651E-11  8.70083528360690E-02
 cg2d: Sum(rhs),rhsMax =  -7.70878916256379E-11  8.05050860988474E-02
 cg2d: Sum(rhs),rhsMax =  -8.37532820874287E-11  7.39826714783235E-02
 cg2d: Sum(rhs),rhsMax =  -8.71026029081179E-11  7.10956945324906E-02
 cg2d: Sum(rhs),rhsMax =  -8.71351046871638E-11  7.09779084155672E-02
 cg2d: Sum(rhs),rhsMax =  -8.71933254764645E-11  7.08497344648076E-02
 cg2d: Sum(rhs),rhsMax =  -8.72621974679078E-11  7.07163771518341E-02
 cg2d: Sum(rhs),rhsMax =  -8.73328354078495E-11  7.05786122006644E-02
 cg2d: Sum(rhs),rhsMax =  -8.74827987829008E-11  7.04335454313612E-02
 cg2d: Sum(rhs),rhsMax =  -8.75812755651850E-11  7.02815658078455E-02
 cg2d: Sum(rhs),rhsMax =  -8.77296013612749E-11  7.01210964388105E-02
 cg2d: Sum(rhs),rhsMax =  -8.78195294262696E-11  6.99462887173949E-02
 cg2d: Sum(rhs),rhsMax =  -8.79674111331497E-11  6.97574734521984E-02
 cg2d: Sum(rhs),rhsMax =  -8.80854278406673E-11  6.95572883296186E-02
 cg2d: Sum(rhs),rhsMax =  -8.83155770736721E-11  6.93324260957666E-02
 cg2d: Sum(rhs),rhsMax =  -8.84277095991592E-11  6.91710121611846E-02
 cg2d: Sum(rhs),rhsMax =  -8.81817951992048E-11  6.93040608415098E-02
 cg2d: Sum(rhs),rhsMax =  -8.51082537778325E-11  7.17335928107073E-02
 cg2d: Sum(rhs),rhsMax =  -7.87876430763390E-11  7.74346698770490E-02
 cg2d: Sum(rhs),rhsMax =  -7.33473282110708E-11  8.31005607517830E-02
 cg2d: Sum(rhs),rhsMax =  -6.86151135909085E-11  8.87286577659129E-02
 cg2d: Sum(rhs),rhsMax =  -6.44873043853522E-11  9.43163798274263E-02
 cg2d: Sum(rhs),rhsMax =  -6.08547656710812E-11  9.98611772358576E-02
 cg2d: Sum(rhs),rhsMax =  -5.75369751842914E-11  1.05360535650585E-01
 cg2d: Sum(rhs),rhsMax =  -5.45758993553136E-11  1.10811977753129E-01
 cg2d: Sum(rhs),rhsMax =  -5.19073672933246E-11  1.16213062538291E-01
 cg2d: Sum(rhs),rhsMax =  -4.95316010429292E-11  1.21561381953562E-01
 cg2d: Sum(rhs),rhsMax =  -4.73358019448256E-11  1.26854557617418E-01
 cg2d: Sum(rhs),rhsMax =  -4.53925785848242E-11  1.32090237885463E-01
 cg2d: Sum(rhs),rhsMax =  -4.35873559467836E-11  1.37266096114743E-01
 cg2d: Sum(rhs),rhsMax =  -4.19621004610349E-11  1.42379830631438E-01
 cg2d: Sum(rhs),rhsMax =  -4.04026812006464E-11  1.47429166586354E-01
 cg2d: Sum(rhs),rhsMax =  -3.89820398183360E-11  1.52411859560544E-01
 cg2d: Sum(rhs),rhsMax =  -3.76992881356841E-11  1.57325700469914E-01
 cg2d: Sum(rhs),rhsMax =  -3.64996921575766E-11  1.62168521088638E-01
 cg2d: Sum(rhs),rhsMax =  -3.53910234451860E-11  1.66938199431752E-01
 cg2d: Sum(rhs),rhsMax =  -3.43484130027605E-11  1.71632664320674E-01
 cg2d: Sum(rhs),rhsMax =  -3.33069127833596E-11  1.76249898645902E-01
 cg2d: Sum(rhs),rhsMax =  -3.24058557765738E-11  1.80787941109234E-01
 cg2d: Sum(rhs),rhsMax =  -3.16121573362693E-11  1.85244886462594E-01
 cg2d: Sum(rhs),rhsMax =  -3.07814884692448E-11  1.89618884320179E-01
 cg2d: Sum(rhs),rhsMax =  -3.00530711427882E-11  1.93908136784008E-01
 cg2d: Sum(rhs),rhsMax =  -2.93867152834082E-11  1.98110895206663E-01
 cg2d: Sum(rhs),rhsMax =  -2.87322388103917E-11  2.02225456566917E-01
 cg2d: Sum(rhs),rhsMax =  -2.81352718900507E-11  2.06250159747498E-01
 cg2d: Sum(rhs),rhsMax =  -2.75292011409078E-11  2.10183382222431E-01
 cg2d: Sum(rhs),rhsMax =  -2.70161670812286E-11  2.14023537781597E-01
 cg2d: Sum(rhs),rhsMax =  -2.64638311264775E-11  2.17769076237271E-01
 cg2d: Sum(rhs),rhsMax =  -2.59399168811569E-11  2.21418483800875E-01
 cg2d: Sum(rhs),rhsMax =  -2.54085641415713E-11  2.24970286167240E-01
 cg2d: Sum(rhs),rhsMax =  -2.49509302108208E-11  2.28423052302432E-01
 cg2d: Sum(rhs),rhsMax =  -2.44947395700024E-11  2.31775398294681E-01
 cg2d: Sum(rhs),rhsMax =  -2.40817366048418E-11  2.35025990699099E-01
 cg2d: Sum(rhs),rhsMax =  -2.36702879519157E-11  2.38173549160299E-01
 cg2d: Sum(rhs),rhsMax =  -2.33260077919795E-11  2.41216848427213E-01
 cg2d: Sum(rhs),rhsMax =  -2.29543051233350E-11  2.44154720283729E-01
 cg2d: Sum(rhs),rhsMax =  -2.26177965245711E-11  2.46986055213472E-01
 cg2d: Sum(rhs),rhsMax =  -2.23354668094089E-11  2.49709804486082E-01
 cg2d: Sum(rhs),rhsMax =  -2.20120588423356E-11  2.52324982047787E-01
 cg2d: Sum(rhs),rhsMax =  -2.17458273610305E-11  2.54830665539122E-01
 cg2d: Sum(rhs),rhsMax =  -2.14837037049165E-11  2.57225997166613E-01
 cg2d: Sum(rhs),rhsMax =  -2.12182493797286E-11  2.59510183728334E-01
 cg2d: Sum(rhs),rhsMax =  -2.10004236222971E-11  2.61682495406909E-01
 cg2d: Sum(rhs),rhsMax =  -2.07889261361061E-11  2.63742263188772E-01
 cg2d: Sum(rhs),rhsMax =  -2.05842010103652E-11  2.65688874555920E-01
 cg2d: Sum(rhs),rhsMax =  -2.04332106790162E-11  2.67521769619687E-01
 cg2d: Sum(rhs),rhsMax =  -2.02453609432496E-11  2.69240439131957E-01
 cg2d: Sum(rhs),rhsMax =  -2.00868210953331E-11  2.70844426798435E-01
 cg2d: Sum(rhs),rhsMax =  -1.99270600020895E-11  2.72576965984181E-01
 cg2d: Sum(rhs),rhsMax =  -1.96662686136051E-11  2.74801504316580E-01
 cg2d: Sum(rhs),rhsMax =  -1.94571025957657E-11  2.76894496776431E-01
 cg2d: Sum(rhs),rhsMax =  -1.92240667828969E-11  2.78854869881161E-01
 cg2d: Sum(rhs),rhsMax =  -1.90588655968327E-11  2.80681592978925E-01
 cg2d: Sum(rhs),rhsMax =  -1.88683513258070E-11  2.82373679196628E-01
 cg2d: Sum(rhs),rhsMax =  -1.86953785785704E-11  2.83930187178286E-01
 cg2d: Sum(rhs),rhsMax =  -1.86095583387669E-11  2.85350223570217E-01
 cg2d: Sum(rhs),rhsMax =  -1.84868786945458E-11  2.86632946126147E-01
 cg2d: Sum(rhs),rhsMax =  -1.83509873963317E-11  2.87777567221226E-01
 cg2d: Sum(rhs),rhsMax =  -1.82435178075480E-11  2.88783357687256E-01
 cg2d: Sum(rhs),rhsMax =  -1.81691328648981E-11  2.89649650732209E-01
 cg2d: Sum(rhs),rhsMax =  -1.81424875123071E-11  2.90375845680645E-01
 cg2d: Sum(rhs),rhsMax =  -1.80899739632423E-11  2.90961411355856E-01
 cg2d: Sum(rhs),rhsMax =  -1.80997439258590E-11  2.91405888953068E-01
 cg2d: Sum(rhs),rhsMax =  -1.80507830904730E-11  2.91708894287413E-01
 cg2d: Sum(rhs),rhsMax =  -1.80110371061915E-11  2.91870119340415E-01
 cg2d: Sum(rhs),rhsMax =  -1.79266601563199E-11  2.91889333123571E-01
 cg2d: Sum(rhs),rhsMax =  -1.78481673884789E-11  2.91766381718128E-01
 cg2d: Sum(rhs),rhsMax =  -1.78460579647322E-11  2.91501187523986E-01
 cg2d: Sum(rhs),rhsMax =  -1.77908798804083E-11  2.91093748355664E-01
 cg2d: Sum(rhs),rhsMax =  -1.77784453825325E-11  2.90544136047271E-01
 cg2d: Sum(rhs),rhsMax =  -1.77348136176647E-11  2.89852494750515E-01
 cg2d: Sum(rhs),rhsMax =  -1.77918790811304E-11  2.89019039087733E-01
 cg2d: Sum(rhs),rhsMax =  -1.78835835029645E-11  2.88044052133236E-01
 cg2d: Sum(rhs),rhsMax =  -1.79747328132862E-11  2.86927884037754E-01
 cg2d: Sum(rhs),rhsMax =  -1.81438197799366E-11  2.85670950928648E-01
 cg2d: Sum(rhs),rhsMax =  -1.82854842378788E-11  2.84273734147828E-01
 cg2d: Sum(rhs),rhsMax =  -1.84333659447589E-11  2.82736780081987E-01
 cg2d: Sum(rhs),rhsMax =  -1.86157755877048E-11  2.81060699729810E-01
 cg2d: Sum(rhs),rhsMax =  -1.88077331486625E-11  2.79246168778587E-01
 cg2d: Sum(rhs),rhsMax =  -1.90325533111491E-11  2.77293928118197E-01
 cg2d: Sum(rhs),rhsMax =  -1.92864613168808E-11  2.75204784447215E-01
 cg2d: Sum(rhs),rhsMax =  -1.95239380218482E-11  2.72979610889470E-01
 cg2d: Sum(rhs),rhsMax =  -1.97140082036640E-11  2.70619347749003E-01
 cg2d: Sum(rhs),rhsMax =  -1.99330552064225E-11  2.68125002588195E-01
 cg2d: Sum(rhs),rhsMax =  -2.01660910192913E-11  2.65497650194467E-01
 cg2d: Sum(rhs),rhsMax =  -2.04575245632554E-11  2.62738432207419E-01
 cg2d: Sum(rhs),rhsMax =  -2.07573958022067E-11  2.59848556360750E-01
 cg2d: Sum(rhs),rhsMax =  -2.10091943841917E-11  2.56829295481657E-01
 cg2d: Sum(rhs),rhsMax =  -2.13661310866087E-11  2.53681986268380E-01
 cg2d: Sum(rhs),rhsMax =  -2.16975326594593E-11  2.50408027901329E-01
 cg2d: Sum(rhs),rhsMax =  -2.20833351605165E-11  2.47008880569609E-01
 cg2d: Sum(rhs),rhsMax =  -2.24591456543521E-11  2.43486064010635E-01
 cg2d: Sum(rhs),rhsMax =  -2.28792540468703E-11  2.39841156174286E-01
 cg2d: Sum(rhs),rhsMax =  -2.33375541114356E-11  2.36075791927272E-01
 cg2d: Sum(rhs),rhsMax =  -2.38201680602401E-11  2.32191662145060E-01
 cg2d: Sum(rhs),rhsMax =  -2.43237652242101E-11  2.28190513339994E-01
 cg2d: Sum(rhs),rhsMax =  -2.48310261241613E-11  2.24074147456062E-01
 cg2d: Sum(rhs),rhsMax =  -2.54395393639584E-11  2.19844421841708E-01
 cg2d: Sum(rhs),rhsMax =  -2.60768073800932E-11  2.15503249424176E-01
 cg2d: Sum(rhs),rhsMax =  -2.67185162883266E-11  2.11052599138408E-01
 cg2d: Sum(rhs),rhsMax =  -2.74108513664828E-11  2.06494496340770E-01
 cg2d: Sum(rhs),rhsMax =  -2.81185075223789E-11  2.01831023607303E-01
 cg2d: Sum(rhs),rhsMax =  -2.88459256481133E-11  1.97064321653919E-01
 cg2d: Sum(rhs),rhsMax =  -2.96394020438129E-11  1.92196589970094E-01
 cg2d: Sum(rhs),rhsMax =  -3.05083736051870E-11  1.87230087165599E-01
 cg2d: Sum(rhs),rhsMax =  -3.13912229543689E-11  1.82167131037183E-01
 cg2d: Sum(rhs),rhsMax =  -3.23565618742805E-11  1.77010098337209E-01
 cg2d: Sum(rhs),rhsMax =  -3.34620109398998E-11  1.71761424195355E-01
 cg2d: Sum(rhs),rhsMax =  -3.45869999307524E-11  1.66423601154686E-01
 cg2d: Sum(rhs),rhsMax =  -3.58725271709659E-11  1.60999177773026E-01
 cg2d: Sum(rhs),rhsMax =  -3.71872532767270E-11  1.55490756523403E-01
 cg2d: Sum(rhs),rhsMax =  -3.84875464831680E-11  1.50493113335350E-01
 cg2d: Sum(rhs),rhsMax =  -3.97969435184109E-11  1.45836899658182E-01
 cg2d: Sum(rhs),rhsMax =  -4.12109235625735E-11  1.41128141468756E-01
 cg2d: Sum(rhs),rhsMax =  -4.27822222093255E-11  1.36368749345653E-01
 cg2d: Sum(rhs),rhsMax =  -4.44116965425678E-11  1.31560647750381E-01
 cg2d: Sum(rhs),rhsMax =  -4.62262450540152E-11  1.26705771496284E-01
 cg2d: Sum(rhs),rhsMax =  -4.82043294169898E-11  1.21806063461570E-01
 cg2d: Sum(rhs),rhsMax =  -5.03711516941507E-11  1.16863473563498E-01
 cg2d: Sum(rhs),rhsMax =  -5.27711208064829E-11  1.11879958829865E-01
 cg2d: Sum(rhs),rhsMax =  -5.53671553049639E-11  1.06857484328449E-01
 cg2d: Sum(rhs),rhsMax =  -5.82552894812238E-11  1.01798024727584E-01
 cg2d: Sum(rhs),rhsMax =  -6.13816775185683E-11  9.67035662983525E-02
 cg2d: Sum(rhs),rhsMax =  -6.48828768490262E-11  9.15761091911400E-02
 cg2d: Sum(rhs),rhsMax =  -6.88404888649075E-11  8.64176697815277E-02
 cg2d: Sum(rhs),rhsMax =  -7.24289517251009E-11  8.21998736627449E-02
 cg2d: Sum(rhs),rhsMax =  -7.22644166728514E-11  8.24449360708569E-02
 cg2d: Sum(rhs),rhsMax =  -7.21451787200067E-11  8.26804022278666E-02
 cg2d: Sum(rhs),rhsMax =  -7.20111748009344E-11  8.29061135129261E-02
 cg2d: Sum(rhs),rhsMax =  -7.18815007516582E-11  8.31198609321012E-02
 cg2d: Sum(rhs),rhsMax =  -7.17919057535710E-11  8.33285717771349E-02
 cg2d: Sum(rhs),rhsMax =  -7.16855463878119E-11  8.35240320237950E-02
 cg2d: Sum(rhs),rhsMax =  -7.15650871896401E-11  8.37189919495738E-02
 cg2d: Sum(rhs),rhsMax =  -7.14795445055927E-11  8.39047987852127E-02
 cg2d: Sum(rhs),rhsMax =  -7.14054926298502E-11  8.40886741734325E-02
 cg2d: Sum(rhs),rhsMax =  -7.13018533105014E-11  8.42730362830481E-02
 cg2d: Sum(rhs),rhsMax =  -7.11481984438933E-11  8.45479260853660E-02
 cg2d: Sum(rhs),rhsMax =  -7.06137093242631E-11  8.53102414673219E-02
 cg2d: Sum(rhs),rhsMax =  -7.00637325934395E-11  8.60490124441382E-02
 cg2d: Sum(rhs),rhsMax =  -6.95342533552079E-11  8.68234803040759E-02
 cg2d: Sum(rhs),rhsMax =  -6.89800369602089E-11  8.75965339882528E-02
 cg2d: Sum(rhs),rhsMax =  -6.84728038158333E-11  8.83246777021424E-02
 cg2d: Sum(rhs),rhsMax =  -6.79784284418616E-11  8.90153248355950E-02
 cg2d: Sum(rhs),rhsMax =  -6.75641764757984E-11  8.96678898673812E-02
 cg2d: Sum(rhs),rhsMax =  -6.71865896251234E-11  9.02781962909724E-02
 cg2d: Sum(rhs),rhsMax =  -6.68213262500217E-11  9.08453819727710E-02
 cg2d: Sum(rhs),rhsMax =  -6.65240640351783E-11  9.13666468401997E-02
 cg2d: Sum(rhs),rhsMax =  -6.62424004538309E-11  9.18414256503467E-02
 cg2d: Sum(rhs),rhsMax =  -6.59779453293652E-11  9.22705475348242E-02
 cg2d: Sum(rhs),rhsMax =  -6.47554787569504E-11  9.41172803875323E-02
 cg2d: Sum(rhs),rhsMax =  -6.07540684427477E-11  1.00468349049232E-01
 cg2d: Sum(rhs),rhsMax =  -5.71152014572363E-11  1.06888334886556E-01
 cg2d: Sum(rhs),rhsMax =  -5.40231193113527E-11  1.13266503844917E-01
 cg2d: Sum(rhs),rhsMax =  -5.12696551879799E-11  1.19599922039413E-01
 cg2d: Sum(rhs),rhsMax =  -4.88048490510096E-11  1.25885684718686E-01
 cg2d: Sum(rhs),rhsMax =  -4.66006122579188E-11  1.32120918971505E-01
 cg2d: Sum(rhs),rhsMax =  -4.46264136755303E-11  1.38302786665042E-01
 cg2d: Sum(rhs),rhsMax =  -4.28161950338790E-11  1.44428487516295E-01
 cg2d: Sum(rhs),rhsMax =  -4.11842782099825E-11  1.50495262175351E-01
 cg2d: Sum(rhs),rhsMax =  -3.97127886131443E-11  1.56500395186194E-01
 cg2d: Sum(rhs),rhsMax =  -3.83114651114624E-11  1.62441217689000E-01
 cg2d: Sum(rhs),rhsMax =  -3.70643515879010E-11  1.68315109738715E-01
 cg2d: Sum(rhs),rhsMax =  -3.59260399207528E-11  1.74119502138226E-01
 cg2d: Sum(rhs),rhsMax =  -3.48361339774783E-11  1.79851877718227E-01
 cg2d: Sum(rhs),rhsMax =  -3.38266081811867E-11  1.85509772036523E-01
 cg2d: Sum(rhs),rhsMax =  -3.29196669923704E-11  1.91090773512270E-01
 cg2d: Sum(rhs),rhsMax =  -3.20372617323983E-11  1.96592523052233E-01
 cg2d: Sum(rhs),rhsMax =  -3.12306847050081E-11  2.02012713258194E-01
 cg2d: Sum(rhs),rhsMax =  -3.04862801669969E-11  2.07349087328691E-01
 cg2d: Sum(rhs),rhsMax =  -2.97887270406250E-11  2.12599437795007E-01
 cg2d: Sum(rhs),rhsMax =  -2.92329493944976E-11  2.17761605212868E-01
 cg2d: Sum(rhs),rhsMax =  -2.87150303535100E-11  2.22833476940972E-01
 cg2d: Sum(rhs),rhsMax =  -2.81995538031765E-11  2.27812986115089E-01
 cg2d: Sum(rhs),rhsMax =  -2.77534661918821E-11  2.32698110900198E-01
 cg2d: Sum(rhs),rhsMax =  -2.72745159790588E-11  2.37486874079000E-01
 cg2d: Sum(rhs),rhsMax =  -2.68695066196756E-11  2.42177342998383E-01
 cg2d: Sum(rhs),rhsMax =  -2.64533950300461E-11  2.46767629862535E-01
 cg2d: Sum(rhs),rhsMax =  -2.60905741455986E-11  2.51255892335299E-01
 cg2d: Sum(rhs),rhsMax =  -2.57043275553315E-11  2.55640334397190E-01
 cg2d: Sum(rhs),rhsMax =  -2.53835841235173E-11  2.59919207394180E-01
 cg2d: Sum(rhs),rhsMax =  -2.50692799852459E-11  2.64090811214307E-01
 cg2d: Sum(rhs),rhsMax =  -2.47509790440859E-11  2.68153495530928E-01
 cg2d: Sum(rhs),rhsMax =  -2.44412268202154E-11  2.72105661075452E-01
 cg2d: Sum(rhs),rhsMax =  -2.42026398922235E-11  2.75945760905252E-01
 cg2d: Sum(rhs),rhsMax =  -2.39330777418445E-11  2.79672301633181E-01
 cg2d: Sum(rhs),rhsMax =  -2.36827224497915E-11  2.83283844626793E-01
 cg2d: Sum(rhs),rhsMax =  -2.34463559678488E-11  2.86779007218587E-01
 cg2d: Sum(rhs),rhsMax =  -2.32297514557445E-11  2.90156463907755E-01
 cg2d: Sum(rhs),rhsMax =  -2.30154784119918E-11  2.93414947563903E-01
 cg2d: Sum(rhs),rhsMax =  -2.28377317057493E-11  2.96553250659664E-01
 cg2d: Sum(rhs),rhsMax =  -2.26536567282665E-11  2.99570226532268E-01
 cg2d: Sum(rhs),rhsMax =  -2.24843477170111E-11  3.02464790714602E-01
 cg2d: Sum(rhs),rhsMax =  -2.23141505273361E-11  3.05235922206945E-01
 cg2d: Sum(rhs),rhsMax =  -2.21802576305663E-11  3.07882664675824E-01
 cg2d: Sum(rhs),rhsMax =  -2.20876650303126E-11  3.10404127630331E-01
 cg2d: Sum(rhs),rhsMax =  -2.20147233775947E-11  3.12799487388290E-01
 cg2d: Sum(rhs),rhsMax =  -2.19441131932285E-11  3.15067987806610E-01
 cg2d: Sum(rhs),rhsMax =  -2.18780549232633E-11  3.17208940772398E-01
 cg2d: Sum(rhs),rhsMax =  -2.17998952223297E-11  3.19221726390274E-01
 cg2d: Sum(rhs),rhsMax =  -2.17860174345219E-11  3.21105792828573E-01
 cg2d: Sum(rhs),rhsMax =  -2.17184048523222E-11  3.22860655770900E-01
 cg2d: Sum(rhs),rhsMax =  -2.16577866751777E-11  3.24485897485519E-01
 cg2d: Sum(rhs),rhsMax =  -2.16160422894518E-11  3.25981165553781E-01
 cg2d: Sum(rhs),rhsMax =  -2.15734097253062E-11  3.27346171290622E-01
 cg2d: Sum(rhs),rhsMax =  -2.15522044655359E-11  3.28580687899622E-01
 cg2d: Sum(rhs),rhsMax =  -2.15867324016017E-11  3.29684548536567E-01
 cg2d: Sum(rhs),rhsMax =  -2.14837037049165E-11  3.30657644242087E-01
 cg2d: Sum(rhs),rhsMax =  -2.14426254530053E-11  3.31499921819284E-01
 cg2d: Sum(rhs),rhsMax =  -2.14006590226745E-11  3.32211381729547E-01
 cg2d: Sum(rhs),rhsMax =  -2.13715711794293E-11  3.32792076072210E-01
 cg2d: Sum(rhs),rhsMax =  -2.13222772771360E-11  3.33242106700046E-01
 cg2d: Sum(rhs),rhsMax =  -2.11848316666874E-11  3.33561623507525E-01
 cg2d: Sum(rhs),rhsMax =  -2.11284323370364E-11  3.33750822983279E-01
 cg2d: Sum(rhs),rhsMax =  -2.11008988060257E-11  3.33809946852022E-01
 cg2d: Sum(rhs),rhsMax =  -2.11097805902227E-11  3.33739280769536E-01
 cg2d: Sum(rhs),rhsMax =  -2.11352046974866E-11  3.33539153589169E-01
 cg2d: Sum(rhs),rhsMax =  -2.10181871906912E-11  3.33209936876178E-01
 cg2d: Sum(rhs),rhsMax =  -2.10160777669444E-11  3.32752044581108E-01
 cg2d: Sum(rhs),rhsMax =  -2.09761097380579E-11  3.32165932873634E-01
 cg2d: Sum(rhs),rhsMax =  -2.09487982516521E-11  3.31452100176473E-01
 cg2d: Sum(rhs),rhsMax =  -2.09255945904374E-11  3.30611087247065E-01
 cg2d: Sum(rhs),rhsMax =  -2.08579820082377E-11  3.29643477944288E-01
 cg2d: Sum(rhs),rhsMax =  -2.08983941263341E-11  3.28549900086140E-01
 cg2d: Sum(rhs),rhsMax =  -2.09482431401398E-11  3.27331026439654E-01
 cg2d: Sum(rhs),rhsMax =  -2.09687822660953E-11  3.25987575942685E-01
 cg2d: Sum(rhs),rhsMax =  -2.10137462985927E-11  3.24520314471295E-01
 cg2d: Sum(rhs),rhsMax =  -2.10752526541569E-11  3.22930055755482E-01
 cg2d: Sum(rhs),rhsMax =  -2.10639283793057E-11  3.21217662399983E-01
 cg2d: Sum(rhs),rhsMax =  -2.11486383960846E-11  3.19384046638253E-01
 cg2d: Sum(rhs),rhsMax =  -2.12247996955739E-11  3.17430170834752E-01
 cg2d: Sum(rhs),rhsMax =  -2.12679873712318E-11  3.15357047876463E-01
 cg2d: Sum(rhs),rhsMax =  -2.13264961246296E-11  3.13165741091980E-01
 cg2d: Sum(rhs),rhsMax =  -2.13745687815958E-11  3.10857363462858E-01
 cg2d: Sum(rhs),rhsMax =  -2.15154560834208E-11  3.08433076437534E-01
 cg2d: Sum(rhs),rhsMax =  -2.16422435528330E-11  3.05894088280802E-01
 cg2d: Sum(rhs),rhsMax =  -2.18108864302735E-11  3.03241652123617E-01
 cg2d: Sum(rhs),rhsMax =  -2.19462226169753E-11  3.00477063722737E-01
 cg2d: Sum(rhs),rhsMax =  -2.21156426505331E-11  2.97601658969603E-01
 cg2d: Sum(rhs),rhsMax =  -2.23168150625952E-11  2.94616811225957E-01
 cg2d: Sum(rhs),rhsMax =  -2.24833485162890E-11  2.91523928596003E-01
 cg2d: Sum(rhs),rhsMax =  -2.26842988837461E-11  2.88324451261315E-01
 cg2d: Sum(rhs),rhsMax =  -2.29175567412199E-11  2.85019848967929E-01
 cg2d: Sum(rhs),rhsMax =  -2.31485941526444E-11  2.81611618712434E-01
 cg2d: Sum(rhs),rhsMax =  -2.33716379582916E-11  2.78101283190382E-01
 cg2d: Sum(rhs),rhsMax =  -2.36490826921454E-11  2.74490389565380E-01
 cg2d: Sum(rhs),rhsMax =  -2.38878916647423E-11  2.70780508620284E-01
 cg2d: Sum(rhs),rhsMax =  -2.41641151532690E-11  2.66973234417676E-01
 cg2d: Sum(rhs),rhsMax =  -2.44471110022459E-11  2.63070184495319E-01
 cg2d: Sum(rhs),rhsMax =  -2.47952769427684E-11  2.59073000560459E-01
 cg2d: Sum(rhs),rhsMax =  -2.50890419550842E-11  2.54983349378858E-01
 cg2d: Sum(rhs),rhsMax =  -2.54444243452667E-11  2.50802924319045E-01
 cg2d: Sum(rhs),rhsMax =  -2.57868171260611E-11  2.46533447140882E-01
 cg2d: Sum(rhs),rhsMax =  -2.61901611509074E-11  2.42176669659030E-01
 cg2d: Sum(rhs),rhsMax =  -2.65959476664079E-11  2.37734375226908E-01
 cg2d: Sum(rhs),rhsMax =  -2.70574673777446E-11  2.33208379986125E-01
 cg2d: Sum(rhs),rhsMax =  -2.75061085019956E-11  2.28600533806291E-01
 cg2d: Sum(rhs),rhsMax =  -2.79803957781155E-11  2.23912720826762E-01
 cg2d: Sum(rhs),rhsMax =  -2.84853252097150E-11  2.19146859555566E-01
 cg2d: Sum(rhs),rhsMax =  -2.90247825773804E-11  2.14304902431124E-01
 cg2d: Sum(rhs),rhsMax =  -2.96213054085115E-11  2.09388834724239E-01
 cg2d: Sum(rhs),rhsMax =  -3.02730063239665E-11  2.04400672999610E-01
 cg2d: Sum(rhs),rhsMax =  -3.09869907511029E-11  1.99342463148144E-01
 cg2d: Sum(rhs),rhsMax =  -3.17486037459958E-11  1.94216278229626E-01
 cg2d: Sum(rhs),rhsMax =  -3.25687254942864E-11  1.89024216116726E-01
 cg2d: Sum(rhs),rhsMax =  -3.34224870002231E-11  1.83768397009707E-01
 cg2d: Sum(rhs),rhsMax =  -3.43930439683504E-11  1.78450960995061E-01
 cg2d: Sum(rhs),rhsMax =  -3.53553852860955E-11  1.73074065884476E-01
 cg2d: Sum(rhs),rhsMax =  -3.64255292595317E-11  1.67639885265148E-01
 cg2d: Sum(rhs),rhsMax =  -3.76085829145723E-11  1.62150606964537E-01
 cg2d: Sum(rhs),rhsMax =  -3.88514775906401E-11  1.56608432066255E-01
 cg2d: Sum(rhs),rhsMax =  -4.02209376915152E-11  1.51015574550721E-01
 cg2d: Sum(rhs),rhsMax =  -4.17075263214883E-11  1.45374261157623E-01
 cg2d: Sum(rhs),rhsMax =  -4.33070246330658E-11  1.39686731655524E-01
 cg2d: Sum(rhs),rhsMax =  -4.50888215652867E-11  1.33955239442960E-01
 cg2d: Sum(rhs),rhsMax =  -4.70122829554498E-11  1.28182052356221E-01
 cg2d: Sum(rhs),rhsMax =  -4.91457985418720E-11  1.22369453469453E-01
 cg2d: Sum(rhs),rhsMax =  -5.15255615951560E-11  1.16519742038094E-01
 cg2d: Sum(rhs),rhsMax =  -5.41398037512408E-11  1.10635234126471E-01
 cg2d: Sum(rhs),rhsMax =  -5.70678504452360E-11  1.04718262851389E-01
 cg2d: Sum(rhs),rhsMax =  -6.03842531532450E-11  9.87711783136411E-02
 cg2d: Sum(rhs),rhsMax =  -6.10771988540648E-11  9.74121740005953E-02
 cg2d: Sum(rhs),rhsMax =  -6.12490613782768E-11  9.69637156498520E-02
 cg2d: Sum(rhs),rhsMax =  -6.14206741023082E-11  9.65153994518260E-02
 cg2d: Sum(rhs),rhsMax =  -6.16976469913766E-11  9.60005783357376E-02
 cg2d: Sum(rhs),rhsMax =  -6.19778811605798E-11  9.54980695829084E-02
 cg2d: Sum(rhs),rhsMax =  -6.21938472944450E-11  9.50349867075216E-02
 cg2d: Sum(rhs),rhsMax =  -6.24606859289667E-11  9.45646351107562E-02
 cg2d: Sum(rhs),rhsMax =  -6.27267127129016E-11  9.40852260776747E-02
 cg2d: Sum(rhs),rhsMax =  -6.30103191845421E-11  9.36071335654169E-02
 cg2d: Sum(rhs),rhsMax =  -6.33484376066917E-11  9.30717586662831E-02
 cg2d: Sum(rhs),rhsMax =  -6.36648789242855E-11  9.25442486426599E-02
 cg2d: Sum(rhs),rhsMax =  -6.39822639314502E-11  9.20151022018637E-02
 cg2d: Sum(rhs),rhsMax =  -6.42974562481413E-11  9.14793171680566E-02
 cg2d: Sum(rhs),rhsMax =  -6.46168119011747E-11  9.09384976282963E-02
 cg2d: Sum(rhs),rhsMax =  -6.49651998863021E-11  9.03943428940353E-02
 cg2d: Sum(rhs),rhsMax =  -6.53075371559453E-11  8.98463653476691E-02
 cg2d: Sum(rhs),rhsMax =  -6.56201759596797E-11  8.92936098799414E-02
 cg2d: Sum(rhs),rhsMax =  -6.59666765656652E-11  8.87355919920305E-02
 cg2d: Sum(rhs),rhsMax =  -6.63530341782348E-11  8.81707679577392E-02
 cg2d: Sum(rhs),rhsMax =  -6.66720012532096E-11  8.75975798103554E-02
 cg2d: Sum(rhs),rhsMax =  -6.70627997578777E-11  8.70160922010096E-02
 cg2d: Sum(rhs),rhsMax =  -6.74893474439386E-11  8.64257142561748E-02
 cg2d: Sum(rhs),rhsMax =  -6.78812561716313E-11  8.58245739722509E-02
 cg2d: Sum(rhs),rhsMax =  -6.40486552683228E-11  9.07991117488364E-02
 cg2d: Sum(rhs),rhsMax =  -6.06532601921117E-11  9.58264802325163E-02
 cg2d: Sum(rhs),rhsMax =  -5.75497427490745E-11  1.00811097741449E-01
 cg2d: Sum(rhs),rhsMax =  -5.47173417686508E-11  1.05750820020651E-01
 cg2d: Sum(rhs),rhsMax =  -5.22089038668128E-11  1.10643532566243E-01
 cg2d: Sum(rhs),rhsMax =  -4.98955321504013E-11  1.15487148620904E-01
 cg2d: Sum(rhs),rhsMax =  -4.78086459310134E-11  1.20279607215105E-01
 cg2d: Sum(rhs),rhsMax =  -4.59127180718610E-11  1.25018871956940E-01
 cg2d: Sum(rhs),rhsMax =  -4.41203740209062E-11  1.29702932233986E-01
 cg2d: Sum(rhs),rhsMax =  -4.25475210619197E-11  1.34329801987981E-01
 cg2d: Sum(rhs),rhsMax =  -4.10259604066709E-11  1.38897518400661E-01
 cg2d: Sum(rhs),rhsMax =  -3.97486488168397E-11  1.43404142858496E-01
 cg2d: Sum(rhs),rhsMax =  -3.84683396248420E-11  1.47847762414793E-01
 cg2d: Sum(rhs),rhsMax =  -3.72900599288073E-11  1.52226491005392E-01
 cg2d: Sum(rhs),rhsMax =  -3.62082586136125E-11  1.56538470304459E-01
 cg2d: Sum(rhs),rhsMax =  -3.51950690813396E-11  1.60781870632048E-01
 cg2d: Sum(rhs),rhsMax =  -3.42067485448183E-11  1.64954892628526E-01
 cg2d: Sum(rhs),rhsMax =  -3.33485461467831E-11  1.69055769826800E-01
 cg2d: Sum(rhs),rhsMax =  -3.24879012580936E-11  1.73082772789320E-01
 cg2d: Sum(rhs),rhsMax =  -3.17341708466756E-11  1.77034210740244E-01
 cg2d: Sum(rhs),rhsMax =  -3.09726688740852E-11  1.80908433570913E-01
 cg2d: Sum(rhs),rhsMax =  -3.02931013607122E-11  1.84703835128443E-01
 cg2d: Sum(rhs),rhsMax =  -2.96728197568541E-11  1.88418856797864E-01
 cg2d: Sum(rhs),rhsMax =  -2.90260038227075E-11  1.92051990334784E-01
 cg2d: Sum(rhs),rhsMax =  -2.84686718643457E-11  1.95601779137680E-01
 cg2d: Sum(rhs),rhsMax =  -2.79299916527975E-11  1.99066818121758E-01
 cg2d: Sum(rhs),rhsMax =  -2.73514544346654E-11  2.02445752653616E-01
 cg2d: Sum(rhs),rhsMax =  -2.68425282001772E-11  2.05737277897905E-01
 cg2d: Sum(rhs),rhsMax =  -2.63276067613560E-11  2.08940135576369E-01
 cg2d: Sum(rhs),rhsMax =  -2.58426613441998E-11  2.12053111199785E-01
 cg2d: Sum(rhs),rhsMax =  -2.54223309070767E-11  2.15075032492893E-01
 cg2d: Sum(rhs),rhsMax =  -2.49904541504975E-11  2.18004768078301E-01
 cg2d: Sum(rhs),rhsMax =  -2.46207498832973E-11  2.20841225837908E-01
 cg2d: Sum(rhs),rhsMax =  -2.42260655980431E-11  2.23583351132164E-01
 cg2d: Sum(rhs),rhsMax =  -2.38757902337738E-11  2.26230124978133E-01
 cg2d: Sum(rhs),rhsMax =  -2.35428343486888E-11  2.28780563868394E-01
 cg2d: Sum(rhs),rhsMax =  -2.32043273484805E-11  2.31233718834085E-01
 cg2d: Sum(rhs),rhsMax =  -2.29459784506503E-11  2.33588676260824E-01
 cg2d: Sum(rhs),rhsMax =  -2.26391128066439E-11  2.35844561065820E-01
 cg2d: Sum(rhs),rhsMax =  -2.24021912131889E-11  2.38000541182420E-01
 cg2d: Sum(rhs),rhsMax =  -2.21670459765733E-11  2.40055831622043E-01
 cg2d: Sum(rhs),rhsMax =  -2.18958184916573E-11  2.42009697929265E-01
 cg2d: Sum(rhs),rhsMax =  -2.16537898722891E-11  2.43861459157093E-01
 cg2d: Sum(rhs),rhsMax =  -2.14971374035144E-11  2.45610491358184E-01
 cg2d: Sum(rhs),rhsMax =  -2.13202788756917E-11  2.47256228773239E-01
 cg2d: Sum(rhs),rhsMax =  -2.11506367975289E-11  2.48798164956885E-01
 cg2d: Sum(rhs),rhsMax =  -2.09632311509722E-11  2.50235853815946E-01
 cg2d: Sum(rhs),rhsMax =  -2.07809325303288E-11  2.51568909762880E-01
 cg2d: Sum(rhs),rhsMax =  -2.05849781664824E-11  2.52797006471693E-01
 cg2d: Sum(rhs),rhsMax =  -2.04021244343267E-11  2.53952618210216E-01
 cg2d: Sum(rhs),rhsMax =  -2.02401428950338E-11  2.55649528090649E-01
 cg2d: Sum(rhs),rhsMax =  -2.00458538657244E-11  2.57220765581213E-01
 cg2d: Sum(rhs),rhsMax =  -1.99111838128374E-11  2.58665513868065E-01
 cg2d: Sum(rhs),rhsMax =  -1.97586391692539E-11  2.59983010914464E-01
 cg2d: Sum(rhs),rhsMax =  -1.96367366811501E-11  2.61172550097691E-01
 cg2d: Sum(rhs),rhsMax =  -1.95010674275409E-11  2.62233481001257E-01
 cg2d: Sum(rhs),rhsMax =  -1.94076976711699E-11  2.63165210427581E-01
(PID.TID 0000.0001)      cg2d_init_res =   1.34216975389103E-02
(PID.TID 0000.0001)      cg2d_iters(min,last) =      -1      35
(PID.TID 0000.0001)      cg2d_last_res =   7.46565892514666E-14
(PID.TID 0000.0001) // =======================================================
(PID.TID 0000.0001) // Begin MONITOR dynamic field statistics
(PID.TID 0000.0001) // =======================================================
(PID.TID 0000.0001) %MON time_tsnumber                =                  3840
(PID.TID 0000.0001) %MON time_secondsf                =   5.7600000000000E+04
(PID.TID 0000.0001) %MON dynstat_eta_max              =   5.2347991914504E-02
(PID.TID 0000.0001) %MON dynstat_eta_min              =  -5.6314053972901E-02
(PID.TID 0000.0001) %MON dynstat_eta_mean             =   1.0920099677742E-14
(PID.TID 0000.0001) %MON dynstat_eta_sd               =   3.6873773518721E-02
(PID.TID 0000.0001) %MON dynstat_eta_del2             =   4.9381858786769E-05
(PID.TID 0000.0001) %MON dynstat_uvel_max             =   1.4430777618991E+00
(PID.TID 0000.0001) %MON dynstat_uvel_min             =  -7.0771844972006E-01
(PID.TID 0000.0001) %MON dynstat_uvel_mean            =   6.8156532960873E-01
(PID.TID 0000.0001) %MON dynstat_uvel_sd              =   1.1984271499591E-01
(PID.TID 0000.0001) %MON dynstat_uvel_del2            =   9.9590943354724E-04
(PID.TID 0000.0001) %MON dynstat_vvel_max             =   0.0000000000000E+00
(PID.TID 0000.0001) %MON dynstat_vvel_min             =   0.0000000000000E+00
(PID.TID 0000.0001) %MON dynstat_vvel_mean            =   0.0000000000000E+00
(PID.TID 0000.0001) %MON dynstat_vvel_sd              =   0.0000000000000E+00
(PID.TID 0000.0001) %MON dynstat_vvel_del2            =   0.0000000000000E+00
(PID.TID 0000.0001) %MON dynstat_wvel_max             =   2.1492561524966E-02
(PID.TID 0000.0001) %MON dynstat_wvel_min             =  -3.9765739676564E-02
(PID.TID 0000.0001) %MON dynstat_wvel_mean            =   4.3592040595076E-20
(PID.TID 0000.0001) %MON dynstat_wvel_sd              =   3.4856784508158E-03
(PID.TID 0000.0001) %MON dynstat_wvel_del2            =   7.3586232272359E-05
(PID.TID 0000.0001) %MON dynstat_theta_max            =   1.5000000000005E+01
(PID.TID 0000.0001) %MON dynstat_theta_min            =   9.9999999999987E+00
(PID.TID 0000.0001) %MON dynstat_theta_mean           =   1.3283714391643E+01
(PID.TID 0000.0001) %MON dynstat_theta_sd             =   2.2881050278837E+00
(PID.TID 0000.0001) %MON dynstat_theta_del2           =   1.1004505577017E-03
(PID.TID 0000.0001) %MON dynstat_salt_max             =   3.5000000000000E+01
(PID.TID 0000.0001) %MON dynstat_salt_min             =   3.5000000000000E+01
(PID.TID 0000.0001) %MON dynstat_salt_mean            =   3.5000000000000E+01
(PID.TID 0000.0001) %MON dynstat_salt_sd              =   2.1316282072803E-14
(PID.TID 0000.0001) %MON dynstat_salt_del2            =   0.0000000000000E+00
(PID.TID 0000.0001) %MON dynstat_sst_max              =   1.5000000000000E+01
(PID.TID 0000.0001) %MON dynstat_sst_min              =   1.4999913575427E+01
(PID.TID 0000.0001) %MON dynstat_sst_mean             =   1.4999997289354E+01
(PID.TID 0000.0001) %MON dynstat_sst_sd               =   1.3408686396943E-05
(PID.TID 0000.0001) %MON dynstat_sst_del2             =   3.0634355076682E-07
(PID.TID 0000.0001) %MON dynstat_sss_max              =   3.5000000000000E+01
(PID.TID 0000.0001) %MON dynstat_sss_min              =   3.5000000000000E+01
(PID.TID 0000.0001) %MON dynstat_sss_mean             =   3.5000000000000E+01
(PID.TID 0000.0001) %MON dynstat_sss_sd               =   7.8159700933611E-14
(PID.TID 0000.0001) %MON dynstat_sss_del2             =   0.0000000000000E+00
(PID.TID 0000.0001) %MON forcing_qnet_max             =   0.0000000000000E+00
(PID.TID 0000.0001) %MON forcing_qnet_min             =   0.0000000000000E+00
(PID.TID 0000.0001) %MON forcing_qnet_mean            =   0.0000000000000E+00
(PID.TID 0000.0001) %MON forcing_qnet_sd              =   0.0000000000000E+00
(PID.TID 0000.0001) %MON forcing_qnet_del2            =   0.0000000000000E+00
(PID.TID 0000.0001) %MON forcing_qsw_max              =   0.0000000000000E+00
(PID.TID 0000.0001) %MON forcing_qsw_min              =   0.0000000000000E+00
(PID.TID 0000.0001) %MON forcing_qsw_mean             =   0.0000000000000E+00
(PID.TID 0000.0001) %MON forcing_qsw_sd               =   0.0000000000000E+00
(PID.TID 0000.0001) %MON forcing_qsw_del2             =   0.0000000000000E+00
(PID.TID 0000.0001) %MON forcing_empmr_max            =   0.0000000000000E+00
(PID.TID 0000.0001) %MON forcing_empmr_min            =   0.0000000000000E+00
(PID.TID 0000.0001) %MON forcing_empmr_mean           =   0.0000000000000E+00
(PID.TID 0000.0001) %MON forcing_empmr_sd             =   0.0000000000000E+00
(PID.TID 0000.0001) %MON forcing_empmr_del2           =   0.0000000000000E+00
(PID.TID 0000.0001) %MON forcing_fu_max               =   0.0000000000000E+00
(PID.TID 0000.0001) %MON forcing_fu_min               =   0.0000000000000E+00
(PID.TID 0000.0001) %MON forcing_fu_mean              =   0.0000000000000E+00
(PID.TID 0000.0001) %MON forcing_fu_sd                =   0.0000000000000E+00
(PID.TID 0000.0001) %MON forcing_fu_del2              =   0.0000000000000E+00
(PID.TID 0000.0001) %MON forcing_fv_max               =   0.0000000000000E+00
(PID.TID 0000.0001) %MON forcing_fv_min               =   0.0000000000000E+00
(PID.TID 0000.0001) %MON forcing_fv_mean              =   0.0000000000000E+00
(PID.TID 0000.0001) %MON forcing_fv_sd                =   0.0000000000000E+00
(PID.TID 0000.0001) %MON forcing_fv_del2              =   0.0000000000000E+00
(PID.TID 0000.0001) %MON advcfl_uvel_max              =   1.0823083214243E-01
(PID.TID 0000.0001) %MON advcfl_vvel_max              =   0.0000000000000E+00
(PID.TID 0000.0001) %MON advcfl_wvel_max              =   5.4987435532740E-01
(PID.TID 0000.0001) %MON advcfl_W_hf_max              =   5.5447517386390E-01
(PID.TID 0000.0001) %MON pe_b_mean                    =   3.3968929154067E-05
(PID.TID 0000.0001) %MON ke_max                       =   9.3661385156629E-01
(PID.TID 0000.0001) %MON ke_mean                      =   2.3948648484625E-01
(PID.TID 0000.0001) %MON ke_vol                       =   9.5889217545975E+10
(PID.TID 0000.0001) %MON vort_r_min                   =   0.0000000000000E+00
(PID.TID 0000.0001) %MON vort_r_max                   =   0.0000000000000E+00
(PID.TID 0000.0001) %MON vort_a_mean                  =   0.0000000000000E+00
(PID.TID 0000.0001) %MON vort_a_sd                    =   0.0000000000000E+00
(PID.TID 0000.0001) %MON vort_p_mean                  =   0.0000000000000E+00
(PID.TID 0000.0001) %MON vort_p_sd                    =   0.0000000000000E+00
(PID.TID 0000.0001) %MON surfExpan_theta_mean         =  -1.0968999676214E-11
(PID.TID 0000.0001) %MON surfExpan_salt_mean          =   3.3766061566673E-18
(PID.TID 0000.0001) // =======================================================
(PID.TID 0000.0001) // End MONITOR dynamic field statistics
(PID.TID 0000.0001) // =======================================================
(PID.TID 0000.0001) // =======================================================
(PID.TID 0000.0001) // Begin OBCS MONITOR field statistics
(PID.TID 0000.0001) // =======================================================
(PID.TID 0000.0001) %MON obc_E_uVel_max               =   6.6809804669674E-01
(PID.TID 0000.0001) %MON obc_E_uVel_min               =   6.6809804669674E-01
(PID.TID 0000.0001) %MON obc_E_uVel_mean              =   6.6809804669674E-01
(PID.TID 0000.0001) %MON obc_E_uVel_sd                =   1.6660004686563E-08
(PID.TID 0000.0001) %MON obc_E_uVel_Int               =   6.6809804669674E+05
(PID.TID 0000.0001) %MON obc_W_uVel_max               =   6.6809804669674E-01
(PID.TID 0000.0001) %MON obc_W_uVel_min               =   6.6809804669674E-01
(PID.TID 0000.0001) %MON obc_W_uVel_mean              =   6.6809804669674E-01
(PID.TID 0000.0001) %MON obc_W_uVel_sd                =   1.6660004686563E-08
(PID.TID 0000.0001) %MON obc_W_uVel_Int               =   6.6809804669674E+05
(PID.TID 0000.0001) // =======================================================
(PID.TID 0000.0001) // End OBCS MONITOR field statistics
(PID.TID 0000.0001) // =======================================================
 cg2d: Sum(rhs),rhsMax =  -1.93263183234649E-11  2.63967203623178E-01
 cg2d: Sum(rhs),rhsMax =  -1.92516003139076E-11  2.64638985767655E-01
 cg2d: Sum(rhs),rhsMax =  -1.92004190324724E-11  2.65180143749136E-01
 cg2d: Sum(rhs),rhsMax =  -1.91830995532882E-11  2.65590328207813E-01
 cg2d: Sum(rhs),rhsMax =  -1.91094917667556E-11  2.65869255782598E-01
 cg2d: Sum(rhs),rhsMax =  -1.90324422888466E-11  2.66016711501723E-01
 cg2d: Sum(rhs),rhsMax =  -1.90388815823894E-11  2.66032551073660E-01
 cg2d: Sum(rhs),rhsMax =  -1.89933624383798E-11  2.65916702794659E-01
 cg2d: Sum(rhs),rhsMax =  -1.89863680333247E-11  2.65669169215686E-01
 cg2d: Sum(rhs),rhsMax =  -1.89765980707080E-11  2.65290028499258E-01
 cg2d: Sum(rhs),rhsMax =  -1.89649407289494E-11  2.64779435039372E-01
 cg2d: Sum(rhs),rhsMax =  -1.90569782176908E-11  2.64137619270204E-01
 cg2d: Sum(rhs),rhsMax =  -1.92202920246132E-11  2.63364886644056E-01
 cg2d: Sum(rhs),rhsMax =  -1.93508542523091E-11  2.62461615712081E-01
 cg2d: Sum(rhs),rhsMax =  -1.94885219073626E-11  2.61428255806530E-01
 cg2d: Sum(rhs),rhsMax =  -1.96361815696378E-11  2.60265324243088E-01
 cg2d: Sum(rhs),rhsMax =  -1.98020488895168E-11  2.58973403148405E-01
 cg2d: Sum(rhs),rhsMax =  -2.00567340513658E-11  2.57553136023903E-01
 cg2d: Sum(rhs),rhsMax =  -2.02688976713716E-11  2.56005223847271E-01
 cg2d: Sum(rhs),rhsMax =  -2.04850580942662E-11  2.54330421475868E-01
 cg2d: Sum(rhs),rhsMax =  -2.07210915093015E-11  2.52529534545252E-01
 cg2d: Sum(rhs),rhsMax =  -2.09764428049652E-11  2.50603416730145E-01
 cg2d: Sum(rhs),rhsMax =  -2.12030393242912E-11  2.48552967523254E-01
 cg2d: Sum(rhs),rhsMax =  -2.14203099702104E-11  2.46379130968589E-01
 cg2d: Sum(rhs),rhsMax =  -2.16637818795107E-11  2.44082894718620E-01
 cg2d: Sum(rhs),rhsMax =  -2.19331219852847E-11  2.41665289677506E-01
 cg2d: Sum(rhs),rhsMax =  -2.21795914967515E-11  2.39127390410417E-01
 cg2d: Sum(rhs),rhsMax =  -2.25096608019726E-11  2.36470316098240E-01
 cg2d: Sum(rhs),rhsMax =  -2.28398411294961E-11  2.33695232137993E-01
 cg2d: Sum(rhs),rhsMax =  -2.31975549880303E-11  2.30803352265370E-01
 cg2d: Sum(rhs),rhsMax =  -2.35486075084168E-11  2.27795941056575E-01
 cg2d: Sum(rhs),rhsMax =  -2.39279707159312E-11  2.24674316658534E-01
 cg2d: Sum(rhs),rhsMax =  -2.43579600933685E-11  2.21439853592735E-01
 cg2d: Sum(rhs),rhsMax =  -2.48366882615869E-11  2.18093985471689E-01
 cg2d: Sum(rhs),rhsMax =  -2.52886600549118E-11  2.14638207219525E-01
 cg2d: Sum(rhs),rhsMax =  -2.57870391706660E-11  2.11074077322155E-01
 cg2d: Sum(rhs),rhsMax =  -2.63602473182800E-11  2.07403219486581E-01
 cg2d: Sum(rhs),rhsMax =  -2.69474442760043E-11  2.03627323337774E-01
 cg2d: Sum(rhs),rhsMax =  -2.75377498581975E-11  1.99748144225977E-01
 cg2d: Sum(rhs),rhsMax =  -2.82122103456572E-11  1.95767502193208E-01
 cg2d: Sum(rhs),rhsMax =  -2.89239743267444E-11  1.91687280131090E-01
 cg2d: Sum(rhs),rhsMax =  -2.96991320425377E-11  1.87509421120284E-01
 cg2d: Sum(rhs),rhsMax =  -3.04181124732850E-11  1.83235925050759E-01
 cg2d: Sum(rhs),rhsMax =  -3.12300185711933E-11  1.78868845218764E-01
 cg2d: Sum(rhs),rhsMax =  -3.20617976612425E-11  1.74646698998890E-01
 cg2d: Sum(rhs),rhsMax =  -3.28297389273757E-11  1.70847929988525E-01
 cg2d: Sum(rhs),rhsMax =  -3.36521921440180E-11  1.66985197553602E-01
 cg2d: Sum(rhs),rhsMax =  -3.45217188169045E-11  1.63060006981478E-01
 cg2d: Sum(rhs),rhsMax =  -3.54536400237748E-11  1.59073882157195E-01
 cg2d: Sum(rhs),rhsMax =  -3.64517305229128E-11  1.55028370614320E-01
 cg2d: Sum(rhs),rhsMax =  -3.75579567446493E-11  1.50925047182265E-01
 cg2d: Sum(rhs),rhsMax =  -3.86722875944656E-11  1.46765518838631E-01
 cg2d: Sum(rhs),rhsMax =  -3.98678867696844E-11  1.42551429585532E-01
 cg2d: Sum(rhs),rhsMax =  -4.11666256638910E-11  1.38284463742938E-01
 cg2d: Sum(rhs),rhsMax =  -4.25750545929304E-11  1.33966347807466E-01
 cg2d: Sum(rhs),rhsMax =  -4.40989467165309E-11  1.29598849073938E-01
 cg2d: Sum(rhs),rhsMax =  -4.57538451570372E-11  1.25183772060418E-01
 cg2d: Sum(rhs),rhsMax =  -4.75360861784679E-11  1.20722956096272E-01
 cg2d: Sum(rhs),rhsMax =  -4.94732033118339E-11  1.16218273272810E-01
 cg2d: Sum(rhs),rhsMax =  -5.12143660813535E-11  1.12499437070003E-01
 cg2d: Sum(rhs),rhsMax =  -5.12846431988123E-11  1.12532711404379E-01
 cg2d: Sum(rhs),rhsMax =  -5.13971087912068E-11  1.12561347535449E-01
 cg2d: Sum(rhs),rhsMax =  -5.14953635288862E-11  1.12587969172627E-01
 cg2d: Sum(rhs),rhsMax =  -5.15772979881035E-11  1.12613106914035E-01
 cg2d: Sum(rhs),rhsMax =  -5.16726661459188E-11  1.12638643634987E-01
 cg2d: Sum(rhs),rhsMax =  -5.17816900469370E-11  1.12664593370958E-01
 cg2d: Sum(rhs),rhsMax =  -5.18752818479129E-11  1.12690371335701E-01
 cg2d: Sum(rhs),rhsMax =  -5.19589926639696E-11  1.12715858789812E-01
 cg2d: Sum(rhs),rhsMax =  -5.20523624203406E-11  1.12741229918595E-01
 cg2d: Sum(rhs),rhsMax =  -5.21606091652416E-11  1.12766052311353E-01
 cg2d: Sum(rhs),rhsMax =  -5.22729637353336E-11  1.12790677652530E-01
 cg2d: Sum(rhs),rhsMax =  -5.23697196719297E-11  1.12803721593879E-01
 cg2d: Sum(rhs),rhsMax =  -5.24653653855012E-11  1.12836964928645E-01
 cg2d: Sum(rhs),rhsMax =  -5.25863241840341E-11  1.12859069194750E-01
 cg2d: Sum(rhs),rhsMax =  -5.26519383647894E-11  1.12877401579694E-01
 cg2d: Sum(rhs),rhsMax =  -5.27621835111347E-11  1.12892527759655E-01
 cg2d: Sum(rhs),rhsMax =  -5.28611598937800E-11  1.12902659535376E-01
 cg2d: Sum(rhs),rhsMax =  -5.29478128008520E-11  1.12908131379658E-01
 cg2d: Sum(rhs),rhsMax =  -5.30701316225901E-11  1.12908620885118E-01
 cg2d: Sum(rhs),rhsMax =  -5.31910904211230E-11  1.12904222085641E-01
 cg2d: Sum(rhs),rhsMax =  -5.32936195174472E-11  1.12894240544886E-01
 cg2d: Sum(rhs),rhsMax =  -5.34183947076272E-11  1.12878448774102E-01
 cg2d: Sum(rhs),rhsMax =  -5.35478666616185E-11  1.12856128677726E-01
 cg2d: Sum(rhs),rhsMax =  -5.36700892062036E-11  1.12826524844284E-01
 cg2d: Sum(rhs),rhsMax =  -5.37867667071978E-11  1.12789421451878E-01
 cg2d: Sum(rhs),rhsMax =  -5.38886435474950E-11  1.12743879721836E-01
 cg2d: Sum(rhs),rhsMax =  -5.40466282838992E-11  1.12701723013878E-01
 cg2d: Sum(rhs),rhsMax =  -5.41797995357030E-11  1.12636556131177E-01
 cg2d: Sum(rhs),rhsMax =  -5.43299849553591E-11  1.12558366570012E-01
 cg2d: Sum(rhs),rhsMax =  -5.44718159467550E-11  1.12467305118921E-01
 cg2d: Sum(rhs),rhsMax =  -5.46320211292084E-11  1.12363212690664E-01
 cg2d: Sum(rhs),rhsMax =  -5.47819012375328E-11  1.12253281113718E-01
 cg2d: Sum(rhs),rhsMax =  -5.49569834085162E-11  1.12117313141961E-01
 cg2d: Sum(rhs),rhsMax =  -5.51413914529064E-11  1.11963176147830E-01
 cg2d: Sum(rhs),rhsMax =  -5.53189716256952E-11  1.11790626812321E-01
 cg2d: Sum(rhs),rhsMax =  -5.34249311456847E-11  1.15907003287326E-01
 cg2d: Sum(rhs),rhsMax =  -5.10135267361989E-11  1.21595734175524E-01
 cg2d: Sum(rhs),rhsMax =  -4.85712581266284E-11  1.27236515321624E-01
 cg2d: Sum(rhs),rhsMax =  -4.66692240408406E-11  1.32826899250775E-01
 cg2d: Sum(rhs),rhsMax =  -4.49086323683900E-11  1.38364479667798E-01
 cg2d: Sum(rhs),rhsMax =  -4.33105773467446E-11  1.43846892089912E-01
 cg2d: Sum(rhs),rhsMax =  -4.17984535872051E-11  1.49271814302809E-01
 cg2d: Sum(rhs),rhsMax =  -4.04017930222267E-11  1.54636966693833E-01
 cg2d: Sum(rhs),rhsMax =  -3.91672250188435E-11  1.59940112506903E-01
 cg2d: Sum(rhs),rhsMax =  -3.79845044307103E-11  1.65179058050618E-01
 cg2d: Sum(rhs),rhsMax =  -3.68957087104604E-11  1.70351652869597E-01
 cg2d: Sum(rhs),rhsMax =  -3.58615359630221E-11  1.75455789867974E-01
 cg2d: Sum(rhs),rhsMax =  -3.49457129900088E-11  1.80489405354373E-01
 cg2d: Sum(rhs),rhsMax =  -3.40599770609629E-11  1.85450478962320E-01
 cg2d: Sum(rhs),rhsMax =  -3.32645022638189E-11  1.90337033397328E-01
 cg2d: Sum(rhs),rhsMax =  -3.25010018897842E-11  1.95147133963010E-01
 cg2d: Sum(rhs),rhsMax =  -3.17680326489267E-11  1.99878887828188E-01
 cg2d: Sum(rhs),rhsMax =  -3.11463077551366E-11  2.04530443022224E-01
 cg2d: Sum(rhs),rhsMax =  -3.05840908154664E-11  2.09099987180454E-01
 cg2d: Sum(rhs),rhsMax =  -3.00441893585912E-11  2.13585746099295E-01
 cg2d: Sum(rhs),rhsMax =  -2.95020674556667E-11  2.17985982193089E-01
 cg2d: Sum(rhs),rhsMax =  -2.90366619637439E-11  2.22298992968609E-01
 cg2d: Sum(rhs),rhsMax =  -2.85523826804024E-11  2.26523109647392E-01
 cg2d: Sum(rhs),rhsMax =  -2.81370482468901E-11  2.30656696068392E-01
 cg2d: Sum(rhs),rhsMax =  -2.77214917687729E-11  2.34698147995039E-01
 cg2d: Sum(rhs),rhsMax =  -2.73635558656338E-11  2.38645892923100E-01
 cg2d: Sum(rhs),rhsMax =  -2.69740896285953E-11  2.42498390452181E-01
 cg2d: Sum(rhs),rhsMax =  -2.66590083342066E-11  2.46254133233810E-01
 cg2d: Sum(rhs),rhsMax =  -2.63106203490793E-11  2.49911648476566E-01
 cg2d: Sum(rhs),rhsMax =  -2.60378385519289E-11  2.53469499923464E-01
 cg2d: Sum(rhs),rhsMax =  -2.57185384100467E-11  2.56926290173947E-01
 cg2d: Sum(rhs),rhsMax =  -2.54556375978154E-11  2.60280663212016E-01
 cg2d: Sum(rhs),rhsMax =  -2.51758613956099E-11  2.63531307012270E-01
 cg2d: Sum(rhs),rhsMax =  -2.49393838913647E-11  2.66676956042453E-01
 cg2d: Sum(rhs),rhsMax =  -2.47283304943835E-11  2.69716393540532E-01
 cg2d: Sum(rhs),rhsMax =  -2.45039544211068E-11  2.72648453457891E-01
 cg2d: Sum(rhs),rhsMax =  -2.42678099837690E-11  2.75472022020648E-01
 cg2d: Sum(rhs),rhsMax =  -2.41049402660565E-11  2.78186038907280E-01
 cg2d: Sum(rhs),rhsMax =  -2.39063213669510E-11  2.80789498076849E-01
 cg2d: Sum(rhs),rhsMax =  -2.37349029319489E-11  2.83281448199146E-01
 cg2d: Sum(rhs),rhsMax =  -2.36642927475827E-11  2.85660992884473E-01
 cg2d: Sum(rhs),rhsMax =  -2.35675923221379E-11  2.87927290856436E-01
 cg2d: Sum(rhs),rhsMax =  -2.34765540341186E-11  2.90079555992601E-01
 cg2d: Sum(rhs),rhsMax =  -2.34169350576963E-11  2.92117057414946E-01
 cg2d: Sum(rhs),rhsMax =  -2.33753016942728E-11  2.94039119689964E-01
 cg2d: Sum(rhs),rhsMax =  -2.32986963055737E-11  2.95845123143711E-01
 cg2d: Sum(rhs),rhsMax =  -2.32396324406636E-11  2.97534504268666E-01
 cg2d: Sum(rhs),rhsMax =  -2.31883401369259E-11  2.99106756187607E-01
 cg2d: Sum(rhs),rhsMax =  -2.31367147662809E-11  3.00561429065004E-01
 cg2d: Sum(rhs),rhsMax =  -2.31480390411321E-11  3.01898130385771E-01
 cg2d: Sum(rhs),rhsMax =  -2.30706564963157E-11  3.03116525129588E-01
 cg2d: Sum(rhs),rhsMax =  -2.31428209929163E-11  3.04216335697687E-01
 cg2d: Sum(rhs),rhsMax =  -2.32441843550646E-11  3.05197341519751E-01
 cg2d: Sum(rhs),rhsMax =  -2.33687513784275E-11  3.06059378326187E-01
 cg2d: Sum(rhs),rhsMax =  -2.33000285732032E-11  3.06802337103005E-01
 cg2d: Sum(rhs),rhsMax =  -2.33278951711213E-11  3.07426162776273E-01
 cg2d: Sum(rhs),rhsMax =  -2.33483232747744E-11  3.07930852698907E-01
 cg2d: Sum(rhs),rhsMax =  -2.33264518811893E-11  3.08316455071602E-01
 cg2d: Sum(rhs),rhsMax =  -2.33154606732455E-11  3.08583067283097E-01
 cg2d: Sum(rhs),rhsMax =  -2.33364438884109E-11  3.08730834298688E-01
 cg2d: Sum(rhs),rhsMax =  -2.33085772904928E-11  3.08759947161573E-01
 cg2d: Sum(rhs),rhsMax =  -2.32878161199324E-11  3.08670641692870E-01
 cg2d: Sum(rhs),rhsMax =  -2.33033592422771E-11  3.08463197670576E-01
 cg2d: Sum(rhs),rhsMax =  -2.33156827178504E-11  3.08137938130469E-01
 cg2d: Sum(rhs),rhsMax =  -2.32809327371797E-11  3.07695228751244E-01
 cg2d: Sum(rhs),rhsMax =  -2.32684982393039E-11  3.07135477344391E-01
 cg2d: Sum(rhs),rhsMax =  -2.32300845226519E-11  3.06459133412834E-01
 cg2d: Sum(rhs),rhsMax =  -2.32260877197632E-11  3.05666687509389E-01
 cg2d: Sum(rhs),rhsMax =  -2.32645014364152E-11  3.04758670977120E-01
 cg2d: Sum(rhs),rhsMax =  -2.32730501537048E-11  3.03735655507047E-01
 cg2d: Sum(rhs),rhsMax =  -2.33124630710790E-11  3.02598252722995E-01
 cg2d: Sum(rhs),rhsMax =  -2.33602026611379E-11  3.01347113292360E-01
 cg2d: Sum(rhs),rhsMax =  -2.34057218051476E-11  2.99982925925738E-01
 cg2d: Sum(rhs),rhsMax =  -2.34452457448242E-11  2.98506416551188E-01
 cg2d: Sum(rhs),rhsMax =  -2.35237385126652E-11  2.96918347571713E-01
 cg2d: Sum(rhs),rhsMax =  -2.35637065415517E-11  2.95219517321593E-01
 cg2d: Sum(rhs),rhsMax =  -2.36665131936320E-11  2.93410759787655E-01
 cg2d: Sum(rhs),rhsMax =  -2.37198038988140E-11  2.91492944652864E-01
 cg2d: Sum(rhs),rhsMax =  -2.37935227076491E-11  2.89466977456318E-01
 cg2d: Sum(rhs),rhsMax =  -2.38699060517433E-11  2.87333799665597E-01
 cg2d: Sum(rhs),rhsMax =  -2.40234498960490E-11  2.85094389047910E-01
 cg2d: Sum(rhs),rhsMax =  -2.41419106927765E-11  2.82749760079922E-01
 cg2d: Sum(rhs),rhsMax =  -2.43380871012278E-11  2.80300964402818E-01
 cg2d: Sum(rhs),rhsMax =  -2.44957387707245E-11  2.77749091159531E-01
 cg2d: Sum(rhs),rhsMax =  -2.46942466475275E-11  2.75095267072798E-01
 cg2d: Sum(rhs),rhsMax =  -2.49037457322743E-11  2.72340656166189E-01
 cg2d: Sum(rhs),rhsMax =  -2.51298981623904E-11  2.69486459081119E-01
 cg2d: Sum(rhs),rhsMax =  -2.53543852579696E-11  2.66533911990037E-01
 cg2d: Sum(rhs),rhsMax =  -2.55730991938208E-11  2.63484284931509E-01
 cg2d: Sum(rhs),rhsMax =  -2.58399968089407E-11  2.60338880238035E-01
 cg2d: Sum(rhs),rhsMax =  -2.61067834017581E-11  2.57099030860795E-01
 cg2d: Sum(rhs),rhsMax =  -2.63711275039213E-11  2.53766098336510E-01
 cg2d: Sum(rhs),rhsMax =  -2.66782151925327E-11  2.50341470759467E-01
 cg2d: Sum(rhs),rhsMax =  -2.69660960228180E-11  2.46826560984195E-01
 cg2d: Sum(rhs),rhsMax =  -2.73179256993217E-11  2.43222805190119E-01
 cg2d: Sum(rhs),rhsMax =  -2.76710876434549E-11  2.39531661884397E-01
 cg2d: Sum(rhs),rhsMax =  -2.80131473573419E-11  2.35754611189909E-01
 cg2d: Sum(rhs),rhsMax =  -2.84320345045330E-11  2.31893154897891E-01
 cg2d: Sum(rhs),rhsMax =  -2.88240542545282E-11  2.27948817078556E-01
 cg2d: Sum(rhs),rhsMax =  -2.92617041708354E-11  2.23923144962292E-01
 cg2d: Sum(rhs),rhsMax =  -2.97274427296657E-11  2.19817710101679E-01
 cg2d: Sum(rhs),rhsMax =  -3.01836333704841E-11  2.15634109805070E-01
 cg2d: Sum(rhs),rhsMax =  -3.06993319654225E-11  2.11373968791979E-01
 cg2d: Sum(rhs),rhsMax =  -3.12400105784150E-11  2.07038941004071E-01
 cg2d: Sum(rhs),rhsMax =  -3.18232107332506E-11  2.02630711577155E-01
 cg2d: Sum(rhs),rhsMax =  -3.24332782852821E-11  1.98150998541565E-01
 cg2d: Sum(rhs),rhsMax =  -3.31231708727842E-11  1.93601554541717E-01
 cg2d: Sum(rhs),rhsMax =  -3.38610250949500E-11  1.88984168491902E-01
 cg2d: Sum(rhs),rhsMax =  -3.46515038884831E-11  1.84300667038874E-01
 cg2d: Sum(rhs),rhsMax =  -3.55316887024060E-11  1.79552915723805E-01
 cg2d: Sum(rhs),rhsMax =  -3.64596131063877E-11  1.74742819850166E-01
 cg2d: Sum(rhs),rhsMax =  -3.74358322119406E-11  1.69872325071981E-01
 cg2d: Sum(rhs),rhsMax =  -3.84655640672804E-11  1.64943417542420E-01
 cg2d: Sum(rhs),rhsMax =  -3.96217503251250E-11  1.59958123652278E-01
 cg2d: Sum(rhs),rhsMax =  -4.08302280874295E-11  1.54918509140948E-01
 cg2d: Sum(rhs),rhsMax =  -4.21842560882624E-11  1.49826677661632E-01
 cg2d: Sum(rhs),rhsMax =  -4.35856906122467E-11  1.44684768902943E-01
 cg2d: Sum(rhs),rhsMax =  -4.51367831999505E-11  1.39494956195266E-01
 cg2d: Sum(rhs),rhsMax =  -4.68052263613572E-11  1.34259443478895E-01
 cg2d: Sum(rhs),rhsMax =  -4.86391482645843E-11  1.28980461882291E-01
 cg2d: Sum(rhs),rhsMax =  -5.06307773484593E-11  1.23660266013597E-01
 cg2d: Sum(rhs),rhsMax =  -5.28568855351352E-11  1.18301130029649E-01
 cg2d: Sum(rhs),rhsMax =  -5.52832779554535E-11  1.12905343748775E-01
 cg2d: Sum(rhs),rhsMax =  -5.79646886045282E-11  1.07475208973744E-01
 cg2d: Sum(rhs),rhsMax =  -6.09712280663643E-11  1.02013036034209E-01
 cg2d: Sum(rhs),rhsMax =  -6.17452755591330E-11  1.00571878604187E-01
 cg2d: Sum(rhs),rhsMax =  -6.16717787949028E-11  1.00490886860305E-01
 cg2d: Sum(rhs),rhsMax =  -6.16045270351862E-11  1.00402152334217E-01
 cg2d: Sum(rhs),rhsMax =  -6.15238415768715E-11  1.00306753436901E-01
 cg2d: Sum(rhs),rhsMax =  -6.14456263647867E-11  1.00203626371942E-01
 cg2d: Sum(rhs),rhsMax =  -6.14161360656951E-11  1.00102211863043E-01
 cg2d: Sum(rhs),rhsMax =  -6.13670850246884E-11  9.99870142996177E-02
 cg2d: Sum(rhs),rhsMax =  -6.13289393228134E-11  9.98374579921778E-02
 cg2d: Sum(rhs),rhsMax =  -6.13096309831640E-11  9.96599183760324E-02
 cg2d: Sum(rhs),rhsMax =  -6.13296219365012E-11  9.94496503698946E-02
 cg2d: Sum(rhs),rhsMax =  -6.13444572916677E-11  9.92132804858504E-02
 cg2d: Sum(rhs),rhsMax =  -6.13912531921557E-11  9.89578219022850E-02
 cg2d: Sum(rhs),rhsMax =  -6.14261419507045E-11  9.86878158989881E-02
 cg2d: Sum(rhs),rhsMax =  -6.14724937619826E-11  9.83973958245345E-02
 cg2d: Sum(rhs),rhsMax =  -6.15471562603886E-11  9.81002937085709E-02
 cg2d: Sum(rhs),rhsMax =  -6.16396378383399E-11  9.77940106745234E-02
 cg2d: Sum(rhs),rhsMax =  -6.17057516194564E-11  9.74780456644619E-02
 cg2d: Sum(rhs),rhsMax =  -6.17996764873396E-11  9.71448360340879E-02
 cg2d: Sum(rhs),rhsMax =  -6.18610718206014E-11  9.68113046213562E-02
 cg2d: Sum(rhs),rhsMax =  -6.19443385474483E-11  9.64670812824746E-02
 cg2d: Sum(rhs),rhsMax =  -6.20506979132074E-11  9.61100552435674E-02
 cg2d: Sum(rhs),rhsMax =  -6.21827034308353E-11  9.57295223579950E-02
 cg2d: Sum(rhs),rhsMax =  -6.22972784469766E-11  9.53411344222366E-02
 cg2d: Sum(rhs),rhsMax =  -6.24477136668133E-11  9.49383985454244E-02
 cg2d: Sum(rhs),rhsMax =  -6.25672846865655E-11  9.45187746848543E-02
 cg2d: Sum(rhs),rhsMax =  -6.27305984934878E-11  9.40803967931253E-02
 cg2d: Sum(rhs),rhsMax =  -6.29155616493904E-11  9.36179467850043E-02
 cg2d: Sum(rhs),rhsMax =  -6.09047257071893E-11  9.64680983135058E-02
 cg2d: Sum(rhs),rhsMax =  -5.80602232957972E-11  1.00953735380053E-01
 cg2d: Sum(rhs),rhsMax =  -5.54969403765426E-11  1.05395851566288E-01
 cg2d: Sum(rhs),rhsMax =  -5.34654542860835E-11  1.09792573346100E-01
 cg2d: Sum(rhs),rhsMax =  -5.13180609118535E-11  1.14142053470337E-01
 cg2d: Sum(rhs),rhsMax =  -4.93454166416996E-11  1.18442473900707E-01
 cg2d: Sum(rhs),rhsMax =  -4.75743888728175E-11  1.22692048336388E-01
 cg2d: Sum(rhs),rhsMax =  -4.58899584998562E-11  1.26889023805824E-01
 cg2d: Sum(rhs),rhsMax =  -4.43624026402745E-11  1.31031680759030E-01
 cg2d: Sum(rhs),rhsMax =  -4.29238866672677E-11  1.35118331843709E-01
 cg2d: Sum(rhs),rhsMax =  -4.15970591305381E-11  1.39147317782453E-01
 cg2d: Sum(rhs),rhsMax =  -4.03982403085479E-11  1.43117004352230E-01
 cg2d: Sum(rhs),rhsMax =  -3.92117449621310E-11  1.47025780764717E-01
 cg2d: Sum(rhs),rhsMax =  -3.81840115082355E-11  1.50872059570732E-01
 cg2d: Sum(rhs),rhsMax =  -3.71579433888769E-11  1.54654277797653E-01
 cg2d: Sum(rhs),rhsMax =  -3.62448959734252E-11  1.58370898857073E-01
 cg2d: Sum(rhs),rhsMax =  -3.53648221818048E-11  1.62020415190095E-01
 cg2d: Sum(rhs),rhsMax =  -3.45549144853408E-11  1.65601351542347E-01
 cg2d: Sum(rhs),rhsMax =  -3.37747607659367E-11  1.69112266548887E-01
 cg2d: Sum(rhs),rhsMax =  -3.30689919891825E-11  1.72551754423982E-01
 cg2d: Sum(rhs),rhsMax =  -3.23587823203297E-11  1.75918446281618E-01
 cg2d: Sum(rhs),rhsMax =  -3.17595949539395E-11  1.79211011010710E-01
 cg2d: Sum(rhs),rhsMax =  -3.11453085544144E-11  1.82428155392816E-01
 cg2d: Sum(rhs),rhsMax =  -3.04904990144905E-11  1.85568622888177E-01
 cg2d: Sum(rhs),rhsMax =  -2.99243962942342E-11  1.88631192251665E-01
 cg2d: Sum(rhs),rhsMax =  -2.93456370314971E-11  1.91614676586800E-01
 cg2d: Sum(rhs),rhsMax =  -2.87836421364318E-11  1.94517921968479E-01
 cg2d: Sum(rhs),rhsMax =  -2.83124634847809E-11  1.97339806849232E-01
 cg2d: Sum(rhs),rhsMax =  -2.78054246294346E-11  2.00079242206618E-01
 cg2d: Sum(rhs),rhsMax =  -2.73896461067125E-11  2.02735171713463E-01
 cg2d: Sum(rhs),rhsMax =  -2.69833044796997E-11  2.05306572446838E-01
 cg2d: Sum(rhs),rhsMax =  -2.65857336145814E-11  2.07792456015506E-01
 cg2d: Sum(rhs),rhsMax =  -2.61936028422838E-11  2.10191869462596E-01
 cg2d: Sum(rhs),rhsMax =  -2.58444377010392E-11  2.12503895959812E-01
 cg2d: Sum(rhs),rhsMax =  -2.54992693626832E-11  2.14727656017633E-01
 cg2d: Sum(rhs),rhsMax =  -2.52210474727121E-11  2.16862309212571E-01
 cg2d: Sum(rhs),rhsMax =  -2.49170684085698E-11  2.18907055877164E-01
 cg2d: Sum(rhs),rhsMax =  -2.46140885451496E-11  2.20861138581963E-01
 cg2d: Sum(rhs),rhsMax =  -2.43737252603182E-11  2.22723844353994E-01
 cg2d: Sum(rhs),rhsMax =  -2.41234809905677E-11  2.24494507136389E-01
 cg2d: Sum(rhs),rhsMax =  -2.38870034863226E-11  2.26172509561229E-01
 cg2d: Sum(rhs),rhsMax =  -2.37089237131727E-11  2.27757283858973E-01
 cg2d: Sum(rhs),rhsMax =  -2.35025332528949E-11  2.29248311741464E-01
 cg2d: Sum(rhs),rhsMax =  -2.33363328661085E-11  2.30645123693141E-01
 cg2d: Sum(rhs),rhsMax =  -2.31799024419388E-11  2.31947297982352E-01
 cg2d: Sum(rhs),rhsMax =  -2.29513075211685E-11  2.33154459175861E-01
 cg2d: Sum(rhs),rhsMax =  -2.27633467630994E-11  2.34266276598057E-01
 cg2d: Sum(rhs),rhsMax =  -2.25710561352344E-11  2.35282462996251E-01
 cg2d: Sum(rhs),rhsMax =  -2.24535945392290E-11  2.36202773282106E-01
 cg2d: Sum(rhs),rhsMax =  -2.22935003790781E-11  2.37027003035744E-01
 cg2d: Sum(rhs),rhsMax =  -2.21612728168452E-11  2.37754986558560E-01
 cg2d: Sum(rhs),rhsMax =  -2.20694573727087E-11  2.38386594266649E-01
 cg2d: Sum(rhs),rhsMax =  -2.19848583782323E-11  2.38921729824367E-01
 cg2d: Sum(rhs),rhsMax =  -2.19088081010455E-11  2.39511197725555E-01
 cg2d: Sum(rhs),rhsMax =  -2.17528217660856E-11  2.40282156216931E-01
 cg2d: Sum(rhs),rhsMax =  -2.16535678276841E-11  2.40933520146458E-01
 cg2d: Sum(rhs),rhsMax =  -2.16333617686360E-11  2.41464966190135E-01
 cg2d: Sum(rhs),rhsMax =  -2.15671924763683E-11  2.41876223833503E-01
 cg2d: Sum(rhs),rhsMax =  -2.15392148561477E-11  2.42167075080926E-01
 cg2d: Sum(rhs),rhsMax =  -2.15507611756038E-11  2.42337354345055E-01
 cg2d: Sum(rhs),rhsMax =  -2.14619433336338E-11  2.42386948523238E-01
 cg2d: Sum(rhs),rhsMax =  -2.14285256205926E-11  2.42315797258352E-01
 cg2d: Sum(rhs),rhsMax =  -2.13896678147307E-11  2.42123893524633E-01
 cg2d: Sum(rhs),rhsMax =  -2.13887796363110E-11  2.41811284588460E-01
 cg2d: Sum(rhs),rhsMax =  -2.14390727393265E-11  2.41378072996893E-01
 cg2d: Sum(rhs),rhsMax =  -2.16272555420005E-11  2.40824417494552E-01
 cg2d: Sum(rhs),rhsMax =  -2.17315054840128E-11  2.40150533880423E-01
 cg2d: Sum(rhs),rhsMax =  -2.18642881577580E-11  2.39356695721261E-01
 cg2d: Sum(rhs),rhsMax =  -2.20486962021482E-11  2.38443234810115E-01
 cg2d: Sum(rhs),rhsMax =  -2.21808127420786E-11  2.37410541741850E-01
 cg2d: Sum(rhs),rhsMax =  -2.23694396339624E-11  2.36259066247262E-01
 cg2d: Sum(rhs),rhsMax =  -2.25643947970866E-11  2.34989317273323E-01
 cg2d: Sum(rhs),rhsMax =  -2.27797780638639E-11  2.33601862416669E-01
 cg2d: Sum(rhs),rhsMax =  -2.30391261624163E-11  2.32097327340640E-01
 cg2d: Sum(rhs),rhsMax =  -2.32731611760073E-11  2.30476395275762E-01
 cg2d: Sum(rhs),rhsMax =  -2.34933184017905E-11  2.28739806383961E-01
 cg2d: Sum(rhs),rhsMax =  -2.37204700326288E-11  2.26888357314771E-01
 cg2d: Sum(rhs),rhsMax =  -2.39659403433734E-11  2.24922900911382E-01
 cg2d: Sum(rhs),rhsMax =  -2.41876518813910E-11  2.22844346260973E-01
 cg2d: Sum(rhs),rhsMax =  -2.44807507598921E-11  2.20653658307051E-01
 cg2d: Sum(rhs),rhsMax =  -2.47999398794718E-11  2.18351857763029E-01
 cg2d: Sum(rhs),rhsMax =  -2.51294540731806E-11  2.15940021197333E-01
 cg2d: Sum(rhs),rhsMax =  -2.54865017979000E-11  2.13419281180023E-01
 cg2d: Sum(rhs),rhsMax =  -2.58432164557121E-11  2.10790826435029E-01
 cg2d: Sum(rhs),rhsMax =  -2.62436739006944E-11  2.08055901862061E-01
 cg2d: Sum(rhs),rhsMax =  -2.66484612154727E-11  2.05215808311634E-01
 cg2d: Sum(rhs),rhsMax =  -2.71123123951611E-11  2.02271902028541E-01
 cg2d: Sum(rhs),rhsMax =  -2.75824918460899E-11  1.99225593714434E-01
 cg2d: Sum(rhs),rhsMax =  -2.81245027267119E-11  1.96078346985694E-01
 cg2d: Sum(rhs),rhsMax =  -2.86112245007075E-11  1.93251092026716E-01
 cg2d: Sum(rhs),rhsMax =  -2.91259238949237E-11  1.90395307781101E-01
 cg2d: Sum(rhs),rhsMax =  -2.96535018762256E-11  1.87465880657250E-01
 cg2d: Sum(rhs),rhsMax =  -3.02098346338653E-11  1.84464009874083E-01
 cg2d: Sum(rhs),rhsMax =  -3.08255643233224E-11  1.81390931557551E-01
 cg2d: Sum(rhs),rhsMax =  -3.14787085287094E-11  1.78247917629911E-01
 cg2d: Sum(rhs),rhsMax =  -3.21380699830343E-11  1.75036273794414E-01
 cg2d: Sum(rhs),rhsMax =  -3.27979865488714E-11  1.71757336842855E-01
 cg2d: Sum(rhs),rhsMax =  -3.35010907903666E-11  1.68412473125620E-01
 cg2d: Sum(rhs),rhsMax =  -3.42361694549709E-11  1.65003078106304E-01
 cg2d: Sum(rhs),rhsMax =  -3.50414142147315E-11  1.61530577213617E-01
 cg2d: Sum(rhs),rhsMax =  -3.58847396242368E-11  1.57996425966829E-01
 cg2d: Sum(rhs),rhsMax =  -3.67810226720167E-11  1.54402109561886E-01
 cg2d: Sum(rhs),rhsMax =  -3.77489151048849E-11  1.50749141932562E-01
 cg2d: Sum(rhs),rhsMax =  -3.87713194882622E-11  1.47039063964250E-01
 cg2d: Sum(rhs),rhsMax =  -3.98742150409248E-11  1.43273440981784E-01
 cg2d: Sum(rhs),rhsMax =  -4.10267375627882E-11  1.39453859801370E-01
 cg2d: Sum(rhs),rhsMax =  -4.22649693021526E-11  1.35581925581815E-01
 cg2d: Sum(rhs),rhsMax =  -4.36385372282189E-11  1.31659258823119E-01
 cg2d: Sum(rhs),rhsMax =  -4.51112480703841E-11  1.27687492718376E-01
 cg2d: Sum(rhs),rhsMax =  -4.67123006941961E-11  1.23668270802246E-01
 cg2d: Sum(rhs),rhsMax =  -4.83241224813469E-11  1.19603244989735E-01
 cg2d: Sum(rhs),rhsMax =  -5.00939290049018E-11  1.15494074235310E-01
 cg2d: Sum(rhs),rhsMax =  -5.14430720244263E-11  1.12638730619072E-01
 cg2d: Sum(rhs),rhsMax =  -5.16167109054777E-11  1.12489770519868E-01
 cg2d: Sum(rhs),rhsMax =  -5.17969001023744E-11  1.12340815043388E-01
 cg2d: Sum(rhs),rhsMax =  -5.19461140768840E-11  1.12188839755218E-01
 cg2d: Sum(rhs),rhsMax =  -5.21014342780290E-11  1.12036561965256E-01
 cg2d: Sum(rhs),rhsMax =  -5.22553111892421E-11  1.11884258436518E-01
 cg2d: Sum(rhs),rhsMax =  -5.24481569286195E-11  1.11732127166246E-01
 cg2d: Sum(rhs),rhsMax =  -5.25915977434011E-11  1.11580337746942E-01
 cg2d: Sum(rhs),rhsMax =  -5.27661248028721E-11  1.11431580847793E-01
 cg2d: Sum(rhs),rhsMax =  -5.28911359154449E-11  1.11289524974351E-01
 cg2d: Sum(rhs),rhsMax =  -5.30673283094529E-11  1.11155239039910E-01
 cg2d: Sum(rhs),rhsMax =  -5.32059951652286E-11  1.11036803839158E-01
 cg2d: Sum(rhs),rhsMax =  -5.33433297533747E-11  1.10928093702599E-01
 cg2d: Sum(rhs),rhsMax =  -5.35015920455351E-11  1.10828710067618E-01
 cg2d: Sum(rhs),rhsMax =  -5.36058419875474E-11  1.10738342608880E-01
 cg2d: Sum(rhs),rhsMax =  -5.37251909626946E-11  1.10596381433267E-01
 cg2d: Sum(rhs),rhsMax =  -5.37690447721673E-11  1.10488337422847E-01
 cg2d: Sum(rhs),rhsMax =  -5.36194422195990E-11  1.10393354728213E-01
 cg2d: Sum(rhs),rhsMax =  -5.38250000126084E-11  1.10300932581407E-01
 cg2d: Sum(rhs),rhsMax =  -5.40408273685955E-11  1.10207543635057E-01
 cg2d: Sum(rhs),rhsMax =  -5.42422495808381E-11  1.10108881663897E-01
 cg2d: Sum(rhs),rhsMax =  -5.44593259377280E-11  1.10001215186714E-01
 cg2d: Sum(rhs),rhsMax =  -5.46662298761547E-11  1.09879440867053E-01
 cg2d: Sum(rhs),rhsMax =  -5.48781714515556E-11  1.09739921117808E-01
 cg2d: Sum(rhs),rhsMax =  -5.51063222831161E-11  1.09579578304176E-01
 cg2d: Sum(rhs),rhsMax =  -5.53250067286681E-11  1.09397762812965E-01
 cg2d: Sum(rhs),rhsMax =  -5.55672313717892E-11  1.09192284605999E-01
 cg2d: Sum(rhs),rhsMax =  -5.58175311526909E-11  1.08962173838557E-01
 cg2d: Sum(rhs),rhsMax =  -5.60682333894391E-11  1.08706798123072E-01
 cg2d: Sum(rhs),rhsMax =  -5.63183666368872E-11  1.08424936374673E-01
 cg2d: Sum(rhs),rhsMax =  -5.65703317523258E-11  1.08117038899405E-01
 cg2d: Sum(rhs),rhsMax =  -5.68527447342149E-11  1.07782668211696E-01
 cg2d: Sum(rhs),rhsMax =  -5.71335201371426E-11  1.07421380223374E-01
 cg2d: Sum(rhs),rhsMax =  -5.74734149161316E-11  1.07032996719489E-01
 cg2d: Sum(rhs),rhsMax =  -5.78692649355617E-11  1.06531684211469E-01
 cg2d: Sum(rhs),rhsMax =  -5.82481285427150E-11  1.06029400577548E-01
 cg2d: Sum(rhs),rhsMax =  -5.86536375024593E-11  1.05513240111726E-01
 cg2d: Sum(rhs),rhsMax =  -5.82057735343255E-11  1.06523716574975E-01
 cg2d: Sum(rhs),rhsMax =  -5.55988588502032E-11  1.11771344388130E-01
 cg2d: Sum(rhs),rhsMax =  -5.32233146444128E-11  1.16977488503474E-01
 cg2d: Sum(rhs),rhsMax =  -5.10883557680586E-11  1.22139873032190E-01
 cg2d: Sum(rhs),rhsMax =  -4.91111595835036E-11  1.27256248373003E-01
 cg2d: Sum(rhs),rhsMax =  -4.73269201606286E-11  1.32324393796671E-01
 cg2d: Sum(rhs),rhsMax =  -4.56917836899606E-11  1.37342119720531E-01
 cg2d: Sum(rhs),rhsMax =  -4.41676695217552E-11  1.42307269619696E-01
 cg2d: Sum(rhs),rhsMax =  -4.27408108905070E-11  1.47217721548346E-01
 cg2d: Sum(rhs),rhsMax =  -4.14734913078973E-11  1.52071389264851E-01
 cg2d: Sum(rhs),rhsMax =  -4.02646804786855E-11  1.56866222970376E-01
 cg2d: Sum(rhs),rhsMax =  -3.91405796662525E-11  1.61600209683849E-01
 cg2d: Sum(rhs),rhsMax =  -3.81344955613372E-11  1.66271373291283E-01
 cg2d: Sum(rhs),rhsMax =  -3.71596087234138E-11  1.70877774316095E-01
 cg2d: Sum(rhs),rhsMax =  -3.62604390957699E-11  1.75417509465895E-01
 cg2d: Sum(rhs),rhsMax =  -3.54456464179975E-11  1.79888711019423E-01
 cg2d: Sum(rhs),rhsMax =  -3.46283002272685E-11  1.84289546124200E-01
 cg2d: Sum(rhs),rhsMax =  -3.38868932914238E-11  1.88618216079530E-01
 cg2d: Sum(rhs),rhsMax =  -3.31779048678982E-11  1.92872955677376E-01
 cg2d: Sum(rhs),rhsMax =  -3.26100257908024E-11  1.97052032672167E-01
 cg2d: Sum(rhs),rhsMax =  -3.20469206727125E-11  2.01153747453453E-01
 cg2d: Sum(rhs),rhsMax =  -3.15053538813004E-11  2.05176432985592E-01
 cg2d: Sum(rhs),rhsMax =  -3.10095282785028E-11  2.09118455077953E-01
 cg2d: Sum(rhs),rhsMax =  -3.05319103333090E-11  2.12978213035704E-01
 cg2d: Sum(rhs),rhsMax =  -3.00924840601624E-11  2.16754140720384E-01
 cg2d: Sum(rhs),rhsMax =  -2.96701552215950E-11  2.20444708026611E-01
 cg2d: Sum(rhs),rhsMax =  -2.92924573486175E-11  2.24048422751327E-01
 cg2d: Sum(rhs),rhsMax =  -2.89072099590726E-11  2.27563832803034E-01
 cg2d: Sum(rhs),rhsMax =  -2.85532708588221E-11  2.30989528676484E-01
 cg2d: Sum(rhs),rhsMax =  -2.82232015536010E-11  2.34324146103740E-01
 cg2d: Sum(rhs),rhsMax =  -2.79021250548794E-11  2.37566368755962E-01
 cg2d: Sum(rhs),rhsMax =  -2.76274558785872E-11  2.40714930865218E-01
 cg2d: Sum(rhs),rhsMax =  -2.73037148446065E-11  2.43768619674252E-01
 cg2d: Sum(rhs),rhsMax =  -2.70672373403613E-11  2.46726277548098E-01
 cg2d: Sum(rhs),rhsMax =  -2.68409738879427E-11  2.49586803707573E-01
 cg2d: Sum(rhs),rhsMax =  -2.65992783354818E-11  2.52349155450497E-01
 cg2d: Sum(rhs),rhsMax =  -2.63646882103785E-11  2.55012348831869E-01
 cg2d: Sum(rhs),rhsMax =  -2.61686228242297E-11  2.57575458774279E-01
 cg2d: Sum(rhs),rhsMax =  -2.59762211740622E-11  2.60037618652128E-01
 cg2d: Sum(rhs),rhsMax =  -2.57609489295874E-11  2.62398019289972E-01
 cg2d: Sum(rhs),rhsMax =  -2.55875320931409E-11  2.64655907459502E-01
 cg2d: Sum(rhs),rhsMax =  -2.54999354964980E-11  2.66810583980676E-01
 cg2d: Sum(rhs),rhsMax =  -2.54285481560146E-11  2.68861401552457E-01
 cg2d: Sum(rhs),rhsMax =  -2.53419507600938E-11  2.70807762216414E-01
 cg2d: Sum(rhs),rhsMax =  -2.53124188276388E-11  2.72649114682860E-01
 cg2d: Sum(rhs),rhsMax =  -2.51880738488808E-11  2.74384951601342E-01
 cg2d: Sum(rhs),rhsMax =  -2.51154652630703E-11  2.76014806860152E-01
 cg2d: Sum(rhs),rhsMax =  -2.50027776260708E-11  2.77538253001986E-01
 cg2d: Sum(rhs),rhsMax =  -2.49619214187646E-11  2.78954898833761E-01
 cg2d: Sum(rhs),rhsMax =  -2.48907561228862E-11  2.80264387337979E-01
 cg2d: Sum(rhs),rhsMax =  -2.48505660493947E-11  2.81466393992070E-01
 cg2d: Sum(rhs),rhsMax =  -2.47988296564472E-11  2.82560625521921E-01
 cg2d: Sum(rhs),rhsMax =  -2.47802889319360E-11  2.83546819145157E-01
 cg2d: Sum(rhs),rhsMax =  -2.46757059230163E-11  2.84424742337482E-01
 cg2d: Sum(rhs),rhsMax =  -2.46361819833396E-11  2.85194193127457E-01
 cg2d: Sum(rhs),rhsMax =  -2.45777842522443E-11  2.85855000893483E-01
 cg2d: Sum(rhs),rhsMax =  -2.45269360377165E-11  2.86407027633113E-01
 cg2d: Sum(rhs),rhsMax =  -2.45276021715313E-11  2.86850169571725E-01
 cg2d: Sum(rhs),rhsMax =  -2.44690934181335E-11  2.87184358966227E-01
 cg2d: Sum(rhs),rhsMax =  -2.44234632518214E-11  2.87409566064922E-01
 cg2d: Sum(rhs),rhsMax =  -2.43465247962149E-11  2.87525801086339E-01
 cg2d: Sum(rhs),rhsMax =  -2.43475239969371E-11  2.87533115926323E-01
 cg2d: Sum(rhs),rhsMax =  -2.42402764527583E-11  2.87431605913064E-01
 cg2d: Sum(rhs),rhsMax =  -2.41990871785447E-11  2.87221411184897E-01
 cg2d: Sum(rhs),rhsMax =  -2.41552333690720E-11  2.86902717604821E-01
 cg2d: Sum(rhs),rhsMax =  -2.40761854897187E-11  2.86475757204916E-01
 cg2d: Sum(rhs),rhsMax =  -2.40856223854280E-11  2.85940808186591E-01
 cg2d: Sum(rhs),rhsMax =  -2.41009434631678E-11  2.85298194517732E-01
 cg2d: Sum(rhs),rhsMax =  -2.41529019007203E-11  2.84548284996338E-01
 cg2d: Sum(rhs),rhsMax =  -2.41300313064130E-11  2.83691492366222E-01
 cg2d: Sum(rhs),rhsMax =  -2.41924258403969E-11  2.82728272230307E-01
 cg2d: Sum(rhs),rhsMax =  -2.42339481815179E-11  2.81659121795423E-01
 cg2d: Sum(rhs),rhsMax =  -2.42557085528006E-11  2.80484578155294E-01
 cg2d: Sum(rhs),rhsMax =  -2.43021158752299E-11  2.79205216661287E-01
 cg2d: Sum(rhs),rhsMax =  -2.43481901307518E-11  2.77821649597580E-01
 cg2d: Sum(rhs),rhsMax =  -2.44069209287545E-11  2.76334524953341E-01
 cg2d: Sum(rhs),rhsMax =  -2.44728681764173E-11  2.74744525445108E-01
 cg2d: Sum(rhs),rhsMax =  -2.45485853866967E-11  2.73052367805063E-01
 cg2d: Sum(rhs),rhsMax =  -2.46067610731870E-11  2.71258802441559E-01
 cg2d: Sum(rhs),rhsMax =  -2.46872522424724E-11  2.69364613404330E-01
 cg2d: Sum(rhs),rhsMax =  -2.47917242290896E-11  2.67370618329160E-01
 cg2d: Sum(rhs),rhsMax =  -2.49298359733530E-11  2.65277668811224E-01
 cg2d: Sum(rhs),rhsMax =  -2.51043630328240E-11  2.63086651113542E-01
 cg2d: Sum(rhs),rhsMax =  -2.52952103707571E-11  2.60798487181412E-01
(PID.TID 0000.0001)      cg2d_init_res =   5.15516982468093E-02
(PID.TID 0000.0001)      cg2d_iters(min,last) =      -1      37
(PID.TID 0000.0001)      cg2d_last_res =   4.18625701411299E-14
(PID.TID 0000.0001) // =======================================================
(PID.TID 0000.0001) // Begin MONITOR dynamic field statistics
(PID.TID 0000.0001) // =======================================================
(PID.TID 0000.0001) %MON time_tsnumber                =                  4320
(PID.TID 0000.0001) %MON time_secondsf                =   6.4800000000000E+04
(PID.TID 0000.0001) %MON dynstat_eta_max              =   4.4072106812867E-02
(PID.TID 0000.0001) %MON dynstat_eta_min              =  -7.1226785236096E-02
(PID.TID 0000.0001) %MON dynstat_eta_mean             =   1.4109322083485E-14
(PID.TID 0000.0001) %MON dynstat_eta_sd               =   3.2182889050983E-02
(PID.TID 0000.0001) %MON dynstat_eta_del2             =   6.5537569748335E-05
(PID.TID 0000.0001) %MON dynstat_uvel_max             =   1.4411821944310E+00
(PID.TID 0000.0001) %MON dynstat_uvel_min             =  -3.2784826425796E-01
(PID.TID 0000.0001) %MON dynstat_uvel_mean            =   6.8383423502885E-01
(PID.TID 0000.0001) %MON dynstat_uvel_sd              =   1.2273791461962E-01
(PID.TID 0000.0001) %MON dynstat_uvel_del2            =   1.1231967354218E-03
(PID.TID 0000.0001) %MON dynstat_vvel_max             =   0.0000000000000E+00
(PID.TID 0000.0001) %MON dynstat_vvel_min             =   0.0000000000000E+00
(PID.TID 0000.0001) %MON dynstat_vvel_mean            =   0.0000000000000E+00
(PID.TID 0000.0001) %MON dynstat_vvel_sd              =   0.0000000000000E+00
(PID.TID 0000.0001) %MON dynstat_vvel_del2            =   0.0000000000000E+00
(PID.TID 0000.0001) %MON dynstat_wvel_max             =   3.8007811012299E-02
(PID.TID 0000.0001) %MON dynstat_wvel_min             =  -4.4511166952518E-02
(PID.TID 0000.0001) %MON dynstat_wvel_mean            =  -4.7582705393288E-20
(PID.TID 0000.0001) %MON dynstat_wvel_sd              =   3.8200731028788E-03
(PID.TID 0000.0001) %MON dynstat_wvel_del2            =   1.0073071644035E-04
(PID.TID 0000.0001) %MON dynstat_theta_max            =   1.5000000000005E+01
(PID.TID 0000.0001) %MON dynstat_theta_min            =   9.9999999999988E+00
(PID.TID 0000.0001) %MON dynstat_theta_mean           =   1.3281120944208E+01
(PID.TID 0000.0001) %MON dynstat_theta_sd             =   2.2867373557970E+00
(PID.TID 0000.0001) %MON dynstat_theta_del2           =   1.1498560466727E-03
(PID.TID 0000.0001) %MON dynstat_salt_max             =   3.5000000000000E+01
(PID.TID 0000.0001) %MON dynstat_salt_min             =   3.5000000000000E+01
(PID.TID 0000.0001) %MON dynstat_salt_mean            =   3.5000000000000E+01
(PID.TID 0000.0001) %MON dynstat_salt_sd              =   2.1316282072803E-14
(PID.TID 0000.0001) %MON dynstat_salt_del2            =   0.0000000000000E+00
(PID.TID 0000.0001) %MON dynstat_sst_max              =   1.5000000000000E+01
(PID.TID 0000.0001) %MON dynstat_sst_min              =   1.4999924996407E+01
(PID.TID 0000.0001) %MON dynstat_sst_mean             =   1.4999997372277E+01
(PID.TID 0000.0001) %MON dynstat_sst_sd               =   1.2204587573511E-05
(PID.TID 0000.0001) %MON dynstat_sst_del2             =   2.6670329360810E-07
(PID.TID 0000.0001) %MON dynstat_sss_max              =   3.5000000000000E+01
(PID.TID 0000.0001) %MON dynstat_sss_min              =   3.5000000000000E+01
(PID.TID 0000.0001) %MON dynstat_sss_mean             =   3.5000000000000E+01
(PID.TID 0000.0001) %MON dynstat_sss_sd               =   7.8159700933611E-14
(PID.TID 0000.0001) %MON dynstat_sss_del2             =   0.0000000000000E+00
(PID.TID 0000.0001) %MON forcing_qnet_max             =   0.0000000000000E+00
(PID.TID 0000.0001) %MON forcing_qnet_min             =   0.0000000000000E+00
(PID.TID 0000.0001) %MON forcing_qnet_mean            =   0.0000000000000E+00
(PID.TID 0000.0001) %MON forcing_qnet_sd              =   0.0000000000000E+00
(PID.TID 0000.0001) %MON forcing_qnet_del2            =   0.0000000000000E+00
(PID.TID 0000.0001) %MON forcing_qsw_max              =   0.0000000000000E+00
(PID.TID 0000.0001) %MON forcing_qsw_min              =   0.0000000000000E+00
(PID.TID 0000.0001) %MON forcing_qsw_mean             =   0.0000000000000E+00
(PID.TID 0000.0001) %MON forcing_qsw_sd               =   0.0000000000000E+00
(PID.TID 0000.0001) %MON forcing_qsw_del2             =   0.0000000000000E+00
(PID.TID 0000.0001) %MON forcing_empmr_max            =   0.0000000000000E+00
(PID.TID 0000.0001) %MON forcing_empmr_min            =   0.0000000000000E+00
(PID.TID 0000.0001) %MON forcing_empmr_mean           =   0.0000000000000E+00
(PID.TID 0000.0001) %MON forcing_empmr_sd             =   0.0000000000000E+00
(PID.TID 0000.0001) %MON forcing_empmr_del2           =   0.0000000000000E+00
(PID.TID 0000.0001) %MON forcing_fu_max               =   0.0000000000000E+00
(PID.TID 0000.0001) %MON forcing_fu_min               =   0.0000000000000E+00
(PID.TID 0000.0001) %MON forcing_fu_mean              =   0.0000000000000E+00
(PID.TID 0000.0001) %MON forcing_fu_sd                =   0.0000000000000E+00
(PID.TID 0000.0001) %MON forcing_fu_del2              =   0.0000000000000E+00
(PID.TID 0000.0001) %MON forcing_fv_max               =   0.0000000000000E+00
(PID.TID 0000.0001) %MON forcing_fv_min               =   0.0000000000000E+00
(PID.TID 0000.0001) %MON forcing_fv_mean              =   0.0000000000000E+00
(PID.TID 0000.0001) %MON forcing_fv_sd                =   0.0000000000000E+00
(PID.TID 0000.0001) %MON forcing_fv_del2              =   0.0000000000000E+00
(PID.TID 0000.0001) %MON advcfl_uvel_max              =   1.0808866458232E-01
(PID.TID 0000.0001) %MON advcfl_vvel_max              =   0.0000000000000E+00
(PID.TID 0000.0001) %MON advcfl_wvel_max              =   5.7408288988750E-01
(PID.TID 0000.0001) %MON advcfl_W_hf_max              =   5.7888626210462E-01
(PID.TID 0000.0001) %MON pe_b_mean                    =   2.5875976291645E-05
(PID.TID 0000.0001) %MON ke_max                       =   9.7083530337705E-01
(PID.TID 0000.0001) %MON ke_mean                      =   2.4140814305277E-01
(PID.TID 0000.0001) %MON ke_vol                       =   9.5889217545975E+10
(PID.TID 0000.0001) %MON vort_r_min                   =   0.0000000000000E+00
(PID.TID 0000.0001) %MON vort_r_max                   =   0.0000000000000E+00
(PID.TID 0000.0001) %MON vort_a_mean                  =   0.0000000000000E+00
(PID.TID 0000.0001) %MON vort_a_sd                    =   0.0000000000000E+00
(PID.TID 0000.0001) %MON vort_p_mean                  =   0.0000000000000E+00
(PID.TID 0000.0001) %MON vort_p_sd                    =   0.0000000000000E+00
(PID.TID 0000.0001) %MON surfExpan_theta_mean         =  -7.4653019901096E-11
(PID.TID 0000.0001) %MON surfExpan_salt_mean          =  -4.2327455089506E-18
(PID.TID 0000.0001) // =======================================================
(PID.TID 0000.0001) // End MONITOR dynamic field statistics
(PID.TID 0000.0001) // =======================================================
(PID.TID 0000.0001) // =======================================================
(PID.TID 0000.0001) // Begin OBCS MONITOR field statistics
(PID.TID 0000.0001) // =======================================================
(PID.TID 0000.0001) %MON obc_E_uVel_max               =   6.6809804669674E-01
(PID.TID 0000.0001) %MON obc_E_uVel_min               =   6.6809804669674E-01
(PID.TID 0000.0001) %MON obc_E_uVel_mean              =   6.6809804669674E-01
(PID.TID 0000.0001) %MON obc_E_uVel_sd                =   1.6660004686563E-08
(PID.TID 0000.0001) %MON obc_E_uVel_Int               =   6.6809804669674E+05
(PID.TID 0000.0001) %MON obc_W_uVel_max               =   6.6809804669674E-01
(PID.TID 0000.0001) %MON obc_W_uVel_min               =   6.6809804669674E-01
(PID.TID 0000.0001) %MON obc_W_uVel_mean              =   6.6809804669674E-01
(PID.TID 0000.0001) %MON obc_W_uVel_sd                =   1.6660004686563E-08
(PID.TID 0000.0001) %MON obc_W_uVel_Int               =   6.6809804669674E+05
(PID.TID 0000.0001) // =======================================================
(PID.TID 0000.0001) // End OBCS MONITOR field statistics
(PID.TID 0000.0001) // =======================================================
(PID.TID 0000.0001) %CHECKPOINT      4320 0000004320
 cg2d: Sum(rhs),rhsMax =  -2.55007126526152E-11  2.58414135842141E-01
 cg2d: Sum(rhs),rhsMax =  -2.56618060134883E-11  2.55934594066533E-01
 cg2d: Sum(rhs),rhsMax =  -2.59111621048191E-11  2.53360898181671E-01
 cg2d: Sum(rhs),rhsMax =  -2.61400900924968E-11  2.50694124951590E-01
 cg2d: Sum(rhs),rhsMax =  -2.63957744550680E-11  2.47935392296971E-01
 cg2d: Sum(rhs),rhsMax =  -2.66461297471210E-11  2.45085859760147E-01
 cg2d: Sum(rhs),rhsMax =  -2.69142486075680E-11  2.42146728891046E-01
 cg2d: Sum(rhs),rhsMax =  -2.71958011666129E-11  2.39119243080791E-01
 cg2d: Sum(rhs),rhsMax =  -2.74840150638056E-11  2.36004686928743E-01
 cg2d: Sum(rhs),rhsMax =  -2.78402856324078E-11  2.32804385051170E-01
 cg2d: Sum(rhs),rhsMax =  -2.81650258671107E-11  2.29519700518148E-01
 cg2d: Sum(rhs),rhsMax =  -2.85499401897482E-11  2.26152033076856E-01
 cg2d: Sum(rhs),rhsMax =  -2.89382962037621E-11  2.22702817234578E-01
 cg2d: Sum(rhs),rhsMax =  -2.93030044673515E-11  2.19173520092984E-01
 cg2d: Sum(rhs),rhsMax =  -2.97186719677711E-11  2.15565639425729E-01
 cg2d: Sum(rhs),rhsMax =  -3.01467739660666E-11  2.11880701961730E-01
 cg2d: Sum(rhs),rhsMax =  -3.06271674688219E-11  2.08120261714975E-01
 cg2d: Sum(rhs),rhsMax =  -3.11464187774391E-11  2.04285898491052E-01
 cg2d: Sum(rhs),rhsMax =  -3.16369153097185E-11  2.00379216671036E-01
 cg2d: Sum(rhs),rhsMax =  -3.22036841637896E-11  1.96401844334432E-01
 cg2d: Sum(rhs),rhsMax =  -3.28072013999758E-11  1.92355432754398E-01
 cg2d: Sum(rhs),rhsMax =  -3.34189342865443E-11  1.88241656016699E-01
 cg2d: Sum(rhs),rhsMax =  -3.41479067245132E-11  1.84062210912178E-01
 cg2d: Sum(rhs),rhsMax =  -3.48969741992278E-11  1.79818817049214E-01
 cg2d: Sum(rhs),rhsMax =  -3.57044394050376E-11  1.75513217074477E-01
 cg2d: Sum(rhs),rhsMax =  -3.65869556873122E-11  1.71147176910814E-01
 cg2d: Sum(rhs),rhsMax =  -3.74874575825856E-11  1.66722485950872E-01
 cg2d: Sum(rhs),rhsMax =  -3.84696718924715E-11  1.62240957156030E-01
 cg2d: Sum(rhs),rhsMax =  -3.94884125398676E-11  1.57704427038594E-01
 cg2d: Sum(rhs),rhsMax =  -4.06357170135152E-11  1.53114755648349E-01
 cg2d: Sum(rhs),rhsMax =  -4.18484136233133E-11  1.48473826482678E-01
 cg2d: Sum(rhs),rhsMax =  -4.31537028333651E-11  1.43783546153178E-01
 cg2d: Sum(rhs),rhsMax =  -4.45362635659308E-11  1.39045843981589E-01
 cg2d: Sum(rhs),rhsMax =  -4.60754767672711E-11  1.34262671722766E-01
 cg2d: Sum(rhs),rhsMax =  -4.77062278569917E-11  1.29436003178143E-01
 cg2d: Sum(rhs),rhsMax =  -4.94774776704787E-11  1.24567833869707E-01
 cg2d: Sum(rhs),rhsMax =  -5.14291942366185E-11  1.19660180835311E-01
 cg2d: Sum(rhs),rhsMax =  -5.35728683637160E-11  1.14715082502544E-01
 cg2d: Sum(rhs),rhsMax =  -5.59257085086529E-11  1.09734598672457E-01
 cg2d: Sum(rhs),rhsMax =  -5.85537174302431E-11  1.04720810666377E-01
 cg2d: Sum(rhs),rhsMax =  -6.14055473135977E-11  9.96758215367118E-02
 cg2d: Sum(rhs),rhsMax =  -6.22117357629293E-11  9.81943370365393E-02
 cg2d: Sum(rhs),rhsMax =  -6.23388562992488E-11  9.78179948394935E-02
 cg2d: Sum(rhs),rhsMax =  -6.25214879867997E-11  9.73904243840238E-02
 cg2d: Sum(rhs),rhsMax =  -6.27488894178185E-11  9.69210385908234E-02
 cg2d: Sum(rhs),rhsMax =  -6.29498120297001E-11  9.64105273214347E-02
 cg2d: Sum(rhs),rhsMax =  -6.32082303164694E-11  9.58607461633510E-02
 cg2d: Sum(rhs),rhsMax =  -6.34817545752675E-11  9.52587052529468E-02
 cg2d: Sum(rhs),rhsMax =  -6.38384267323544E-11  9.45909553567486E-02
 cg2d: Sum(rhs),rhsMax =  -6.42155634222874E-11  9.38573450650971E-02
 cg2d: Sum(rhs),rhsMax =  -6.37055130869868E-11  9.43982530717180E-02
 cg2d: Sum(rhs),rhsMax =  -6.31493746183764E-11  9.50806532776926E-02
 cg2d: Sum(rhs),rhsMax =  -6.26058649366712E-11  9.57447213941620E-02
 cg2d: Sum(rhs),rhsMax =  -6.20812845575358E-11  9.63891899473829E-02
 cg2d: Sum(rhs),rhsMax =  -6.15782980162294E-11  9.70017160612044E-02
 cg2d: Sum(rhs),rhsMax =  -6.10980710469278E-11  9.75831636686793E-02
 cg2d: Sum(rhs),rhsMax =  -6.06495964561304E-11  9.81241512312178E-02
 cg2d: Sum(rhs),rhsMax =  -6.01952376833026E-11  9.86083916404800E-02
 cg2d: Sum(rhs),rhsMax =  -5.98119886952020E-11  9.90354911628518E-02
 cg2d: Sum(rhs),rhsMax =  -5.94914673079927E-11  9.94102485418850E-02
 cg2d: Sum(rhs),rhsMax =  -5.91827697959957E-11  9.97360825627682E-02
 cg2d: Sum(rhs),rhsMax =  -5.88828985570444E-11  1.00014939924740E-01
 cg2d: Sum(rhs),rhsMax =  -5.86267701052634E-11  1.00244980200901E-01
 cg2d: Sum(rhs),rhsMax =  -5.84190473773560E-11  1.00423762487773E-01
 cg2d: Sum(rhs),rhsMax =  -5.82568437934583E-11  1.00553334373122E-01
 cg2d: Sum(rhs),rhsMax =  -5.80645531655932E-11  1.00637784556868E-01
 cg2d: Sum(rhs),rhsMax =  -5.79593040228588E-11  1.00674359927635E-01
 cg2d: Sum(rhs),rhsMax =  -5.78145309404476E-11  1.00684948483906E-01
 cg2d: Sum(rhs),rhsMax =  -5.76860781364985E-11  1.00641043219651E-01
 cg2d: Sum(rhs),rhsMax =  -5.76286796061254E-11  1.00591770066432E-01
 cg2d: Sum(rhs),rhsMax =  -5.75022252036206E-11  1.00575116834593E-01
 cg2d: Sum(rhs),rhsMax =  -5.74058578450831E-11  1.00613525578205E-01
 cg2d: Sum(rhs),rhsMax =  -5.56376056337626E-11  1.03630661040453E-01
 cg2d: Sum(rhs),rhsMax =  -5.35067545825996E-11  1.07598190128410E-01
 cg2d: Sum(rhs),rhsMax =  -5.15181231008910E-11  1.11520747477365E-01
 cg2d: Sum(rhs),rhsMax =  -4.97495378226631E-11  1.15396656000686E-01
 cg2d: Sum(rhs),rhsMax =  -4.80600004237886E-11  1.19224260945307E-01
 cg2d: Sum(rhs),rhsMax =  -4.65054661447084E-11  1.23001934885306E-01
 cg2d: Sum(rhs),rhsMax =  -4.50728343537321E-11  1.26728082465647E-01
 cg2d: Sum(rhs),rhsMax =  -4.37274660924913E-11  1.30401143701225E-01
 cg2d: Sum(rhs),rhsMax =  -4.24826840372816E-11  1.34019594611810E-01
 cg2d: Sum(rhs),rhsMax =  -4.13226119988508E-11  1.37581945543348E-01
 cg2d: Sum(rhs),rhsMax =  -4.02186062231635E-11  1.41086738022228E-01
 cg2d: Sum(rhs),rhsMax =  -3.91967569512985E-11  1.44532541978906E-01
 cg2d: Sum(rhs),rhsMax =  -3.82295306522451E-11  1.47917954940660E-01
 cg2d: Sum(rhs),rhsMax =  -3.73481245929952E-11  1.51241603799977E-01
 cg2d: Sum(rhs),rhsMax =  -3.64881458381205E-11  1.54502148294234E-01
 cg2d: Sum(rhs),rhsMax =  -3.57023299812909E-11  1.57698284516631E-01
 cg2d: Sum(rhs),rhsMax =  -3.49368312058118E-11  1.60828746879334E-01
 cg2d: Sum(rhs),rhsMax =  -3.42280648268911E-11  1.63892307963381E-01
 cg2d: Sum(rhs),rhsMax =  -3.35870220524725E-11  1.66887776988673E-01
 cg2d: Sum(rhs),rhsMax =  -3.28971294649705E-11  1.69813998363780E-01
 cg2d: Sum(rhs),rhsMax =  -3.22478710401697E-11  1.72669851896337E-01
 cg2d: Sum(rhs),rhsMax =  -3.16079384887757E-11  1.75454254578393E-01
 cg2d: Sum(rhs),rhsMax =  -3.10245162893352E-11  1.78166162843231E-01
 cg2d: Sum(rhs),rhsMax =  -3.05123704080756E-11  1.80804573810288E-01
 cg2d: Sum(rhs),rhsMax =  -2.99865687836132E-11  1.83368524367175E-01
 cg2d: Sum(rhs),rhsMax =  -2.94966273628461E-11  1.85857087857638E-01
 cg2d: Sum(rhs),rhsMax =  -2.90151236370662E-11  1.88269369271486E-01
 cg2d: Sum(rhs),rhsMax =  -2.85712564718210E-11  1.90604500694866E-01
 cg2d: Sum(rhs),rhsMax =  -2.81692447146042E-11  1.92861638849418E-01
 cg2d: Sum(rhs),rhsMax =  -2.78042033841075E-11  1.95039965637635E-01
 cg2d: Sum(rhs),rhsMax =  -2.74037459391252E-11  1.97138691205656E-01
 cg2d: Sum(rhs),rhsMax =  -2.70484745712452E-11  1.99157057814773E-01
 cg2d: Sum(rhs),rhsMax =  -2.67068589465680E-11  2.01094342374836E-01
 cg2d: Sum(rhs),rhsMax =  -2.63977728565123E-11  2.02949856052498E-01
 cg2d: Sum(rhs),rhsMax =  -2.61219934571955E-11  2.04722940690963E-01
 cg2d: Sum(rhs),rhsMax =  -2.58373322736816E-11  2.06412963331754E-01
 cg2d: Sum(rhs),rhsMax =  -2.55934162751714E-11  2.08019311200003E-01
 cg2d: Sum(rhs),rhsMax =  -2.53465026744948E-11  2.09541389565127E-01
 cg2d: Sum(rhs),rhsMax =  -2.51039189436142E-11  2.10978623950140E-01
 cg2d: Sum(rhs),rhsMax =  -2.49358311776859E-11  2.12330466624716E-01
 cg2d: Sum(rhs),rhsMax =  -2.47420972598889E-11  2.13596405733051E-01
 cg2d: Sum(rhs),rhsMax =  -2.45294895506731E-11  2.14775974236882E-01
 cg2d: Sum(rhs),rhsMax =  -2.43199904659264E-11  2.15868755628806E-01
 cg2d: Sum(rhs),rhsMax =  -2.41106024034821E-11  2.16874384432835E-01
 cg2d: Sum(rhs),rhsMax =  -2.39419595260415E-11  2.17792541443248E-01
 cg2d: Sum(rhs),rhsMax =  -2.37883046594334E-11  2.18622945620781E-01
 cg2d: Sum(rhs),rhsMax =  -2.36454189561641E-11  2.19365345715965E-01
 cg2d: Sum(rhs),rhsMax =  -2.35419461702691E-11  2.20019514565898E-01
 cg2d: Sum(rhs),rhsMax =  -2.34221531059120E-11  2.20585247840399E-01
 cg2d: Sum(rhs),rhsMax =  -2.33180141862022E-11  2.21062367556350E-01
 cg2d: Sum(rhs),rhsMax =  -2.31888952484383E-11  2.21450728469134E-01
 cg2d: Sum(rhs),rhsMax =  -2.31213936885410E-11  2.21750225131692E-01
 cg2d: Sum(rhs),rhsMax =  -2.30750973884142E-11  2.21960797721086E-01
 cg2d: Sum(rhs),rhsMax =  -2.30120367206155E-11  2.22082435144452E-01
 cg2d: Sum(rhs),rhsMax =  -2.30040431148382E-11  2.22115175502482E-01
 cg2d: Sum(rhs),rhsMax =  -2.29354313319163E-11  2.22059103853334E-01
 cg2d: Sum(rhs),rhsMax =  -2.29609664614827E-11  2.21914348231927E-01
 cg2d: Sum(rhs),rhsMax =  -2.29711805133093E-11  2.21681075016839E-01
 cg2d: Sum(rhs),rhsMax =  -2.29584129485261E-11  2.21359484570848E-01
 cg2d: Sum(rhs),rhsMax =  -2.30594432437670E-11  2.20949807808704E-01
 cg2d: Sum(rhs),rhsMax =  -2.32492913809779E-11  2.20452303971756E-01
 cg2d: Sum(rhs),rhsMax =  -2.33316699294051E-11  2.19867259697442E-01
 cg2d: Sum(rhs),rhsMax =  -2.35329533637696E-11  2.19194989314138E-01
 cg2d: Sum(rhs),rhsMax =  -2.36669572828418E-11  2.18435836467939E-01
 cg2d: Sum(rhs),rhsMax =  -2.38159492127465E-11  2.17590176351805E-01
 cg2d: Sum(rhs),rhsMax =  -2.40046871269328E-11  2.16658418149177E-01
 cg2d: Sum(rhs),rhsMax =  -2.41775488518670E-11  2.15641006642443E-01
 cg2d: Sum(rhs),rhsMax =  -2.44029241258659E-11  2.14538423201048E-01
 cg2d: Sum(rhs),rhsMax =  -2.46298537120992E-11  2.13351186089319E-01
 cg2d: Sum(rhs),rhsMax =  -2.48796538926399E-11  2.12079849955400E-01
 cg2d: Sum(rhs),rhsMax =  -2.51363374559332E-11  2.10725004722249E-01
 cg2d: Sum(rhs),rhsMax =  -2.54025689372384E-11  2.09287273425263E-01
 cg2d: Sum(rhs),rhsMax =  -2.55904186730049E-11  2.07767309648405E-01
 cg2d: Sum(rhs),rhsMax =  -2.58674193176489E-11  2.06165795128308E-01
 cg2d: Sum(rhs),rhsMax =  -2.61312083082998E-11  2.04483438133177E-01
 cg2d: Sum(rhs),rhsMax =  -2.64319677256708E-11  2.02720973310425E-01
 cg2d: Sum(rhs),rhsMax =  -2.67127431285985E-11  2.00879163075440E-01
 cg2d: Sum(rhs),rhsMax =  -2.70423683446097E-11  1.98958799889000E-01
 cg2d: Sum(rhs),rhsMax =  -2.73367994907403E-11  1.96960708689236E-01
 cg2d: Sum(rhs),rhsMax =  -2.76766387585781E-11  1.94885748983141E-01
 cg2d: Sum(rhs),rhsMax =  -2.80793166496096E-11  1.92734816140586E-01
 cg2d: Sum(rhs),rhsMax =  -2.84743340017712E-11  1.90508841931997E-01
 cg2d: Sum(rhs),rhsMax =  -2.89066548475603E-11  1.88208793531089E-01
 cg2d: Sum(rhs),rhsMax =  -2.93114421623386E-11  1.85835670920499E-01
 cg2d: Sum(rhs),rhsMax =  -2.97974978025195E-11  1.83390503256359E-01
 cg2d: Sum(rhs),rhsMax =  -3.03133074197603E-11  1.80874345229187E-01
 cg2d: Sum(rhs),rhsMax =  -3.08169045837303E-11  1.78288274428133E-01
 cg2d: Sum(rhs),rhsMax =  -3.13767900550488E-11  1.75633390344914E-01
 cg2d: Sum(rhs),rhsMax =  -3.19544390947613E-11  1.72910814927795E-01
 cg2d: Sum(rhs),rhsMax =  -3.25487414798431E-11  1.70121694303439E-01
 cg2d: Sum(rhs),rhsMax =  -3.32425198479314E-11  1.67267201194274E-01
 cg2d: Sum(rhs),rhsMax =  -3.39128725102000E-11  1.64348537281444E-01
 cg2d: Sum(rhs),rhsMax =  -3.46829232000800E-11  1.61366934758914E-01
 cg2d: Sum(rhs),rhsMax =  -3.54519746892379E-11  1.58323656636541E-01
 cg2d: Sum(rhs),rhsMax =  -3.62263552489139E-11  1.55219995993204E-01
 cg2d: Sum(rhs),rhsMax =  -3.70267150273662E-11  1.52057275051621E-01
 cg2d: Sum(rhs),rhsMax =  -3.78601594519523E-11  1.48836845154825E-01
 cg2d: Sum(rhs),rhsMax =  -3.87716525551696E-11  1.45560088190054E-01
 cg2d: Sum(rhs),rhsMax =  -3.97550881103825E-11  1.42228418936484E-01
 cg2d: Sum(rhs),rhsMax =  -4.07686107095628E-11  1.38843286825878E-01
 cg2d: Sum(rhs),rhsMax =  -4.18797219126077E-11  1.35406175383644E-01
 cg2d: Sum(rhs),rhsMax =  -4.30484536906306E-11  1.31918598436989E-01
 cg2d: Sum(rhs),rhsMax =  -4.43282077711160E-11  1.28382093617309E-01
 cg2d: Sum(rhs),rhsMax =  -4.56783499913627E-11  1.24798214940979E-01
 cg2d: Sum(rhs),rhsMax =  -4.71238603694246E-11  1.21168526606441E-01
 cg2d: Sum(rhs),rhsMax =  -4.86815032729737E-11  1.17494599448361E-01
 cg2d: Sum(rhs),rhsMax =  -5.03320718436839E-11  1.13778010229088E-01
 cg2d: Sum(rhs),rhsMax =  -5.21409582177057E-11  1.10020342873426E-01
 cg2d: Sum(rhs),rhsMax =  -5.41015010568913E-11  1.06223190465593E-01
 cg2d: Sum(rhs),rhsMax =  -5.62383473123873E-11  1.02388157101144E-01
 cg2d: Sum(rhs),rhsMax =  -5.85763659799454E-11  9.85168582341851E-02
 cg2d: Sum(rhs),rhsMax =  -6.10982375803815E-11  9.46109210043499E-02
 cg2d: Sum(rhs),rhsMax =  -6.38246122619535E-11  9.06719841819102E-02
 cg2d: Sum(rhs),rhsMax =  -6.68901600775484E-11  8.67016974387427E-02
 cg2d: Sum(rhs),rhsMax =  -7.02813363062660E-11  8.27017199123019E-02
 cg2d: Sum(rhs),rhsMax =  -7.40358885309433E-11  7.86737185549992E-02
 cg2d: Sum(rhs),rhsMax =  -7.80858711024734E-11  7.46193670962224E-02
 cg2d: Sum(rhs),rhsMax =  -7.97387711415354E-11  7.31223593152934E-02
 cg2d: Sum(rhs),rhsMax =  -7.97608645797254E-11  7.31686972128173E-02
 cg2d: Sum(rhs),rhsMax =  -7.97811816610761E-11  7.32002195436740E-02
 cg2d: Sum(rhs),rhsMax =  -7.98118238165557E-11  7.32164715936548E-02
 cg2d: Sum(rhs),rhsMax =  -7.90786325310933E-11  7.39266036228525E-02
 cg2d: Sum(rhs),rhsMax =  -7.83186848707373E-11  7.47001084553826E-02
 cg2d: Sum(rhs),rhsMax =  -7.75862707413921E-11  7.54748168340267E-02
 cg2d: Sum(rhs),rhsMax =  -7.68961561092851E-11  7.62411905070692E-02
 cg2d: Sum(rhs),rhsMax =  -7.61958829365028E-11  7.69985232690478E-02
 cg2d: Sum(rhs),rhsMax =  -7.55134288432657E-11  7.77411328924231E-02
 cg2d: Sum(rhs),rhsMax =  -7.48610617939960E-11  7.84712738519528E-02
 cg2d: Sum(rhs),rhsMax =  -7.42595984704053E-11  7.91755380566029E-02
 cg2d: Sum(rhs),rhsMax =  -7.37123695415676E-11  7.98342727536555E-02
 cg2d: Sum(rhs),rhsMax =  -7.31988913926784E-11  8.04514949021871E-02
 cg2d: Sum(rhs),rhsMax =  -7.27592430749269E-11  8.10298887850760E-02
 cg2d: Sum(rhs),rhsMax =  -7.23311965877826E-11  8.15746459507494E-02
 cg2d: Sum(rhs),rhsMax =  -7.19266521342909E-11  8.20878325614838E-02
 cg2d: Sum(rhs),rhsMax =  -7.15894114822202E-11  8.25721601215321E-02
 cg2d: Sum(rhs),rhsMax =  -7.13161057985801E-11  8.30275928679973E-02
 cg2d: Sum(rhs),rhsMax =  -7.11010417209224E-11  8.34534633148102E-02
 cg2d: Sum(rhs),rhsMax =  -7.08374747748763E-11  8.38510081203659E-02
 cg2d: Sum(rhs),rhsMax =  -7.07048308790093E-11  8.42239485607137E-02
 cg2d: Sum(rhs),rhsMax =  -7.05568381498267E-11  8.45778580145831E-02
 cg2d: Sum(rhs),rhsMax =  -7.04220570746372E-11  8.49162608895069E-02
 cg2d: Sum(rhs),rhsMax =  -7.02770619476212E-11  8.52401084817957E-02
 cg2d: Sum(rhs),rhsMax =  -7.02002345143171E-11  8.55498139487356E-02
 cg2d: Sum(rhs),rhsMax =  -6.90034140937712E-11  8.71747760535303E-02
 cg2d: Sum(rhs),rhsMax =  -6.55080989453438E-11  9.20243757604569E-02
 cg2d: Sum(rhs),rhsMax =  -6.23359697193848E-11  9.68418143531756E-02
 cg2d: Sum(rhs),rhsMax =  -5.95070659414887E-11  1.01625030210405E-01
 cg2d: Sum(rhs),rhsMax =  -5.69466696020982E-11  1.06371981775147E-01
 cg2d: Sum(rhs),rhsMax =  -5.46466205619822E-11  1.11080648642239E-01
 cg2d: Sum(rhs),rhsMax =  -5.25541832274712E-11  1.15749032647879E-01
 cg2d: Sum(rhs),rhsMax =  -5.06280573020490E-11  1.20375158940985E-01
 cg2d: Sum(rhs),rhsMax =  -4.88232787532183E-11  1.24957077021433E-01
 cg2d: Sum(rhs),rhsMax =  -4.72022421149632E-11  1.29492861735704E-01
 cg2d: Sum(rhs),rhsMax =  -4.57134330389408E-11  1.33980614218465E-01
 cg2d: Sum(rhs),rhsMax =  -4.43004521955004E-11  1.38418462768933E-01
 cg2d: Sum(rhs),rhsMax =  -4.30130375761451E-11  1.42804563651067E-01
 cg2d: Sum(rhs),rhsMax =  -4.18061141260750E-11  1.47137101809610E-01
 cg2d: Sum(rhs),rhsMax =  -4.07122113799119E-11  1.51414291500590E-01
 cg2d: Sum(rhs),rhsMax =  -3.96631616439436E-11  1.55634376843570E-01
 cg2d: Sum(rhs),rhsMax =  -3.86621845649415E-11  1.59795632300027E-01
 cg2d: Sum(rhs),rhsMax =  -3.77825548625310E-11  1.63896363088587E-01
 cg2d: Sum(rhs),rhsMax =  -3.69074770745215E-11  1.67934905555900E-01
 cg2d: Sum(rhs),rhsMax =  -3.61217722399942E-11  1.71909627527900E-01
 cg2d: Sum(rhs),rhsMax =  -3.54625218079718E-11  1.75818928667334E-01
 cg2d: Sum(rhs),rhsMax =  -3.47957218593820E-11  1.79661240859331E-01
 cg2d: Sum(rhs),rhsMax =  -3.41694450511909E-11  1.83435028641491E-01
 cg2d: Sum(rhs),rhsMax =  -3.35911298776637E-11  1.87138789684469E-01
 cg2d: Sum(rhs),rhsMax =  -3.30723226582563E-11  1.90771055319971E-01
 cg2d: Sum(rhs),rhsMax =  -3.25365290265722E-11  1.94330391104966E-01
 cg2d: Sum(rhs),rhsMax =  -3.20846682555498E-11  1.97815397403989E-01
 cg2d: Sum(rhs),rhsMax =  -3.16386916665579E-11  2.01224709965858E-01
 cg2d: Sum(rhs),rhsMax =  -3.11675130149069E-11  2.04557000467478E-01
 cg2d: Sum(rhs),rhsMax =  -3.07536218713267E-11  2.07810976996104E-01
 cg2d: Sum(rhs),rhsMax =  -3.03770342213738E-11  2.10985384439299E-01
 cg2d: Sum(rhs),rhsMax =  -2.99945623893905E-11  2.14079004770506E-01
 cg2d: Sum(rhs),rhsMax =  -2.96574986791143E-11  2.17090657207225E-01
 cg2d: Sum(rhs),rhsMax =  -2.93149948760174E-11  2.20019198234335E-01
 cg2d: Sum(rhs),rhsMax =  -2.90129031910169E-11  2.22863521480386E-01
 cg2d: Sum(rhs),rhsMax =  -2.87387891262370E-11  2.25622557483824E-01
 cg2d: Sum(rhs),rhsMax =  -2.84620105261979E-11  2.28295273370056E-01
 cg2d: Sum(rhs),rhsMax =  -2.81782375211037E-11  2.30880672465430E-01
 cg2d: Sum(rhs),rhsMax =  -2.79581913176230E-11  2.33377793858103E-01
 cg2d: Sum(rhs),rhsMax =  -2.77393663594694E-11  2.35785711949202E-01
 cg2d: Sum(rhs),rhsMax =  -2.72319944372157E-11  2.38103536038303E-01
 cg2d: Sum(rhs),rhsMax =  -2.70434785676343E-11  2.40330410016547E-01
 cg2d: Sum(rhs),rhsMax =  -2.68460809138560E-11  2.42465512064269E-01
 cg2d: Sum(rhs),rhsMax =  -2.66631161593978E-11  2.44508054485642E-01
 cg2d: Sum(rhs),rhsMax =  -2.65085731143699E-11  2.46457283683024E-01
 cg2d: Sum(rhs),rhsMax =  -2.64555044537929E-11  2.48312480313801E-01
 cg2d: Sum(rhs),rhsMax =  -2.63326027649669E-11  2.50072959465277E-01
 cg2d: Sum(rhs),rhsMax =  -2.62613264467859E-11  2.51738070944271E-01
 cg2d: Sum(rhs),rhsMax =  -2.61434207615707E-11  2.53307199665557E-01
 cg2d: Sum(rhs),rhsMax =  -2.60632626591928E-11  2.54779766095884E-01
 cg2d: Sum(rhs),rhsMax =  -2.59828825122099E-11  2.56155226711019E-01
 cg2d: Sum(rhs),rhsMax =  -2.59452459516751E-11  2.57433074505061E-01
 cg2d: Sum(rhs),rhsMax =  -2.58815191500616E-11  2.58612839457600E-01
 cg2d: Sum(rhs),rhsMax =  -2.58010279807763E-11  2.59694088930044E-01
 cg2d: Sum(rhs),rhsMax =  -2.57714960483213E-11  2.60676427990065E-01
 cg2d: Sum(rhs),rhsMax =  -2.57104337819669E-11  2.61559499682454E-01
 cg2d: Sum(rhs),rhsMax =  -2.57311949525274E-11  2.62342985255278E-01
 cg2d: Sum(rhs),rhsMax =  -2.57148746740654E-11  2.63026604382495E-01
 cg2d: Sum(rhs),rhsMax =  -2.57017740423748E-11  2.63610115350231E-01
 cg2d: Sum(rhs),rhsMax =  -2.56931143027828E-11  2.64093315215368E-01
 cg2d: Sum(rhs),rhsMax =  -2.56860088754252E-11  2.64476040032734E-01
 cg2d: Sum(rhs),rhsMax =  -2.55874210708384E-11  2.64758165172664E-01
 cg2d: Sum(rhs),rhsMax =  -2.55766519074996E-11  2.64939605749862E-01
 cg2d: Sum(rhs),rhsMax =  -2.56248355867683E-11  2.65020317123208E-01
 cg2d: Sum(rhs),rhsMax =  -2.55505616664209E-11  2.65000295506277E-01
 cg2d: Sum(rhs),rhsMax =  -2.55071519461580E-11  2.64879578927721E-01
 cg2d: Sum(rhs),rhsMax =  -2.55013787864300E-11  2.64658248259141E-01
 cg2d: Sum(rhs),rhsMax =  -2.54847254410606E-11  2.64336428307662E-01
 cg2d: Sum(rhs),rhsMax =  -2.54991583403807E-11  2.63914288972578E-01
 cg2d: Sum(rhs),rhsMax =  -2.55171439533797E-11  2.63392046447643E-01
 cg2d: Sum(rhs),rhsMax =  -2.55574450491736E-11  2.62769964429790E-01
 cg2d: Sum(rhs),rhsMax =  -2.55544474470071E-11  2.62048355126257E-01
 cg2d: Sum(rhs),rhsMax =  -2.55813148442030E-11  2.61227580412611E-01
 cg2d: Sum(rhs),rhsMax =  -2.56259458097929E-11  2.60308053037005E-01
 cg2d: Sum(rhs),rhsMax =  -2.56671350840065E-11  2.59290237038928E-01
 cg2d: Sum(rhs),rhsMax =  -2.57178722762319E-11  2.58174648051749E-01
 cg2d: Sum(rhs),rhsMax =  -2.57912580181596E-11  2.56961853422264E-01
 cg2d: Sum(rhs),rhsMax =  -2.58528753960263E-11  2.55652472041285E-01
 cg2d: Sum(rhs),rhsMax =  -2.59167132199423E-11  2.54247173939152E-01
 cg2d: Sum(rhs),rhsMax =  -2.59748889064326E-11  2.52746679727190E-01
 cg2d: Sum(rhs),rhsMax =  -2.60765853354883E-11  2.51151759905747E-01
 cg2d: Sum(rhs),rhsMax =  -2.61406452040092E-11  2.49463234154241E-01
 cg2d: Sum(rhs),rhsMax =  -2.62087018754187E-11  2.47681970535051E-01
 cg2d: Sum(rhs),rhsMax =  -2.63687960355696E-11  2.45808884343826E-01
 cg2d: Sum(rhs),rhsMax =  -2.65334421101215E-11  2.43844936996738E-01
 cg2d: Sum(rhs),rhsMax =  -2.67350586113935E-11  2.41791134731861E-01
 cg2d: Sum(rhs),rhsMax =  -2.69012589981799E-11  2.39648527228095E-01
 cg2d: Sum(rhs),rhsMax =  -2.71529465578624E-11  2.37418205867044E-01
 cg2d: Sum(rhs),rhsMax =  -2.73316924648270E-11  2.35101301472767E-01
 cg2d: Sum(rhs),rhsMax =  -2.75602873855973E-11  2.32698981351722E-01
 cg2d: Sum(rhs),rhsMax =  -2.78379541640561E-11  2.30212445514257E-01
 cg2d: Sum(rhs),rhsMax =  -2.81061840468055E-11  2.27642921984008E-01
 cg2d: Sum(rhs),rhsMax =  -2.83932877209736E-11  2.24991661732472E-01
 cg2d: Sum(rhs),rhsMax =  -2.86928258930175E-11  2.22259932821652E-01
 cg2d: Sum(rhs),rhsMax =  -2.90176771500228E-11  2.19449014005810E-01
 cg2d: Sum(rhs),rhsMax =  -2.93353119573680E-11  2.16560188130172E-01
 cg2d: Sum(rhs),rhsMax =  -2.96775937158600E-11  2.13594735791439E-01
 cg2d: Sum(rhs),rhsMax =  -3.00293123700612E-11  2.10553929648549E-01
 cg2d: Sum(rhs),rhsMax =  -3.04223313207785E-11  2.07439029764707E-01
 cg2d: Sum(rhs),rhsMax =  -3.08637559953695E-11  2.04251280505044E-01
 cg2d: Sum(rhs),rhsMax =  -3.12679881986355E-11  2.00991909104807E-01
 cg2d: Sum(rhs),rhsMax =  -3.17010862005418E-11  1.97662126539923E-01
 cg2d: Sum(rhs),rhsMax =  -3.21992432716911E-11  1.94263130617933E-01
 cg2d: Sum(rhs),rhsMax =  -3.27217142270797E-11  1.90796111011831E-01
 cg2d: Sum(rhs),rhsMax =  -3.32678329328928E-11  1.87262256093860E-01
 cg2d: Sum(rhs),rhsMax =  -3.38254979581620E-11  1.83662761225348E-01
 cg2d: Sum(rhs),rhsMax =  -3.44311246180951E-11  1.79998838139031E-01
 cg2d: Sum(rhs),rhsMax =  -3.50413031924290E-11  1.76271724762250E-01
 cg2d: Sum(rhs),rhsMax =  -3.57146534568642E-11  1.72482694969702E-01
 cg2d: Sum(rhs),rhsMax =  -3.64046570666687E-11  1.68633067757008E-01
 cg2d: Sum(rhs),rhsMax =  -3.72173403206943E-11  1.64724215289641E-01
 cg2d: Sum(rhs),rhsMax =  -3.80850906367414E-11  1.60757569389222E-01
 cg2d: Sum(rhs),rhsMax =  -3.90133481076305E-11  1.56734626158328E-01
 cg2d: Sum(rhs),rhsMax =  -3.99846822318750E-11  1.52656948593164E-01
 cg2d: Sum(rhs),rhsMax =  -4.10681488816067E-11  1.48526167173206E-01
 cg2d: Sum(rhs),rhsMax =  -4.21797041738614E-11  1.44343978539225E-01
 cg2d: Sum(rhs),rhsMax =  -4.33820757095305E-11  1.40112142420807E-01
 cg2d: Sum(rhs),rhsMax =  -4.46662706821144E-11  1.35832477304160E-01
 cg2d: Sum(rhs),rhsMax =  -4.60593785334140E-11  1.31506854873792E-01
 cg2d: Sum(rhs),rhsMax =  -4.75720574044658E-11  1.27137193783473E-01
 cg2d: Sum(rhs),rhsMax =  -4.91877094610516E-11  1.22725453013896E-01
 cg2d: Sum(rhs),rhsMax =  -5.09693398598188E-11  1.18273625144707E-01
 cg2d: Sum(rhs),rhsMax =  -5.28896926255129E-11  1.13783729862082E-01
 cg2d: Sum(rhs),rhsMax =  -5.41444666879443E-11  1.10991916050057E-01
 cg2d: Sum(rhs),rhsMax =  -5.42080824672553E-11  1.10671481456725E-01
 cg2d: Sum(rhs),rhsMax =  -5.42970668426790E-11  1.10323438716750E-01
 cg2d: Sum(rhs),rhsMax =  -5.44210232433784E-11  1.09890245180829E-01
 cg2d: Sum(rhs),rhsMax =  -5.45151146447154E-11  1.09517902961057E-01
 cg2d: Sum(rhs),rhsMax =  -5.46457046279869E-11  1.09072797548693E-01
 cg2d: Sum(rhs),rhsMax =  -5.47939749129256E-11  1.08581009638857E-01
 cg2d: Sum(rhs),rhsMax =  -5.49602585664388E-11  1.08059172992266E-01
 cg2d: Sum(rhs),rhsMax =  -5.51579892871246E-11  1.07507846682150E-01
 cg2d: Sum(rhs),rhsMax =  -5.53585927098865E-11  1.06932681095541E-01
 cg2d: Sum(rhs),rhsMax =  -5.55871737528690E-11  1.06337573747772E-01
 cg2d: Sum(rhs),rhsMax =  -5.57879521658616E-11  1.05735309341868E-01
 cg2d: Sum(rhs),rhsMax =  -5.60214027944816E-11  1.05125185589430E-01
 cg2d: Sum(rhs),rhsMax =  -5.62402902026804E-11  1.04502064643905E-01
 cg2d: Sum(rhs),rhsMax =  -5.65083813075518E-11  1.03858611686808E-01
 cg2d: Sum(rhs),rhsMax =  -5.67647873150889E-11  1.03188833936866E-01
 cg2d: Sum(rhs),rhsMax =  -5.70703762026170E-11  1.02488069541194E-01
 cg2d: Sum(rhs),rhsMax =  -5.73689151739387E-11  1.01752252787442E-01
 cg2d: Sum(rhs),rhsMax =  -5.77001224577600E-11  1.00982736672973E-01
 cg2d: Sum(rhs),rhsMax =  -5.80822612228360E-11  1.00177516471311E-01
 cg2d: Sum(rhs),rhsMax =  -5.84683967908006E-11  9.93376003722353E-02
 cg2d: Sum(rhs),rhsMax =  -5.88918913635439E-11  9.84647763893046E-02
 cg2d: Sum(rhs),rhsMax =  -5.93443627572299E-11  9.75571378218123E-02
 cg2d: Sum(rhs),rhsMax =  -5.98043836674833E-11  9.66428764505703E-02
 cg2d: Sum(rhs),rhsMax =  -6.02742300515047E-11  9.57422202102188E-02
 cg2d: Sum(rhs),rhsMax =  -6.07568440003092E-11  9.48602037879152E-02
 cg2d: Sum(rhs),rhsMax =  -6.12112582842883E-11  9.40011284342724E-02
 cg2d: Sum(rhs),rhsMax =  -6.16497963790152E-11  9.31674942221706E-02
 cg2d: Sum(rhs),rhsMax =  -6.20821172248043E-11  9.23569860253635E-02
 cg2d: Sum(rhs),rhsMax =  -6.24921225877983E-11  9.15696133958045E-02
 cg2d: Sum(rhs),rhsMax =  -6.28648244571650E-11  9.08187467610176E-02
 cg2d: Sum(rhs),rhsMax =  -6.32829344482388E-11  9.00799530726899E-02
 cg2d: Sum(rhs),rhsMax =  -6.37250252566446E-11  8.93626381064451E-02
 cg2d: Sum(rhs),rhsMax =  -6.41154906944053E-11  8.86496134576906E-02
 cg2d: Sum(rhs),rhsMax =  -6.21278584134188E-11  9.13839657956581E-02
 cg2d: Sum(rhs),rhsMax =  -5.96185323331611E-11  9.50489096307189E-02
 cg2d: Sum(rhs),rhsMax =  -5.73625591471227E-11  9.86753255449859E-02
 cg2d: Sum(rhs),rhsMax =  -5.52515810881005E-11  1.02261615701562E-01
 cg2d: Sum(rhs),rhsMax =  -5.33079136388892E-11  1.05806184232550E-01
 cg2d: Sum(rhs),rhsMax =  -5.15352205354702E-11  1.09307441505782E-01
 cg2d: Sum(rhs),rhsMax =  -4.99117414065609E-11  1.12763811557225E-01
 cg2d: Sum(rhs),rhsMax =  -4.83797446548806E-11  1.16173741877141E-01
 cg2d: Sum(rhs),rhsMax =  -4.69146943515852E-11  1.19535713226332E-01
 cg2d: Sum(rhs),rhsMax =  -4.56388260516860E-11  1.22848247373560E-01
 cg2d: Sum(rhs),rhsMax =  -4.43961534202231E-11  1.26109910515843E-01
 cg2d: Sum(rhs),rhsMax =  -4.32237579062189E-11  1.29319312895212E-01
 cg2d: Sum(rhs),rhsMax =  -4.21500612191039E-11  1.32475107409244E-01
 cg2d: Sum(rhs),rhsMax =  -4.11252143450724E-11  1.35575989817496E-01
 cg2d: Sum(rhs),rhsMax =  -4.01717548115244E-11  1.38620701347360E-01
 cg2d: Sum(rhs),rhsMax =  -3.92650356673130E-11  1.41608033263819E-01
 cg2d: Sum(rhs),rhsMax =  -3.84280385290481E-11  1.44536830249400E-01
 cg2d: Sum(rhs),rhsMax =  -3.76224607023801E-11  1.47405991388669E-01
 cg2d: Sum(rhs),rhsMax =  -3.68634012204438E-11  1.50214468163053E-01
 cg2d: Sum(rhs),rhsMax =  -3.61648488933497E-11  1.52961259687872E-01
 cg2d: Sum(rhs),rhsMax =  -3.54618556741571E-11  1.55645406061759E-01
 cg2d: Sum(rhs),rhsMax =  -3.47826212276914E-11  1.58265981375321E-01
 cg2d: Sum(rhs),rhsMax =  -3.41192629704778E-11  1.60822088812213E-01
 cg2d: Sum(rhs),rhsMax =  -3.35238503623714E-11  1.63312858827207E-01
 cg2d: Sum(rhs),rhsMax =  -3.29538618615288E-11  1.65737450233751E-01
 cg2d: Sum(rhs),rhsMax =  -3.23945315017227E-11  1.68095052747041E-01
 cg2d: Sum(rhs),rhsMax =  -3.19071435939122E-11  1.70384887415208E-01
 cg2d: Sum(rhs),rhsMax =  -3.14434034365263E-11  1.72606202586604E-01
 cg2d: Sum(rhs),rhsMax =  -3.09647862906104E-11  1.74758264606079E-01
 cg2d: Sum(rhs),rhsMax =  -3.05457881211169E-11  1.76840346105793E-01
 cg2d: Sum(rhs),rhsMax =  -3.01331182228637E-11  1.78851715816830E-01
 cg2d: Sum(rhs),rhsMax =  -2.97317725994617E-11  1.80791633461089E-01
 cg2d: Sum(rhs),rhsMax =  -2.93595148193049E-11  1.82659350429516E-01
 cg2d: Sum(rhs),rhsMax =  -2.90460988594532E-11  1.84454115121288E-01
 cg2d: Sum(rhs),rhsMax =  -2.87014856326095E-11  1.86175181312698E-01
 cg2d: Sum(rhs),rhsMax =  -2.84261503225025E-11  1.87821817538167E-01
 cg2d: Sum(rhs),rhsMax =  -2.81542567037718E-11  1.89393315642221E-01
 cg2d: Sum(rhs),rhsMax =  -2.78876921555593E-11  1.90888999255964E-01
 cg2d: Sum(rhs),rhsMax =  -2.76416667333024E-11  1.92308231487833E-01
 cg2d: Sum(rhs),rhsMax =  -2.74000822031439E-11  1.93650420392231E-01
 cg2d: Sum(rhs),rhsMax =  -2.71765943082869E-11  1.94915020583964E-01
 cg2d: Sum(rhs),rhsMax =  -2.69949618214582E-11  1.96101530915825E-01
 cg2d: Sum(rhs),rhsMax =  -2.67446065294052E-11  1.97209489734879E-01
 cg2d: Sum(rhs),rhsMax =  -2.65164556978448E-11  1.98238470176099E-01
 cg2d: Sum(rhs),rhsMax =  -2.63417065937688E-11  1.99188076815351E-01
 cg2d: Sum(rhs),rhsMax =  -2.61833887904572E-11  2.00057943766246E-01
 cg2d: Sum(rhs),rhsMax =  -2.60068633295418E-11  2.00847733388316E-01
 cg2d: Sum(rhs),rhsMax =  -2.58689736298834E-11  2.01557136062955E-01
 cg2d: Sum(rhs),rhsMax =  -2.57418530935638E-11  2.02185871506789E-01
 cg2d: Sum(rhs),rhsMax =  -2.56563659206677E-11  2.02733692057263E-01
 cg2d: Sum(rhs),rhsMax =  -2.55546694916120E-11  2.03200386876125E-01
 cg2d: Sum(rhs),rhsMax =  -2.54635201812903E-11  2.03585785760883E-01
 cg2d: Sum(rhs),rhsMax =  -2.54205545502373E-11  2.03889761730540E-01
 cg2d: Sum(rhs),rhsMax =  -2.53524978788278E-11  2.04112232158334E-01
 cg2d: Sum(rhs),rhsMax =  -2.52819987167641E-11  2.04253158764940E-01
 cg2d: Sum(rhs),rhsMax =  -2.52500242936549E-11  2.04312547106622E-01
 cg2d: Sum(rhs),rhsMax =  -2.52498022490499E-11  2.04290446145177E-01
 cg2d: Sum(rhs),rhsMax =  -2.52640131037651E-11  2.04186948019792E-01
 cg2d: Sum(rhs),rhsMax =  -2.52328158367732E-11  2.04002187580209E-01
 cg2d: Sum(rhs),rhsMax =  -2.52733389771720E-11  2.03736341062225E-01
 cg2d: Sum(rhs),rhsMax =  -2.54013476919113E-11  2.03389623759148E-01
 cg2d: Sum(rhs),rhsMax =  -2.55648835434386E-11  2.02962296302151E-01
 cg2d: Sum(rhs),rhsMax =  -2.56721310876173E-11  2.02454654052212E-01
 cg2d: Sum(rhs),rhsMax =  -2.58141286124669E-11  2.01867013421652E-01
 cg2d: Sum(rhs),rhsMax =  -2.59593457840879E-11  2.01199716334298E-01
 cg2d: Sum(rhs),rhsMax =  -2.61155541636526E-11  2.00453142124658E-01
 cg2d: Sum(rhs),rhsMax =  -2.63131738620359E-11  1.99627713544826E-01
 cg2d: Sum(rhs),rhsMax =  -2.65053534675985E-11  1.98723892798181E-01
 cg2d: Sum(rhs),rhsMax =  -2.67200706005610E-11  1.97742171874566E-01
 cg2d: Sum(rhs),rhsMax =  -2.69808619890455E-11  1.96683063804394E-01
 cg2d: Sum(rhs),rhsMax =  -2.72261102551852E-11  1.95547099231929E-01
 cg2d: Sum(rhs),rhsMax =  -2.75274247840684E-11  1.94334828757357E-01
 cg2d: Sum(rhs),rhsMax =  -2.77283751515256E-11  1.93046827612683E-01
 cg2d: Sum(rhs),rhsMax =  -2.79610778974870E-11  1.91683699918894E-01
 cg2d: Sum(rhs),rhsMax =  -2.82402989881803E-11  1.90246081822088E-01
 cg2d: Sum(rhs),rhsMax =  -2.85229617702498E-11  1.88734642436523E-01
 cg2d: Sum(rhs),rhsMax =  -2.87891932515549E-11  1.87150083075760E-01
 cg2d: Sum(rhs),rhsMax =  -2.91215940251277E-11  1.85493134754641E-01
 cg2d: Sum(rhs),rhsMax =  -2.94509971965340E-11  1.83764554565470E-01
 cg2d: Sum(rhs),rhsMax =  -2.97973867802170E-11  1.81965121446480E-01
 cg2d: Sum(rhs),rhsMax =  -3.01703106941886E-11  1.80095632173270E-01
 cg2d: Sum(rhs),rhsMax =  -3.05691028046340E-11  1.78156899508387E-01
 cg2d: Sum(rhs),rhsMax =  -3.09647862906104E-11  1.76149750423269E-01
 cg2d: Sum(rhs),rhsMax =  -3.14207548868239E-11  1.74075026883706E-01
 cg2d: Sum(rhs),rhsMax =  -3.18992610104374E-11  1.71933589488216E-01
 cg2d: Sum(rhs),rhsMax =  -3.23787663347730E-11  1.69726321956144E-01
 cg2d: Sum(rhs),rhsMax =  -3.28956861750385E-11  1.67454134059131E-01
 cg2d: Sum(rhs),rhsMax =  -3.34579031147086E-11  1.65117961706135E-01
 cg2d: Sum(rhs),rhsMax =  -3.40362182882359E-11  1.62718764613820E-01
 cg2d: Sum(rhs),rhsMax =  -3.46680462115501E-11  1.60257523221138E-01
 cg2d: Sum(rhs),rhsMax =  -3.53300722011340E-11  1.57735237081183E-01
 cg2d: Sum(rhs),rhsMax =  -3.60599328175226E-11  1.55152923978345E-01
 cg2d: Sum(rhs),rhsMax =  -3.67854635641152E-11  1.52511620696003E-01
 cg2d: Sum(rhs),rhsMax =  -3.75489639381499E-11  1.49812384917923E-01
 cg2d: Sum(rhs),rhsMax =  -3.83389986424731E-11  1.47056297109880E-01
 cg2d: Sum(rhs),rhsMax =  -3.91358057072466E-11  1.44244461907980E-01
 cg2d: Sum(rhs),rhsMax =  -3.99917876592326E-11  1.41378007717253E-01
 cg2d: Sum(rhs),rhsMax =  -4.08969524912095E-11  1.38458085777214E-01
 cg2d: Sum(rhs),rhsMax =  -4.18942658342303E-11  1.35485869846894E-01
 cg2d: Sum(rhs),rhsMax =  -4.28653779138699E-11  1.32462555905348E-01
 cg2d: Sum(rhs),rhsMax =  -4.39811520536182E-11  1.29389362687862E-01
 cg2d: Sum(rhs),rhsMax =  -4.51327863970619E-11  1.26267532549789E-01
 cg2d: Sum(rhs),rhsMax =  -4.63933336192213E-11  1.23098332943940E-01
 cg2d: Sum(rhs),rhsMax =  -4.73932004751987E-11  1.20650920458583E-01
 cg2d: Sum(rhs),rhsMax =  -4.75181005654690E-11  1.20501837454376E-01
 cg2d: Sum(rhs),rhsMax =  -4.76508832392142E-11  1.20342448699623E-01
 cg2d: Sum(rhs),rhsMax =  -4.78220796296114E-11  1.20171833803533E-01
 cg2d: Sum(rhs),rhsMax =  -4.79890571725150E-11  1.19992840676660E-01
(PID.TID 0000.0001)      cg2d_init_res =   1.80069477505266E-01
(PID.TID 0000.0001)      cg2d_iters(min,last) =      -1      38
(PID.TID 0000.0001)      cg2d_last_res =   5.87870874522299E-14
(PID.TID 0000.0001) // =======================================================
(PID.TID 0000.0001) // Begin MONITOR dynamic field statistics
(PID.TID 0000.0001) // =======================================================
(PID.TID 0000.0001) %MON time_tsnumber                =                  4800
(PID.TID 0000.0001) %MON time_secondsf                =   7.2000000000000E+04
(PID.TID 0000.0001) %MON dynstat_eta_max              =   2.1515243810192E-02
(PID.TID 0000.0001) %MON dynstat_eta_min              =  -6.5309194029696E-02
(PID.TID 0000.0001) %MON dynstat_eta_mean             =   1.2360228930616E-14
(PID.TID 0000.0001) %MON dynstat_eta_sd               =   1.8361332242576E-02
(PID.TID 0000.0001) %MON dynstat_eta_del2             =   7.3154392855911E-05
(PID.TID 0000.0001) %MON dynstat_uvel_max             =   1.4261030967647E+00
(PID.TID 0000.0001) %MON dynstat_uvel_min             =  -9.1246906347744E-01
(PID.TID 0000.0001) %MON dynstat_uvel_mean            =   6.7629311908233E-01
(PID.TID 0000.0001) %MON dynstat_uvel_sd              =   1.2348653634300E-01
(PID.TID 0000.0001) %MON dynstat_uvel_del2            =   1.1559264670163E-03
(PID.TID 0000.0001) %MON dynstat_vvel_max             =   0.0000000000000E+00
(PID.TID 0000.0001) %MON dynstat_vvel_min             =   0.0000000000000E+00
(PID.TID 0000.0001) %MON dynstat_vvel_mean            =   0.0000000000000E+00
(PID.TID 0000.0001) %MON dynstat_vvel_sd              =   0.0000000000000E+00
(PID.TID 0000.0001) %MON dynstat_vvel_del2            =   0.0000000000000E+00
(PID.TID 0000.0001) %MON dynstat_wvel_max             =   3.6719698735252E-02
(PID.TID 0000.0001) %MON dynstat_wvel_min             =  -4.7141055991225E-02
(PID.TID 0000.0001) %MON dynstat_wvel_mean            =  -7.8554976171384E-20
(PID.TID 0000.0001) %MON dynstat_wvel_sd              =   4.0673808066394E-03
(PID.TID 0000.0001) %MON dynstat_wvel_del2            =   1.1326347495538E-04
(PID.TID 0000.0001) %MON dynstat_theta_max            =   1.5000000000005E+01
(PID.TID 0000.0001) %MON dynstat_theta_min            =   9.9999999999988E+00
(PID.TID 0000.0001) %MON dynstat_theta_mean           =   1.3277661036021E+01
(PID.TID 0000.0001) %MON dynstat_theta_sd             =   2.2866528592273E+00
(PID.TID 0000.0001) %MON dynstat_theta_del2           =   1.1475230285251E-03
(PID.TID 0000.0001) %MON dynstat_salt_max             =   3.5000000000000E+01
(PID.TID 0000.0001) %MON dynstat_salt_min             =   3.5000000000000E+01
(PID.TID 0000.0001) %MON dynstat_salt_mean            =   3.5000000000000E+01
(PID.TID 0000.0001) %MON dynstat_salt_sd              =   2.1316282072803E-14
(PID.TID 0000.0001) %MON dynstat_salt_del2            =   0.0000000000000E+00
(PID.TID 0000.0001) %MON dynstat_sst_max              =   1.5000000000000E+01
(PID.TID 0000.0001) %MON dynstat_sst_min              =   1.4999982160721E+01
(PID.TID 0000.0001) %MON dynstat_sst_mean             =   1.4999999425191E+01
(PID.TID 0000.0001) %MON dynstat_sst_sd               =   2.7639459156893E-06
(PID.TID 0000.0001) %MON dynstat_sst_del2             =   8.1420951054150E-08
(PID.TID 0000.0001) %MON dynstat_sss_max              =   3.5000000000000E+01
(PID.TID 0000.0001) %MON dynstat_sss_min              =   3.5000000000000E+01
(PID.TID 0000.0001) %MON dynstat_sss_mean             =   3.5000000000000E+01
(PID.TID 0000.0001) %MON dynstat_sss_sd               =   7.8159700933611E-14
(PID.TID 0000.0001) %MON dynstat_sss_del2             =   0.0000000000000E+00
(PID.TID 0000.0001) %MON forcing_qnet_max             =   0.0000000000000E+00
(PID.TID 0000.0001) %MON forcing_qnet_min             =   0.0000000000000E+00
(PID.TID 0000.0001) %MON forcing_qnet_mean            =   0.0000000000000E+00
(PID.TID 0000.0001) %MON forcing_qnet_sd              =   0.0000000000000E+00
(PID.TID 0000.0001) %MON forcing_qnet_del2            =   0.0000000000000E+00
(PID.TID 0000.0001) %MON forcing_qsw_max              =   0.0000000000000E+00
(PID.TID 0000.0001) %MON forcing_qsw_min              =   0.0000000000000E+00
(PID.TID 0000.0001) %MON forcing_qsw_mean             =   0.0000000000000E+00
(PID.TID 0000.0001) %MON forcing_qsw_sd               =   0.0000000000000E+00
(PID.TID 0000.0001) %MON forcing_qsw_del2             =   0.0000000000000E+00
(PID.TID 0000.0001) %MON forcing_empmr_max            =   0.0000000000000E+00
(PID.TID 0000.0001) %MON forcing_empmr_min            =   0.0000000000000E+00
(PID.TID 0000.0001) %MON forcing_empmr_mean           =   0.0000000000000E+00
(PID.TID 0000.0001) %MON forcing_empmr_sd             =   0.0000000000000E+00
(PID.TID 0000.0001) %MON forcing_empmr_del2           =   0.0000000000000E+00
(PID.TID 0000.0001) %MON forcing_fu_max               =   0.0000000000000E+00
(PID.TID 0000.0001) %MON forcing_fu_min               =   0.0000000000000E+00
(PID.TID 0000.0001) %MON forcing_fu_mean              =   0.0000000000000E+00
(PID.TID 0000.0001) %MON forcing_fu_sd                =   0.0000000000000E+00
(PID.TID 0000.0001) %MON forcing_fu_del2              =   0.0000000000000E+00
(PID.TID 0000.0001) %MON forcing_fv_max               =   0.0000000000000E+00
(PID.TID 0000.0001) %MON forcing_fv_min               =   0.0000000000000E+00
(PID.TID 0000.0001) %MON forcing_fv_mean              =   0.0000000000000E+00
(PID.TID 0000.0001) %MON forcing_fv_sd                =   0.0000000000000E+00
(PID.TID 0000.0001) %MON forcing_fv_del2              =   0.0000000000000E+00
(PID.TID 0000.0001) %MON advcfl_uvel_max              =   1.0695773225735E-01
(PID.TID 0000.0001) %MON advcfl_vvel_max              =   0.0000000000000E+00
(PID.TID 0000.0001) %MON advcfl_wvel_max              =   6.1748969865410E-01
(PID.TID 0000.0001) %MON advcfl_W_hf_max              =   6.1748969865410E-01
(PID.TID 0000.0001) %MON pe_b_mean                    =   8.4227724258044E-06
(PID.TID 0000.0001) %MON ke_max                       =   9.6365634052485E-01
(PID.TID 0000.0001) %MON ke_mean                      =   2.3631483745969E-01
(PID.TID 0000.0001) %MON ke_vol                       =   9.5889217545975E+10
(PID.TID 0000.0001) %MON vort_r_min                   =   0.0000000000000E+00
(PID.TID 0000.0001) %MON vort_r_max                   =   0.0000000000000E+00
(PID.TID 0000.0001) %MON vort_a_mean                  =   0.0000000000000E+00
(PID.TID 0000.0001) %MON vort_a_sd                    =   0.0000000000000E+00
(PID.TID 0000.0001) %MON vort_p_mean                  =   0.0000000000000E+00
(PID.TID 0000.0001) %MON vort_p_sd                    =   0.0000000000000E+00
(PID.TID 0000.0001) %MON surfExpan_theta_mean         =   2.6032973893306E-11
(PID.TID 0000.0001) %MON surfExpan_salt_mean          =  -4.2010883714002E-18
(PID.TID 0000.0001) // =======================================================
(PID.TID 0000.0001) // End MONITOR dynamic field statistics
(PID.TID 0000.0001) // =======================================================
(PID.TID 0000.0001) // =======================================================
(PID.TID 0000.0001) // Begin OBCS MONITOR field statistics
(PID.TID 0000.0001) // =======================================================
(PID.TID 0000.0001) %MON obc_E_uVel_max               =   6.6809804669674E-01
(PID.TID 0000.0001) %MON obc_E_uVel_min               =   6.6809804669674E-01
(PID.TID 0000.0001) %MON obc_E_uVel_mean              =   6.6809804669674E-01
(PID.TID 0000.0001) %MON obc_E_uVel_sd                =   1.6660004686563E-08
(PID.TID 0000.0001) %MON obc_E_uVel_Int               =   6.6809804669674E+05
(PID.TID 0000.0001) %MON obc_W_uVel_max               =   6.6809804669674E-01
(PID.TID 0000.0001) %MON obc_W_uVel_min               =   6.6809804669674E-01
(PID.TID 0000.0001) %MON obc_W_uVel_mean              =   6.6809804669674E-01
(PID.TID 0000.0001) %MON obc_W_uVel_sd                =   1.6660004686563E-08
(PID.TID 0000.0001) %MON obc_W_uVel_Int               =   6.6809804669674E+05
(PID.TID 0000.0001) // =======================================================
(PID.TID 0000.0001) // End OBCS MONITOR field statistics
(PID.TID 0000.0001) // =======================================================
 cg2d: Sum(rhs),rhsMax =  -4.81390483031419E-11  1.19805031968068E-01
 cg2d: Sum(rhs),rhsMax =  -4.82746065344486E-11  1.19609903540433E-01
 cg2d: Sum(rhs),rhsMax =  -4.84251527765878E-11  1.19407109578556E-01
 cg2d: Sum(rhs),rhsMax =  -4.85920192971889E-11  1.19195453026899E-01
 cg2d: Sum(rhs),rhsMax =  -4.87463402976118E-11  1.18973387761481E-01
 cg2d: Sum(rhs),rhsMax =  -4.89358553679153E-11  1.18747889361658E-01
 cg2d: Sum(rhs),rhsMax =  -4.91244822597992E-11  1.18510589767988E-01
 cg2d: Sum(rhs),rhsMax =  -4.93006746538072E-11  1.18279112801305E-01
 cg2d: Sum(rhs),rhsMax =  -4.94998486644249E-11  1.18058437179909E-01
 cg2d: Sum(rhs),rhsMax =  -4.96980234743205E-11  1.17856523239955E-01
 cg2d: Sum(rhs),rhsMax =  -4.98898700129757E-11  1.17685299643328E-01
 cg2d: Sum(rhs),rhsMax =  -5.00339769615721E-11  1.17554777754173E-01
 cg2d: Sum(rhs),rhsMax =  -5.01536590036267E-11  1.17461685507174E-01
 cg2d: Sum(rhs),rhsMax =  -5.02707875327246E-11  1.17409527353764E-01
 cg2d: Sum(rhs),rhsMax =  -5.03999064704885E-11  1.17383917322167E-01
 cg2d: Sum(rhs),rhsMax =  -5.04664088296636E-11  1.17371951401495E-01
 cg2d: Sum(rhs),rhsMax =  -5.05612218759666E-11  1.17379334408765E-01
 cg2d: Sum(rhs),rhsMax =  -5.06402697553199E-11  1.17392552667731E-01
 cg2d: Sum(rhs),rhsMax =  -5.07356934242864E-11  1.17401865938826E-01
 cg2d: Sum(rhs),rhsMax =  -5.08120767683806E-11  1.17402541982489E-01
 cg2d: Sum(rhs),rhsMax =  -5.09237929602335E-11  1.17400522408798E-01
 cg2d: Sum(rhs),rhsMax =  -5.10043118850945E-11  1.17392894097238E-01
 cg2d: Sum(rhs),rhsMax =  -5.11095332722533E-11  1.17378942760557E-01
 cg2d: Sum(rhs),rhsMax =  -5.12171416389151E-11  1.17361450199506E-01
 cg2d: Sum(rhs),rhsMax =  -5.13159653658946E-11  1.17341632914715E-01
 cg2d: Sum(rhs),rhsMax =  -5.14069758983382E-11  1.17302493166000E-01
 cg2d: Sum(rhs),rhsMax =  -5.15515338750383E-11  1.17242763673285E-01
 cg2d: Sum(rhs),rhsMax =  -5.16811159839703E-11  1.17159114243716E-01
 cg2d: Sum(rhs),rhsMax =  -5.18294122897611E-11  1.17047381979148E-01
 cg2d: Sum(rhs),rhsMax =  -5.20000292825173E-11  1.16908706431036E-01
 cg2d: Sum(rhs),rhsMax =  -5.21533927155815E-11  1.16742125107468E-01
 cg2d: Sum(rhs),rhsMax =  -5.23212306813292E-11  1.16539561924668E-01
 cg2d: Sum(rhs),rhsMax =  -5.25353371916282E-11  1.16301876786361E-01
 cg2d: Sum(rhs),rhsMax =  -5.27389798499200E-11  1.16026978019880E-01
 cg2d: Sum(rhs),rhsMax =  -5.29328247900196E-11  1.15753169307212E-01
 cg2d: Sum(rhs),rhsMax =  -5.31963362249144E-11  1.15469724033019E-01
 cg2d: Sum(rhs),rhsMax =  -5.34263744356167E-11  1.15183504309345E-01
 cg2d: Sum(rhs),rhsMax =  -5.36320432509285E-11  1.14895786987511E-01
 cg2d: Sum(rhs),rhsMax =  -5.38574185249274E-11  1.14602171489169E-01
 cg2d: Sum(rhs),rhsMax =  -5.40967826090366E-11  1.14309946837188E-01
 cg2d: Sum(rhs),rhsMax =  -5.43399769625807E-11  1.14012196009876E-01
 cg2d: Sum(rhs),rhsMax =  -5.45898881654239E-11  1.13709825586839E-01
 cg2d: Sum(rhs),rhsMax =  -5.48235901121075E-11  1.13403833130804E-01
 cg2d: Sum(rhs),rhsMax =  -5.50743894933703E-11  1.13093811776038E-01
 cg2d: Sum(rhs),rhsMax =  -5.38716848907939E-11  1.15727874274082E-01
 cg2d: Sum(rhs),rhsMax =  -5.21024334787512E-11  1.19873668811897E-01
 cg2d: Sum(rhs),rhsMax =  -5.04452035698932E-11  1.23977236868334E-01
 cg2d: Sum(rhs),rhsMax =  -4.89224216693174E-11  1.28036887842371E-01
 cg2d: Sum(rhs),rhsMax =  -4.74938977035322E-11  1.32050946857467E-01
 cg2d: Sum(rhs),rhsMax =  -4.61787275085612E-11  1.36017756554027E-01
 cg2d: Sum(rhs),rhsMax =  -4.49518200440480E-11  1.39935679076848E-01
 cg2d: Sum(rhs),rhsMax =  -4.37979652545550E-11  1.43803098144364E-01
 cg2d: Sum(rhs),rhsMax =  -4.27106128242372E-11  1.47618421085283E-01
 cg2d: Sum(rhs),rhsMax =  -4.17200718416666E-11  1.51380080736567E-01
 cg2d: Sum(rhs),rhsMax =  -4.07822664527657E-11  1.55086537114138E-01
 cg2d: Sum(rhs),rhsMax =  -3.99029698172626E-11  1.58736278792179E-01
 cg2d: Sum(rhs),rhsMax =  -3.90741883293799E-11  1.62327823955222E-01
 cg2d: Sum(rhs),rhsMax =  -3.83537646087007E-11  1.65859721116110E-01
 cg2d: Sum(rhs),rhsMax =  -3.76922937306290E-11  1.69330549518621E-01
 cg2d: Sum(rhs),rhsMax =  -3.70073971467377E-11  1.72738919263869E-01
 cg2d: Sum(rhs),rhsMax =  -3.64276386832785E-11  1.76083471212849E-01
 cg2d: Sum(rhs),rhsMax =  -3.58461038629798E-11  1.79362876723401E-01
 cg2d: Sum(rhs),rhsMax =  -3.52895490607352E-11  1.82575837278791E-01
 cg2d: Sum(rhs),rhsMax =  -3.48200357436212E-11  1.85721084058667E-01
 cg2d: Sum(rhs),rhsMax =  -3.43151063120217E-11  1.88797377493002E-01
 cg2d: Sum(rhs),rhsMax =  -3.38803429755785E-11  1.91803506828191E-01
 cg2d: Sum(rhs),rhsMax =  -3.34307026506053E-11  1.94738289723818E-01
 cg2d: Sum(rhs),rhsMax =  -3.30397931236348E-11  1.97600571890527E-01
 cg2d: Sum(rhs),rhsMax =  -3.26511040427135E-11  2.00389226772918E-01
 cg2d: Sum(rhs),rhsMax =  -3.22858406676119E-11  2.03103155295489E-01
 cg2d: Sum(rhs),rhsMax =  -3.19756443545316E-11  2.05741285661853E-01
 cg2d: Sum(rhs),rhsMax =  -3.16283665924288E-11  2.08302573244125E-01
 cg2d: Sum(rhs),rhsMax =  -3.12964099080659E-11  2.10786000583839E-01
 cg2d: Sum(rhs),rhsMax =  -3.10425019023342E-11  2.13190577546476E-01
 cg2d: Sum(rhs),rhsMax =  -3.07831538037817E-11  2.15515341630501E-01
 cg2d: Sum(rhs),rhsMax =  -3.05386826937593E-11  2.17759358471204E-01
 cg2d: Sum(rhs),rhsMax =  -3.02703417887074E-11  2.19921722570323E-01
 cg2d: Sum(rhs),rhsMax =  -3.00447444701035E-11  2.22001558292667E-01
 cg2d: Sum(rhs),rhsMax =  -2.98214786198514E-11  2.23998021051643E-01
 cg2d: Sum(rhs),rhsMax =  -2.96471736049853E-11  2.25910298670024E-01
 cg2d: Sum(rhs),rhsMax =  -2.94363422526089E-11  2.27737612896192E-01
 cg2d: Sum(rhs),rhsMax =  -2.93106650062214E-11  2.29479221000064E-01
 cg2d: Sum(rhs),rhsMax =  -2.91967561238948E-11  2.31134417378240E-01
 cg2d: Sum(rhs),rhsMax =  -2.91445756417374E-11  2.32702534957226E-01
 cg2d: Sum(rhs),rhsMax =  -2.90089063881283E-11  2.34182946394946E-01
 cg2d: Sum(rhs),rhsMax =  -2.89367418915276E-11  2.35575065016275E-01
 cg2d: Sum(rhs),rhsMax =  -2.88188362063124E-11  2.36878345458439E-01
 cg2d: Sum(rhs),rhsMax =  -2.87477819327364E-11  2.38092283945333E-01
 cg2d: Sum(rhs),rhsMax =  -2.87041501678686E-11  2.39216418201146E-01
 cg2d: Sum(rhs),rhsMax =  -2.86012324934859E-11  2.40250327050794E-01
 cg2d: Sum(rhs),rhsMax =  -2.85625967322289E-11  2.41193629795546E-01
 cg2d: Sum(rhs),rhsMax =  -2.85141910083553E-11  2.42045985431702E-01
 cg2d: Sum(rhs),rhsMax =  -2.84861023658323E-11  2.42807091902213E-01
 cg2d: Sum(rhs),rhsMax =  -2.84446910470137E-11  2.43476685341649E-01
 cg2d: Sum(rhs),rhsMax =  -2.83817414015175E-11  2.44054539534548E-01
 cg2d: Sum(rhs),rhsMax =  -2.83985057691893E-11  2.44540465664397E-01
 cg2d: Sum(rhs),rhsMax =  -2.83928436317638E-11  2.44934312377700E-01
 cg2d: Sum(rhs),rhsMax =  -2.84248180548730E-11  2.45235966168908E-01
 cg2d: Sum(rhs),rhsMax =  -2.83654211230555E-11  2.45445352075003E-01
 cg2d: Sum(rhs),rhsMax =  -2.83451040417049E-11  2.45562434589970E-01
 cg2d: Sum(rhs),rhsMax =  -2.83605361417472E-11  2.45587218667800E-01
 cg2d: Sum(rhs),rhsMax =  -2.83599810302348E-11  2.45519751022368E-01
 cg2d: Sum(rhs),rhsMax =  -2.83244538934468E-11  2.45360121297621E-01
 cg2d: Sum(rhs),rhsMax =  -2.82920353811278E-11  2.45108463025275E-01
 cg2d: Sum(rhs),rhsMax =  -2.82857071098874E-11  2.44764954300167E-01
 cg2d: Sum(rhs),rhsMax =  -2.83263412725887E-11  2.44329818130654E-01
 cg2d: Sum(rhs),rhsMax =  -2.83427725733532E-11  2.43803322436150E-01
 cg2d: Sum(rhs),rhsMax =  -2.83641998777284E-11  2.43185779685142E-01
 cg2d: Sum(rhs),rhsMax =  -2.83979506576770E-11  2.42477545978546E-01
 cg2d: Sum(rhs),rhsMax =  -2.84625656377102E-11  2.41679020452242E-01
 cg2d: Sum(rhs),rhsMax =  -2.85120815846085E-11  2.40790644005221E-01
 cg2d: Sum(rhs),rhsMax =  -2.85672596689324E-11  2.39812897841855E-01
 cg2d: Sum(rhs),rhsMax =  -2.86414225669773E-11  2.38746302052130E-01
 cg2d: Sum(rhs),rhsMax =  -2.86750623246235E-11  2.37591414246495E-01
 cg2d: Sum(rhs),rhsMax =  -2.87604384752171E-11  2.36348828352142E-01
 cg2d: Sum(rhs),rhsMax =  -2.88399304437803E-11  2.35019173685972E-01
 cg2d: Sum(rhs),rhsMax =  -2.89341883785710E-11  2.33603114330711E-01
 cg2d: Sum(rhs),rhsMax =  -2.90273360903370E-11  2.32101348826622E-01
 cg2d: Sum(rhs),rhsMax =  -2.91469071100892E-11  2.30514610297266E-01
 cg2d: Sum(rhs),rhsMax =  -2.93408630724912E-11  2.28843666768504E-01
 cg2d: Sum(rhs),rhsMax =  -2.95379276593621E-11  2.27089321584742E-01
 cg2d: Sum(rhs),rhsMax =  -2.97415425620784E-11  2.25252414159727E-01
 cg2d: Sum(rhs),rhsMax =  -2.99760216648792E-11  2.23333820804558E-01
 cg2d: Sum(rhs),rhsMax =  -3.01901836863294E-11  2.21334455614284E-01
 cg2d: Sum(rhs),rhsMax =  -3.04452019150858E-11  2.19255271338097E-01
 cg2d: Sum(rhs),rhsMax =  -3.07192049575633E-11  2.17097259926951E-01
 cg2d: Sum(rhs),rhsMax =  -3.10039771633797E-11  2.14861452595303E-01
 cg2d: Sum(rhs),rhsMax =  -3.12810888303261E-11  2.12548919198662E-01
 cg2d: Sum(rhs),rhsMax =  -3.15725223742902E-11  2.10160767323381E-01
 cg2d: Sum(rhs),rhsMax =  -3.19270165860530E-11  2.07698140532338E-01
 cg2d: Sum(rhs),rhsMax =  -3.22764037719026E-11  2.05162215783515E-01
 cg2d: Sum(rhs),rhsMax =  -3.26280114038013E-11  2.02554200107709E-01
 cg2d: Sum(rhs),rhsMax =  -3.30377947221905E-11  1.99875326675087E-01
 cg2d: Sum(rhs),rhsMax =  -3.34331451412595E-11  1.97126850415569E-01
 cg2d: Sum(rhs),rhsMax =  -3.38440386826733E-11  1.94310043417748E-01
 cg2d: Sum(rhs),rhsMax =  -3.43243211631261E-11  1.91426190362790E-01
 cg2d: Sum(rhs),rhsMax =  -3.47996076399681E-11  1.88476584102241E-01
 cg2d: Sum(rhs),rhsMax =  -3.52926576852042E-11  1.85462521557833E-01
 cg2d: Sum(rhs),rhsMax =  -3.58119089938214E-11  1.82385300650018E-01
 cg2d: Sum(rhs),rhsMax =  -3.63715724205349E-11  1.79246218111701E-01
 cg2d: Sum(rhs),rhsMax =  -3.69215769069342E-11  1.76046568150700E-01
 cg2d: Sum(rhs),rhsMax =  -3.75405262431627E-11  1.72787642047991E-01
 cg2d: Sum(rhs),rhsMax =  -3.82139875299004E-11  1.69470728731106E-01
 cg2d: Sum(rhs),rhsMax =  -3.88938881101808E-11  1.66097116161823E-01
 cg2d: Sum(rhs),rhsMax =  -3.96338517560935E-11  1.62668093388512E-01
 cg2d: Sum(rhs),rhsMax =  -4.04595246195072E-11  1.59184953207112E-01
 cg2d: Sum(rhs),rhsMax =  -4.12460066101517E-11  1.55971902166489E-01
 cg2d: Sum(rhs),rhsMax =  -4.11295442148685E-11  1.56344141643861E-01
 cg2d: Sum(rhs),rhsMax =  -4.10054212807154E-11  1.56744111238178E-01
 cg2d: Sum(rhs),rhsMax =  -4.08490463676969E-11  1.57174846105217E-01
 cg2d: Sum(rhs),rhsMax =  -4.06991662593725E-11  1.57636916390842E-01
 cg2d: Sum(rhs),rhsMax =  -4.05112055013035E-11  1.58153491827054E-01
 cg2d: Sum(rhs),rhsMax =  -4.03741484689135E-11  1.58671162997860E-01
 cg2d: Sum(rhs),rhsMax =  -4.02429201074028E-11  1.59088338737139E-01
 cg2d: Sum(rhs),rhsMax =  -4.01299549146472E-11  1.59368748853162E-01
 cg2d: Sum(rhs),rhsMax =  -4.00639521558332E-11  1.59490249143596E-01
 cg2d: Sum(rhs),rhsMax =  -4.00506294795377E-11  1.59465123993761E-01
 cg2d: Sum(rhs),rhsMax =  -4.00354749352516E-11  1.59338445670393E-01
 cg2d: Sum(rhs),rhsMax =  -4.00424138291555E-11  1.59143048913186E-01
 cg2d: Sum(rhs),rhsMax =  -4.00501298791767E-11  1.58905103955664E-01
 cg2d: Sum(rhs),rhsMax =  -4.00902921970925E-11  1.58627065570907E-01
 cg2d: Sum(rhs),rhsMax =  -4.01317035159110E-11  1.58321819064374E-01
 cg2d: Sum(rhs),rhsMax =  -4.03229671874783E-11  1.57977754880288E-01
 cg2d: Sum(rhs),rhsMax =  -4.04186129010498E-11  1.57548650088529E-01
 cg2d: Sum(rhs),rhsMax =  -4.05470657049989E-11  1.57029948893131E-01
 cg2d: Sum(rhs),rhsMax =  -4.06878142289457E-11  1.56419709355644E-01
 cg2d: Sum(rhs),rhsMax =  -3.69000385802565E-11  1.72522980119122E-01
 cg2d: Sum(rhs),rhsMax =  -3.20609788717618E-11  1.98634960434585E-01
 cg2d: Sum(rhs),rhsMax =  -2.94507751519291E-11  2.16432650231686E-01
 cg2d: Sum(rhs),rhsMax =  -2.72393843592234E-11  2.34072170209559E-01
 cg2d: Sum(rhs),rhsMax =  -2.35066705683851E-11  2.71492703052999E-01
 cg2d: Sum(rhs),rhsMax =  -2.02565915430331E-11  3.14568024695472E-01
 cg2d: Sum(rhs),rhsMax =  -1.39936534582219E-11  4.55564756109489E-01
 cg2d: Sum(rhs),rhsMax =  -8.98644179903041E-12  7.10209741973126E-01
 cg2d: Sum(rhs),rhsMax =  -4.91654113254913E-12  1.30142550106481E+00
 cg2d: Sum(rhs),rhsMax =  -2.77830102674015E-12  2.30820200846869E+00
 cg2d: Sum(rhs),rhsMax =  -1.01889156833845E-12  6.37798803346442E+00
 cg2d: Sum(rhs),rhsMax =  -2.85408415651167E-13  2.32836367152966E+01
 cg2d: Sum(rhs),rhsMax =  -2.04485950741629E-14  3.81121622422610E+02
 cg2d: Sum(rhs),rhsMax =  -1.26842612104092E-15  2.73803325394234E+04
 cg2d: Sum(rhs),rhsMax =   9.69809388165074E-16  7.15175413743699E+14
 cg2d: Sum(rhs),rhsMax =   7.17791857182272E-16  1.58730915631915E+62
 cg2d: Sum(rhs),rhsMax =   1.00712664985777E-15  6.88416289353174+290
 cg2d: Sum(rhs),rhsMax =                    NaN  0.00000000000000E+00
 cg2d: Sum(rhs),rhsMax =                    NaN  0.00000000000000E+00
 cg2d: Sum(rhs),rhsMax =                    NaN  0.00000000000000E+00
 cg2d: Sum(rhs),rhsMax =                    NaN  0.00000000000000E+00
 cg2d: Sum(rhs),rhsMax =                    NaN  0.00000000000000E+00
 cg2d: Sum(rhs),rhsMax =                    NaN  0.00000000000000E+00
 cg2d: Sum(rhs),rhsMax =                    NaN  0.00000000000000E+00
 cg2d: Sum(rhs),rhsMax =                    NaN  0.00000000000000E+00
 cg2d: Sum(rhs),rhsMax =                    NaN  0.00000000000000E+00
 cg2d: Sum(rhs),rhsMax =                    NaN  0.00000000000000E+00
 cg2d: Sum(rhs),rhsMax =                    NaN  0.00000000000000E+00
 cg2d: Sum(rhs),rhsMax =                    NaN  0.00000000000000E+00
 cg2d: Sum(rhs),rhsMax =                    NaN  0.00000000000000E+00
 cg2d: Sum(rhs),rhsMax =                    NaN  0.00000000000000E+00
 cg2d: Sum(rhs),rhsMax =                    NaN  0.00000000000000E+00
 cg2d: Sum(rhs),rhsMax =                    NaN  0.00000000000000E+00
 cg2d: Sum(rhs),rhsMax =                    NaN  0.00000000000000E+00
 cg2d: Sum(rhs),rhsMax =                    NaN  0.00000000000000E+00
 cg2d: Sum(rhs),rhsMax =                    NaN  0.00000000000000E+00
 cg2d: Sum(rhs),rhsMax =                    NaN  0.00000000000000E+00
 cg2d: Sum(rhs),rhsMax =                    NaN  0.00000000000000E+00
 cg2d: Sum(rhs),rhsMax =                    NaN  0.00000000000000E+00
 cg2d: Sum(rhs),rhsMax =                    NaN  0.00000000000000E+00
 cg2d: Sum(rhs),rhsMax =                    NaN  0.00000000000000E+00
 cg2d: Sum(rhs),rhsMax =                    NaN  0.00000000000000E+00
 cg2d: Sum(rhs),rhsMax =                    NaN  0.00000000000000E+00
 cg2d: Sum(rhs),rhsMax =                    NaN  0.00000000000000E+00
 cg2d: Sum(rhs),rhsMax =                    NaN  0.00000000000000E+00
 cg2d: Sum(rhs),rhsMax =                    NaN  0.00000000000000E+00
 cg2d: Sum(rhs),rhsMax =                    NaN  0.00000000000000E+00
 cg2d: Sum(rhs),rhsMax =                    NaN  0.00000000000000E+00
 cg2d: Sum(rhs),rhsMax =                    NaN  0.00000000000000E+00
 cg2d: Sum(rhs),rhsMax =                    NaN  0.00000000000000E+00
 cg2d: Sum(rhs),rhsMax =                    NaN  0.00000000000000E+00
 cg2d: Sum(rhs),rhsMax =                    NaN  0.00000000000000E+00
 cg2d: Sum(rhs),rhsMax =                    NaN  0.00000000000000E+00
 cg2d: Sum(rhs),rhsMax =                    NaN  0.00000000000000E+00
 cg2d: Sum(rhs),rhsMax =                    NaN  0.00000000000000E+00
 cg2d: Sum(rhs),rhsMax =                    NaN  0.00000000000000E+00
 cg2d: Sum(rhs),rhsMax =                    NaN  0.00000000000000E+00
 cg2d: Sum(rhs),rhsMax =                    NaN  0.00000000000000E+00
 cg2d: Sum(rhs),rhsMax =                    NaN  0.00000000000000E+00
 cg2d: Sum(rhs),rhsMax =                    NaN  0.00000000000000E+00
 cg2d: Sum(rhs),rhsMax =                    NaN  0.00000000000000E+00
 cg2d: Sum(rhs),rhsMax =                    NaN  0.00000000000000E+00
 cg2d: Sum(rhs),rhsMax =                    NaN  0.00000000000000E+00
 cg2d: Sum(rhs),rhsMax =                    NaN  0.00000000000000E+00
 cg2d: Sum(rhs),rhsMax =                    NaN  0.00000000000000E+00
 cg2d: Sum(rhs),rhsMax =                    NaN  0.00000000000000E+00
 cg2d: Sum(rhs),rhsMax =                    NaN  0.00000000000000E+00
 cg2d: Sum(rhs),rhsMax =                    NaN  0.00000000000000E+00
 cg2d: Sum(rhs),rhsMax =                    NaN  0.00000000000000E+00
 cg2d: Sum(rhs),rhsMax =                    NaN  0.00000000000000E+00
 cg2d: Sum(rhs),rhsMax =                    NaN  0.00000000000000E+00
 cg2d: Sum(rhs),rhsMax =                    NaN  0.00000000000000E+00
 cg2d: Sum(rhs),rhsMax =                    NaN  0.00000000000000E+00
 cg2d: Sum(rhs),rhsMax =                    NaN  0.00000000000000E+00
 cg2d: Sum(rhs),rhsMax =                    NaN  0.00000000000000E+00
 cg2d: Sum(rhs),rhsMax =                    NaN  0.00000000000000E+00
 cg2d: Sum(rhs),rhsMax =                    NaN  0.00000000000000E+00
 cg2d: Sum(rhs),rhsMax =                    NaN  0.00000000000000E+00
 cg2d: Sum(rhs),rhsMax =                    NaN  0.00000000000000E+00
 cg2d: Sum(rhs),rhsMax =                    NaN  0.00000000000000E+00
 cg2d: Sum(rhs),rhsMax =                    NaN  0.00000000000000E+00
 cg2d: Sum(rhs),rhsMax =                    NaN  0.00000000000000E+00
 cg2d: Sum(rhs),rhsMax =                    NaN  0.00000000000000E+00
 cg2d: Sum(rhs),rhsMax =                    NaN  0.00000000000000E+00
 cg2d: Sum(rhs),rhsMax =                    NaN  0.00000000000000E+00
 cg2d: Sum(rhs),rhsMax =                    NaN  0.00000000000000E+00
 cg2d: Sum(rhs),rhsMax =                    NaN  0.00000000000000E+00
 cg2d: Sum(rhs),rhsMax =                    NaN  0.00000000000000E+00
 cg2d: Sum(rhs),rhsMax =                    NaN  0.00000000000000E+00
 cg2d: Sum(rhs),rhsMax =                    NaN  0.00000000000000E+00
 cg2d: Sum(rhs),rhsMax =                    NaN  0.00000000000000E+00
 cg2d: Sum(rhs),rhsMax =                    NaN  0.00000000000000E+00
 cg2d: Sum(rhs),rhsMax =                    NaN  0.00000000000000E+00
 cg2d: Sum(rhs),rhsMax =                    NaN  0.00000000000000E+00
 cg2d: Sum(rhs),rhsMax =                    NaN  0.00000000000000E+00
 cg2d: Sum(rhs),rhsMax =                    NaN  0.00000000000000E+00
 cg2d: Sum(rhs),rhsMax =                    NaN  0.00000000000000E+00
 cg2d: Sum(rhs),rhsMax =                    NaN  0.00000000000000E+00
 cg2d: Sum(rhs),rhsMax =                    NaN  0.00000000000000E+00
 cg2d: Sum(rhs),rhsMax =                    NaN  0.00000000000000E+00
 cg2d: Sum(rhs),rhsMax =                    NaN  0.00000000000000E+00
 cg2d: Sum(rhs),rhsMax =                    NaN  0.00000000000000E+00
 cg2d: Sum(rhs),rhsMax =                    NaN  0.00000000000000E+00
 cg2d: Sum(rhs),rhsMax =                    NaN  0.00000000000000E+00
 cg2d: Sum(rhs),rhsMax =                    NaN  0.00000000000000E+00
 cg2d: Sum(rhs),rhsMax =                    NaN  0.00000000000000E+00
 cg2d: Sum(rhs),rhsMax =                    NaN  0.00000000000000E+00
 cg2d: Sum(rhs),rhsMax =                    NaN  0.00000000000000E+00
 cg2d: Sum(rhs),rhsMax =                    NaN  0.00000000000000E+00
 cg2d: Sum(rhs),rhsMax =                    NaN  0.00000000000000E+00
 cg2d: Sum(rhs),rhsMax =                    NaN  0.00000000000000E+00
 cg2d: Sum(rhs),rhsMax =                    NaN  0.00000000000000E+00
 cg2d: Sum(rhs),rhsMax =                    NaN  0.00000000000000E+00
 cg2d: Sum(rhs),rhsMax =                    NaN  0.00000000000000E+00
 cg2d: Sum(rhs),rhsMax =                    NaN  0.00000000000000E+00
 cg2d: Sum(rhs),rhsMax =                    NaN  0.00000000000000E+00
 cg2d: Sum(rhs),rhsMax =                    NaN  0.00000000000000E+00
 cg2d: Sum(rhs),rhsMax =                    NaN  0.00000000000000E+00
 cg2d: Sum(rhs),rhsMax =                    NaN  0.00000000000000E+00
 cg2d: Sum(rhs),rhsMax =                    NaN  0.00000000000000E+00
 cg2d: Sum(rhs),rhsMax =                    NaN  0.00000000000000E+00
 cg2d: Sum(rhs),rhsMax =                    NaN  0.00000000000000E+00
 cg2d: Sum(rhs),rhsMax =                    NaN  0.00000000000000E+00
 cg2d: Sum(rhs),rhsMax =                    NaN  0.00000000000000E+00
 cg2d: Sum(rhs),rhsMax =                    NaN  0.00000000000000E+00
 cg2d: Sum(rhs),rhsMax =                    NaN  0.00000000000000E+00
 cg2d: Sum(rhs),rhsMax =                    NaN  0.00000000000000E+00
 cg2d: Sum(rhs),rhsMax =                    NaN  0.00000000000000E+00
 cg2d: Sum(rhs),rhsMax =                    NaN  0.00000000000000E+00
 cg2d: Sum(rhs),rhsMax =                    NaN  0.00000000000000E+00
 cg2d: Sum(rhs),rhsMax =                    NaN  0.00000000000000E+00
 cg2d: Sum(rhs),rhsMax =                    NaN  0.00000000000000E+00
 cg2d: Sum(rhs),rhsMax =                    NaN  0.00000000000000E+00
 cg2d: Sum(rhs),rhsMax =                    NaN  0.00000000000000E+00
 cg2d: Sum(rhs),rhsMax =                    NaN  0.00000000000000E+00
 cg2d: Sum(rhs),rhsMax =                    NaN  0.00000000000000E+00
 cg2d: Sum(rhs),rhsMax =                    NaN  0.00000000000000E+00
 cg2d: Sum(rhs),rhsMax =                    NaN  0.00000000000000E+00
 cg2d: Sum(rhs),rhsMax =                    NaN  0.00000000000000E+00
 cg2d: Sum(rhs),rhsMax =                    NaN  0.00000000000000E+00
 cg2d: Sum(rhs),rhsMax =                    NaN  0.00000000000000E+00
 cg2d: Sum(rhs),rhsMax =                    NaN  0.00000000000000E+00
 cg2d: Sum(rhs),rhsMax =                    NaN  0.00000000000000E+00
 cg2d: Sum(rhs),rhsMax =                    NaN  0.00000000000000E+00
 cg2d: Sum(rhs),rhsMax =                    NaN  0.00000000000000E+00
 cg2d: Sum(rhs),rhsMax =                    NaN  0.00000000000000E+00
 cg2d: Sum(rhs),rhsMax =                    NaN  0.00000000000000E+00
 cg2d: Sum(rhs),rhsMax =                    NaN  0.00000000000000E+00
 cg2d: Sum(rhs),rhsMax =                    NaN  0.00000000000000E+00
 cg2d: Sum(rhs),rhsMax =                    NaN  0.00000000000000E+00
 cg2d: Sum(rhs),rhsMax =                    NaN  0.00000000000000E+00
 cg2d: Sum(rhs),rhsMax =                    NaN  0.00000000000000E+00
 cg2d: Sum(rhs),rhsMax =                    NaN  0.00000000000000E+00
 cg2d: Sum(rhs),rhsMax =                    NaN  0.00000000000000E+00
 cg2d: Sum(rhs),rhsMax =                    NaN  0.00000000000000E+00
 cg2d: Sum(rhs),rhsMax =                    NaN  0.00000000000000E+00
 cg2d: Sum(rhs),rhsMax =                    NaN  0.00000000000000E+00
 cg2d: Sum(rhs),rhsMax =                    NaN  0.00000000000000E+00
 cg2d: Sum(rhs),rhsMax =                    NaN  0.00000000000000E+00
 cg2d: Sum(rhs),rhsMax =                    NaN  0.00000000000000E+00
 cg2d: Sum(rhs),rhsMax =                    NaN  0.00000000000000E+00
 cg2d: Sum(rhs),rhsMax =                    NaN  0.00000000000000E+00
 cg2d: Sum(rhs),rhsMax =                    NaN  0.00000000000000E+00
 cg2d: Sum(rhs),rhsMax =                    NaN  0.00000000000000E+00
 cg2d: Sum(rhs),rhsMax =                    NaN  0.00000000000000E+00
 cg2d: Sum(rhs),rhsMax =                    NaN  0.00000000000000E+00
 cg2d: Sum(rhs),rhsMax =                    NaN  0.00000000000000E+00
 cg2d: Sum(rhs),rhsMax =                    NaN  0.00000000000000E+00
 cg2d: Sum(rhs),rhsMax =                    NaN  0.00000000000000E+00
 cg2d: Sum(rhs),rhsMax =                    NaN  0.00000000000000E+00
 cg2d: Sum(rhs),rhsMax =                    NaN  0.00000000000000E+00
 cg2d: Sum(rhs),rhsMax =                    NaN  0.00000000000000E+00
 cg2d: Sum(rhs),rhsMax =                    NaN  0.00000000000000E+00
 cg2d: Sum(rhs),rhsMax =                    NaN  0.00000000000000E+00
 cg2d: Sum(rhs),rhsMax =                    NaN  0.00000000000000E+00
 cg2d: Sum(rhs),rhsMax =                    NaN  0.00000000000000E+00
 cg2d: Sum(rhs),rhsMax =                    NaN  0.00000000000000E+00
 cg2d: Sum(rhs),rhsMax =                    NaN  0.00000000000000E+00
 cg2d: Sum(rhs),rhsMax =                    NaN  0.00000000000000E+00
 cg2d: Sum(rhs),rhsMax =                    NaN  0.00000000000000E+00
 cg2d: Sum(rhs),rhsMax =                    NaN  0.00000000000000E+00
 cg2d: Sum(rhs),rhsMax =                    NaN  0.00000000000000E+00
 cg2d: Sum(rhs),rhsMax =                    NaN  0.00000000000000E+00
 cg2d: Sum(rhs),rhsMax =                    NaN  0.00000000000000E+00
 cg2d: Sum(rhs),rhsMax =                    NaN  0.00000000000000E+00
 cg2d: Sum(rhs),rhsMax =                    NaN  0.00000000000000E+00
 cg2d: Sum(rhs),rhsMax =                    NaN  0.00000000000000E+00
 cg2d: Sum(rhs),rhsMax =                    NaN  0.00000000000000E+00
 cg2d: Sum(rhs),rhsMax =                    NaN  0.00000000000000E+00
 cg2d: Sum(rhs),rhsMax =                    NaN  0.00000000000000E+00
 cg2d: Sum(rhs),rhsMax =                    NaN  0.00000000000000E+00
 cg2d: Sum(rhs),rhsMax =                    NaN  0.00000000000000E+00
 cg2d: Sum(rhs),rhsMax =                    NaN  0.00000000000000E+00
 cg2d: Sum(rhs),rhsMax =                    NaN  0.00000000000000E+00
 cg2d: Sum(rhs),rhsMax =                    NaN  0.00000000000000E+00
 cg2d: Sum(rhs),rhsMax =                    NaN  0.00000000000000E+00
 cg2d: Sum(rhs),rhsMax =                    NaN  0.00000000000000E+00
 cg2d: Sum(rhs),rhsMax =                    NaN  0.00000000000000E+00
 cg2d: Sum(rhs),rhsMax =                    NaN  0.00000000000000E+00
 cg2d: Sum(rhs),rhsMax =                    NaN  0.00000000000000E+00
 cg2d: Sum(rhs),rhsMax =                    NaN  0.00000000000000E+00
 cg2d: Sum(rhs),rhsMax =                    NaN  0.00000000000000E+00
 cg2d: Sum(rhs),rhsMax =                    NaN  0.00000000000000E+00
 cg2d: Sum(rhs),rhsMax =                    NaN  0.00000000000000E+00
 cg2d: Sum(rhs),rhsMax =                    NaN  0.00000000000000E+00
 cg2d: Sum(rhs),rhsMax =                    NaN  0.00000000000000E+00
 cg2d: Sum(rhs),rhsMax =                    NaN  0.00000000000000E+00
 cg2d: Sum(rhs),rhsMax =                    NaN  0.00000000000000E+00
 cg2d: Sum(rhs),rhsMax =                    NaN  0.00000000000000E+00
 cg2d: Sum(rhs),rhsMax =                    NaN  0.00000000000000E+00
 cg2d: Sum(rhs),rhsMax =                    NaN  0.00000000000000E+00
 cg2d: Sum(rhs),rhsMax =                    NaN  0.00000000000000E+00
 cg2d: Sum(rhs),rhsMax =                    NaN  0.00000000000000E+00
 cg2d: Sum(rhs),rhsMax =                    NaN  0.00000000000000E+00
 cg2d: Sum(rhs),rhsMax =                    NaN  0.00000000000000E+00
 cg2d: Sum(rhs),rhsMax =                    NaN  0.00000000000000E+00
 cg2d: Sum(rhs),rhsMax =                    NaN  0.00000000000000E+00
 cg2d: Sum(rhs),rhsMax =                    NaN  0.00000000000000E+00
 cg2d: Sum(rhs),rhsMax =                    NaN  0.00000000000000E+00
 cg2d: Sum(rhs),rhsMax =                    NaN  0.00000000000000E+00
 cg2d: Sum(rhs),rhsMax =                    NaN  0.00000000000000E+00
 cg2d: Sum(rhs),rhsMax =                    NaN  0.00000000000000E+00
 cg2d: Sum(rhs),rhsMax =                    NaN  0.00000000000000E+00
 cg2d: Sum(rhs),rhsMax =                    NaN  0.00000000000000E+00
 cg2d: Sum(rhs),rhsMax =                    NaN  0.00000000000000E+00
 cg2d: Sum(rhs),rhsMax =                    NaN  0.00000000000000E+00
 cg2d: Sum(rhs),rhsMax =                    NaN  0.00000000000000E+00
 cg2d: Sum(rhs),rhsMax =                    NaN  0.00000000000000E+00
 cg2d: Sum(rhs),rhsMax =                    NaN  0.00000000000000E+00
 cg2d: Sum(rhs),rhsMax =                    NaN  0.00000000000000E+00
 cg2d: Sum(rhs),rhsMax =                    NaN  0.00000000000000E+00
 cg2d: Sum(rhs),rhsMax =                    NaN  0.00000000000000E+00
 cg2d: Sum(rhs),rhsMax =                    NaN  0.00000000000000E+00
 cg2d: Sum(rhs),rhsMax =                    NaN  0.00000000000000E+00
 cg2d: Sum(rhs),rhsMax =                    NaN  0.00000000000000E+00
 cg2d: Sum(rhs),rhsMax =                    NaN  0.00000000000000E+00
 cg2d: Sum(rhs),rhsMax =                    NaN  0.00000000000000E+00
 cg2d: Sum(rhs),rhsMax =                    NaN  0.00000000000000E+00
 cg2d: Sum(rhs),rhsMax =                    NaN  0.00000000000000E+00
 cg2d: Sum(rhs),rhsMax =                    NaN  0.00000000000000E+00
 cg2d: Sum(rhs),rhsMax =                    NaN  0.00000000000000E+00
 cg2d: Sum(rhs),rhsMax =                    NaN  0.00000000000000E+00
 cg2d: Sum(rhs),rhsMax =                    NaN  0.00000000000000E+00
 cg2d: Sum(rhs),rhsMax =                    NaN  0.00000000000000E+00
 cg2d: Sum(rhs),rhsMax =                    NaN  0.00000000000000E+00
 cg2d: Sum(rhs),rhsMax =                    NaN  0.00000000000000E+00
 cg2d: Sum(rhs),rhsMax =                    NaN  0.00000000000000E+00
 cg2d: Sum(rhs),rhsMax =                    NaN  0.00000000000000E+00
 cg2d: Sum(rhs),rhsMax =                    NaN  0.00000000000000E+00
 cg2d: Sum(rhs),rhsMax =                    NaN  0.00000000000000E+00
 cg2d: Sum(rhs),rhsMax =                    NaN  0.00000000000000E+00
 cg2d: Sum(rhs),rhsMax =                    NaN  0.00000000000000E+00
 cg2d: Sum(rhs),rhsMax =                    NaN  0.00000000000000E+00
 cg2d: Sum(rhs),rhsMax =                    NaN  0.00000000000000E+00
 cg2d: Sum(rhs),rhsMax =                    NaN  0.00000000000000E+00
 cg2d: Sum(rhs),rhsMax =                    NaN  0.00000000000000E+00
 cg2d: Sum(rhs),rhsMax =                    NaN  0.00000000000000E+00
 cg2d: Sum(rhs),rhsMax =                    NaN  0.00000000000000E+00
 cg2d: Sum(rhs),rhsMax =                    NaN  0.00000000000000E+00
 cg2d: Sum(rhs),rhsMax =                    NaN  0.00000000000000E+00
 cg2d: Sum(rhs),rhsMax =                    NaN  0.00000000000000E+00
 cg2d: Sum(rhs),rhsMax =                    NaN  0.00000000000000E+00
 cg2d: Sum(rhs),rhsMax =                    NaN  0.00000000000000E+00
 cg2d: Sum(rhs),rhsMax =                    NaN  0.00000000000000E+00
 cg2d: Sum(rhs),rhsMax =                    NaN  0.00000000000000E+00
 cg2d: Sum(rhs),rhsMax =                    NaN  0.00000000000000E+00
 cg2d: Sum(rhs),rhsMax =                    NaN  0.00000000000000E+00
 cg2d: Sum(rhs),rhsMax =                    NaN  0.00000000000000E+00
 cg2d: Sum(rhs),rhsMax =                    NaN  0.00000000000000E+00
 cg2d: Sum(rhs),rhsMax =                    NaN  0.00000000000000E+00
 cg2d: Sum(rhs),rhsMax =                    NaN  0.00000000000000E+00
 cg2d: Sum(rhs),rhsMax =                    NaN  0.00000000000000E+00
 cg2d: Sum(rhs),rhsMax =                    NaN  0.00000000000000E+00
 cg2d: Sum(rhs),rhsMax =                    NaN  0.00000000000000E+00
 cg2d: Sum(rhs),rhsMax =                    NaN  0.00000000000000E+00
 cg2d: Sum(rhs),rhsMax =                    NaN  0.00000000000000E+00
 cg2d: Sum(rhs),rhsMax =                    NaN  0.00000000000000E+00
 cg2d: Sum(rhs),rhsMax =                    NaN  0.00000000000000E+00
 cg2d: Sum(rhs),rhsMax =                    NaN  0.00000000000000E+00
 cg2d: Sum(rhs),rhsMax =                    NaN  0.00000000000000E+00
 cg2d: Sum(rhs),rhsMax =                    NaN  0.00000000000000E+00
 cg2d: Sum(rhs),rhsMax =                    NaN  0.00000000000000E+00
 cg2d: Sum(rhs),rhsMax =                    NaN  0.00000000000000E+00
 cg2d: Sum(rhs),rhsMax =                    NaN  0.00000000000000E+00
 cg2d: Sum(rhs),rhsMax =                    NaN  0.00000000000000E+00
 cg2d: Sum(rhs),rhsMax =                    NaN  0.00000000000000E+00
 cg2d: Sum(rhs),rhsMax =                    NaN  0.00000000000000E+00
 cg2d: Sum(rhs),rhsMax =                    NaN  0.00000000000000E+00
 cg2d: Sum(rhs),rhsMax =                    NaN  0.00000000000000E+00
 cg2d: Sum(rhs),rhsMax =                    NaN  0.00000000000000E+00
 cg2d: Sum(rhs),rhsMax =                    NaN  0.00000000000000E+00
 cg2d: Sum(rhs),rhsMax =                    NaN  0.00000000000000E+00
 cg2d: Sum(rhs),rhsMax =                    NaN  0.00000000000000E+00
 cg2d: Sum(rhs),rhsMax =                    NaN  0.00000000000000E+00
 cg2d: Sum(rhs),rhsMax =                    NaN  0.00000000000000E+00
 cg2d: Sum(rhs),rhsMax =                    NaN  0.00000000000000E+00
 cg2d: Sum(rhs),rhsMax =                    NaN  0.00000000000000E+00
 cg2d: Sum(rhs),rhsMax =                    NaN  0.00000000000000E+00
 cg2d: Sum(rhs),rhsMax =                    NaN  0.00000000000000E+00
 cg2d: Sum(rhs),rhsMax =                    NaN  0.00000000000000E+00
 cg2d: Sum(rhs),rhsMax =                    NaN  0.00000000000000E+00
 cg2d: Sum(rhs),rhsMax =                    NaN  0.00000000000000E+00
 cg2d: Sum(rhs),rhsMax =                    NaN  0.00000000000000E+00
 cg2d: Sum(rhs),rhsMax =                    NaN  0.00000000000000E+00
 cg2d: Sum(rhs),rhsMax =                    NaN  0.00000000000000E+00
 cg2d: Sum(rhs),rhsMax =                    NaN  0.00000000000000E+00
 cg2d: Sum(rhs),rhsMax =                    NaN  0.00000000000000E+00
 cg2d: Sum(rhs),rhsMax =                    NaN  0.00000000000000E+00
 cg2d: Sum(rhs),rhsMax =                    NaN  0.00000000000000E+00
 cg2d: Sum(rhs),rhsMax =                    NaN  0.00000000000000E+00
 cg2d: Sum(rhs),rhsMax =                    NaN  0.00000000000000E+00
 cg2d: Sum(rhs),rhsMax =                    NaN  0.00000000000000E+00
 cg2d: Sum(rhs),rhsMax =                    NaN  0.00000000000000E+00
 cg2d: Sum(rhs),rhsMax =                    NaN  0.00000000000000E+00
(PID.TID 0000.0001)      cg2d_init_res =                    NaN
(PID.TID 0000.0001)      cg2d_iters(min,last) =      -1    1000
(PID.TID 0000.0001)      cg2d_last_res =                    NaN
(PID.TID 0000.0001) // =======================================================
(PID.TID 0000.0001) // Begin MONITOR dynamic field statistics
(PID.TID 0000.0001) // =======================================================
(PID.TID 0000.0001) %MON time_tsnumber                =                  5280
(PID.TID 0000.0001) %MON time_secondsf                =   7.9200000000000E+04
(PID.TID 0000.0001) %MON dynstat_eta_max              =                   NaN
(PID.TID 0000.0001) %MON dynstat_eta_min              =                   NaN
(PID.TID 0000.0001) %MON dynstat_eta_mean             =                   NaN
(PID.TID 0000.0001) %MON dynstat_eta_sd               =                   NaN
(PID.TID 0000.0001) %MON dynstat_eta_del2             =                   NaN
(PID.TID 0000.0001) %MON dynstat_uvel_max             =   6.6809804669674E-01
(PID.TID 0000.0001) %MON dynstat_uvel_min             =   6.6809804669674E-01
(PID.TID 0000.0001) %MON dynstat_uvel_mean            =                   NaN
(PID.TID 0000.0001) %MON dynstat_uvel_sd              =                   NaN
(PID.TID 0000.0001) %MON dynstat_uvel_del2            =                   NaN
(PID.TID 0000.0001) %MON dynstat_vvel_max             =                   NaN
(PID.TID 0000.0001) %MON dynstat_vvel_min             =                   NaN
(PID.TID 0000.0001) %MON dynstat_vvel_mean            =                   NaN
(PID.TID 0000.0001) %MON dynstat_vvel_sd              =                   NaN
(PID.TID 0000.0001) %MON dynstat_vvel_del2            =                   NaN
(PID.TID 0000.0001) %MON dynstat_wvel_max             =                   NaN
(PID.TID 0000.0001) %MON dynstat_wvel_min             =                   NaN
(PID.TID 0000.0001) %MON dynstat_wvel_mean            =                   NaN
(PID.TID 0000.0001) %MON dynstat_wvel_sd              =                   NaN
(PID.TID 0000.0001) %MON dynstat_wvel_del2            =                   NaN
(PID.TID 0000.0001) %MON dynstat_theta_max            =                   NaN
(PID.TID 0000.0001) %MON dynstat_theta_min            =                   NaN
(PID.TID 0000.0001) %MON dynstat_theta_mean           =                   NaN
(PID.TID 0000.0001) %MON dynstat_theta_sd             =                   NaN
(PID.TID 0000.0001) %MON dynstat_theta_del2           =                   NaN
(PID.TID 0000.0001) %MON dynstat_salt_max             =   3.5000000000000E+01
(PID.TID 0000.0001) %MON dynstat_salt_min             =   3.5000000000000E+01
(PID.TID 0000.0001) %MON dynstat_salt_mean            =   3.5000000000000E+01
(PID.TID 0000.0001) %MON dynstat_salt_sd              =   2.1316282072803E-14
(PID.TID 0000.0001) %MON dynstat_salt_del2            =   0.0000000000000E+00
(PID.TID 0000.0001) %MON dynstat_sst_max              =                   NaN
(PID.TID 0000.0001) %MON dynstat_sst_min              =                   NaN
(PID.TID 0000.0001) %MON dynstat_sst_mean             =                   NaN
(PID.TID 0000.0001) %MON dynstat_sst_sd               =                   NaN
(PID.TID 0000.0001) %MON dynstat_sst_del2             =                   NaN
(PID.TID 0000.0001) %MON dynstat_sss_max              =   3.5000000000000E+01
(PID.TID 0000.0001) %MON dynstat_sss_min              =   3.5000000000000E+01
(PID.TID 0000.0001) %MON dynstat_sss_mean             =   3.5000000000000E+01
(PID.TID 0000.0001) %MON dynstat_sss_sd               =   7.8159700933611E-14
(PID.TID 0000.0001) %MON dynstat_sss_del2             =   0.0000000000000E+00
(PID.TID 0000.0001) %MON forcing_qnet_max             =   0.0000000000000E+00
(PID.TID 0000.0001) %MON forcing_qnet_min             =   0.0000000000000E+00
(PID.TID 0000.0001) %MON forcing_qnet_mean            =   0.0000000000000E+00
(PID.TID 0000.0001) %MON forcing_qnet_sd              =   0.0000000000000E+00
(PID.TID 0000.0001) %MON forcing_qnet_del2            =   0.0000000000000E+00
(PID.TID 0000.0001) %MON forcing_qsw_max              =   0.0000000000000E+00
(PID.TID 0000.0001) %MON forcing_qsw_min              =   0.0000000000000E+00
(PID.TID 0000.0001) %MON forcing_qsw_mean             =   0.0000000000000E+00
(PID.TID 0000.0001) %MON forcing_qsw_sd               =   0.0000000000000E+00
(PID.TID 0000.0001) %MON forcing_qsw_del2             =   0.0000000000000E+00
(PID.TID 0000.0001) %MON forcing_empmr_max            =   0.0000000000000E+00
(PID.TID 0000.0001) %MON forcing_empmr_min            =   0.0000000000000E+00
(PID.TID 0000.0001) %MON forcing_empmr_mean           =   0.0000000000000E+00
(PID.TID 0000.0001) %MON forcing_empmr_sd             =   0.0000000000000E+00
(PID.TID 0000.0001) %MON forcing_empmr_del2           =   0.0000000000000E+00
(PID.TID 0000.0001) %MON forcing_fu_max               =   0.0000000000000E+00
(PID.TID 0000.0001) %MON forcing_fu_min               =   0.0000000000000E+00
(PID.TID 0000.0001) %MON forcing_fu_mean              =   0.0000000000000E+00
(PID.TID 0000.0001) %MON forcing_fu_sd                =   0.0000000000000E+00
(PID.TID 0000.0001) %MON forcing_fu_del2              =   0.0000000000000E+00
(PID.TID 0000.0001) %MON forcing_fv_max               =   0.0000000000000E+00
(PID.TID 0000.0001) %MON forcing_fv_min               =   0.0000000000000E+00
(PID.TID 0000.0001) %MON forcing_fv_mean              =   0.0000000000000E+00
(PID.TID 0000.0001) %MON forcing_fv_sd                =   0.0000000000000E+00
(PID.TID 0000.0001) %MON forcing_fv_del2              =   0.0000000000000E+00
(PID.TID 0000.0001) %MON advcfl_uvel_max              =   9.5851945436867E-03
(PID.TID 0000.0001) %MON advcfl_vvel_max              =   0.0000000000000E+00
(PID.TID 0000.0001) %MON advcfl_wvel_max              =   0.0000000000000E+00
(PID.TID 0000.0001) %MON advcfl_W_hf_max              =   0.0000000000000E+00
(PID.TID 0000.0001) %MON pe_b_mean                    =                   NaN
(PID.TID 0000.0001) %MON ke_max                       =   0.0000000000000E+00
(PID.TID 0000.0001) %MON ke_mean                      =                   NaN
(PID.TID 0000.0001) %MON ke_vol                       =   9.5889217545975E+10
(PID.TID 0000.0001) %MON vort_r_min                   =   0.0000000000000E+00
(PID.TID 0000.0001) %MON vort_r_max                   =   0.0000000000000E+00
(PID.TID 0000.0001) %MON vort_a_mean                  =                   NaN
(PID.TID 0000.0001) %MON vort_a_sd                    =                   NaN
(PID.TID 0000.0001) %MON vort_p_mean                  =                   NaN
(PID.TID 0000.0001) %MON vort_p_sd                    =   0.0000000000000E+00
(PID.TID 0000.0001) %MON surfExpan_theta_mean         =                   NaN
(PID.TID 0000.0001) %MON surfExpan_salt_mean          =                   NaN
(PID.TID 0000.0001) // =======================================================
(PID.TID 0000.0001) // End MONITOR dynamic field statistics
(PID.TID 0000.0001) // =======================================================
(PID.TID 0000.0001) // =======================================================
(PID.TID 0000.0001) // Begin OBCS MONITOR field statistics
(PID.TID 0000.0001) // =======================================================
(PID.TID 0000.0001) %MON obc_E_uVel_max               =   6.6809804669674E-01
(PID.TID 0000.0001) %MON obc_E_uVel_min               =   6.6809804669674E-01
(PID.TID 0000.0001) %MON obc_E_uVel_mean              =   6.6809804669674E-01
(PID.TID 0000.0001) %MON obc_E_uVel_sd                =   1.6660004686563E-08
(PID.TID 0000.0001) %MON obc_E_uVel_Int               =   6.6809804669674E+05
(PID.TID 0000.0001) %MON obc_W_uVel_max               =   6.6809804669674E-01
(PID.TID 0000.0001) %MON obc_W_uVel_min               =   6.6809804669674E-01
(PID.TID 0000.0001) %MON obc_W_uVel_mean              =   6.6809804669674E-01
(PID.TID 0000.0001) %MON obc_W_uVel_sd                =   1.6660004686563E-08
(PID.TID 0000.0001) %MON obc_W_uVel_Int               =   6.6809804669674E+05
(PID.TID 0000.0001) // =======================================================
(PID.TID 0000.0001) // End OBCS MONITOR field statistics
(PID.TID 0000.0001) // =======================================================
 cg2d: Sum(rhs),rhsMax =                    NaN  0.00000000000000E+00
 cg2d: Sum(rhs),rhsMax =                    NaN  0.00000000000000E+00
 cg2d: Sum(rhs),rhsMax =                    NaN  0.00000000000000E+00
 cg2d: Sum(rhs),rhsMax =                    NaN  0.00000000000000E+00
 cg2d: Sum(rhs),rhsMax =                    NaN  0.00000000000000E+00
 cg2d: Sum(rhs),rhsMax =                    NaN  0.00000000000000E+00
 cg2d: Sum(rhs),rhsMax =                    NaN  0.00000000000000E+00
 cg2d: Sum(rhs),rhsMax =                    NaN  0.00000000000000E+00
 cg2d: Sum(rhs),rhsMax =                    NaN  0.00000000000000E+00
 cg2d: Sum(rhs),rhsMax =                    NaN  0.00000000000000E+00
 cg2d: Sum(rhs),rhsMax =                    NaN  0.00000000000000E+00
 cg2d: Sum(rhs),rhsMax =                    NaN  0.00000000000000E+00
 cg2d: Sum(rhs),rhsMax =                    NaN  0.00000000000000E+00
 cg2d: Sum(rhs),rhsMax =                    NaN  0.00000000000000E+00
 cg2d: Sum(rhs),rhsMax =                    NaN  0.00000000000000E+00
 cg2d: Sum(rhs),rhsMax =                    NaN  0.00000000000000E+00
 cg2d: Sum(rhs),rhsMax =                    NaN  0.00000000000000E+00
 cg2d: Sum(rhs),rhsMax =                    NaN  0.00000000000000E+00
 cg2d: Sum(rhs),rhsMax =                    NaN  0.00000000000000E+00
 cg2d: Sum(rhs),rhsMax =                    NaN  0.00000000000000E+00
 cg2d: Sum(rhs),rhsMax =                    NaN  0.00000000000000E+00
 cg2d: Sum(rhs),rhsMax =                    NaN  0.00000000000000E+00
 cg2d: Sum(rhs),rhsMax =                    NaN  0.00000000000000E+00
 cg2d: Sum(rhs),rhsMax =                    NaN  0.00000000000000E+00
 cg2d: Sum(rhs),rhsMax =                    NaN  0.00000000000000E+00
 cg2d: Sum(rhs),rhsMax =                    NaN  0.00000000000000E+00
 cg2d: Sum(rhs),rhsMax =                    NaN  0.00000000000000E+00
 cg2d: Sum(rhs),rhsMax =                    NaN  0.00000000000000E+00
 cg2d: Sum(rhs),rhsMax =                    NaN  0.00000000000000E+00
 cg2d: Sum(rhs),rhsMax =                    NaN  0.00000000000000E+00
 cg2d: Sum(rhs),rhsMax =                    NaN  0.00000000000000E+00
 cg2d: Sum(rhs),rhsMax =                    NaN  0.00000000000000E+00
 cg2d: Sum(rhs),rhsMax =                    NaN  0.00000000000000E+00
 cg2d: Sum(rhs),rhsMax =                    NaN  0.00000000000000E+00
 cg2d: Sum(rhs),rhsMax =                    NaN  0.00000000000000E+00
 cg2d: Sum(rhs),rhsMax =                    NaN  0.00000000000000E+00
 cg2d: Sum(rhs),rhsMax =                    NaN  0.00000000000000E+00
 cg2d: Sum(rhs),rhsMax =                    NaN  0.00000000000000E+00
 cg2d: Sum(rhs),rhsMax =                    NaN  0.00000000000000E+00
 cg2d: Sum(rhs),rhsMax =                    NaN  0.00000000000000E+00
 cg2d: Sum(rhs),rhsMax =                    NaN  0.00000000000000E+00
 cg2d: Sum(rhs),rhsMax =                    NaN  0.00000000000000E+00
 cg2d: Sum(rhs),rhsMax =                    NaN  0.00000000000000E+00
 cg2d: Sum(rhs),rhsMax =                    NaN  0.00000000000000E+00
 cg2d: Sum(rhs),rhsMax =                    NaN  0.00000000000000E+00
 cg2d: Sum(rhs),rhsMax =                    NaN  0.00000000000000E+00
 cg2d: Sum(rhs),rhsMax =                    NaN  0.00000000000000E+00
 cg2d: Sum(rhs),rhsMax =                    NaN  0.00000000000000E+00
 cg2d: Sum(rhs),rhsMax =                    NaN  0.00000000000000E+00
 cg2d: Sum(rhs),rhsMax =                    NaN  0.00000000000000E+00
 cg2d: Sum(rhs),rhsMax =                    NaN  0.00000000000000E+00
 cg2d: Sum(rhs),rhsMax =                    NaN  0.00000000000000E+00
 cg2d: Sum(rhs),rhsMax =                    NaN  0.00000000000000E+00
 cg2d: Sum(rhs),rhsMax =                    NaN  0.00000000000000E+00
 cg2d: Sum(rhs),rhsMax =                    NaN  0.00000000000000E+00
 cg2d: Sum(rhs),rhsMax =                    NaN  0.00000000000000E+00
 cg2d: Sum(rhs),rhsMax =                    NaN  0.00000000000000E+00
 cg2d: Sum(rhs),rhsMax =                    NaN  0.00000000000000E+00
 cg2d: Sum(rhs),rhsMax =                    NaN  0.00000000000000E+00
 cg2d: Sum(rhs),rhsMax =                    NaN  0.00000000000000E+00
 cg2d: Sum(rhs),rhsMax =                    NaN  0.00000000000000E+00
 cg2d: Sum(rhs),rhsMax =                    NaN  0.00000000000000E+00
 cg2d: Sum(rhs),rhsMax =                    NaN  0.00000000000000E+00
 cg2d: Sum(rhs),rhsMax =                    NaN  0.00000000000000E+00
 cg2d: Sum(rhs),rhsMax =                    NaN  0.00000000000000E+00
 cg2d: Sum(rhs),rhsMax =                    NaN  0.00000000000000E+00
 cg2d: Sum(rhs),rhsMax =                    NaN  0.00000000000000E+00
 cg2d: Sum(rhs),rhsMax =                    NaN  0.00000000000000E+00
 cg2d: Sum(rhs),rhsMax =                    NaN  0.00000000000000E+00
 cg2d: Sum(rhs),rhsMax =                    NaN  0.00000000000000E+00
 cg2d: Sum(rhs),rhsMax =                    NaN  0.00000000000000E+00
 cg2d: Sum(rhs),rhsMax =                    NaN  0.00000000000000E+00
 cg2d: Sum(rhs),rhsMax =                    NaN  0.00000000000000E+00
 cg2d: Sum(rhs),rhsMax =                    NaN  0.00000000000000E+00
 cg2d: Sum(rhs),rhsMax =                    NaN  0.00000000000000E+00
 cg2d: Sum(rhs),rhsMax =                    NaN  0.00000000000000E+00
 cg2d: Sum(rhs),rhsMax =                    NaN  0.00000000000000E+00
 cg2d: Sum(rhs),rhsMax =                    NaN  0.00000000000000E+00
 cg2d: Sum(rhs),rhsMax =                    NaN  0.00000000000000E+00
 cg2d: Sum(rhs),rhsMax =                    NaN  0.00000000000000E+00
 cg2d: Sum(rhs),rhsMax =                    NaN  0.00000000000000E+00
 cg2d: Sum(rhs),rhsMax =                    NaN  0.00000000000000E+00
 cg2d: Sum(rhs),rhsMax =                    NaN  0.00000000000000E+00
 cg2d: Sum(rhs),rhsMax =                    NaN  0.00000000000000E+00
 cg2d: Sum(rhs),rhsMax =                    NaN  0.00000000000000E+00
 cg2d: Sum(rhs),rhsMax =                    NaN  0.00000000000000E+00
 cg2d: Sum(rhs),rhsMax =                    NaN  0.00000000000000E+00
 cg2d: Sum(rhs),rhsMax =                    NaN  0.00000000000000E+00
 cg2d: Sum(rhs),rhsMax =                    NaN  0.00000000000000E+00
 cg2d: Sum(rhs),rhsMax =                    NaN  0.00000000000000E+00
 cg2d: Sum(rhs),rhsMax =                    NaN  0.00000000000000E+00
 cg2d: Sum(rhs),rhsMax =                    NaN  0.00000000000000E+00
 cg2d: Sum(rhs),rhsMax =                    NaN  0.00000000000000E+00
 cg2d: Sum(rhs),rhsMax =                    NaN  0.00000000000000E+00
 cg2d: Sum(rhs),rhsMax =                    NaN  0.00000000000000E+00
 cg2d: Sum(rhs),rhsMax =                    NaN  0.00000000000000E+00
 cg2d: Sum(rhs),rhsMax =                    NaN  0.00000000000000E+00
 cg2d: Sum(rhs),rhsMax =                    NaN  0.00000000000000E+00
 cg2d: Sum(rhs),rhsMax =                    NaN  0.00000000000000E+00
 cg2d: Sum(rhs),rhsMax =                    NaN  0.00000000000000E+00
 cg2d: Sum(rhs),rhsMax =                    NaN  0.00000000000000E+00
 cg2d: Sum(rhs),rhsMax =                    NaN  0.00000000000000E+00
 cg2d: Sum(rhs),rhsMax =                    NaN  0.00000000000000E+00
 cg2d: Sum(rhs),rhsMax =                    NaN  0.00000000000000E+00
 cg2d: Sum(rhs),rhsMax =                    NaN  0.00000000000000E+00
 cg2d: Sum(rhs),rhsMax =                    NaN  0.00000000000000E+00
 cg2d: Sum(rhs),rhsMax =                    NaN  0.00000000000000E+00
 cg2d: Sum(rhs),rhsMax =                    NaN  0.00000000000000E+00
 cg2d: Sum(rhs),rhsMax =                    NaN  0.00000000000000E+00
 cg2d: Sum(rhs),rhsMax =                    NaN  0.00000000000000E+00
 cg2d: Sum(rhs),rhsMax =                    NaN  0.00000000000000E+00
 cg2d: Sum(rhs),rhsMax =                    NaN  0.00000000000000E+00
 cg2d: Sum(rhs),rhsMax =                    NaN  0.00000000000000E+00
 cg2d: Sum(rhs),rhsMax =                    NaN  0.00000000000000E+00
 cg2d: Sum(rhs),rhsMax =                    NaN  0.00000000000000E+00
 cg2d: Sum(rhs),rhsMax =                    NaN  0.00000000000000E+00
 cg2d: Sum(rhs),rhsMax =                    NaN  0.00000000000000E+00
 cg2d: Sum(rhs),rhsMax =                    NaN  0.00000000000000E+00
 cg2d: Sum(rhs),rhsMax =                    NaN  0.00000000000000E+00
 cg2d: Sum(rhs),rhsMax =                    NaN  0.00000000000000E+00
 cg2d: Sum(rhs),rhsMax =                    NaN  0.00000000000000E+00
 cg2d: Sum(rhs),rhsMax =                    NaN  0.00000000000000E+00
 cg2d: Sum(rhs),rhsMax =                    NaN  0.00000000000000E+00
 cg2d: Sum(rhs),rhsMax =                    NaN  0.00000000000000E+00
 cg2d: Sum(rhs),rhsMax =                    NaN  0.00000000000000E+00
 cg2d: Sum(rhs),rhsMax =                    NaN  0.00000000000000E+00
 cg2d: Sum(rhs),rhsMax =                    NaN  0.00000000000000E+00
 cg2d: Sum(rhs),rhsMax =                    NaN  0.00000000000000E+00
 cg2d: Sum(rhs),rhsMax =                    NaN  0.00000000000000E+00
 cg2d: Sum(rhs),rhsMax =                    NaN  0.00000000000000E+00
 cg2d: Sum(rhs),rhsMax =                    NaN  0.00000000000000E+00
 cg2d: Sum(rhs),rhsMax =                    NaN  0.00000000000000E+00
 cg2d: Sum(rhs),rhsMax =                    NaN  0.00000000000000E+00
 cg2d: Sum(rhs),rhsMax =                    NaN  0.00000000000000E+00
 cg2d: Sum(rhs),rhsMax =                    NaN  0.00000000000000E+00
 cg2d: Sum(rhs),rhsMax =                    NaN  0.00000000000000E+00
 cg2d: Sum(rhs),rhsMax =                    NaN  0.00000000000000E+00
 cg2d: Sum(rhs),rhsMax =                    NaN  0.00000000000000E+00
 cg2d: Sum(rhs),rhsMax =                    NaN  0.00000000000000E+00
 cg2d: Sum(rhs),rhsMax =                    NaN  0.00000000000000E+00
 cg2d: Sum(rhs),rhsMax =                    NaN  0.00000000000000E+00
 cg2d: Sum(rhs),rhsMax =                    NaN  0.00000000000000E+00
 cg2d: Sum(rhs),rhsMax =                    NaN  0.00000000000000E+00
 cg2d: Sum(rhs),rhsMax =                    NaN  0.00000000000000E+00
 cg2d: Sum(rhs),rhsMax =                    NaN  0.00000000000000E+00
 cg2d: Sum(rhs),rhsMax =                    NaN  0.00000000000000E+00
 cg2d: Sum(rhs),rhsMax =                    NaN  0.00000000000000E+00
 cg2d: Sum(rhs),rhsMax =                    NaN  0.00000000000000E+00
 cg2d: Sum(rhs),rhsMax =                    NaN  0.00000000000000E+00
 cg2d: Sum(rhs),rhsMax =                    NaN  0.00000000000000E+00
 cg2d: Sum(rhs),rhsMax =                    NaN  0.00000000000000E+00
 cg2d: Sum(rhs),rhsMax =                    NaN  0.00000000000000E+00
 cg2d: Sum(rhs),rhsMax =                    NaN  0.00000000000000E+00
 cg2d: Sum(rhs),rhsMax =                    NaN  0.00000000000000E+00
 cg2d: Sum(rhs),rhsMax =                    NaN  0.00000000000000E+00
 cg2d: Sum(rhs),rhsMax =                    NaN  0.00000000000000E+00
 cg2d: Sum(rhs),rhsMax =                    NaN  0.00000000000000E+00
 cg2d: Sum(rhs),rhsMax =                    NaN  0.00000000000000E+00
 cg2d: Sum(rhs),rhsMax =                    NaN  0.00000000000000E+00
 cg2d: Sum(rhs),rhsMax =                    NaN  0.00000000000000E+00
 cg2d: Sum(rhs),rhsMax =                    NaN  0.00000000000000E+00
 cg2d: Sum(rhs),rhsMax =                    NaN  0.00000000000000E+00
 cg2d: Sum(rhs),rhsMax =                    NaN  0.00000000000000E+00
 cg2d: Sum(rhs),rhsMax =                    NaN  0.00000000000000E+00
 cg2d: Sum(rhs),rhsMax =                    NaN  0.00000000000000E+00
 cg2d: Sum(rhs),rhsMax =                    NaN  0.00000000000000E+00
 cg2d: Sum(rhs),rhsMax =                    NaN  0.00000000000000E+00
 cg2d: Sum(rhs),rhsMax =                    NaN  0.00000000000000E+00
 cg2d: Sum(rhs),rhsMax =                    NaN  0.00000000000000E+00
 cg2d: Sum(rhs),rhsMax =                    NaN  0.00000000000000E+00
 cg2d: Sum(rhs),rhsMax =                    NaN  0.00000000000000E+00
 cg2d: Sum(rhs),rhsMax =                    NaN  0.00000000000000E+00
 cg2d: Sum(rhs),rhsMax =                    NaN  0.00000000000000E+00
 cg2d: Sum(rhs),rhsMax =                    NaN  0.00000000000000E+00
 cg2d: Sum(rhs),rhsMax =                    NaN  0.00000000000000E+00
 cg2d: Sum(rhs),rhsMax =                    NaN  0.00000000000000E+00
 cg2d: Sum(rhs),rhsMax =                    NaN  0.00000000000000E+00
 cg2d: Sum(rhs),rhsMax =                    NaN  0.00000000000000E+00
 cg2d: Sum(rhs),rhsMax =                    NaN  0.00000000000000E+00
 cg2d: Sum(rhs),rhsMax =                    NaN  0.00000000000000E+00
 cg2d: Sum(rhs),rhsMax =                    NaN  0.00000000000000E+00
 cg2d: Sum(rhs),rhsMax =                    NaN  0.00000000000000E+00
 cg2d: Sum(rhs),rhsMax =                    NaN  0.00000000000000E+00
 cg2d: Sum(rhs),rhsMax =                    NaN  0.00000000000000E+00
 cg2d: Sum(rhs),rhsMax =                    NaN  0.00000000000000E+00
 cg2d: Sum(rhs),rhsMax =                    NaN  0.00000000000000E+00
 cg2d: Sum(rhs),rhsMax =                    NaN  0.00000000000000E+00
 cg2d: Sum(rhs),rhsMax =                    NaN  0.00000000000000E+00
 cg2d: Sum(rhs),rhsMax =                    NaN  0.00000000000000E+00
 cg2d: Sum(rhs),rhsMax =                    NaN  0.00000000000000E+00
 cg2d: Sum(rhs),rhsMax =                    NaN  0.00000000000000E+00
 cg2d: Sum(rhs),rhsMax =                    NaN  0.00000000000000E+00
 cg2d: Sum(rhs),rhsMax =                    NaN  0.00000000000000E+00
 cg2d: Sum(rhs),rhsMax =                    NaN  0.00000000000000E+00
 cg2d: Sum(rhs),rhsMax =                    NaN  0.00000000000000E+00
 cg2d: Sum(rhs),rhsMax =                    NaN  0.00000000000000E+00
 cg2d: Sum(rhs),rhsMax =                    NaN  0.00000000000000E+00
 cg2d: Sum(rhs),rhsMax =                    NaN  0.00000000000000E+00
 cg2d: Sum(rhs),rhsMax =                    NaN  0.00000000000000E+00
 cg2d: Sum(rhs),rhsMax =                    NaN  0.00000000000000E+00
 cg2d: Sum(rhs),rhsMax =                    NaN  0.00000000000000E+00
 cg2d: Sum(rhs),rhsMax =                    NaN  0.00000000000000E+00
 cg2d: Sum(rhs),rhsMax =                    NaN  0.00000000000000E+00
 cg2d: Sum(rhs),rhsMax =                    NaN  0.00000000000000E+00
 cg2d: Sum(rhs),rhsMax =                    NaN  0.00000000000000E+00
 cg2d: Sum(rhs),rhsMax =                    NaN  0.00000000000000E+00
 cg2d: Sum(rhs),rhsMax =                    NaN  0.00000000000000E+00
 cg2d: Sum(rhs),rhsMax =                    NaN  0.00000000000000E+00
 cg2d: Sum(rhs),rhsMax =                    NaN  0.00000000000000E+00
 cg2d: Sum(rhs),rhsMax =                    NaN  0.00000000000000E+00
 cg2d: Sum(rhs),rhsMax =                    NaN  0.00000000000000E+00
 cg2d: Sum(rhs),rhsMax =                    NaN  0.00000000000000E+00
 cg2d: Sum(rhs),rhsMax =                    NaN  0.00000000000000E+00
 cg2d: Sum(rhs),rhsMax =                    NaN  0.00000000000000E+00
 cg2d: Sum(rhs),rhsMax =                    NaN  0.00000000000000E+00
 cg2d: Sum(rhs),rhsMax =                    NaN  0.00000000000000E+00
 cg2d: Sum(rhs),rhsMax =                    NaN  0.00000000000000E+00
 cg2d: Sum(rhs),rhsMax =                    NaN  0.00000000000000E+00
 cg2d: Sum(rhs),rhsMax =                    NaN  0.00000000000000E+00
 cg2d: Sum(rhs),rhsMax =                    NaN  0.00000000000000E+00
 cg2d: Sum(rhs),rhsMax =                    NaN  0.00000000000000E+00
 cg2d: Sum(rhs),rhsMax =                    NaN  0.00000000000000E+00
 cg2d: Sum(rhs),rhsMax =                    NaN  0.00000000000000E+00
 cg2d: Sum(rhs),rhsMax =                    NaN  0.00000000000000E+00
 cg2d: Sum(rhs),rhsMax =                    NaN  0.00000000000000E+00
 cg2d: Sum(rhs),rhsMax =                    NaN  0.00000000000000E+00
 cg2d: Sum(rhs),rhsMax =                    NaN  0.00000000000000E+00
 cg2d: Sum(rhs),rhsMax =                    NaN  0.00000000000000E+00
 cg2d: Sum(rhs),rhsMax =                    NaN  0.00000000000000E+00
 cg2d: Sum(rhs),rhsMax =                    NaN  0.00000000000000E+00
 cg2d: Sum(rhs),rhsMax =                    NaN  0.00000000000000E+00
 cg2d: Sum(rhs),rhsMax =                    NaN  0.00000000000000E+00
 cg2d: Sum(rhs),rhsMax =                    NaN  0.00000000000000E+00
 cg2d: Sum(rhs),rhsMax =                    NaN  0.00000000000000E+00
 cg2d: Sum(rhs),rhsMax =                    NaN  0.00000000000000E+00
 cg2d: Sum(rhs),rhsMax =                    NaN  0.00000000000000E+00
 cg2d: Sum(rhs),rhsMax =                    NaN  0.00000000000000E+00
 cg2d: Sum(rhs),rhsMax =                    NaN  0.00000000000000E+00
 cg2d: Sum(rhs),rhsMax =                    NaN  0.00000000000000E+00
 cg2d: Sum(rhs),rhsMax =                    NaN  0.00000000000000E+00
 cg2d: Sum(rhs),rhsMax =                    NaN  0.00000000000000E+00
 cg2d: Sum(rhs),rhsMax =                    NaN  0.00000000000000E+00
 cg2d: Sum(rhs),rhsMax =                    NaN  0.00000000000000E+00
 cg2d: Sum(rhs),rhsMax =                    NaN  0.00000000000000E+00
 cg2d: Sum(rhs),rhsMax =                    NaN  0.00000000000000E+00
 cg2d: Sum(rhs),rhsMax =                    NaN  0.00000000000000E+00
 cg2d: Sum(rhs),rhsMax =                    NaN  0.00000000000000E+00
 cg2d: Sum(rhs),rhsMax =                    NaN  0.00000000000000E+00
 cg2d: Sum(rhs),rhsMax =                    NaN  0.00000000000000E+00
 cg2d: Sum(rhs),rhsMax =                    NaN  0.00000000000000E+00
 cg2d: Sum(rhs),rhsMax =                    NaN  0.00000000000000E+00
 cg2d: Sum(rhs),rhsMax =                    NaN  0.00000000000000E+00
 cg2d: Sum(rhs),rhsMax =                    NaN  0.00000000000000E+00
 cg2d: Sum(rhs),rhsMax =                    NaN  0.00000000000000E+00
 cg2d: Sum(rhs),rhsMax =                    NaN  0.00000000000000E+00
 cg2d: Sum(rhs),rhsMax =                    NaN  0.00000000000000E+00
 cg2d: Sum(rhs),rhsMax =                    NaN  0.00000000000000E+00
 cg2d: Sum(rhs),rhsMax =                    NaN  0.00000000000000E+00
 cg2d: Sum(rhs),rhsMax =                    NaN  0.00000000000000E+00
 cg2d: Sum(rhs),rhsMax =                    NaN  0.00000000000000E+00
 cg2d: Sum(rhs),rhsMax =                    NaN  0.00000000000000E+00
 cg2d: Sum(rhs),rhsMax =                    NaN  0.00000000000000E+00
 cg2d: Sum(rhs),rhsMax =                    NaN  0.00000000000000E+00
 cg2d: Sum(rhs),rhsMax =                    NaN  0.00000000000000E+00
 cg2d: Sum(rhs),rhsMax =                    NaN  0.00000000000000E+00
 cg2d: Sum(rhs),rhsMax =                    NaN  0.00000000000000E+00
 cg2d: Sum(rhs),rhsMax =                    NaN  0.00000000000000E+00
 cg2d: Sum(rhs),rhsMax =                    NaN  0.00000000000000E+00
 cg2d: Sum(rhs),rhsMax =                    NaN  0.00000000000000E+00
 cg2d: Sum(rhs),rhsMax =                    NaN  0.00000000000000E+00
 cg2d: Sum(rhs),rhsMax =                    NaN  0.00000000000000E+00
 cg2d: Sum(rhs),rhsMax =                    NaN  0.00000000000000E+00
 cg2d: Sum(rhs),rhsMax =                    NaN  0.00000000000000E+00
 cg2d: Sum(rhs),rhsMax =                    NaN  0.00000000000000E+00
 cg2d: Sum(rhs),rhsMax =                    NaN  0.00000000000000E+00
 cg2d: Sum(rhs),rhsMax =                    NaN  0.00000000000000E+00
 cg2d: Sum(rhs),rhsMax =                    NaN  0.00000000000000E+00
 cg2d: Sum(rhs),rhsMax =                    NaN  0.00000000000000E+00
 cg2d: Sum(rhs),rhsMax =                    NaN  0.00000000000000E+00
 cg2d: Sum(rhs),rhsMax =                    NaN  0.00000000000000E+00
 cg2d: Sum(rhs),rhsMax =                    NaN  0.00000000000000E+00
 cg2d: Sum(rhs),rhsMax =                    NaN  0.00000000000000E+00
 cg2d: Sum(rhs),rhsMax =                    NaN  0.00000000000000E+00
 cg2d: Sum(rhs),rhsMax =                    NaN  0.00000000000000E+00
 cg2d: Sum(rhs),rhsMax =                    NaN  0.00000000000000E+00
 cg2d: Sum(rhs),rhsMax =                    NaN  0.00000000000000E+00
 cg2d: Sum(rhs),rhsMax =                    NaN  0.00000000000000E+00
 cg2d: Sum(rhs),rhsMax =                    NaN  0.00000000000000E+00
 cg2d: Sum(rhs),rhsMax =                    NaN  0.00000000000000E+00
 cg2d: Sum(rhs),rhsMax =                    NaN  0.00000000000000E+00
 cg2d: Sum(rhs),rhsMax =                    NaN  0.00000000000000E+00
 cg2d: Sum(rhs),rhsMax =                    NaN  0.00000000000000E+00
 cg2d: Sum(rhs),rhsMax =                    NaN  0.00000000000000E+00
 cg2d: Sum(rhs),rhsMax =                    NaN  0.00000000000000E+00
 cg2d: Sum(rhs),rhsMax =                    NaN  0.00000000000000E+00
 cg2d: Sum(rhs),rhsMax =                    NaN  0.00000000000000E+00
 cg2d: Sum(rhs),rhsMax =                    NaN  0.00000000000000E+00
 cg2d: Sum(rhs),rhsMax =                    NaN  0.00000000000000E+00
 cg2d: Sum(rhs),rhsMax =                    NaN  0.00000000000000E+00
 cg2d: Sum(rhs),rhsMax =                    NaN  0.00000000000000E+00
 cg2d: Sum(rhs),rhsMax =                    NaN  0.00000000000000E+00
 cg2d: Sum(rhs),rhsMax =                    NaN  0.00000000000000E+00
 cg2d: Sum(rhs),rhsMax =                    NaN  0.00000000000000E+00
 cg2d: Sum(rhs),rhsMax =                    NaN  0.00000000000000E+00
 cg2d: Sum(rhs),rhsMax =                    NaN  0.00000000000000E+00
 cg2d: Sum(rhs),rhsMax =                    NaN  0.00000000000000E+00
 cg2d: Sum(rhs),rhsMax =                    NaN  0.00000000000000E+00
 cg2d: Sum(rhs),rhsMax =                    NaN  0.00000000000000E+00
 cg2d: Sum(rhs),rhsMax =                    NaN  0.00000000000000E+00
 cg2d: Sum(rhs),rhsMax =                    NaN  0.00000000000000E+00
 cg2d: Sum(rhs),rhsMax =                    NaN  0.00000000000000E+00
 cg2d: Sum(rhs),rhsMax =                    NaN  0.00000000000000E+00
 cg2d: Sum(rhs),rhsMax =                    NaN  0.00000000000000E+00
 cg2d: Sum(rhs),rhsMax =                    NaN  0.00000000000000E+00
 cg2d: Sum(rhs),rhsMax =                    NaN  0.00000000000000E+00
 cg2d: Sum(rhs),rhsMax =                    NaN  0.00000000000000E+00
 cg2d: Sum(rhs),rhsMax =                    NaN  0.00000000000000E+00
 cg2d: Sum(rhs),rhsMax =                    NaN  0.00000000000000E+00
 cg2d: Sum(rhs),rhsMax =                    NaN  0.00000000000000E+00
 cg2d: Sum(rhs),rhsMax =                    NaN  0.00000000000000E+00
 cg2d: Sum(rhs),rhsMax =                    NaN  0.00000000000000E+00
 cg2d: Sum(rhs),rhsMax =                    NaN  0.00000000000000E+00
 cg2d: Sum(rhs),rhsMax =                    NaN  0.00000000000000E+00
 cg2d: Sum(rhs),rhsMax =                    NaN  0.00000000000000E+00
 cg2d: Sum(rhs),rhsMax =                    NaN  0.00000000000000E+00
 cg2d: Sum(rhs),rhsMax =                    NaN  0.00000000000000E+00
 cg2d: Sum(rhs),rhsMax =                    NaN  0.00000000000000E+00
 cg2d: Sum(rhs),rhsMax =                    NaN  0.00000000000000E+00
 cg2d: Sum(rhs),rhsMax =                    NaN  0.00000000000000E+00
 cg2d: Sum(rhs),rhsMax =                    NaN  0.00000000000000E+00
 cg2d: Sum(rhs),rhsMax =                    NaN  0.00000000000000E+00
 cg2d: Sum(rhs),rhsMax =                    NaN  0.00000000000000E+00
 cg2d: Sum(rhs),rhsMax =                    NaN  0.00000000000000E+00
 cg2d: Sum(rhs),rhsMax =                    NaN  0.00000000000000E+00
 cg2d: Sum(rhs),rhsMax =                    NaN  0.00000000000000E+00
 cg2d: Sum(rhs),rhsMax =                    NaN  0.00000000000000E+00
 cg2d: Sum(rhs),rhsMax =                    NaN  0.00000000000000E+00
 cg2d: Sum(rhs),rhsMax =                    NaN  0.00000000000000E+00
 cg2d: Sum(rhs),rhsMax =                    NaN  0.00000000000000E+00
 cg2d: Sum(rhs),rhsMax =                    NaN  0.00000000000000E+00
 cg2d: Sum(rhs),rhsMax =                    NaN  0.00000000000000E+00
 cg2d: Sum(rhs),rhsMax =                    NaN  0.00000000000000E+00
 cg2d: Sum(rhs),rhsMax =                    NaN  0.00000000000000E+00
 cg2d: Sum(rhs),rhsMax =                    NaN  0.00000000000000E+00
 cg2d: Sum(rhs),rhsMax =                    NaN  0.00000000000000E+00
 cg2d: Sum(rhs),rhsMax =                    NaN  0.00000000000000E+00
 cg2d: Sum(rhs),rhsMax =                    NaN  0.00000000000000E+00
 cg2d: Sum(rhs),rhsMax =                    NaN  0.00000000000000E+00
 cg2d: Sum(rhs),rhsMax =                    NaN  0.00000000000000E+00
 cg2d: Sum(rhs),rhsMax =                    NaN  0.00000000000000E+00
 cg2d: Sum(rhs),rhsMax =                    NaN  0.00000000000000E+00
 cg2d: Sum(rhs),rhsMax =                    NaN  0.00000000000000E+00
 cg2d: Sum(rhs),rhsMax =                    NaN  0.00000000000000E+00
 cg2d: Sum(rhs),rhsMax =                    NaN  0.00000000000000E+00
 cg2d: Sum(rhs),rhsMax =                    NaN  0.00000000000000E+00
 cg2d: Sum(rhs),rhsMax =                    NaN  0.00000000000000E+00
 cg2d: Sum(rhs),rhsMax =                    NaN  0.00000000000000E+00
 cg2d: Sum(rhs),rhsMax =                    NaN  0.00000000000000E+00
 cg2d: Sum(rhs),rhsMax =                    NaN  0.00000000000000E+00
 cg2d: Sum(rhs),rhsMax =                    NaN  0.00000000000000E+00
 cg2d: Sum(rhs),rhsMax =                    NaN  0.00000000000000E+00
 cg2d: Sum(rhs),rhsMax =                    NaN  0.00000000000000E+00
 cg2d: Sum(rhs),rhsMax =                    NaN  0.00000000000000E+00
 cg2d: Sum(rhs),rhsMax =                    NaN  0.00000000000000E+00
 cg2d: Sum(rhs),rhsMax =                    NaN  0.00000000000000E+00
 cg2d: Sum(rhs),rhsMax =                    NaN  0.00000000000000E+00
 cg2d: Sum(rhs),rhsMax =                    NaN  0.00000000000000E+00
 cg2d: Sum(rhs),rhsMax =                    NaN  0.00000000000000E+00
 cg2d: Sum(rhs),rhsMax =                    NaN  0.00000000000000E+00
 cg2d: Sum(rhs),rhsMax =                    NaN  0.00000000000000E+00
 cg2d: Sum(rhs),rhsMax =                    NaN  0.00000000000000E+00
 cg2d: Sum(rhs),rhsMax =                    NaN  0.00000000000000E+00
 cg2d: Sum(rhs),rhsMax =                    NaN  0.00000000000000E+00
 cg2d: Sum(rhs),rhsMax =                    NaN  0.00000000000000E+00
 cg2d: Sum(rhs),rhsMax =                    NaN  0.00000000000000E+00
 cg2d: Sum(rhs),rhsMax =                    NaN  0.00000000000000E+00
 cg2d: Sum(rhs),rhsMax =                    NaN  0.00000000000000E+00
 cg2d: Sum(rhs),rhsMax =                    NaN  0.00000000000000E+00
 cg2d: Sum(rhs),rhsMax =                    NaN  0.00000000000000E+00
 cg2d: Sum(rhs),rhsMax =                    NaN  0.00000000000000E+00
 cg2d: Sum(rhs),rhsMax =                    NaN  0.00000000000000E+00
 cg2d: Sum(rhs),rhsMax =                    NaN  0.00000000000000E+00
 cg2d: Sum(rhs),rhsMax =                    NaN  0.00000000000000E+00
 cg2d: Sum(rhs),rhsMax =                    NaN  0.00000000000000E+00
 cg2d: Sum(rhs),rhsMax =                    NaN  0.00000000000000E+00
 cg2d: Sum(rhs),rhsMax =                    NaN  0.00000000000000E+00
 cg2d: Sum(rhs),rhsMax =                    NaN  0.00000000000000E+00
 cg2d: Sum(rhs),rhsMax =                    NaN  0.00000000000000E+00
 cg2d: Sum(rhs),rhsMax =                    NaN  0.00000000000000E+00
 cg2d: Sum(rhs),rhsMax =                    NaN  0.00000000000000E+00
 cg2d: Sum(rhs),rhsMax =                    NaN  0.00000000000000E+00
 cg2d: Sum(rhs),rhsMax =                    NaN  0.00000000000000E+00
 cg2d: Sum(rhs),rhsMax =                    NaN  0.00000000000000E+00
 cg2d: Sum(rhs),rhsMax =                    NaN  0.00000000000000E+00
 cg2d: Sum(rhs),rhsMax =                    NaN  0.00000000000000E+00
 cg2d: Sum(rhs),rhsMax =                    NaN  0.00000000000000E+00
 cg2d: Sum(rhs),rhsMax =                    NaN  0.00000000000000E+00
 cg2d: Sum(rhs),rhsMax =                    NaN  0.00000000000000E+00
 cg2d: Sum(rhs),rhsMax =                    NaN  0.00000000000000E+00
 cg2d: Sum(rhs),rhsMax =                    NaN  0.00000000000000E+00
 cg2d: Sum(rhs),rhsMax =                    NaN  0.00000000000000E+00
 cg2d: Sum(rhs),rhsMax =                    NaN  0.00000000000000E+00
 cg2d: Sum(rhs),rhsMax =                    NaN  0.00000000000000E+00
 cg2d: Sum(rhs),rhsMax =                    NaN  0.00000000000000E+00
 cg2d: Sum(rhs),rhsMax =                    NaN  0.00000000000000E+00
 cg2d: Sum(rhs),rhsMax =                    NaN  0.00000000000000E+00
 cg2d: Sum(rhs),rhsMax =                    NaN  0.00000000000000E+00
 cg2d: Sum(rhs),rhsMax =                    NaN  0.00000000000000E+00
 cg2d: Sum(rhs),rhsMax =                    NaN  0.00000000000000E+00
 cg2d: Sum(rhs),rhsMax =                    NaN  0.00000000000000E+00
 cg2d: Sum(rhs),rhsMax =                    NaN  0.00000000000000E+00
 cg2d: Sum(rhs),rhsMax =                    NaN  0.00000000000000E+00
 cg2d: Sum(rhs),rhsMax =                    NaN  0.00000000000000E+00
 cg2d: Sum(rhs),rhsMax =                    NaN  0.00000000000000E+00
 cg2d: Sum(rhs),rhsMax =                    NaN  0.00000000000000E+00
 cg2d: Sum(rhs),rhsMax =                    NaN  0.00000000000000E+00
 cg2d: Sum(rhs),rhsMax =                    NaN  0.00000000000000E+00
 cg2d: Sum(rhs),rhsMax =                    NaN  0.00000000000000E+00
 cg2d: Sum(rhs),rhsMax =                    NaN  0.00000000000000E+00
 cg2d: Sum(rhs),rhsMax =                    NaN  0.00000000000000E+00
 cg2d: Sum(rhs),rhsMax =                    NaN  0.00000000000000E+00
 cg2d: Sum(rhs),rhsMax =                    NaN  0.00000000000000E+00
 cg2d: Sum(rhs),rhsMax =                    NaN  0.00000000000000E+00
 cg2d: Sum(rhs),rhsMax =                    NaN  0.00000000000000E+00
 cg2d: Sum(rhs),rhsMax =                    NaN  0.00000000000000E+00
 cg2d: Sum(rhs),rhsMax =                    NaN  0.00000000000000E+00
 cg2d: Sum(rhs),rhsMax =                    NaN  0.00000000000000E+00
 cg2d: Sum(rhs),rhsMax =                    NaN  0.00000000000000E+00
 cg2d: Sum(rhs),rhsMax =                    NaN  0.00000000000000E+00
 cg2d: Sum(rhs),rhsMax =                    NaN  0.00000000000000E+00
 cg2d: Sum(rhs),rhsMax =                    NaN  0.00000000000000E+00
 cg2d: Sum(rhs),rhsMax =                    NaN  0.00000000000000E+00
 cg2d: Sum(rhs),rhsMax =                    NaN  0.00000000000000E+00
 cg2d: Sum(rhs),rhsMax =                    NaN  0.00000000000000E+00
 cg2d: Sum(rhs),rhsMax =                    NaN  0.00000000000000E+00
 cg2d: Sum(rhs),rhsMax =                    NaN  0.00000000000000E+00
 cg2d: Sum(rhs),rhsMax =                    NaN  0.00000000000000E+00
 cg2d: Sum(rhs),rhsMax =                    NaN  0.00000000000000E+00
 cg2d: Sum(rhs),rhsMax =                    NaN  0.00000000000000E+00
 cg2d: Sum(rhs),rhsMax =                    NaN  0.00000000000000E+00
 cg2d: Sum(rhs),rhsMax =                    NaN  0.00000000000000E+00
 cg2d: Sum(rhs),rhsMax =                    NaN  0.00000000000000E+00
 cg2d: Sum(rhs),rhsMax =                    NaN  0.00000000000000E+00
 cg2d: Sum(rhs),rhsMax =                    NaN  0.00000000000000E+00
 cg2d: Sum(rhs),rhsMax =                    NaN  0.00000000000000E+00
 cg2d: Sum(rhs),rhsMax =                    NaN  0.00000000000000E+00
 cg2d: Sum(rhs),rhsMax =                    NaN  0.00000000000000E+00
 cg2d: Sum(rhs),rhsMax =                    NaN  0.00000000000000E+00
 cg2d: Sum(rhs),rhsMax =                    NaN  0.00000000000000E+00
 cg2d: Sum(rhs),rhsMax =                    NaN  0.00000000000000E+00
 cg2d: Sum(rhs),rhsMax =                    NaN  0.00000000000000E+00
 cg2d: Sum(rhs),rhsMax =                    NaN  0.00000000000000E+00
 cg2d: Sum(rhs),rhsMax =                    NaN  0.00000000000000E+00
 cg2d: Sum(rhs),rhsMax =                    NaN  0.00000000000000E+00
 cg2d: Sum(rhs),rhsMax =                    NaN  0.00000000000000E+00
 cg2d: Sum(rhs),rhsMax =                    NaN  0.00000000000000E+00
 cg2d: Sum(rhs),rhsMax =                    NaN  0.00000000000000E+00
 cg2d: Sum(rhs),rhsMax =                    NaN  0.00000000000000E+00
 cg2d: Sum(rhs),rhsMax =                    NaN  0.00000000000000E+00
 cg2d: Sum(rhs),rhsMax =                    NaN  0.00000000000000E+00
 cg2d: Sum(rhs),rhsMax =                    NaN  0.00000000000000E+00
 cg2d: Sum(rhs),rhsMax =                    NaN  0.00000000000000E+00
 cg2d: Sum(rhs),rhsMax =                    NaN  0.00000000000000E+00
 cg2d: Sum(rhs),rhsMax =                    NaN  0.00000000000000E+00
 cg2d: Sum(rhs),rhsMax =                    NaN  0.00000000000000E+00
 cg2d: Sum(rhs),rhsMax =                    NaN  0.00000000000000E+00
 cg2d: Sum(rhs),rhsMax =                    NaN  0.00000000000000E+00
 cg2d: Sum(rhs),rhsMax =                    NaN  0.00000000000000E+00
 cg2d: Sum(rhs),rhsMax =                    NaN  0.00000000000000E+00
 cg2d: Sum(rhs),rhsMax =                    NaN  0.00000000000000E+00
 cg2d: Sum(rhs),rhsMax =                    NaN  0.00000000000000E+00
 cg2d: Sum(rhs),rhsMax =                    NaN  0.00000000000000E+00
 cg2d: Sum(rhs),rhsMax =                    NaN  0.00000000000000E+00
 cg2d: Sum(rhs),rhsMax =                    NaN  0.00000000000000E+00
 cg2d: Sum(rhs),rhsMax =                    NaN  0.00000000000000E+00
 cg2d: Sum(rhs),rhsMax =                    NaN  0.00000000000000E+00
 cg2d: Sum(rhs),rhsMax =                    NaN  0.00000000000000E+00
 cg2d: Sum(rhs),rhsMax =                    NaN  0.00000000000000E+00
 cg2d: Sum(rhs),rhsMax =                    NaN  0.00000000000000E+00
 cg2d: Sum(rhs),rhsMax =                    NaN  0.00000000000000E+00
(PID.TID 0000.0001)      cg2d_init_res =                    NaN
(PID.TID 0000.0001)      cg2d_iters(min,last) =      -1    1000
(PID.TID 0000.0001)      cg2d_last_res =                    NaN
(PID.TID 0000.0001) // =======================================================
(PID.TID 0000.0001) // Begin MONITOR dynamic field statistics
(PID.TID 0000.0001) // =======================================================
(PID.TID 0000.0001) %MON time_tsnumber                =                  5760
(PID.TID 0000.0001) %MON time_secondsf                =   8.6400000000000E+04
(PID.TID 0000.0001) %MON dynstat_eta_max              =                   NaN
(PID.TID 0000.0001) %MON dynstat_eta_min              =                   NaN
(PID.TID 0000.0001) %MON dynstat_eta_mean             =                   NaN
(PID.TID 0000.0001) %MON dynstat_eta_sd               =                   NaN
(PID.TID 0000.0001) %MON dynstat_eta_del2             =                   NaN
(PID.TID 0000.0001) %MON dynstat_uvel_max             =   6.6809804669674E-01
(PID.TID 0000.0001) %MON dynstat_uvel_min             =   6.6809804669674E-01
(PID.TID 0000.0001) %MON dynstat_uvel_mean            =                   NaN
(PID.TID 0000.0001) %MON dynstat_uvel_sd              =                   NaN
(PID.TID 0000.0001) %MON dynstat_uvel_del2            =                   NaN
(PID.TID 0000.0001) %MON dynstat_vvel_max             =                   NaN
(PID.TID 0000.0001) %MON dynstat_vvel_min             =                   NaN
(PID.TID 0000.0001) %MON dynstat_vvel_mean            =                   NaN
(PID.TID 0000.0001) %MON dynstat_vvel_sd              =                   NaN
(PID.TID 0000.0001) %MON dynstat_vvel_del2            =                   NaN
(PID.TID 0000.0001) %MON dynstat_wvel_max             =                   NaN
(PID.TID 0000.0001) %MON dynstat_wvel_min             =                   NaN
(PID.TID 0000.0001) %MON dynstat_wvel_mean            =                   NaN
(PID.TID 0000.0001) %MON dynstat_wvel_sd              =                   NaN
(PID.TID 0000.0001) %MON dynstat_wvel_del2            =                   NaN
(PID.TID 0000.0001) %MON dynstat_theta_max            =                   NaN
(PID.TID 0000.0001) %MON dynstat_theta_min            =                   NaN
(PID.TID 0000.0001) %MON dynstat_theta_mean           =                   NaN
(PID.TID 0000.0001) %MON dynstat_theta_sd             =                   NaN
(PID.TID 0000.0001) %MON dynstat_theta_del2           =                   NaN
(PID.TID 0000.0001) %MON dynstat_salt_max             =   3.5000000000000E+01
(PID.TID 0000.0001) %MON dynstat_salt_min             =   3.5000000000000E+01
(PID.TID 0000.0001) %MON dynstat_salt_mean            =   3.5000000000000E+01
(PID.TID 0000.0001) %MON dynstat_salt_sd              =   2.1316282072803E-14
(PID.TID 0000.0001) %MON dynstat_salt_del2            =   0.0000000000000E+00
(PID.TID 0000.0001) %MON dynstat_sst_max              =                   NaN
(PID.TID 0000.0001) %MON dynstat_sst_min              =                   NaN
(PID.TID 0000.0001) %MON dynstat_sst_mean             =                   NaN
(PID.TID 0000.0001) %MON dynstat_sst_sd               =                   NaN
(PID.TID 0000.0001) %MON dynstat_sst_del2             =                   NaN
(PID.TID 0000.0001) %MON dynstat_sss_max              =   3.5000000000000E+01
(PID.TID 0000.0001) %MON dynstat_sss_min              =   3.5000000000000E+01
(PID.TID 0000.0001) %MON dynstat_sss_mean             =   3.5000000000000E+01
(PID.TID 0000.0001) %MON dynstat_sss_sd               =   7.8159700933611E-14
(PID.TID 0000.0001) %MON dynstat_sss_del2             =   0.0000000000000E+00
(PID.TID 0000.0001) %MON forcing_qnet_max             =   0.0000000000000E+00
(PID.TID 0000.0001) %MON forcing_qnet_min             =   0.0000000000000E+00
(PID.TID 0000.0001) %MON forcing_qnet_mean            =   0.0000000000000E+00
(PID.TID 0000.0001) %MON forcing_qnet_sd              =   0.0000000000000E+00
(PID.TID 0000.0001) %MON forcing_qnet_del2            =   0.0000000000000E+00
(PID.TID 0000.0001) %MON forcing_qsw_max              =   0.0000000000000E+00
(PID.TID 0000.0001) %MON forcing_qsw_min              =   0.0000000000000E+00
(PID.TID 0000.0001) %MON forcing_qsw_mean             =   0.0000000000000E+00
(PID.TID 0000.0001) %MON forcing_qsw_sd               =   0.0000000000000E+00
(PID.TID 0000.0001) %MON forcing_qsw_del2             =   0.0000000000000E+00
(PID.TID 0000.0001) %MON forcing_empmr_max            =   0.0000000000000E+00
(PID.TID 0000.0001) %MON forcing_empmr_min            =   0.0000000000000E+00
(PID.TID 0000.0001) %MON forcing_empmr_mean           =   0.0000000000000E+00
(PID.TID 0000.0001) %MON forcing_empmr_sd             =   0.0000000000000E+00
(PID.TID 0000.0001) %MON forcing_empmr_del2           =   0.0000000000000E+00
(PID.TID 0000.0001) %MON forcing_fu_max               =   0.0000000000000E+00
(PID.TID 0000.0001) %MON forcing_fu_min               =   0.0000000000000E+00
(PID.TID 0000.0001) %MON forcing_fu_mean              =   0.0000000000000E+00
(PID.TID 0000.0001) %MON forcing_fu_sd                =   0.0000000000000E+00
(PID.TID 0000.0001) %MON forcing_fu_del2              =   0.0000000000000E+00
(PID.TID 0000.0001) %MON forcing_fv_max               =   0.0000000000000E+00
(PID.TID 0000.0001) %MON forcing_fv_min               =   0.0000000000000E+00
(PID.TID 0000.0001) %MON forcing_fv_mean              =   0.0000000000000E+00
(PID.TID 0000.0001) %MON forcing_fv_sd                =   0.0000000000000E+00
(PID.TID 0000.0001) %MON forcing_fv_del2              =   0.0000000000000E+00
(PID.TID 0000.0001) %MON advcfl_uvel_max              =   9.5851945436867E-03
(PID.TID 0000.0001) %MON advcfl_vvel_max              =   0.0000000000000E+00
(PID.TID 0000.0001) %MON advcfl_wvel_max              =   0.0000000000000E+00
(PID.TID 0000.0001) %MON advcfl_W_hf_max              =   0.0000000000000E+00
(PID.TID 0000.0001) %MON pe_b_mean                    =                   NaN
(PID.TID 0000.0001) %MON ke_max                       =   0.0000000000000E+00
(PID.TID 0000.0001) %MON ke_mean                      =                   NaN
(PID.TID 0000.0001) %MON ke_vol                       =   9.5889217545975E+10
(PID.TID 0000.0001) %MON vort_r_min                   =   0.0000000000000E+00
(PID.TID 0000.0001) %MON vort_r_max                   =   0.0000000000000E+00
(PID.TID 0000.0001) %MON vort_a_mean                  =                   NaN
(PID.TID 0000.0001) %MON vort_a_sd                    =                   NaN
(PID.TID 0000.0001) %MON vort_p_mean                  =                   NaN
(PID.TID 0000.0001) %MON vort_p_sd                    =   0.0000000000000E+00
(PID.TID 0000.0001) %MON surfExpan_theta_mean         =                   NaN
(PID.TID 0000.0001) %MON surfExpan_salt_mean          =                   NaN
(PID.TID 0000.0001) // =======================================================
(PID.TID 0000.0001) // End MONITOR dynamic field statistics
(PID.TID 0000.0001) // =======================================================
(PID.TID 0000.0001) // =======================================================
(PID.TID 0000.0001) // Begin OBCS MONITOR field statistics
(PID.TID 0000.0001) // =======================================================
(PID.TID 0000.0001) %MON obc_E_uVel_max               =   6.6809804669674E-01
(PID.TID 0000.0001) %MON obc_E_uVel_min               =   6.6809804669674E-01
(PID.TID 0000.0001) %MON obc_E_uVel_mean              =   6.6809804669674E-01
(PID.TID 0000.0001) %MON obc_E_uVel_sd                =   1.6660004686563E-08
(PID.TID 0000.0001) %MON obc_E_uVel_Int               =   6.6809804669674E+05
(PID.TID 0000.0001) %MON obc_W_uVel_max               =   6.6809804669674E-01
(PID.TID 0000.0001) %MON obc_W_uVel_min               =   6.6809804669674E-01
(PID.TID 0000.0001) %MON obc_W_uVel_mean              =   6.6809804669674E-01
(PID.TID 0000.0001) %MON obc_W_uVel_sd                =   1.6660004686563E-08
(PID.TID 0000.0001) %MON obc_W_uVel_Int               =   6.6809804669674E+05
(PID.TID 0000.0001) // =======================================================
(PID.TID 0000.0001) // End OBCS MONITOR field statistics
(PID.TID 0000.0001) // =======================================================
(PID.TID 0000.0001) %CHECKPOINT      5760 0000005760
 cg2d: Sum(rhs),rhsMax =                    NaN  0.00000000000000E+00
 cg2d: Sum(rhs),rhsMax =                    NaN  0.00000000000000E+00
 cg2d: Sum(rhs),rhsMax =                    NaN  0.00000000000000E+00
 cg2d: Sum(rhs),rhsMax =                    NaN  0.00000000000000E+00
 cg2d: Sum(rhs),rhsMax =                    NaN  0.00000000000000E+00
 cg2d: Sum(rhs),rhsMax =                    NaN  0.00000000000000E+00
 cg2d: Sum(rhs),rhsMax =                    NaN  0.00000000000000E+00
 cg2d: Sum(rhs),rhsMax =                    NaN  0.00000000000000E+00
 cg2d: Sum(rhs),rhsMax =                    NaN  0.00000000000000E+00
 cg2d: Sum(rhs),rhsMax =                    NaN  0.00000000000000E+00
 cg2d: Sum(rhs),rhsMax =                    NaN  0.00000000000000E+00
 cg2d: Sum(rhs),rhsMax =                    NaN  0.00000000000000E+00
 cg2d: Sum(rhs),rhsMax =                    NaN  0.00000000000000E+00
 cg2d: Sum(rhs),rhsMax =                    NaN  0.00000000000000E+00
 cg2d: Sum(rhs),rhsMax =                    NaN  0.00000000000000E+00
 cg2d: Sum(rhs),rhsMax =                    NaN  0.00000000000000E+00
 cg2d: Sum(rhs),rhsMax =                    NaN  0.00000000000000E+00
 cg2d: Sum(rhs),rhsMax =                    NaN  0.00000000000000E+00
 cg2d: Sum(rhs),rhsMax =                    NaN  0.00000000000000E+00
 cg2d: Sum(rhs),rhsMax =                    NaN  0.00000000000000E+00
 cg2d: Sum(rhs),rhsMax =                    NaN  0.00000000000000E+00
 cg2d: Sum(rhs),rhsMax =                    NaN  0.00000000000000E+00
 cg2d: Sum(rhs),rhsMax =                    NaN  0.00000000000000E+00
 cg2d: Sum(rhs),rhsMax =                    NaN  0.00000000000000E+00
 cg2d: Sum(rhs),rhsMax =                    NaN  0.00000000000000E+00
 cg2d: Sum(rhs),rhsMax =                    NaN  0.00000000000000E+00
 cg2d: Sum(rhs),rhsMax =                    NaN  0.00000000000000E+00
 cg2d: Sum(rhs),rhsMax =                    NaN  0.00000000000000E+00
 cg2d: Sum(rhs),rhsMax =                    NaN  0.00000000000000E+00
 cg2d: Sum(rhs),rhsMax =                    NaN  0.00000000000000E+00
 cg2d: Sum(rhs),rhsMax =                    NaN  0.00000000000000E+00
 cg2d: Sum(rhs),rhsMax =                    NaN  0.00000000000000E+00
 cg2d: Sum(rhs),rhsMax =                    NaN  0.00000000000000E+00
 cg2d: Sum(rhs),rhsMax =                    NaN  0.00000000000000E+00
 cg2d: Sum(rhs),rhsMax =                    NaN  0.00000000000000E+00
 cg2d: Sum(rhs),rhsMax =                    NaN  0.00000000000000E+00
 cg2d: Sum(rhs),rhsMax =                    NaN  0.00000000000000E+00
 cg2d: Sum(rhs),rhsMax =                    NaN  0.00000000000000E+00
 cg2d: Sum(rhs),rhsMax =                    NaN  0.00000000000000E+00
 cg2d: Sum(rhs),rhsMax =                    NaN  0.00000000000000E+00
 cg2d: Sum(rhs),rhsMax =                    NaN  0.00000000000000E+00
 cg2d: Sum(rhs),rhsMax =                    NaN  0.00000000000000E+00
 cg2d: Sum(rhs),rhsMax =                    NaN  0.00000000000000E+00
 cg2d: Sum(rhs),rhsMax =                    NaN  0.00000000000000E+00
 cg2d: Sum(rhs),rhsMax =                    NaN  0.00000000000000E+00
 cg2d: Sum(rhs),rhsMax =                    NaN  0.00000000000000E+00
 cg2d: Sum(rhs),rhsMax =                    NaN  0.00000000000000E+00
 cg2d: Sum(rhs),rhsMax =                    NaN  0.00000000000000E+00
 cg2d: Sum(rhs),rhsMax =                    NaN  0.00000000000000E+00
 cg2d: Sum(rhs),rhsMax =                    NaN  0.00000000000000E+00
 cg2d: Sum(rhs),rhsMax =                    NaN  0.00000000000000E+00
 cg2d: Sum(rhs),rhsMax =                    NaN  0.00000000000000E+00
 cg2d: Sum(rhs),rhsMax =                    NaN  0.00000000000000E+00
 cg2d: Sum(rhs),rhsMax =                    NaN  0.00000000000000E+00
 cg2d: Sum(rhs),rhsMax =                    NaN  0.00000000000000E+00
 cg2d: Sum(rhs),rhsMax =                    NaN  0.00000000000000E+00
 cg2d: Sum(rhs),rhsMax =                    NaN  0.00000000000000E+00
 cg2d: Sum(rhs),rhsMax =                    NaN  0.00000000000000E+00
 cg2d: Sum(rhs),rhsMax =                    NaN  0.00000000000000E+00
 cg2d: Sum(rhs),rhsMax =                    NaN  0.00000000000000E+00
 cg2d: Sum(rhs),rhsMax =                    NaN  0.00000000000000E+00
 cg2d: Sum(rhs),rhsMax =                    NaN  0.00000000000000E+00
 cg2d: Sum(rhs),rhsMax =                    NaN  0.00000000000000E+00
 cg2d: Sum(rhs),rhsMax =                    NaN  0.00000000000000E+00
 cg2d: Sum(rhs),rhsMax =                    NaN  0.00000000000000E+00
 cg2d: Sum(rhs),rhsMax =                    NaN  0.00000000000000E+00
 cg2d: Sum(rhs),rhsMax =                    NaN  0.00000000000000E+00
 cg2d: Sum(rhs),rhsMax =                    NaN  0.00000000000000E+00
 cg2d: Sum(rhs),rhsMax =                    NaN  0.00000000000000E+00
 cg2d: Sum(rhs),rhsMax =                    NaN  0.00000000000000E+00
 cg2d: Sum(rhs),rhsMax =                    NaN  0.00000000000000E+00
 cg2d: Sum(rhs),rhsMax =                    NaN  0.00000000000000E+00
 cg2d: Sum(rhs),rhsMax =                    NaN  0.00000000000000E+00
 cg2d: Sum(rhs),rhsMax =                    NaN  0.00000000000000E+00
 cg2d: Sum(rhs),rhsMax =                    NaN  0.00000000000000E+00
 cg2d: Sum(rhs),rhsMax =                    NaN  0.00000000000000E+00
 cg2d: Sum(rhs),rhsMax =                    NaN  0.00000000000000E+00
 cg2d: Sum(rhs),rhsMax =                    NaN  0.00000000000000E+00
 cg2d: Sum(rhs),rhsMax =                    NaN  0.00000000000000E+00
 cg2d: Sum(rhs),rhsMax =                    NaN  0.00000000000000E+00
 cg2d: Sum(rhs),rhsMax =                    NaN  0.00000000000000E+00
 cg2d: Sum(rhs),rhsMax =                    NaN  0.00000000000000E+00
 cg2d: Sum(rhs),rhsMax =                    NaN  0.00000000000000E+00
 cg2d: Sum(rhs),rhsMax =                    NaN  0.00000000000000E+00
 cg2d: Sum(rhs),rhsMax =                    NaN  0.00000000000000E+00
 cg2d: Sum(rhs),rhsMax =                    NaN  0.00000000000000E+00
 cg2d: Sum(rhs),rhsMax =                    NaN  0.00000000000000E+00
 cg2d: Sum(rhs),rhsMax =                    NaN  0.00000000000000E+00
 cg2d: Sum(rhs),rhsMax =                    NaN  0.00000000000000E+00
 cg2d: Sum(rhs),rhsMax =                    NaN  0.00000000000000E+00
 cg2d: Sum(rhs),rhsMax =                    NaN  0.00000000000000E+00
 cg2d: Sum(rhs),rhsMax =                    NaN  0.00000000000000E+00
 cg2d: Sum(rhs),rhsMax =                    NaN  0.00000000000000E+00
 cg2d: Sum(rhs),rhsMax =                    NaN  0.00000000000000E+00
 cg2d: Sum(rhs),rhsMax =                    NaN  0.00000000000000E+00
 cg2d: Sum(rhs),rhsMax =                    NaN  0.00000000000000E+00
 cg2d: Sum(rhs),rhsMax =                    NaN  0.00000000000000E+00
 cg2d: Sum(rhs),rhsMax =                    NaN  0.00000000000000E+00
 cg2d: Sum(rhs),rhsMax =                    NaN  0.00000000000000E+00
 cg2d: Sum(rhs),rhsMax =                    NaN  0.00000000000000E+00
 cg2d: Sum(rhs),rhsMax =                    NaN  0.00000000000000E+00
 cg2d: Sum(rhs),rhsMax =                    NaN  0.00000000000000E+00
 cg2d: Sum(rhs),rhsMax =                    NaN  0.00000000000000E+00
 cg2d: Sum(rhs),rhsMax =                    NaN  0.00000000000000E+00
 cg2d: Sum(rhs),rhsMax =                    NaN  0.00000000000000E+00
 cg2d: Sum(rhs),rhsMax =                    NaN  0.00000000000000E+00
 cg2d: Sum(rhs),rhsMax =                    NaN  0.00000000000000E+00
 cg2d: Sum(rhs),rhsMax =                    NaN  0.00000000000000E+00
 cg2d: Sum(rhs),rhsMax =                    NaN  0.00000000000000E+00
 cg2d: Sum(rhs),rhsMax =                    NaN  0.00000000000000E+00
 cg2d: Sum(rhs),rhsMax =                    NaN  0.00000000000000E+00
 cg2d: Sum(rhs),rhsMax =                    NaN  0.00000000000000E+00
 cg2d: Sum(rhs),rhsMax =                    NaN  0.00000000000000E+00
 cg2d: Sum(rhs),rhsMax =                    NaN  0.00000000000000E+00
 cg2d: Sum(rhs),rhsMax =                    NaN  0.00000000000000E+00
 cg2d: Sum(rhs),rhsMax =                    NaN  0.00000000000000E+00
 cg2d: Sum(rhs),rhsMax =                    NaN  0.00000000000000E+00
 cg2d: Sum(rhs),rhsMax =                    NaN  0.00000000000000E+00
 cg2d: Sum(rhs),rhsMax =                    NaN  0.00000000000000E+00
 cg2d: Sum(rhs),rhsMax =                    NaN  0.00000000000000E+00
 cg2d: Sum(rhs),rhsMax =                    NaN  0.00000000000000E+00
 cg2d: Sum(rhs),rhsMax =                    NaN  0.00000000000000E+00
 cg2d: Sum(rhs),rhsMax =                    NaN  0.00000000000000E+00
 cg2d: Sum(rhs),rhsMax =                    NaN  0.00000000000000E+00
 cg2d: Sum(rhs),rhsMax =                    NaN  0.00000000000000E+00
 cg2d: Sum(rhs),rhsMax =                    NaN  0.00000000000000E+00
 cg2d: Sum(rhs),rhsMax =                    NaN  0.00000000000000E+00
 cg2d: Sum(rhs),rhsMax =                    NaN  0.00000000000000E+00
 cg2d: Sum(rhs),rhsMax =                    NaN  0.00000000000000E+00
 cg2d: Sum(rhs),rhsMax =                    NaN  0.00000000000000E+00
 cg2d: Sum(rhs),rhsMax =                    NaN  0.00000000000000E+00
 cg2d: Sum(rhs),rhsMax =                    NaN  0.00000000000000E+00
 cg2d: Sum(rhs),rhsMax =                    NaN  0.00000000000000E+00
 cg2d: Sum(rhs),rhsMax =                    NaN  0.00000000000000E+00
 cg2d: Sum(rhs),rhsMax =                    NaN  0.00000000000000E+00
 cg2d: Sum(rhs),rhsMax =                    NaN  0.00000000000000E+00
 cg2d: Sum(rhs),rhsMax =                    NaN  0.00000000000000E+00
 cg2d: Sum(rhs),rhsMax =                    NaN  0.00000000000000E+00
 cg2d: Sum(rhs),rhsMax =                    NaN  0.00000000000000E+00
 cg2d: Sum(rhs),rhsMax =                    NaN  0.00000000000000E+00
 cg2d: Sum(rhs),rhsMax =                    NaN  0.00000000000000E+00
 cg2d: Sum(rhs),rhsMax =                    NaN  0.00000000000000E+00
 cg2d: Sum(rhs),rhsMax =                    NaN  0.00000000000000E+00
 cg2d: Sum(rhs),rhsMax =                    NaN  0.00000000000000E+00
 cg2d: Sum(rhs),rhsMax =                    NaN  0.00000000000000E+00
 cg2d: Sum(rhs),rhsMax =                    NaN  0.00000000000000E+00
 cg2d: Sum(rhs),rhsMax =                    NaN  0.00000000000000E+00
 cg2d: Sum(rhs),rhsMax =                    NaN  0.00000000000000E+00
 cg2d: Sum(rhs),rhsMax =                    NaN  0.00000000000000E+00
 cg2d: Sum(rhs),rhsMax =                    NaN  0.00000000000000E+00
 cg2d: Sum(rhs),rhsMax =                    NaN  0.00000000000000E+00
 cg2d: Sum(rhs),rhsMax =                    NaN  0.00000000000000E+00
 cg2d: Sum(rhs),rhsMax =                    NaN  0.00000000000000E+00
 cg2d: Sum(rhs),rhsMax =                    NaN  0.00000000000000E+00
 cg2d: Sum(rhs),rhsMax =                    NaN  0.00000000000000E+00
 cg2d: Sum(rhs),rhsMax =                    NaN  0.00000000000000E+00
 cg2d: Sum(rhs),rhsMax =                    NaN  0.00000000000000E+00
 cg2d: Sum(rhs),rhsMax =                    NaN  0.00000000000000E+00
 cg2d: Sum(rhs),rhsMax =                    NaN  0.00000000000000E+00
 cg2d: Sum(rhs),rhsMax =                    NaN  0.00000000000000E+00
 cg2d: Sum(rhs),rhsMax =                    NaN  0.00000000000000E+00
 cg2d: Sum(rhs),rhsMax =                    NaN  0.00000000000000E+00
 cg2d: Sum(rhs),rhsMax =                    NaN  0.00000000000000E+00
 cg2d: Sum(rhs),rhsMax =                    NaN  0.00000000000000E+00
 cg2d: Sum(rhs),rhsMax =                    NaN  0.00000000000000E+00
 cg2d: Sum(rhs),rhsMax =                    NaN  0.00000000000000E+00
 cg2d: Sum(rhs),rhsMax =                    NaN  0.00000000000000E+00
 cg2d: Sum(rhs),rhsMax =                    NaN  0.00000000000000E+00
 cg2d: Sum(rhs),rhsMax =                    NaN  0.00000000000000E+00
 cg2d: Sum(rhs),rhsMax =                    NaN  0.00000000000000E+00
 cg2d: Sum(rhs),rhsMax =                    NaN  0.00000000000000E+00
 cg2d: Sum(rhs),rhsMax =                    NaN  0.00000000000000E+00
 cg2d: Sum(rhs),rhsMax =                    NaN  0.00000000000000E+00
 cg2d: Sum(rhs),rhsMax =                    NaN  0.00000000000000E+00
 cg2d: Sum(rhs),rhsMax =                    NaN  0.00000000000000E+00
 cg2d: Sum(rhs),rhsMax =                    NaN  0.00000000000000E+00
 cg2d: Sum(rhs),rhsMax =                    NaN  0.00000000000000E+00
 cg2d: Sum(rhs),rhsMax =                    NaN  0.00000000000000E+00
 cg2d: Sum(rhs),rhsMax =                    NaN  0.00000000000000E+00
 cg2d: Sum(rhs),rhsMax =                    NaN  0.00000000000000E+00
 cg2d: Sum(rhs),rhsMax =                    NaN  0.00000000000000E+00
 cg2d: Sum(rhs),rhsMax =                    NaN  0.00000000000000E+00
 cg2d: Sum(rhs),rhsMax =                    NaN  0.00000000000000E+00
 cg2d: Sum(rhs),rhsMax =                    NaN  0.00000000000000E+00
 cg2d: Sum(rhs),rhsMax =                    NaN  0.00000000000000E+00
 cg2d: Sum(rhs),rhsMax =                    NaN  0.00000000000000E+00
 cg2d: Sum(rhs),rhsMax =                    NaN  0.00000000000000E+00
 cg2d: Sum(rhs),rhsMax =                    NaN  0.00000000000000E+00
 cg2d: Sum(rhs),rhsMax =                    NaN  0.00000000000000E+00
 cg2d: Sum(rhs),rhsMax =                    NaN  0.00000000000000E+00
 cg2d: Sum(rhs),rhsMax =                    NaN  0.00000000000000E+00
 cg2d: Sum(rhs),rhsMax =                    NaN  0.00000000000000E+00
 cg2d: Sum(rhs),rhsMax =                    NaN  0.00000000000000E+00
 cg2d: Sum(rhs),rhsMax =                    NaN  0.00000000000000E+00
 cg2d: Sum(rhs),rhsMax =                    NaN  0.00000000000000E+00
 cg2d: Sum(rhs),rhsMax =                    NaN  0.00000000000000E+00
 cg2d: Sum(rhs),rhsMax =                    NaN  0.00000000000000E+00
 cg2d: Sum(rhs),rhsMax =                    NaN  0.00000000000000E+00
 cg2d: Sum(rhs),rhsMax =                    NaN  0.00000000000000E+00
 cg2d: Sum(rhs),rhsMax =                    NaN  0.00000000000000E+00
 cg2d: Sum(rhs),rhsMax =                    NaN  0.00000000000000E+00
 cg2d: Sum(rhs),rhsMax =                    NaN  0.00000000000000E+00
 cg2d: Sum(rhs),rhsMax =                    NaN  0.00000000000000E+00
 cg2d: Sum(rhs),rhsMax =                    NaN  0.00000000000000E+00
 cg2d: Sum(rhs),rhsMax =                    NaN  0.00000000000000E+00
 cg2d: Sum(rhs),rhsMax =                    NaN  0.00000000000000E+00
 cg2d: Sum(rhs),rhsMax =                    NaN  0.00000000000000E+00
 cg2d: Sum(rhs),rhsMax =                    NaN  0.00000000000000E+00
 cg2d: Sum(rhs),rhsMax =                    NaN  0.00000000000000E+00
 cg2d: Sum(rhs),rhsMax =                    NaN  0.00000000000000E+00
 cg2d: Sum(rhs),rhsMax =                    NaN  0.00000000000000E+00
 cg2d: Sum(rhs),rhsMax =                    NaN  0.00000000000000E+00
 cg2d: Sum(rhs),rhsMax =                    NaN  0.00000000000000E+00
 cg2d: Sum(rhs),rhsMax =                    NaN  0.00000000000000E+00
 cg2d: Sum(rhs),rhsMax =                    NaN  0.00000000000000E+00
 cg2d: Sum(rhs),rhsMax =                    NaN  0.00000000000000E+00
 cg2d: Sum(rhs),rhsMax =                    NaN  0.00000000000000E+00
 cg2d: Sum(rhs),rhsMax =                    NaN  0.00000000000000E+00
 cg2d: Sum(rhs),rhsMax =                    NaN  0.00000000000000E+00
 cg2d: Sum(rhs),rhsMax =                    NaN  0.00000000000000E+00
 cg2d: Sum(rhs),rhsMax =                    NaN  0.00000000000000E+00
 cg2d: Sum(rhs),rhsMax =                    NaN  0.00000000000000E+00
 cg2d: Sum(rhs),rhsMax =                    NaN  0.00000000000000E+00
 cg2d: Sum(rhs),rhsMax =                    NaN  0.00000000000000E+00
 cg2d: Sum(rhs),rhsMax =                    NaN  0.00000000000000E+00
 cg2d: Sum(rhs),rhsMax =                    NaN  0.00000000000000E+00
 cg2d: Sum(rhs),rhsMax =                    NaN  0.00000000000000E+00
 cg2d: Sum(rhs),rhsMax =                    NaN  0.00000000000000E+00
 cg2d: Sum(rhs),rhsMax =                    NaN  0.00000000000000E+00
 cg2d: Sum(rhs),rhsMax =                    NaN  0.00000000000000E+00
 cg2d: Sum(rhs),rhsMax =                    NaN  0.00000000000000E+00
 cg2d: Sum(rhs),rhsMax =                    NaN  0.00000000000000E+00
 cg2d: Sum(rhs),rhsMax =                    NaN  0.00000000000000E+00
 cg2d: Sum(rhs),rhsMax =                    NaN  0.00000000000000E+00
 cg2d: Sum(rhs),rhsMax =                    NaN  0.00000000000000E+00
 cg2d: Sum(rhs),rhsMax =                    NaN  0.00000000000000E+00
 cg2d: Sum(rhs),rhsMax =                    NaN  0.00000000000000E+00
 cg2d: Sum(rhs),rhsMax =                    NaN  0.00000000000000E+00
 cg2d: Sum(rhs),rhsMax =                    NaN  0.00000000000000E+00
 cg2d: Sum(rhs),rhsMax =                    NaN  0.00000000000000E+00
 cg2d: Sum(rhs),rhsMax =                    NaN  0.00000000000000E+00
 cg2d: Sum(rhs),rhsMax =                    NaN  0.00000000000000E+00
 cg2d: Sum(rhs),rhsMax =                    NaN  0.00000000000000E+00
 cg2d: Sum(rhs),rhsMax =                    NaN  0.00000000000000E+00
 cg2d: Sum(rhs),rhsMax =                    NaN  0.00000000000000E+00
 cg2d: Sum(rhs),rhsMax =                    NaN  0.00000000000000E+00
 cg2d: Sum(rhs),rhsMax =                    NaN  0.00000000000000E+00
 cg2d: Sum(rhs),rhsMax =                    NaN  0.00000000000000E+00
 cg2d: Sum(rhs),rhsMax =                    NaN  0.00000000000000E+00
 cg2d: Sum(rhs),rhsMax =                    NaN  0.00000000000000E+00
 cg2d: Sum(rhs),rhsMax =                    NaN  0.00000000000000E+00
 cg2d: Sum(rhs),rhsMax =                    NaN  0.00000000000000E+00
 cg2d: Sum(rhs),rhsMax =                    NaN  0.00000000000000E+00
 cg2d: Sum(rhs),rhsMax =                    NaN  0.00000000000000E+00
 cg2d: Sum(rhs),rhsMax =                    NaN  0.00000000000000E+00
 cg2d: Sum(rhs),rhsMax =                    NaN  0.00000000000000E+00
 cg2d: Sum(rhs),rhsMax =                    NaN  0.00000000000000E+00
 cg2d: Sum(rhs),rhsMax =                    NaN  0.00000000000000E+00
 cg2d: Sum(rhs),rhsMax =                    NaN  0.00000000000000E+00
 cg2d: Sum(rhs),rhsMax =                    NaN  0.00000000000000E+00
 cg2d: Sum(rhs),rhsMax =                    NaN  0.00000000000000E+00
 cg2d: Sum(rhs),rhsMax =                    NaN  0.00000000000000E+00
 cg2d: Sum(rhs),rhsMax =                    NaN  0.00000000000000E+00
 cg2d: Sum(rhs),rhsMax =                    NaN  0.00000000000000E+00
 cg2d: Sum(rhs),rhsMax =                    NaN  0.00000000000000E+00
 cg2d: Sum(rhs),rhsMax =                    NaN  0.00000000000000E+00
 cg2d: Sum(rhs),rhsMax =                    NaN  0.00000000000000E+00
 cg2d: Sum(rhs),rhsMax =                    NaN  0.00000000000000E+00
 cg2d: Sum(rhs),rhsMax =                    NaN  0.00000000000000E+00
 cg2d: Sum(rhs),rhsMax =                    NaN  0.00000000000000E+00
 cg2d: Sum(rhs),rhsMax =                    NaN  0.00000000000000E+00
 cg2d: Sum(rhs),rhsMax =                    NaN  0.00000000000000E+00
 cg2d: Sum(rhs),rhsMax =                    NaN  0.00000000000000E+00
 cg2d: Sum(rhs),rhsMax =                    NaN  0.00000000000000E+00
 cg2d: Sum(rhs),rhsMax =                    NaN  0.00000000000000E+00
 cg2d: Sum(rhs),rhsMax =                    NaN  0.00000000000000E+00
 cg2d: Sum(rhs),rhsMax =                    NaN  0.00000000000000E+00
 cg2d: Sum(rhs),rhsMax =                    NaN  0.00000000000000E+00
 cg2d: Sum(rhs),rhsMax =                    NaN  0.00000000000000E+00
 cg2d: Sum(rhs),rhsMax =                    NaN  0.00000000000000E+00
 cg2d: Sum(rhs),rhsMax =                    NaN  0.00000000000000E+00
 cg2d: Sum(rhs),rhsMax =                    NaN  0.00000000000000E+00
 cg2d: Sum(rhs),rhsMax =                    NaN  0.00000000000000E+00
 cg2d: Sum(rhs),rhsMax =                    NaN  0.00000000000000E+00
 cg2d: Sum(rhs),rhsMax =                    NaN  0.00000000000000E+00
 cg2d: Sum(rhs),rhsMax =                    NaN  0.00000000000000E+00
 cg2d: Sum(rhs),rhsMax =                    NaN  0.00000000000000E+00
 cg2d: Sum(rhs),rhsMax =                    NaN  0.00000000000000E+00
 cg2d: Sum(rhs),rhsMax =                    NaN  0.00000000000000E+00
 cg2d: Sum(rhs),rhsMax =                    NaN  0.00000000000000E+00
 cg2d: Sum(rhs),rhsMax =                    NaN  0.00000000000000E+00
 cg2d: Sum(rhs),rhsMax =                    NaN  0.00000000000000E+00
 cg2d: Sum(rhs),rhsMax =                    NaN  0.00000000000000E+00
 cg2d: Sum(rhs),rhsMax =                    NaN  0.00000000000000E+00
 cg2d: Sum(rhs),rhsMax =                    NaN  0.00000000000000E+00
 cg2d: Sum(rhs),rhsMax =                    NaN  0.00000000000000E+00
 cg2d: Sum(rhs),rhsMax =                    NaN  0.00000000000000E+00
 cg2d: Sum(rhs),rhsMax =                    NaN  0.00000000000000E+00
 cg2d: Sum(rhs),rhsMax =                    NaN  0.00000000000000E+00
 cg2d: Sum(rhs),rhsMax =                    NaN  0.00000000000000E+00
 cg2d: Sum(rhs),rhsMax =                    NaN  0.00000000000000E+00
 cg2d: Sum(rhs),rhsMax =                    NaN  0.00000000000000E+00
 cg2d: Sum(rhs),rhsMax =                    NaN  0.00000000000000E+00
 cg2d: Sum(rhs),rhsMax =                    NaN  0.00000000000000E+00
 cg2d: Sum(rhs),rhsMax =                    NaN  0.00000000000000E+00
 cg2d: Sum(rhs),rhsMax =                    NaN  0.00000000000000E+00
 cg2d: Sum(rhs),rhsMax =                    NaN  0.00000000000000E+00
 cg2d: Sum(rhs),rhsMax =                    NaN  0.00000000000000E+00
 cg2d: Sum(rhs),rhsMax =                    NaN  0.00000000000000E+00
 cg2d: Sum(rhs),rhsMax =                    NaN  0.00000000000000E+00
 cg2d: Sum(rhs),rhsMax =                    NaN  0.00000000000000E+00
 cg2d: Sum(rhs),rhsMax =                    NaN  0.00000000000000E+00
 cg2d: Sum(rhs),rhsMax =                    NaN  0.00000000000000E+00
 cg2d: Sum(rhs),rhsMax =                    NaN  0.00000000000000E+00
 cg2d: Sum(rhs),rhsMax =                    NaN  0.00000000000000E+00
 cg2d: Sum(rhs),rhsMax =                    NaN  0.00000000000000E+00
 cg2d: Sum(rhs),rhsMax =                    NaN  0.00000000000000E+00
 cg2d: Sum(rhs),rhsMax =                    NaN  0.00000000000000E+00
 cg2d: Sum(rhs),rhsMax =                    NaN  0.00000000000000E+00
 cg2d: Sum(rhs),rhsMax =                    NaN  0.00000000000000E+00
 cg2d: Sum(rhs),rhsMax =                    NaN  0.00000000000000E+00
 cg2d: Sum(rhs),rhsMax =                    NaN  0.00000000000000E+00
 cg2d: Sum(rhs),rhsMax =                    NaN  0.00000000000000E+00
 cg2d: Sum(rhs),rhsMax =                    NaN  0.00000000000000E+00
 cg2d: Sum(rhs),rhsMax =                    NaN  0.00000000000000E+00
 cg2d: Sum(rhs),rhsMax =                    NaN  0.00000000000000E+00
 cg2d: Sum(rhs),rhsMax =                    NaN  0.00000000000000E+00
 cg2d: Sum(rhs),rhsMax =                    NaN  0.00000000000000E+00
 cg2d: Sum(rhs),rhsMax =                    NaN  0.00000000000000E+00
 cg2d: Sum(rhs),rhsMax =                    NaN  0.00000000000000E+00
 cg2d: Sum(rhs),rhsMax =                    NaN  0.00000000000000E+00
 cg2d: Sum(rhs),rhsMax =                    NaN  0.00000000000000E+00
 cg2d: Sum(rhs),rhsMax =                    NaN  0.00000000000000E+00
 cg2d: Sum(rhs),rhsMax =                    NaN  0.00000000000000E+00
 cg2d: Sum(rhs),rhsMax =                    NaN  0.00000000000000E+00
 cg2d: Sum(rhs),rhsMax =                    NaN  0.00000000000000E+00
 cg2d: Sum(rhs),rhsMax =                    NaN  0.00000000000000E+00
 cg2d: Sum(rhs),rhsMax =                    NaN  0.00000000000000E+00
 cg2d: Sum(rhs),rhsMax =                    NaN  0.00000000000000E+00
 cg2d: Sum(rhs),rhsMax =                    NaN  0.00000000000000E+00
 cg2d: Sum(rhs),rhsMax =                    NaN  0.00000000000000E+00
 cg2d: Sum(rhs),rhsMax =                    NaN  0.00000000000000E+00
 cg2d: Sum(rhs),rhsMax =                    NaN  0.00000000000000E+00
 cg2d: Sum(rhs),rhsMax =                    NaN  0.00000000000000E+00
 cg2d: Sum(rhs),rhsMax =                    NaN  0.00000000000000E+00
 cg2d: Sum(rhs),rhsMax =                    NaN  0.00000000000000E+00
 cg2d: Sum(rhs),rhsMax =                    NaN  0.00000000000000E+00
 cg2d: Sum(rhs),rhsMax =                    NaN  0.00000000000000E+00
 cg2d: Sum(rhs),rhsMax =                    NaN  0.00000000000000E+00
 cg2d: Sum(rhs),rhsMax =                    NaN  0.00000000000000E+00
 cg2d: Sum(rhs),rhsMax =                    NaN  0.00000000000000E+00
 cg2d: Sum(rhs),rhsMax =                    NaN  0.00000000000000E+00
 cg2d: Sum(rhs),rhsMax =                    NaN  0.00000000000000E+00
 cg2d: Sum(rhs),rhsMax =                    NaN  0.00000000000000E+00
 cg2d: Sum(rhs),rhsMax =                    NaN  0.00000000000000E+00
 cg2d: Sum(rhs),rhsMax =                    NaN  0.00000000000000E+00
 cg2d: Sum(rhs),rhsMax =                    NaN  0.00000000000000E+00
 cg2d: Sum(rhs),rhsMax =                    NaN  0.00000000000000E+00
 cg2d: Sum(rhs),rhsMax =                    NaN  0.00000000000000E+00
 cg2d: Sum(rhs),rhsMax =                    NaN  0.00000000000000E+00
 cg2d: Sum(rhs),rhsMax =                    NaN  0.00000000000000E+00
 cg2d: Sum(rhs),rhsMax =                    NaN  0.00000000000000E+00
 cg2d: Sum(rhs),rhsMax =                    NaN  0.00000000000000E+00
 cg2d: Sum(rhs),rhsMax =                    NaN  0.00000000000000E+00
 cg2d: Sum(rhs),rhsMax =                    NaN  0.00000000000000E+00
 cg2d: Sum(rhs),rhsMax =                    NaN  0.00000000000000E+00
 cg2d: Sum(rhs),rhsMax =                    NaN  0.00000000000000E+00
 cg2d: Sum(rhs),rhsMax =                    NaN  0.00000000000000E+00
 cg2d: Sum(rhs),rhsMax =                    NaN  0.00000000000000E+00
 cg2d: Sum(rhs),rhsMax =                    NaN  0.00000000000000E+00
 cg2d: Sum(rhs),rhsMax =                    NaN  0.00000000000000E+00
 cg2d: Sum(rhs),rhsMax =                    NaN  0.00000000000000E+00
 cg2d: Sum(rhs),rhsMax =                    NaN  0.00000000000000E+00
 cg2d: Sum(rhs),rhsMax =                    NaN  0.00000000000000E+00
 cg2d: Sum(rhs),rhsMax =                    NaN  0.00000000000000E+00
 cg2d: Sum(rhs),rhsMax =                    NaN  0.00000000000000E+00
 cg2d: Sum(rhs),rhsMax =                    NaN  0.00000000000000E+00
 cg2d: Sum(rhs),rhsMax =                    NaN  0.00000000000000E+00
 cg2d: Sum(rhs),rhsMax =                    NaN  0.00000000000000E+00
 cg2d: Sum(rhs),rhsMax =                    NaN  0.00000000000000E+00
 cg2d: Sum(rhs),rhsMax =                    NaN  0.00000000000000E+00
 cg2d: Sum(rhs),rhsMax =                    NaN  0.00000000000000E+00
 cg2d: Sum(rhs),rhsMax =                    NaN  0.00000000000000E+00
 cg2d: Sum(rhs),rhsMax =                    NaN  0.00000000000000E+00
 cg2d: Sum(rhs),rhsMax =                    NaN  0.00000000000000E+00
 cg2d: Sum(rhs),rhsMax =                    NaN  0.00000000000000E+00
 cg2d: Sum(rhs),rhsMax =                    NaN  0.00000000000000E+00
 cg2d: Sum(rhs),rhsMax =                    NaN  0.00000000000000E+00
 cg2d: Sum(rhs),rhsMax =                    NaN  0.00000000000000E+00
 cg2d: Sum(rhs),rhsMax =                    NaN  0.00000000000000E+00
 cg2d: Sum(rhs),rhsMax =                    NaN  0.00000000000000E+00
 cg2d: Sum(rhs),rhsMax =                    NaN  0.00000000000000E+00
 cg2d: Sum(rhs),rhsMax =                    NaN  0.00000000000000E+00
 cg2d: Sum(rhs),rhsMax =                    NaN  0.00000000000000E+00
 cg2d: Sum(rhs),rhsMax =                    NaN  0.00000000000000E+00
 cg2d: Sum(rhs),rhsMax =                    NaN  0.00000000000000E+00
 cg2d: Sum(rhs),rhsMax =                    NaN  0.00000000000000E+00
 cg2d: Sum(rhs),rhsMax =                    NaN  0.00000000000000E+00
 cg2d: Sum(rhs),rhsMax =                    NaN  0.00000000000000E+00
 cg2d: Sum(rhs),rhsMax =                    NaN  0.00000000000000E+00
 cg2d: Sum(rhs),rhsMax =                    NaN  0.00000000000000E+00
 cg2d: Sum(rhs),rhsMax =                    NaN  0.00000000000000E+00
 cg2d: Sum(rhs),rhsMax =                    NaN  0.00000000000000E+00
 cg2d: Sum(rhs),rhsMax =                    NaN  0.00000000000000E+00
 cg2d: Sum(rhs),rhsMax =                    NaN  0.00000000000000E+00
 cg2d: Sum(rhs),rhsMax =                    NaN  0.00000000000000E+00
 cg2d: Sum(rhs),rhsMax =                    NaN  0.00000000000000E+00
 cg2d: Sum(rhs),rhsMax =                    NaN  0.00000000000000E+00
 cg2d: Sum(rhs),rhsMax =                    NaN  0.00000000000000E+00
 cg2d: Sum(rhs),rhsMax =                    NaN  0.00000000000000E+00
 cg2d: Sum(rhs),rhsMax =                    NaN  0.00000000000000E+00
 cg2d: Sum(rhs),rhsMax =                    NaN  0.00000000000000E+00
 cg2d: Sum(rhs),rhsMax =                    NaN  0.00000000000000E+00
 cg2d: Sum(rhs),rhsMax =                    NaN  0.00000000000000E+00
 cg2d: Sum(rhs),rhsMax =                    NaN  0.00000000000000E+00
 cg2d: Sum(rhs),rhsMax =                    NaN  0.00000000000000E+00
 cg2d: Sum(rhs),rhsMax =                    NaN  0.00000000000000E+00
 cg2d: Sum(rhs),rhsMax =                    NaN  0.00000000000000E+00
 cg2d: Sum(rhs),rhsMax =                    NaN  0.00000000000000E+00
 cg2d: Sum(rhs),rhsMax =                    NaN  0.00000000000000E+00
 cg2d: Sum(rhs),rhsMax =                    NaN  0.00000000000000E+00
 cg2d: Sum(rhs),rhsMax =                    NaN  0.00000000000000E+00
 cg2d: Sum(rhs),rhsMax =                    NaN  0.00000000000000E+00
 cg2d: Sum(rhs),rhsMax =                    NaN  0.00000000000000E+00
 cg2d: Sum(rhs),rhsMax =                    NaN  0.00000000000000E+00
 cg2d: Sum(rhs),rhsMax =                    NaN  0.00000000000000E+00
 cg2d: Sum(rhs),rhsMax =                    NaN  0.00000000000000E+00
 cg2d: Sum(rhs),rhsMax =                    NaN  0.00000000000000E+00
 cg2d: Sum(rhs),rhsMax =                    NaN  0.00000000000000E+00
 cg2d: Sum(rhs),rhsMax =                    NaN  0.00000000000000E+00
 cg2d: Sum(rhs),rhsMax =                    NaN  0.00000000000000E+00
 cg2d: Sum(rhs),rhsMax =                    NaN  0.00000000000000E+00
 cg2d: Sum(rhs),rhsMax =                    NaN  0.00000000000000E+00
 cg2d: Sum(rhs),rhsMax =                    NaN  0.00000000000000E+00
 cg2d: Sum(rhs),rhsMax =                    NaN  0.00000000000000E+00
 cg2d: Sum(rhs),rhsMax =                    NaN  0.00000000000000E+00
 cg2d: Sum(rhs),rhsMax =                    NaN  0.00000000000000E+00
 cg2d: Sum(rhs),rhsMax =                    NaN  0.00000000000000E+00
 cg2d: Sum(rhs),rhsMax =                    NaN  0.00000000000000E+00
 cg2d: Sum(rhs),rhsMax =                    NaN  0.00000000000000E+00
 cg2d: Sum(rhs),rhsMax =                    NaN  0.00000000000000E+00
 cg2d: Sum(rhs),rhsMax =                    NaN  0.00000000000000E+00
 cg2d: Sum(rhs),rhsMax =                    NaN  0.00000000000000E+00
 cg2d: Sum(rhs),rhsMax =                    NaN  0.00000000000000E+00
 cg2d: Sum(rhs),rhsMax =                    NaN  0.00000000000000E+00
 cg2d: Sum(rhs),rhsMax =                    NaN  0.00000000000000E+00
 cg2d: Sum(rhs),rhsMax =                    NaN  0.00000000000000E+00
 cg2d: Sum(rhs),rhsMax =                    NaN  0.00000000000000E+00
 cg2d: Sum(rhs),rhsMax =                    NaN  0.00000000000000E+00
 cg2d: Sum(rhs),rhsMax =                    NaN  0.00000000000000E+00
 cg2d: Sum(rhs),rhsMax =                    NaN  0.00000000000000E+00
 cg2d: Sum(rhs),rhsMax =                    NaN  0.00000000000000E+00
 cg2d: Sum(rhs),rhsMax =                    NaN  0.00000000000000E+00
 cg2d: Sum(rhs),rhsMax =                    NaN  0.00000000000000E+00
 cg2d: Sum(rhs),rhsMax =                    NaN  0.00000000000000E+00
 cg2d: Sum(rhs),rhsMax =                    NaN  0.00000000000000E+00
 cg2d: Sum(rhs),rhsMax =                    NaN  0.00000000000000E+00
 cg2d: Sum(rhs),rhsMax =                    NaN  0.00000000000000E+00
 cg2d: Sum(rhs),rhsMax =                    NaN  0.00000000000000E+00
 cg2d: Sum(rhs),rhsMax =                    NaN  0.00000000000000E+00
 cg2d: Sum(rhs),rhsMax =                    NaN  0.00000000000000E+00
 cg2d: Sum(rhs),rhsMax =                    NaN  0.00000000000000E+00
 cg2d: Sum(rhs),rhsMax =                    NaN  0.00000000000000E+00
 cg2d: Sum(rhs),rhsMax =                    NaN  0.00000000000000E+00
 cg2d: Sum(rhs),rhsMax =                    NaN  0.00000000000000E+00
 cg2d: Sum(rhs),rhsMax =                    NaN  0.00000000000000E+00
 cg2d: Sum(rhs),rhsMax =                    NaN  0.00000000000000E+00
 cg2d: Sum(rhs),rhsMax =                    NaN  0.00000000000000E+00
 cg2d: Sum(rhs),rhsMax =                    NaN  0.00000000000000E+00
 cg2d: Sum(rhs),rhsMax =                    NaN  0.00000000000000E+00
 cg2d: Sum(rhs),rhsMax =                    NaN  0.00000000000000E+00
 cg2d: Sum(rhs),rhsMax =                    NaN  0.00000000000000E+00
 cg2d: Sum(rhs),rhsMax =                    NaN  0.00000000000000E+00
 cg2d: Sum(rhs),rhsMax =                    NaN  0.00000000000000E+00
 cg2d: Sum(rhs),rhsMax =                    NaN  0.00000000000000E+00
 cg2d: Sum(rhs),rhsMax =                    NaN  0.00000000000000E+00
 cg2d: Sum(rhs),rhsMax =                    NaN  0.00000000000000E+00
 cg2d: Sum(rhs),rhsMax =                    NaN  0.00000000000000E+00
 cg2d: Sum(rhs),rhsMax =                    NaN  0.00000000000000E+00
 cg2d: Sum(rhs),rhsMax =                    NaN  0.00000000000000E+00
(PID.TID 0000.0001)      cg2d_init_res =                    NaN
(PID.TID 0000.0001)      cg2d_iters(min,last) =      -1    1000
(PID.TID 0000.0001)      cg2d_last_res =                    NaN
(PID.TID 0000.0001) // =======================================================
(PID.TID 0000.0001) // Begin MONITOR dynamic field statistics
(PID.TID 0000.0001) // =======================================================
(PID.TID 0000.0001) %MON time_tsnumber                =                  6240
(PID.TID 0000.0001) %MON time_secondsf                =   9.3600000000000E+04
(PID.TID 0000.0001) %MON dynstat_eta_max              =                   NaN
(PID.TID 0000.0001) %MON dynstat_eta_min              =                   NaN
(PID.TID 0000.0001) %MON dynstat_eta_mean             =                   NaN
(PID.TID 0000.0001) %MON dynstat_eta_sd               =                   NaN
(PID.TID 0000.0001) %MON dynstat_eta_del2             =                   NaN
(PID.TID 0000.0001) %MON dynstat_uvel_max             =   6.6809804669674E-01
(PID.TID 0000.0001) %MON dynstat_uvel_min             =   6.6809804669674E-01
(PID.TID 0000.0001) %MON dynstat_uvel_mean            =                   NaN
(PID.TID 0000.0001) %MON dynstat_uvel_sd              =                   NaN
(PID.TID 0000.0001) %MON dynstat_uvel_del2            =                   NaN
(PID.TID 0000.0001) %MON dynstat_vvel_max             =                   NaN
(PID.TID 0000.0001) %MON dynstat_vvel_min             =                   NaN
(PID.TID 0000.0001) %MON dynstat_vvel_mean            =                   NaN
(PID.TID 0000.0001) %MON dynstat_vvel_sd              =                   NaN
(PID.TID 0000.0001) %MON dynstat_vvel_del2            =                   NaN
(PID.TID 0000.0001) %MON dynstat_wvel_max             =                   NaN
(PID.TID 0000.0001) %MON dynstat_wvel_min             =                   NaN
(PID.TID 0000.0001) %MON dynstat_wvel_mean            =                   NaN
(PID.TID 0000.0001) %MON dynstat_wvel_sd              =                   NaN
(PID.TID 0000.0001) %MON dynstat_wvel_del2            =                   NaN
(PID.TID 0000.0001) %MON dynstat_theta_max            =                   NaN
(PID.TID 0000.0001) %MON dynstat_theta_min            =                   NaN
(PID.TID 0000.0001) %MON dynstat_theta_mean           =                   NaN
(PID.TID 0000.0001) %MON dynstat_theta_sd             =                   NaN
(PID.TID 0000.0001) %MON dynstat_theta_del2           =                   NaN
(PID.TID 0000.0001) %MON dynstat_salt_max             =   3.5000000000000E+01
(PID.TID 0000.0001) %MON dynstat_salt_min             =   3.5000000000000E+01
(PID.TID 0000.0001) %MON dynstat_salt_mean            =   3.5000000000000E+01
(PID.TID 0000.0001) %MON dynstat_salt_sd              =   2.1316282072803E-14
(PID.TID 0000.0001) %MON dynstat_salt_del2            =   0.0000000000000E+00
(PID.TID 0000.0001) %MON dynstat_sst_max              =                   NaN
(PID.TID 0000.0001) %MON dynstat_sst_min              =                   NaN
(PID.TID 0000.0001) %MON dynstat_sst_mean             =                   NaN
(PID.TID 0000.0001) %MON dynstat_sst_sd               =                   NaN
(PID.TID 0000.0001) %MON dynstat_sst_del2             =                   NaN
(PID.TID 0000.0001) %MON dynstat_sss_max              =   3.5000000000000E+01
(PID.TID 0000.0001) %MON dynstat_sss_min              =   3.5000000000000E+01
(PID.TID 0000.0001) %MON dynstat_sss_mean             =   3.5000000000000E+01
(PID.TID 0000.0001) %MON dynstat_sss_sd               =   7.8159700933611E-14
(PID.TID 0000.0001) %MON dynstat_sss_del2             =   0.0000000000000E+00
(PID.TID 0000.0001) %MON forcing_qnet_max             =   0.0000000000000E+00
(PID.TID 0000.0001) %MON forcing_qnet_min             =   0.0000000000000E+00
(PID.TID 0000.0001) %MON forcing_qnet_mean            =   0.0000000000000E+00
(PID.TID 0000.0001) %MON forcing_qnet_sd              =   0.0000000000000E+00
(PID.TID 0000.0001) %MON forcing_qnet_del2            =   0.0000000000000E+00
(PID.TID 0000.0001) %MON forcing_qsw_max              =   0.0000000000000E+00
(PID.TID 0000.0001) %MON forcing_qsw_min              =   0.0000000000000E+00
(PID.TID 0000.0001) %MON forcing_qsw_mean             =   0.0000000000000E+00
(PID.TID 0000.0001) %MON forcing_qsw_sd               =   0.0000000000000E+00
(PID.TID 0000.0001) %MON forcing_qsw_del2             =   0.0000000000000E+00
(PID.TID 0000.0001) %MON forcing_empmr_max            =   0.0000000000000E+00
(PID.TID 0000.0001) %MON forcing_empmr_min            =   0.0000000000000E+00
(PID.TID 0000.0001) %MON forcing_empmr_mean           =   0.0000000000000E+00
(PID.TID 0000.0001) %MON forcing_empmr_sd             =   0.0000000000000E+00
(PID.TID 0000.0001) %MON forcing_empmr_del2           =   0.0000000000000E+00
(PID.TID 0000.0001) %MON forcing_fu_max               =   0.0000000000000E+00
(PID.TID 0000.0001) %MON forcing_fu_min               =   0.0000000000000E+00
(PID.TID 0000.0001) %MON forcing_fu_mean              =   0.0000000000000E+00
(PID.TID 0000.0001) %MON forcing_fu_sd                =   0.0000000000000E+00
(PID.TID 0000.0001) %MON forcing_fu_del2              =   0.0000000000000E+00
(PID.TID 0000.0001) %MON forcing_fv_max               =   0.0000000000000E+00
(PID.TID 0000.0001) %MON forcing_fv_min               =   0.0000000000000E+00
(PID.TID 0000.0001) %MON forcing_fv_mean              =   0.0000000000000E+00
(PID.TID 0000.0001) %MON forcing_fv_sd                =   0.0000000000000E+00
(PID.TID 0000.0001) %MON forcing_fv_del2              =   0.0000000000000E+00
(PID.TID 0000.0001) %MON advcfl_uvel_max              =   9.5851945436867E-03
(PID.TID 0000.0001) %MON advcfl_vvel_max              =   0.0000000000000E+00
(PID.TID 0000.0001) %MON advcfl_wvel_max              =   0.0000000000000E+00
(PID.TID 0000.0001) %MON advcfl_W_hf_max              =   0.0000000000000E+00
(PID.TID 0000.0001) %MON pe_b_mean                    =                   NaN
(PID.TID 0000.0001) %MON ke_max                       =   0.0000000000000E+00
(PID.TID 0000.0001) %MON ke_mean                      =                   NaN
(PID.TID 0000.0001) %MON ke_vol                       =   9.5889217545975E+10
(PID.TID 0000.0001) %MON vort_r_min                   =   0.0000000000000E+00
(PID.TID 0000.0001) %MON vort_r_max                   =   0.0000000000000E+00
(PID.TID 0000.0001) %MON vort_a_mean                  =                   NaN
(PID.TID 0000.0001) %MON vort_a_sd                    =                   NaN
(PID.TID 0000.0001) %MON vort_p_mean                  =                   NaN
(PID.TID 0000.0001) %MON vort_p_sd                    =   0.0000000000000E+00
(PID.TID 0000.0001) %MON surfExpan_theta_mean         =                   NaN
(PID.TID 0000.0001) %MON surfExpan_salt_mean          =                   NaN
(PID.TID 0000.0001) // =======================================================
(PID.TID 0000.0001) // End MONITOR dynamic field statistics
(PID.TID 0000.0001) // =======================================================
(PID.TID 0000.0001) // =======================================================
(PID.TID 0000.0001) // Begin OBCS MONITOR field statistics
(PID.TID 0000.0001) // =======================================================
(PID.TID 0000.0001) %MON obc_E_uVel_max               =   6.6809804669674E-01
(PID.TID 0000.0001) %MON obc_E_uVel_min               =   6.6809804669674E-01
(PID.TID 0000.0001) %MON obc_E_uVel_mean              =   6.6809804669674E-01
(PID.TID 0000.0001) %MON obc_E_uVel_sd                =   1.6660004686563E-08
(PID.TID 0000.0001) %MON obc_E_uVel_Int               =   6.6809804669674E+05
(PID.TID 0000.0001) %MON obc_W_uVel_max               =   6.6809804669674E-01
(PID.TID 0000.0001) %MON obc_W_uVel_min               =   6.6809804669674E-01
(PID.TID 0000.0001) %MON obc_W_uVel_mean              =   6.6809804669674E-01
(PID.TID 0000.0001) %MON obc_W_uVel_sd                =   1.6660004686563E-08
(PID.TID 0000.0001) %MON obc_W_uVel_Int               =   6.6809804669674E+05
(PID.TID 0000.0001) // =======================================================
(PID.TID 0000.0001) // End OBCS MONITOR field statistics
(PID.TID 0000.0001) // =======================================================
 cg2d: Sum(rhs),rhsMax =                    NaN  0.00000000000000E+00
 cg2d: Sum(rhs),rhsMax =                    NaN  0.00000000000000E+00
 cg2d: Sum(rhs),rhsMax =                    NaN  0.00000000000000E+00
 cg2d: Sum(rhs),rhsMax =                    NaN  0.00000000000000E+00
 cg2d: Sum(rhs),rhsMax =                    NaN  0.00000000000000E+00
 cg2d: Sum(rhs),rhsMax =                    NaN  0.00000000000000E+00
 cg2d: Sum(rhs),rhsMax =                    NaN  0.00000000000000E+00
 cg2d: Sum(rhs),rhsMax =                    NaN  0.00000000000000E+00
 cg2d: Sum(rhs),rhsMax =                    NaN  0.00000000000000E+00
 cg2d: Sum(rhs),rhsMax =                    NaN  0.00000000000000E+00
 cg2d: Sum(rhs),rhsMax =                    NaN  0.00000000000000E+00
 cg2d: Sum(rhs),rhsMax =                    NaN  0.00000000000000E+00
 cg2d: Sum(rhs),rhsMax =                    NaN  0.00000000000000E+00
 cg2d: Sum(rhs),rhsMax =                    NaN  0.00000000000000E+00
 cg2d: Sum(rhs),rhsMax =                    NaN  0.00000000000000E+00
 cg2d: Sum(rhs),rhsMax =                    NaN  0.00000000000000E+00
 cg2d: Sum(rhs),rhsMax =                    NaN  0.00000000000000E+00
 cg2d: Sum(rhs),rhsMax =                    NaN  0.00000000000000E+00
 cg2d: Sum(rhs),rhsMax =                    NaN  0.00000000000000E+00
 cg2d: Sum(rhs),rhsMax =                    NaN  0.00000000000000E+00
 cg2d: Sum(rhs),rhsMax =                    NaN  0.00000000000000E+00
 cg2d: Sum(rhs),rhsMax =                    NaN  0.00000000000000E+00
 cg2d: Sum(rhs),rhsMax =                    NaN  0.00000000000000E+00
 cg2d: Sum(rhs),rhsMax =                    NaN  0.00000000000000E+00
 cg2d: Sum(rhs),rhsMax =                    NaN  0.00000000000000E+00
 cg2d: Sum(rhs),rhsMax =                    NaN  0.00000000000000E+00
 cg2d: Sum(rhs),rhsMax =                    NaN  0.00000000000000E+00
 cg2d: Sum(rhs),rhsMax =                    NaN  0.00000000000000E+00
 cg2d: Sum(rhs),rhsMax =                    NaN  0.00000000000000E+00
 cg2d: Sum(rhs),rhsMax =                    NaN  0.00000000000000E+00
 cg2d: Sum(rhs),rhsMax =                    NaN  0.00000000000000E+00
 cg2d: Sum(rhs),rhsMax =                    NaN  0.00000000000000E+00
 cg2d: Sum(rhs),rhsMax =                    NaN  0.00000000000000E+00
 cg2d: Sum(rhs),rhsMax =                    NaN  0.00000000000000E+00
 cg2d: Sum(rhs),rhsMax =                    NaN  0.00000000000000E+00
 cg2d: Sum(rhs),rhsMax =                    NaN  0.00000000000000E+00
 cg2d: Sum(rhs),rhsMax =                    NaN  0.00000000000000E+00
 cg2d: Sum(rhs),rhsMax =                    NaN  0.00000000000000E+00
 cg2d: Sum(rhs),rhsMax =                    NaN  0.00000000000000E+00
 cg2d: Sum(rhs),rhsMax =                    NaN  0.00000000000000E+00
 cg2d: Sum(rhs),rhsMax =                    NaN  0.00000000000000E+00
 cg2d: Sum(rhs),rhsMax =                    NaN  0.00000000000000E+00
 cg2d: Sum(rhs),rhsMax =                    NaN  0.00000000000000E+00
 cg2d: Sum(rhs),rhsMax =                    NaN  0.00000000000000E+00
 cg2d: Sum(rhs),rhsMax =                    NaN  0.00000000000000E+00
 cg2d: Sum(rhs),rhsMax =                    NaN  0.00000000000000E+00
 cg2d: Sum(rhs),rhsMax =                    NaN  0.00000000000000E+00
 cg2d: Sum(rhs),rhsMax =                    NaN  0.00000000000000E+00
 cg2d: Sum(rhs),rhsMax =                    NaN  0.00000000000000E+00
 cg2d: Sum(rhs),rhsMax =                    NaN  0.00000000000000E+00
 cg2d: Sum(rhs),rhsMax =                    NaN  0.00000000000000E+00
 cg2d: Sum(rhs),rhsMax =                    NaN  0.00000000000000E+00
 cg2d: Sum(rhs),rhsMax =                    NaN  0.00000000000000E+00
 cg2d: Sum(rhs),rhsMax =                    NaN  0.00000000000000E+00
 cg2d: Sum(rhs),rhsMax =                    NaN  0.00000000000000E+00
 cg2d: Sum(rhs),rhsMax =                    NaN  0.00000000000000E+00
 cg2d: Sum(rhs),rhsMax =                    NaN  0.00000000000000E+00
 cg2d: Sum(rhs),rhsMax =                    NaN  0.00000000000000E+00
 cg2d: Sum(rhs),rhsMax =                    NaN  0.00000000000000E+00
 cg2d: Sum(rhs),rhsMax =                    NaN  0.00000000000000E+00
 cg2d: Sum(rhs),rhsMax =                    NaN  0.00000000000000E+00
 cg2d: Sum(rhs),rhsMax =                    NaN  0.00000000000000E+00
 cg2d: Sum(rhs),rhsMax =                    NaN  0.00000000000000E+00
 cg2d: Sum(rhs),rhsMax =                    NaN  0.00000000000000E+00
 cg2d: Sum(rhs),rhsMax =                    NaN  0.00000000000000E+00
 cg2d: Sum(rhs),rhsMax =                    NaN  0.00000000000000E+00
 cg2d: Sum(rhs),rhsMax =                    NaN  0.00000000000000E+00
 cg2d: Sum(rhs),rhsMax =                    NaN  0.00000000000000E+00
 cg2d: Sum(rhs),rhsMax =                    NaN  0.00000000000000E+00
 cg2d: Sum(rhs),rhsMax =                    NaN  0.00000000000000E+00
 cg2d: Sum(rhs),rhsMax =                    NaN  0.00000000000000E+00
 cg2d: Sum(rhs),rhsMax =                    NaN  0.00000000000000E+00
 cg2d: Sum(rhs),rhsMax =                    NaN  0.00000000000000E+00
 cg2d: Sum(rhs),rhsMax =                    NaN  0.00000000000000E+00
 cg2d: Sum(rhs),rhsMax =                    NaN  0.00000000000000E+00
 cg2d: Sum(rhs),rhsMax =                    NaN  0.00000000000000E+00
 cg2d: Sum(rhs),rhsMax =                    NaN  0.00000000000000E+00
 cg2d: Sum(rhs),rhsMax =                    NaN  0.00000000000000E+00
 cg2d: Sum(rhs),rhsMax =                    NaN  0.00000000000000E+00
 cg2d: Sum(rhs),rhsMax =                    NaN  0.00000000000000E+00
 cg2d: Sum(rhs),rhsMax =                    NaN  0.00000000000000E+00
 cg2d: Sum(rhs),rhsMax =                    NaN  0.00000000000000E+00
 cg2d: Sum(rhs),rhsMax =                    NaN  0.00000000000000E+00
 cg2d: Sum(rhs),rhsMax =                    NaN  0.00000000000000E+00
 cg2d: Sum(rhs),rhsMax =                    NaN  0.00000000000000E+00
 cg2d: Sum(rhs),rhsMax =                    NaN  0.00000000000000E+00
 cg2d: Sum(rhs),rhsMax =                    NaN  0.00000000000000E+00
 cg2d: Sum(rhs),rhsMax =                    NaN  0.00000000000000E+00
 cg2d: Sum(rhs),rhsMax =                    NaN  0.00000000000000E+00
 cg2d: Sum(rhs),rhsMax =                    NaN  0.00000000000000E+00
 cg2d: Sum(rhs),rhsMax =                    NaN  0.00000000000000E+00
 cg2d: Sum(rhs),rhsMax =                    NaN  0.00000000000000E+00
 cg2d: Sum(rhs),rhsMax =                    NaN  0.00000000000000E+00
 cg2d: Sum(rhs),rhsMax =                    NaN  0.00000000000000E+00
 cg2d: Sum(rhs),rhsMax =                    NaN  0.00000000000000E+00
 cg2d: Sum(rhs),rhsMax =                    NaN  0.00000000000000E+00
 cg2d: Sum(rhs),rhsMax =                    NaN  0.00000000000000E+00
 cg2d: Sum(rhs),rhsMax =                    NaN  0.00000000000000E+00
 cg2d: Sum(rhs),rhsMax =                    NaN  0.00000000000000E+00
 cg2d: Sum(rhs),rhsMax =                    NaN  0.00000000000000E+00
 cg2d: Sum(rhs),rhsMax =                    NaN  0.00000000000000E+00
 cg2d: Sum(rhs),rhsMax =                    NaN  0.00000000000000E+00
 cg2d: Sum(rhs),rhsMax =                    NaN  0.00000000000000E+00
 cg2d: Sum(rhs),rhsMax =                    NaN  0.00000000000000E+00
 cg2d: Sum(rhs),rhsMax =                    NaN  0.00000000000000E+00
 cg2d: Sum(rhs),rhsMax =                    NaN  0.00000000000000E+00
 cg2d: Sum(rhs),rhsMax =                    NaN  0.00000000000000E+00
 cg2d: Sum(rhs),rhsMax =                    NaN  0.00000000000000E+00
 cg2d: Sum(rhs),rhsMax =                    NaN  0.00000000000000E+00
 cg2d: Sum(rhs),rhsMax =                    NaN  0.00000000000000E+00
 cg2d: Sum(rhs),rhsMax =                    NaN  0.00000000000000E+00
 cg2d: Sum(rhs),rhsMax =                    NaN  0.00000000000000E+00
 cg2d: Sum(rhs),rhsMax =                    NaN  0.00000000000000E+00
 cg2d: Sum(rhs),rhsMax =                    NaN  0.00000000000000E+00
 cg2d: Sum(rhs),rhsMax =                    NaN  0.00000000000000E+00
 cg2d: Sum(rhs),rhsMax =                    NaN  0.00000000000000E+00
 cg2d: Sum(rhs),rhsMax =                    NaN  0.00000000000000E+00
 cg2d: Sum(rhs),rhsMax =                    NaN  0.00000000000000E+00
 cg2d: Sum(rhs),rhsMax =                    NaN  0.00000000000000E+00
 cg2d: Sum(rhs),rhsMax =                    NaN  0.00000000000000E+00
 cg2d: Sum(rhs),rhsMax =                    NaN  0.00000000000000E+00
 cg2d: Sum(rhs),rhsMax =                    NaN  0.00000000000000E+00
 cg2d: Sum(rhs),rhsMax =                    NaN  0.00000000000000E+00
 cg2d: Sum(rhs),rhsMax =                    NaN  0.00000000000000E+00
 cg2d: Sum(rhs),rhsMax =                    NaN  0.00000000000000E+00
 cg2d: Sum(rhs),rhsMax =                    NaN  0.00000000000000E+00
 cg2d: Sum(rhs),rhsMax =                    NaN  0.00000000000000E+00
 cg2d: Sum(rhs),rhsMax =                    NaN  0.00000000000000E+00
 cg2d: Sum(rhs),rhsMax =                    NaN  0.00000000000000E+00
 cg2d: Sum(rhs),rhsMax =                    NaN  0.00000000000000E+00
 cg2d: Sum(rhs),rhsMax =                    NaN  0.00000000000000E+00
 cg2d: Sum(rhs),rhsMax =                    NaN  0.00000000000000E+00
 cg2d: Sum(rhs),rhsMax =                    NaN  0.00000000000000E+00
 cg2d: Sum(rhs),rhsMax =                    NaN  0.00000000000000E+00
 cg2d: Sum(rhs),rhsMax =                    NaN  0.00000000000000E+00
 cg2d: Sum(rhs),rhsMax =                    NaN  0.00000000000000E+00
 cg2d: Sum(rhs),rhsMax =                    NaN  0.00000000000000E+00
 cg2d: Sum(rhs),rhsMax =                    NaN  0.00000000000000E+00
 cg2d: Sum(rhs),rhsMax =                    NaN  0.00000000000000E+00
 cg2d: Sum(rhs),rhsMax =                    NaN  0.00000000000000E+00
 cg2d: Sum(rhs),rhsMax =                    NaN  0.00000000000000E+00
 cg2d: Sum(rhs),rhsMax =                    NaN  0.00000000000000E+00
 cg2d: Sum(rhs),rhsMax =                    NaN  0.00000000000000E+00
 cg2d: Sum(rhs),rhsMax =                    NaN  0.00000000000000E+00
 cg2d: Sum(rhs),rhsMax =                    NaN  0.00000000000000E+00
 cg2d: Sum(rhs),rhsMax =                    NaN  0.00000000000000E+00
 cg2d: Sum(rhs),rhsMax =                    NaN  0.00000000000000E+00
 cg2d: Sum(rhs),rhsMax =                    NaN  0.00000000000000E+00
 cg2d: Sum(rhs),rhsMax =                    NaN  0.00000000000000E+00
 cg2d: Sum(rhs),rhsMax =                    NaN  0.00000000000000E+00
 cg2d: Sum(rhs),rhsMax =                    NaN  0.00000000000000E+00
 cg2d: Sum(rhs),rhsMax =                    NaN  0.00000000000000E+00
 cg2d: Sum(rhs),rhsMax =                    NaN  0.00000000000000E+00
 cg2d: Sum(rhs),rhsMax =                    NaN  0.00000000000000E+00
 cg2d: Sum(rhs),rhsMax =                    NaN  0.00000000000000E+00
 cg2d: Sum(rhs),rhsMax =                    NaN  0.00000000000000E+00
 cg2d: Sum(rhs),rhsMax =                    NaN  0.00000000000000E+00
 cg2d: Sum(rhs),rhsMax =                    NaN  0.00000000000000E+00
 cg2d: Sum(rhs),rhsMax =                    NaN  0.00000000000000E+00
 cg2d: Sum(rhs),rhsMax =                    NaN  0.00000000000000E+00
 cg2d: Sum(rhs),rhsMax =                    NaN  0.00000000000000E+00
 cg2d: Sum(rhs),rhsMax =                    NaN  0.00000000000000E+00
 cg2d: Sum(rhs),rhsMax =                    NaN  0.00000000000000E+00
 cg2d: Sum(rhs),rhsMax =                    NaN  0.00000000000000E+00
 cg2d: Sum(rhs),rhsMax =                    NaN  0.00000000000000E+00
 cg2d: Sum(rhs),rhsMax =                    NaN  0.00000000000000E+00
 cg2d: Sum(rhs),rhsMax =                    NaN  0.00000000000000E+00
 cg2d: Sum(rhs),rhsMax =                    NaN  0.00000000000000E+00
 cg2d: Sum(rhs),rhsMax =                    NaN  0.00000000000000E+00
 cg2d: Sum(rhs),rhsMax =                    NaN  0.00000000000000E+00
 cg2d: Sum(rhs),rhsMax =                    NaN  0.00000000000000E+00
 cg2d: Sum(rhs),rhsMax =                    NaN  0.00000000000000E+00
 cg2d: Sum(rhs),rhsMax =                    NaN  0.00000000000000E+00
 cg2d: Sum(rhs),rhsMax =                    NaN  0.00000000000000E+00
 cg2d: Sum(rhs),rhsMax =                    NaN  0.00000000000000E+00
 cg2d: Sum(rhs),rhsMax =                    NaN  0.00000000000000E+00
 cg2d: Sum(rhs),rhsMax =                    NaN  0.00000000000000E+00
 cg2d: Sum(rhs),rhsMax =                    NaN  0.00000000000000E+00
 cg2d: Sum(rhs),rhsMax =                    NaN  0.00000000000000E+00
 cg2d: Sum(rhs),rhsMax =                    NaN  0.00000000000000E+00
 cg2d: Sum(rhs),rhsMax =                    NaN  0.00000000000000E+00
 cg2d: Sum(rhs),rhsMax =                    NaN  0.00000000000000E+00
 cg2d: Sum(rhs),rhsMax =                    NaN  0.00000000000000E+00
 cg2d: Sum(rhs),rhsMax =                    NaN  0.00000000000000E+00
 cg2d: Sum(rhs),rhsMax =                    NaN  0.00000000000000E+00
 cg2d: Sum(rhs),rhsMax =                    NaN  0.00000000000000E+00
 cg2d: Sum(rhs),rhsMax =                    NaN  0.00000000000000E+00
 cg2d: Sum(rhs),rhsMax =                    NaN  0.00000000000000E+00
 cg2d: Sum(rhs),rhsMax =                    NaN  0.00000000000000E+00
 cg2d: Sum(rhs),rhsMax =                    NaN  0.00000000000000E+00
 cg2d: Sum(rhs),rhsMax =                    NaN  0.00000000000000E+00
 cg2d: Sum(rhs),rhsMax =                    NaN  0.00000000000000E+00
 cg2d: Sum(rhs),rhsMax =                    NaN  0.00000000000000E+00
 cg2d: Sum(rhs),rhsMax =                    NaN  0.00000000000000E+00
 cg2d: Sum(rhs),rhsMax =                    NaN  0.00000000000000E+00
 cg2d: Sum(rhs),rhsMax =                    NaN  0.00000000000000E+00
 cg2d: Sum(rhs),rhsMax =                    NaN  0.00000000000000E+00
 cg2d: Sum(rhs),rhsMax =                    NaN  0.00000000000000E+00
 cg2d: Sum(rhs),rhsMax =                    NaN  0.00000000000000E+00
 cg2d: Sum(rhs),rhsMax =                    NaN  0.00000000000000E+00
 cg2d: Sum(rhs),rhsMax =                    NaN  0.00000000000000E+00
 cg2d: Sum(rhs),rhsMax =                    NaN  0.00000000000000E+00
 cg2d: Sum(rhs),rhsMax =                    NaN  0.00000000000000E+00
 cg2d: Sum(rhs),rhsMax =                    NaN  0.00000000000000E+00
 cg2d: Sum(rhs),rhsMax =                    NaN  0.00000000000000E+00
 cg2d: Sum(rhs),rhsMax =                    NaN  0.00000000000000E+00
 cg2d: Sum(rhs),rhsMax =                    NaN  0.00000000000000E+00
 cg2d: Sum(rhs),rhsMax =                    NaN  0.00000000000000E+00
 cg2d: Sum(rhs),rhsMax =                    NaN  0.00000000000000E+00
 cg2d: Sum(rhs),rhsMax =                    NaN  0.00000000000000E+00
 cg2d: Sum(rhs),rhsMax =                    NaN  0.00000000000000E+00
 cg2d: Sum(rhs),rhsMax =                    NaN  0.00000000000000E+00
 cg2d: Sum(rhs),rhsMax =                    NaN  0.00000000000000E+00
 cg2d: Sum(rhs),rhsMax =                    NaN  0.00000000000000E+00
 cg2d: Sum(rhs),rhsMax =                    NaN  0.00000000000000E+00
 cg2d: Sum(rhs),rhsMax =                    NaN  0.00000000000000E+00
 cg2d: Sum(rhs),rhsMax =                    NaN  0.00000000000000E+00
 cg2d: Sum(rhs),rhsMax =                    NaN  0.00000000000000E+00
 cg2d: Sum(rhs),rhsMax =                    NaN  0.00000000000000E+00
 cg2d: Sum(rhs),rhsMax =                    NaN  0.00000000000000E+00
 cg2d: Sum(rhs),rhsMax =                    NaN  0.00000000000000E+00
 cg2d: Sum(rhs),rhsMax =                    NaN  0.00000000000000E+00
 cg2d: Sum(rhs),rhsMax =                    NaN  0.00000000000000E+00
 cg2d: Sum(rhs),rhsMax =                    NaN  0.00000000000000E+00
 cg2d: Sum(rhs),rhsMax =                    NaN  0.00000000000000E+00
 cg2d: Sum(rhs),rhsMax =                    NaN  0.00000000000000E+00
 cg2d: Sum(rhs),rhsMax =                    NaN  0.00000000000000E+00
 cg2d: Sum(rhs),rhsMax =                    NaN  0.00000000000000E+00
 cg2d: Sum(rhs),rhsMax =                    NaN  0.00000000000000E+00
 cg2d: Sum(rhs),rhsMax =                    NaN  0.00000000000000E+00
 cg2d: Sum(rhs),rhsMax =                    NaN  0.00000000000000E+00
 cg2d: Sum(rhs),rhsMax =                    NaN  0.00000000000000E+00
 cg2d: Sum(rhs),rhsMax =                    NaN  0.00000000000000E+00
 cg2d: Sum(rhs),rhsMax =                    NaN  0.00000000000000E+00
 cg2d: Sum(rhs),rhsMax =                    NaN  0.00000000000000E+00
 cg2d: Sum(rhs),rhsMax =                    NaN  0.00000000000000E+00
 cg2d: Sum(rhs),rhsMax =                    NaN  0.00000000000000E+00
 cg2d: Sum(rhs),rhsMax =                    NaN  0.00000000000000E+00
 cg2d: Sum(rhs),rhsMax =                    NaN  0.00000000000000E+00
 cg2d: Sum(rhs),rhsMax =                    NaN  0.00000000000000E+00
 cg2d: Sum(rhs),rhsMax =                    NaN  0.00000000000000E+00
 cg2d: Sum(rhs),rhsMax =                    NaN  0.00000000000000E+00
 cg2d: Sum(rhs),rhsMax =                    NaN  0.00000000000000E+00
 cg2d: Sum(rhs),rhsMax =                    NaN  0.00000000000000E+00
 cg2d: Sum(rhs),rhsMax =                    NaN  0.00000000000000E+00
 cg2d: Sum(rhs),rhsMax =                    NaN  0.00000000000000E+00
 cg2d: Sum(rhs),rhsMax =                    NaN  0.00000000000000E+00
 cg2d: Sum(rhs),rhsMax =                    NaN  0.00000000000000E+00
 cg2d: Sum(rhs),rhsMax =                    NaN  0.00000000000000E+00
 cg2d: Sum(rhs),rhsMax =                    NaN  0.00000000000000E+00
 cg2d: Sum(rhs),rhsMax =                    NaN  0.00000000000000E+00
 cg2d: Sum(rhs),rhsMax =                    NaN  0.00000000000000E+00
 cg2d: Sum(rhs),rhsMax =                    NaN  0.00000000000000E+00
 cg2d: Sum(rhs),rhsMax =                    NaN  0.00000000000000E+00
 cg2d: Sum(rhs),rhsMax =                    NaN  0.00000000000000E+00
 cg2d: Sum(rhs),rhsMax =                    NaN  0.00000000000000E+00
 cg2d: Sum(rhs),rhsMax =                    NaN  0.00000000000000E+00
 cg2d: Sum(rhs),rhsMax =                    NaN  0.00000000000000E+00
 cg2d: Sum(rhs),rhsMax =                    NaN  0.00000000000000E+00
 cg2d: Sum(rhs),rhsMax =                    NaN  0.00000000000000E+00
 cg2d: Sum(rhs),rhsMax =                    NaN  0.00000000000000E+00
 cg2d: Sum(rhs),rhsMax =                    NaN  0.00000000000000E+00
 cg2d: Sum(rhs),rhsMax =                    NaN  0.00000000000000E+00
 cg2d: Sum(rhs),rhsMax =                    NaN  0.00000000000000E+00
 cg2d: Sum(rhs),rhsMax =                    NaN  0.00000000000000E+00
 cg2d: Sum(rhs),rhsMax =                    NaN  0.00000000000000E+00
 cg2d: Sum(rhs),rhsMax =                    NaN  0.00000000000000E+00
 cg2d: Sum(rhs),rhsMax =                    NaN  0.00000000000000E+00
 cg2d: Sum(rhs),rhsMax =                    NaN  0.00000000000000E+00
 cg2d: Sum(rhs),rhsMax =                    NaN  0.00000000000000E+00
 cg2d: Sum(rhs),rhsMax =                    NaN  0.00000000000000E+00
 cg2d: Sum(rhs),rhsMax =                    NaN  0.00000000000000E+00
 cg2d: Sum(rhs),rhsMax =                    NaN  0.00000000000000E+00
 cg2d: Sum(rhs),rhsMax =                    NaN  0.00000000000000E+00
 cg2d: Sum(rhs),rhsMax =                    NaN  0.00000000000000E+00
 cg2d: Sum(rhs),rhsMax =                    NaN  0.00000000000000E+00
 cg2d: Sum(rhs),rhsMax =                    NaN  0.00000000000000E+00
 cg2d: Sum(rhs),rhsMax =                    NaN  0.00000000000000E+00
 cg2d: Sum(rhs),rhsMax =                    NaN  0.00000000000000E+00
 cg2d: Sum(rhs),rhsMax =                    NaN  0.00000000000000E+00
 cg2d: Sum(rhs),rhsMax =                    NaN  0.00000000000000E+00
 cg2d: Sum(rhs),rhsMax =                    NaN  0.00000000000000E+00
 cg2d: Sum(rhs),rhsMax =                    NaN  0.00000000000000E+00
 cg2d: Sum(rhs),rhsMax =                    NaN  0.00000000000000E+00
 cg2d: Sum(rhs),rhsMax =                    NaN  0.00000000000000E+00
 cg2d: Sum(rhs),rhsMax =                    NaN  0.00000000000000E+00
 cg2d: Sum(rhs),rhsMax =                    NaN  0.00000000000000E+00
 cg2d: Sum(rhs),rhsMax =                    NaN  0.00000000000000E+00
 cg2d: Sum(rhs),rhsMax =                    NaN  0.00000000000000E+00
 cg2d: Sum(rhs),rhsMax =                    NaN  0.00000000000000E+00
 cg2d: Sum(rhs),rhsMax =                    NaN  0.00000000000000E+00
 cg2d: Sum(rhs),rhsMax =                    NaN  0.00000000000000E+00
 cg2d: Sum(rhs),rhsMax =                    NaN  0.00000000000000E+00
 cg2d: Sum(rhs),rhsMax =                    NaN  0.00000000000000E+00
 cg2d: Sum(rhs),rhsMax =                    NaN  0.00000000000000E+00
 cg2d: Sum(rhs),rhsMax =                    NaN  0.00000000000000E+00
 cg2d: Sum(rhs),rhsMax =                    NaN  0.00000000000000E+00
 cg2d: Sum(rhs),rhsMax =                    NaN  0.00000000000000E+00
 cg2d: Sum(rhs),rhsMax =                    NaN  0.00000000000000E+00
 cg2d: Sum(rhs),rhsMax =                    NaN  0.00000000000000E+00
 cg2d: Sum(rhs),rhsMax =                    NaN  0.00000000000000E+00
 cg2d: Sum(rhs),rhsMax =                    NaN  0.00000000000000E+00
 cg2d: Sum(rhs),rhsMax =                    NaN  0.00000000000000E+00
 cg2d: Sum(rhs),rhsMax =                    NaN  0.00000000000000E+00
 cg2d: Sum(rhs),rhsMax =                    NaN  0.00000000000000E+00
 cg2d: Sum(rhs),rhsMax =                    NaN  0.00000000000000E+00
 cg2d: Sum(rhs),rhsMax =                    NaN  0.00000000000000E+00
 cg2d: Sum(rhs),rhsMax =                    NaN  0.00000000000000E+00
 cg2d: Sum(rhs),rhsMax =                    NaN  0.00000000000000E+00
 cg2d: Sum(rhs),rhsMax =                    NaN  0.00000000000000E+00
 cg2d: Sum(rhs),rhsMax =                    NaN  0.00000000000000E+00
 cg2d: Sum(rhs),rhsMax =                    NaN  0.00000000000000E+00
 cg2d: Sum(rhs),rhsMax =                    NaN  0.00000000000000E+00
 cg2d: Sum(rhs),rhsMax =                    NaN  0.00000000000000E+00
 cg2d: Sum(rhs),rhsMax =                    NaN  0.00000000000000E+00
 cg2d: Sum(rhs),rhsMax =                    NaN  0.00000000000000E+00
 cg2d: Sum(rhs),rhsMax =                    NaN  0.00000000000000E+00
 cg2d: Sum(rhs),rhsMax =                    NaN  0.00000000000000E+00
 cg2d: Sum(rhs),rhsMax =                    NaN  0.00000000000000E+00
 cg2d: Sum(rhs),rhsMax =                    NaN  0.00000000000000E+00
 cg2d: Sum(rhs),rhsMax =                    NaN  0.00000000000000E+00
 cg2d: Sum(rhs),rhsMax =                    NaN  0.00000000000000E+00
 cg2d: Sum(rhs),rhsMax =                    NaN  0.00000000000000E+00
 cg2d: Sum(rhs),rhsMax =                    NaN  0.00000000000000E+00
 cg2d: Sum(rhs),rhsMax =                    NaN  0.00000000000000E+00
 cg2d: Sum(rhs),rhsMax =                    NaN  0.00000000000000E+00
 cg2d: Sum(rhs),rhsMax =                    NaN  0.00000000000000E+00
 cg2d: Sum(rhs),rhsMax =                    NaN  0.00000000000000E+00
 cg2d: Sum(rhs),rhsMax =                    NaN  0.00000000000000E+00
 cg2d: Sum(rhs),rhsMax =                    NaN  0.00000000000000E+00
 cg2d: Sum(rhs),rhsMax =                    NaN  0.00000000000000E+00
 cg2d: Sum(rhs),rhsMax =                    NaN  0.00000000000000E+00
 cg2d: Sum(rhs),rhsMax =                    NaN  0.00000000000000E+00
 cg2d: Sum(rhs),rhsMax =                    NaN  0.00000000000000E+00
 cg2d: Sum(rhs),rhsMax =                    NaN  0.00000000000000E+00
 cg2d: Sum(rhs),rhsMax =                    NaN  0.00000000000000E+00
 cg2d: Sum(rhs),rhsMax =                    NaN  0.00000000000000E+00
 cg2d: Sum(rhs),rhsMax =                    NaN  0.00000000000000E+00
 cg2d: Sum(rhs),rhsMax =                    NaN  0.00000000000000E+00
 cg2d: Sum(rhs),rhsMax =                    NaN  0.00000000000000E+00
 cg2d: Sum(rhs),rhsMax =                    NaN  0.00000000000000E+00
 cg2d: Sum(rhs),rhsMax =                    NaN  0.00000000000000E+00
 cg2d: Sum(rhs),rhsMax =                    NaN  0.00000000000000E+00
 cg2d: Sum(rhs),rhsMax =                    NaN  0.00000000000000E+00
 cg2d: Sum(rhs),rhsMax =                    NaN  0.00000000000000E+00
 cg2d: Sum(rhs),rhsMax =                    NaN  0.00000000000000E+00
 cg2d: Sum(rhs),rhsMax =                    NaN  0.00000000000000E+00
 cg2d: Sum(rhs),rhsMax =                    NaN  0.00000000000000E+00
 cg2d: Sum(rhs),rhsMax =                    NaN  0.00000000000000E+00
 cg2d: Sum(rhs),rhsMax =                    NaN  0.00000000000000E+00
 cg2d: Sum(rhs),rhsMax =                    NaN  0.00000000000000E+00
 cg2d: Sum(rhs),rhsMax =                    NaN  0.00000000000000E+00
 cg2d: Sum(rhs),rhsMax =                    NaN  0.00000000000000E+00
 cg2d: Sum(rhs),rhsMax =                    NaN  0.00000000000000E+00
 cg2d: Sum(rhs),rhsMax =                    NaN  0.00000000000000E+00
 cg2d: Sum(rhs),rhsMax =                    NaN  0.00000000000000E+00
 cg2d: Sum(rhs),rhsMax =                    NaN  0.00000000000000E+00
 cg2d: Sum(rhs),rhsMax =                    NaN  0.00000000000000E+00
 cg2d: Sum(rhs),rhsMax =                    NaN  0.00000000000000E+00
 cg2d: Sum(rhs),rhsMax =                    NaN  0.00000000000000E+00
 cg2d: Sum(rhs),rhsMax =                    NaN  0.00000000000000E+00
 cg2d: Sum(rhs),rhsMax =                    NaN  0.00000000000000E+00
 cg2d: Sum(rhs),rhsMax =                    NaN  0.00000000000000E+00
 cg2d: Sum(rhs),rhsMax =                    NaN  0.00000000000000E+00
 cg2d: Sum(rhs),rhsMax =                    NaN  0.00000000000000E+00
 cg2d: Sum(rhs),rhsMax =                    NaN  0.00000000000000E+00
 cg2d: Sum(rhs),rhsMax =                    NaN  0.00000000000000E+00
 cg2d: Sum(rhs),rhsMax =                    NaN  0.00000000000000E+00
 cg2d: Sum(rhs),rhsMax =                    NaN  0.00000000000000E+00
 cg2d: Sum(rhs),rhsMax =                    NaN  0.00000000000000E+00
 cg2d: Sum(rhs),rhsMax =                    NaN  0.00000000000000E+00
 cg2d: Sum(rhs),rhsMax =                    NaN  0.00000000000000E+00
 cg2d: Sum(rhs),rhsMax =                    NaN  0.00000000000000E+00
 cg2d: Sum(rhs),rhsMax =                    NaN  0.00000000000000E+00
 cg2d: Sum(rhs),rhsMax =                    NaN  0.00000000000000E+00
 cg2d: Sum(rhs),rhsMax =                    NaN  0.00000000000000E+00
 cg2d: Sum(rhs),rhsMax =                    NaN  0.00000000000000E+00
 cg2d: Sum(rhs),rhsMax =                    NaN  0.00000000000000E+00
 cg2d: Sum(rhs),rhsMax =                    NaN  0.00000000000000E+00
 cg2d: Sum(rhs),rhsMax =                    NaN  0.00000000000000E+00
 cg2d: Sum(rhs),rhsMax =                    NaN  0.00000000000000E+00
 cg2d: Sum(rhs),rhsMax =                    NaN  0.00000000000000E+00
 cg2d: Sum(rhs),rhsMax =                    NaN  0.00000000000000E+00
 cg2d: Sum(rhs),rhsMax =                    NaN  0.00000000000000E+00
 cg2d: Sum(rhs),rhsMax =                    NaN  0.00000000000000E+00
 cg2d: Sum(rhs),rhsMax =                    NaN  0.00000000000000E+00
 cg2d: Sum(rhs),rhsMax =                    NaN  0.00000000000000E+00
 cg2d: Sum(rhs),rhsMax =                    NaN  0.00000000000000E+00
 cg2d: Sum(rhs),rhsMax =                    NaN  0.00000000000000E+00
 cg2d: Sum(rhs),rhsMax =                    NaN  0.00000000000000E+00
 cg2d: Sum(rhs),rhsMax =                    NaN  0.00000000000000E+00
 cg2d: Sum(rhs),rhsMax =                    NaN  0.00000000000000E+00
 cg2d: Sum(rhs),rhsMax =                    NaN  0.00000000000000E+00
 cg2d: Sum(rhs),rhsMax =                    NaN  0.00000000000000E+00
 cg2d: Sum(rhs),rhsMax =                    NaN  0.00000000000000E+00
 cg2d: Sum(rhs),rhsMax =                    NaN  0.00000000000000E+00
 cg2d: Sum(rhs),rhsMax =                    NaN  0.00000000000000E+00
 cg2d: Sum(rhs),rhsMax =                    NaN  0.00000000000000E+00
 cg2d: Sum(rhs),rhsMax =                    NaN  0.00000000000000E+00
 cg2d: Sum(rhs),rhsMax =                    NaN  0.00000000000000E+00
 cg2d: Sum(rhs),rhsMax =                    NaN  0.00000000000000E+00
 cg2d: Sum(rhs),rhsMax =                    NaN  0.00000000000000E+00
 cg2d: Sum(rhs),rhsMax =                    NaN  0.00000000000000E+00
 cg2d: Sum(rhs),rhsMax =                    NaN  0.00000000000000E+00
 cg2d: Sum(rhs),rhsMax =                    NaN  0.00000000000000E+00
 cg2d: Sum(rhs),rhsMax =                    NaN  0.00000000000000E+00
 cg2d: Sum(rhs),rhsMax =                    NaN  0.00000000000000E+00
 cg2d: Sum(rhs),rhsMax =                    NaN  0.00000000000000E+00
 cg2d: Sum(rhs),rhsMax =                    NaN  0.00000000000000E+00
 cg2d: Sum(rhs),rhsMax =                    NaN  0.00000000000000E+00
 cg2d: Sum(rhs),rhsMax =                    NaN  0.00000000000000E+00
 cg2d: Sum(rhs),rhsMax =                    NaN  0.00000000000000E+00
 cg2d: Sum(rhs),rhsMax =                    NaN  0.00000000000000E+00
 cg2d: Sum(rhs),rhsMax =                    NaN  0.00000000000000E+00
 cg2d: Sum(rhs),rhsMax =                    NaN  0.00000000000000E+00
 cg2d: Sum(rhs),rhsMax =                    NaN  0.00000000000000E+00
 cg2d: Sum(rhs),rhsMax =                    NaN  0.00000000000000E+00
 cg2d: Sum(rhs),rhsMax =                    NaN  0.00000000000000E+00
 cg2d: Sum(rhs),rhsMax =                    NaN  0.00000000000000E+00
 cg2d: Sum(rhs),rhsMax =                    NaN  0.00000000000000E+00
 cg2d: Sum(rhs),rhsMax =                    NaN  0.00000000000000E+00
 cg2d: Sum(rhs),rhsMax =                    NaN  0.00000000000000E+00
 cg2d: Sum(rhs),rhsMax =                    NaN  0.00000000000000E+00
 cg2d: Sum(rhs),rhsMax =                    NaN  0.00000000000000E+00
 cg2d: Sum(rhs),rhsMax =                    NaN  0.00000000000000E+00
 cg2d: Sum(rhs),rhsMax =                    NaN  0.00000000000000E+00
 cg2d: Sum(rhs),rhsMax =                    NaN  0.00000000000000E+00
 cg2d: Sum(rhs),rhsMax =                    NaN  0.00000000000000E+00
 cg2d: Sum(rhs),rhsMax =                    NaN  0.00000000000000E+00
 cg2d: Sum(rhs),rhsMax =                    NaN  0.00000000000000E+00
 cg2d: Sum(rhs),rhsMax =                    NaN  0.00000000000000E+00
 cg2d: Sum(rhs),rhsMax =                    NaN  0.00000000000000E+00
 cg2d: Sum(rhs),rhsMax =                    NaN  0.00000000000000E+00
 cg2d: Sum(rhs),rhsMax =                    NaN  0.00000000000000E+00
 cg2d: Sum(rhs),rhsMax =                    NaN  0.00000000000000E+00
 cg2d: Sum(rhs),rhsMax =                    NaN  0.00000000000000E+00
 cg2d: Sum(rhs),rhsMax =                    NaN  0.00000000000000E+00
 cg2d: Sum(rhs),rhsMax =                    NaN  0.00000000000000E+00
 cg2d: Sum(rhs),rhsMax =                    NaN  0.00000000000000E+00
 cg2d: Sum(rhs),rhsMax =                    NaN  0.00000000000000E+00
 cg2d: Sum(rhs),rhsMax =                    NaN  0.00000000000000E+00
 cg2d: Sum(rhs),rhsMax =                    NaN  0.00000000000000E+00
 cg2d: Sum(rhs),rhsMax =                    NaN  0.00000000000000E+00
 cg2d: Sum(rhs),rhsMax =                    NaN  0.00000000000000E+00
 cg2d: Sum(rhs),rhsMax =                    NaN  0.00000000000000E+00
 cg2d: Sum(rhs),rhsMax =                    NaN  0.00000000000000E+00
 cg2d: Sum(rhs),rhsMax =                    NaN  0.00000000000000E+00
 cg2d: Sum(rhs),rhsMax =                    NaN  0.00000000000000E+00
 cg2d: Sum(rhs),rhsMax =                    NaN  0.00000000000000E+00
 cg2d: Sum(rhs),rhsMax =                    NaN  0.00000000000000E+00
 cg2d: Sum(rhs),rhsMax =                    NaN  0.00000000000000E+00
 cg2d: Sum(rhs),rhsMax =                    NaN  0.00000000000000E+00
 cg2d: Sum(rhs),rhsMax =                    NaN  0.00000000000000E+00
 cg2d: Sum(rhs),rhsMax =                    NaN  0.00000000000000E+00
 cg2d: Sum(rhs),rhsMax =                    NaN  0.00000000000000E+00
 cg2d: Sum(rhs),rhsMax =                    NaN  0.00000000000000E+00
 cg2d: Sum(rhs),rhsMax =                    NaN  0.00000000000000E+00
 cg2d: Sum(rhs),rhsMax =                    NaN  0.00000000000000E+00
 cg2d: Sum(rhs),rhsMax =                    NaN  0.00000000000000E+00
 cg2d: Sum(rhs),rhsMax =                    NaN  0.00000000000000E+00
 cg2d: Sum(rhs),rhsMax =                    NaN  0.00000000000000E+00
 cg2d: Sum(rhs),rhsMax =                    NaN  0.00000000000000E+00
 cg2d: Sum(rhs),rhsMax =                    NaN  0.00000000000000E+00
 cg2d: Sum(rhs),rhsMax =                    NaN  0.00000000000000E+00
 cg2d: Sum(rhs),rhsMax =                    NaN  0.00000000000000E+00
 cg2d: Sum(rhs),rhsMax =                    NaN  0.00000000000000E+00
 cg2d: Sum(rhs),rhsMax =                    NaN  0.00000000000000E+00
 cg2d: Sum(rhs),rhsMax =                    NaN  0.00000000000000E+00
 cg2d: Sum(rhs),rhsMax =                    NaN  0.00000000000000E+00
 cg2d: Sum(rhs),rhsMax =                    NaN  0.00000000000000E+00
 cg2d: Sum(rhs),rhsMax =                    NaN  0.00000000000000E+00
 cg2d: Sum(rhs),rhsMax =                    NaN  0.00000000000000E+00
 cg2d: Sum(rhs),rhsMax =                    NaN  0.00000000000000E+00
 cg2d: Sum(rhs),rhsMax =                    NaN  0.00000000000000E+00
 cg2d: Sum(rhs),rhsMax =                    NaN  0.00000000000000E+00
 cg2d: Sum(rhs),rhsMax =                    NaN  0.00000000000000E+00
 cg2d: Sum(rhs),rhsMax =                    NaN  0.00000000000000E+00
 cg2d: Sum(rhs),rhsMax =                    NaN  0.00000000000000E+00
 cg2d: Sum(rhs),rhsMax =                    NaN  0.00000000000000E+00
 cg2d: Sum(rhs),rhsMax =                    NaN  0.00000000000000E+00
(PID.TID 0000.0001)      cg2d_init_res =                    NaN
(PID.TID 0000.0001)      cg2d_iters(min,last) =      -1    1000
(PID.TID 0000.0001)      cg2d_last_res =                    NaN
(PID.TID 0000.0001) // =======================================================
(PID.TID 0000.0001) // Begin MONITOR dynamic field statistics
(PID.TID 0000.0001) // =======================================================
(PID.TID 0000.0001) %MON time_tsnumber                =                  6720
(PID.TID 0000.0001) %MON time_secondsf                =   1.0080000000000E+05
(PID.TID 0000.0001) %MON dynstat_eta_max              =                   NaN
(PID.TID 0000.0001) %MON dynstat_eta_min              =                   NaN
(PID.TID 0000.0001) %MON dynstat_eta_mean             =                   NaN
(PID.TID 0000.0001) %MON dynstat_eta_sd               =                   NaN
(PID.TID 0000.0001) %MON dynstat_eta_del2             =                   NaN
(PID.TID 0000.0001) %MON dynstat_uvel_max             =   6.6809804669674E-01
(PID.TID 0000.0001) %MON dynstat_uvel_min             =   6.6809804669674E-01
(PID.TID 0000.0001) %MON dynstat_uvel_mean            =                   NaN
(PID.TID 0000.0001) %MON dynstat_uvel_sd              =                   NaN
(PID.TID 0000.0001) %MON dynstat_uvel_del2            =                   NaN
(PID.TID 0000.0001) %MON dynstat_vvel_max             =                   NaN
(PID.TID 0000.0001) %MON dynstat_vvel_min             =                   NaN
(PID.TID 0000.0001) %MON dynstat_vvel_mean            =                   NaN
(PID.TID 0000.0001) %MON dynstat_vvel_sd              =                   NaN
(PID.TID 0000.0001) %MON dynstat_vvel_del2            =                   NaN
(PID.TID 0000.0001) %MON dynstat_wvel_max             =                   NaN
(PID.TID 0000.0001) %MON dynstat_wvel_min             =                   NaN
(PID.TID 0000.0001) %MON dynstat_wvel_mean            =                   NaN
(PID.TID 0000.0001) %MON dynstat_wvel_sd              =                   NaN
(PID.TID 0000.0001) %MON dynstat_wvel_del2            =                   NaN
(PID.TID 0000.0001) %MON dynstat_theta_max            =                   NaN
(PID.TID 0000.0001) %MON dynstat_theta_min            =                   NaN
(PID.TID 0000.0001) %MON dynstat_theta_mean           =                   NaN
(PID.TID 0000.0001) %MON dynstat_theta_sd             =                   NaN
(PID.TID 0000.0001) %MON dynstat_theta_del2           =                   NaN
(PID.TID 0000.0001) %MON dynstat_salt_max             =   3.5000000000000E+01
(PID.TID 0000.0001) %MON dynstat_salt_min             =   3.5000000000000E+01
(PID.TID 0000.0001) %MON dynstat_salt_mean            =   3.5000000000000E+01
(PID.TID 0000.0001) %MON dynstat_salt_sd              =   2.1316282072803E-14
(PID.TID 0000.0001) %MON dynstat_salt_del2            =   0.0000000000000E+00
(PID.TID 0000.0001) %MON dynstat_sst_max              =                   NaN
(PID.TID 0000.0001) %MON dynstat_sst_min              =                   NaN
(PID.TID 0000.0001) %MON dynstat_sst_mean             =                   NaN
(PID.TID 0000.0001) %MON dynstat_sst_sd               =                   NaN
(PID.TID 0000.0001) %MON dynstat_sst_del2             =                   NaN
(PID.TID 0000.0001) %MON dynstat_sss_max              =   3.5000000000000E+01
(PID.TID 0000.0001) %MON dynstat_sss_min              =   3.5000000000000E+01
(PID.TID 0000.0001) %MON dynstat_sss_mean             =   3.5000000000000E+01
(PID.TID 0000.0001) %MON dynstat_sss_sd               =   7.8159700933611E-14
(PID.TID 0000.0001) %MON dynstat_sss_del2             =   0.0000000000000E+00
(PID.TID 0000.0001) %MON forcing_qnet_max             =   0.0000000000000E+00
(PID.TID 0000.0001) %MON forcing_qnet_min             =   0.0000000000000E+00
(PID.TID 0000.0001) %MON forcing_qnet_mean            =   0.0000000000000E+00
(PID.TID 0000.0001) %MON forcing_qnet_sd              =   0.0000000000000E+00
(PID.TID 0000.0001) %MON forcing_qnet_del2            =   0.0000000000000E+00
(PID.TID 0000.0001) %MON forcing_qsw_max              =   0.0000000000000E+00
(PID.TID 0000.0001) %MON forcing_qsw_min              =   0.0000000000000E+00
(PID.TID 0000.0001) %MON forcing_qsw_mean             =   0.0000000000000E+00
(PID.TID 0000.0001) %MON forcing_qsw_sd               =   0.0000000000000E+00
(PID.TID 0000.0001) %MON forcing_qsw_del2             =   0.0000000000000E+00
(PID.TID 0000.0001) %MON forcing_empmr_max            =   0.0000000000000E+00
(PID.TID 0000.0001) %MON forcing_empmr_min            =   0.0000000000000E+00
(PID.TID 0000.0001) %MON forcing_empmr_mean           =   0.0000000000000E+00
(PID.TID 0000.0001) %MON forcing_empmr_sd             =   0.0000000000000E+00
(PID.TID 0000.0001) %MON forcing_empmr_del2           =   0.0000000000000E+00
(PID.TID 0000.0001) %MON forcing_fu_max               =   0.0000000000000E+00
(PID.TID 0000.0001) %MON forcing_fu_min               =   0.0000000000000E+00
(PID.TID 0000.0001) %MON forcing_fu_mean              =   0.0000000000000E+00
(PID.TID 0000.0001) %MON forcing_fu_sd                =   0.0000000000000E+00
(PID.TID 0000.0001) %MON forcing_fu_del2              =   0.0000000000000E+00
(PID.TID 0000.0001) %MON forcing_fv_max               =   0.0000000000000E+00
(PID.TID 0000.0001) %MON forcing_fv_min               =   0.0000000000000E+00
(PID.TID 0000.0001) %MON forcing_fv_mean              =   0.0000000000000E+00
(PID.TID 0000.0001) %MON forcing_fv_sd                =   0.0000000000000E+00
(PID.TID 0000.0001) %MON forcing_fv_del2              =   0.0000000000000E+00
(PID.TID 0000.0001) %MON advcfl_uvel_max              =   9.5851945436867E-03
(PID.TID 0000.0001) %MON advcfl_vvel_max              =   0.0000000000000E+00
(PID.TID 0000.0001) %MON advcfl_wvel_max              =   0.0000000000000E+00
(PID.TID 0000.0001) %MON advcfl_W_hf_max              =   0.0000000000000E+00
(PID.TID 0000.0001) %MON pe_b_mean                    =                   NaN
(PID.TID 0000.0001) %MON ke_max                       =   0.0000000000000E+00
(PID.TID 0000.0001) %MON ke_mean                      =                   NaN
(PID.TID 0000.0001) %MON ke_vol                       =   9.5889217545975E+10
(PID.TID 0000.0001) %MON vort_r_min                   =   0.0000000000000E+00
(PID.TID 0000.0001) %MON vort_r_max                   =   0.0000000000000E+00
(PID.TID 0000.0001) %MON vort_a_mean                  =                   NaN
(PID.TID 0000.0001) %MON vort_a_sd                    =                   NaN
(PID.TID 0000.0001) %MON vort_p_mean                  =                   NaN
(PID.TID 0000.0001) %MON vort_p_sd                    =   0.0000000000000E+00
(PID.TID 0000.0001) %MON surfExpan_theta_mean         =                   NaN
(PID.TID 0000.0001) %MON surfExpan_salt_mean          =                   NaN
(PID.TID 0000.0001) // =======================================================
(PID.TID 0000.0001) // End MONITOR dynamic field statistics
(PID.TID 0000.0001) // =======================================================
(PID.TID 0000.0001) // =======================================================
(PID.TID 0000.0001) // Begin OBCS MONITOR field statistics
(PID.TID 0000.0001) // =======================================================
(PID.TID 0000.0001) %MON obc_E_uVel_max               =   6.6809804669674E-01
(PID.TID 0000.0001) %MON obc_E_uVel_min               =   6.6809804669674E-01
(PID.TID 0000.0001) %MON obc_E_uVel_mean              =   6.6809804669674E-01
(PID.TID 0000.0001) %MON obc_E_uVel_sd                =   1.6660004686563E-08
(PID.TID 0000.0001) %MON obc_E_uVel_Int               =   6.6809804669674E+05
(PID.TID 0000.0001) %MON obc_W_uVel_max               =   6.6809804669674E-01
(PID.TID 0000.0001) %MON obc_W_uVel_min               =   6.6809804669674E-01
(PID.TID 0000.0001) %MON obc_W_uVel_mean              =   6.6809804669674E-01
(PID.TID 0000.0001) %MON obc_W_uVel_sd                =   1.6660004686563E-08
(PID.TID 0000.0001) %MON obc_W_uVel_Int               =   6.6809804669674E+05
(PID.TID 0000.0001) // =======================================================
(PID.TID 0000.0001) // End OBCS MONITOR field statistics
(PID.TID 0000.0001) // =======================================================
 cg2d: Sum(rhs),rhsMax =                    NaN  0.00000000000000E+00
 cg2d: Sum(rhs),rhsMax =                    NaN  0.00000000000000E+00
 cg2d: Sum(rhs),rhsMax =                    NaN  0.00000000000000E+00
 cg2d: Sum(rhs),rhsMax =                    NaN  0.00000000000000E+00
 cg2d: Sum(rhs),rhsMax =                    NaN  0.00000000000000E+00
 cg2d: Sum(rhs),rhsMax =                    NaN  0.00000000000000E+00
 cg2d: Sum(rhs),rhsMax =                    NaN  0.00000000000000E+00
 cg2d: Sum(rhs),rhsMax =                    NaN  0.00000000000000E+00
 cg2d: Sum(rhs),rhsMax =                    NaN  0.00000000000000E+00
 cg2d: Sum(rhs),rhsMax =                    NaN  0.00000000000000E+00
 cg2d: Sum(rhs),rhsMax =                    NaN  0.00000000000000E+00
 cg2d: Sum(rhs),rhsMax =                    NaN  0.00000000000000E+00
 cg2d: Sum(rhs),rhsMax =                    NaN  0.00000000000000E+00
 cg2d: Sum(rhs),rhsMax =                    NaN  0.00000000000000E+00
 cg2d: Sum(rhs),rhsMax =                    NaN  0.00000000000000E+00
 cg2d: Sum(rhs),rhsMax =                    NaN  0.00000000000000E+00
 cg2d: Sum(rhs),rhsMax =                    NaN  0.00000000000000E+00
 cg2d: Sum(rhs),rhsMax =                    NaN  0.00000000000000E+00
 cg2d: Sum(rhs),rhsMax =                    NaN  0.00000000000000E+00
 cg2d: Sum(rhs),rhsMax =                    NaN  0.00000000000000E+00
 cg2d: Sum(rhs),rhsMax =                    NaN  0.00000000000000E+00
 cg2d: Sum(rhs),rhsMax =                    NaN  0.00000000000000E+00
 cg2d: Sum(rhs),rhsMax =                    NaN  0.00000000000000E+00
 cg2d: Sum(rhs),rhsMax =                    NaN  0.00000000000000E+00
 cg2d: Sum(rhs),rhsMax =                    NaN  0.00000000000000E+00
 cg2d: Sum(rhs),rhsMax =                    NaN  0.00000000000000E+00
 cg2d: Sum(rhs),rhsMax =                    NaN  0.00000000000000E+00
 cg2d: Sum(rhs),rhsMax =                    NaN  0.00000000000000E+00
 cg2d: Sum(rhs),rhsMax =                    NaN  0.00000000000000E+00
 cg2d: Sum(rhs),rhsMax =                    NaN  0.00000000000000E+00
 cg2d: Sum(rhs),rhsMax =                    NaN  0.00000000000000E+00
 cg2d: Sum(rhs),rhsMax =                    NaN  0.00000000000000E+00
 cg2d: Sum(rhs),rhsMax =                    NaN  0.00000000000000E+00
 cg2d: Sum(rhs),rhsMax =                    NaN  0.00000000000000E+00
 cg2d: Sum(rhs),rhsMax =                    NaN  0.00000000000000E+00
 cg2d: Sum(rhs),rhsMax =                    NaN  0.00000000000000E+00
 cg2d: Sum(rhs),rhsMax =                    NaN  0.00000000000000E+00
 cg2d: Sum(rhs),rhsMax =                    NaN  0.00000000000000E+00
 cg2d: Sum(rhs),rhsMax =                    NaN  0.00000000000000E+00
 cg2d: Sum(rhs),rhsMax =                    NaN  0.00000000000000E+00
 cg2d: Sum(rhs),rhsMax =                    NaN  0.00000000000000E+00
 cg2d: Sum(rhs),rhsMax =                    NaN  0.00000000000000E+00
 cg2d: Sum(rhs),rhsMax =                    NaN  0.00000000000000E+00
 cg2d: Sum(rhs),rhsMax =                    NaN  0.00000000000000E+00
 cg2d: Sum(rhs),rhsMax =                    NaN  0.00000000000000E+00
 cg2d: Sum(rhs),rhsMax =                    NaN  0.00000000000000E+00
 cg2d: Sum(rhs),rhsMax =                    NaN  0.00000000000000E+00
 cg2d: Sum(rhs),rhsMax =                    NaN  0.00000000000000E+00
 cg2d: Sum(rhs),rhsMax =                    NaN  0.00000000000000E+00
 cg2d: Sum(rhs),rhsMax =                    NaN  0.00000000000000E+00
 cg2d: Sum(rhs),rhsMax =                    NaN  0.00000000000000E+00
 cg2d: Sum(rhs),rhsMax =                    NaN  0.00000000000000E+00
 cg2d: Sum(rhs),rhsMax =                    NaN  0.00000000000000E+00
 cg2d: Sum(rhs),rhsMax =                    NaN  0.00000000000000E+00
 cg2d: Sum(rhs),rhsMax =                    NaN  0.00000000000000E+00
 cg2d: Sum(rhs),rhsMax =                    NaN  0.00000000000000E+00
 cg2d: Sum(rhs),rhsMax =                    NaN  0.00000000000000E+00
 cg2d: Sum(rhs),rhsMax =                    NaN  0.00000000000000E+00
 cg2d: Sum(rhs),rhsMax =                    NaN  0.00000000000000E+00
 cg2d: Sum(rhs),rhsMax =                    NaN  0.00000000000000E+00
 cg2d: Sum(rhs),rhsMax =                    NaN  0.00000000000000E+00
 cg2d: Sum(rhs),rhsMax =                    NaN  0.00000000000000E+00
 cg2d: Sum(rhs),rhsMax =                    NaN  0.00000000000000E+00
 cg2d: Sum(rhs),rhsMax =                    NaN  0.00000000000000E+00
 cg2d: Sum(rhs),rhsMax =                    NaN  0.00000000000000E+00
 cg2d: Sum(rhs),rhsMax =                    NaN  0.00000000000000E+00
 cg2d: Sum(rhs),rhsMax =                    NaN  0.00000000000000E+00
 cg2d: Sum(rhs),rhsMax =                    NaN  0.00000000000000E+00
 cg2d: Sum(rhs),rhsMax =                    NaN  0.00000000000000E+00
 cg2d: Sum(rhs),rhsMax =                    NaN  0.00000000000000E+00
 cg2d: Sum(rhs),rhsMax =                    NaN  0.00000000000000E+00
 cg2d: Sum(rhs),rhsMax =                    NaN  0.00000000000000E+00
 cg2d: Sum(rhs),rhsMax =                    NaN  0.00000000000000E+00
 cg2d: Sum(rhs),rhsMax =                    NaN  0.00000000000000E+00
 cg2d: Sum(rhs),rhsMax =                    NaN  0.00000000000000E+00
 cg2d: Sum(rhs),rhsMax =                    NaN  0.00000000000000E+00
 cg2d: Sum(rhs),rhsMax =                    NaN  0.00000000000000E+00
 cg2d: Sum(rhs),rhsMax =                    NaN  0.00000000000000E+00
 cg2d: Sum(rhs),rhsMax =                    NaN  0.00000000000000E+00
 cg2d: Sum(rhs),rhsMax =                    NaN  0.00000000000000E+00
 cg2d: Sum(rhs),rhsMax =                    NaN  0.00000000000000E+00
 cg2d: Sum(rhs),rhsMax =                    NaN  0.00000000000000E+00
 cg2d: Sum(rhs),rhsMax =                    NaN  0.00000000000000E+00
 cg2d: Sum(rhs),rhsMax =                    NaN  0.00000000000000E+00
 cg2d: Sum(rhs),rhsMax =                    NaN  0.00000000000000E+00
 cg2d: Sum(rhs),rhsMax =                    NaN  0.00000000000000E+00
 cg2d: Sum(rhs),rhsMax =                    NaN  0.00000000000000E+00
 cg2d: Sum(rhs),rhsMax =                    NaN  0.00000000000000E+00
 cg2d: Sum(rhs),rhsMax =                    NaN  0.00000000000000E+00
 cg2d: Sum(rhs),rhsMax =                    NaN  0.00000000000000E+00
 cg2d: Sum(rhs),rhsMax =                    NaN  0.00000000000000E+00
 cg2d: Sum(rhs),rhsMax =                    NaN  0.00000000000000E+00
 cg2d: Sum(rhs),rhsMax =                    NaN  0.00000000000000E+00
 cg2d: Sum(rhs),rhsMax =                    NaN  0.00000000000000E+00
 cg2d: Sum(rhs),rhsMax =                    NaN  0.00000000000000E+00
 cg2d: Sum(rhs),rhsMax =                    NaN  0.00000000000000E+00
 cg2d: Sum(rhs),rhsMax =                    NaN  0.00000000000000E+00
 cg2d: Sum(rhs),rhsMax =                    NaN  0.00000000000000E+00
 cg2d: Sum(rhs),rhsMax =                    NaN  0.00000000000000E+00
 cg2d: Sum(rhs),rhsMax =                    NaN  0.00000000000000E+00
 cg2d: Sum(rhs),rhsMax =                    NaN  0.00000000000000E+00
 cg2d: Sum(rhs),rhsMax =                    NaN  0.00000000000000E+00
 cg2d: Sum(rhs),rhsMax =                    NaN  0.00000000000000E+00
 cg2d: Sum(rhs),rhsMax =                    NaN  0.00000000000000E+00
 cg2d: Sum(rhs),rhsMax =                    NaN  0.00000000000000E+00
 cg2d: Sum(rhs),rhsMax =                    NaN  0.00000000000000E+00
 cg2d: Sum(rhs),rhsMax =                    NaN  0.00000000000000E+00
 cg2d: Sum(rhs),rhsMax =                    NaN  0.00000000000000E+00
 cg2d: Sum(rhs),rhsMax =                    NaN  0.00000000000000E+00
 cg2d: Sum(rhs),rhsMax =                    NaN  0.00000000000000E+00
 cg2d: Sum(rhs),rhsMax =                    NaN  0.00000000000000E+00
 cg2d: Sum(rhs),rhsMax =                    NaN  0.00000000000000E+00
 cg2d: Sum(rhs),rhsMax =                    NaN  0.00000000000000E+00
 cg2d: Sum(rhs),rhsMax =                    NaN  0.00000000000000E+00
 cg2d: Sum(rhs),rhsMax =                    NaN  0.00000000000000E+00
 cg2d: Sum(rhs),rhsMax =                    NaN  0.00000000000000E+00
 cg2d: Sum(rhs),rhsMax =                    NaN  0.00000000000000E+00
 cg2d: Sum(rhs),rhsMax =                    NaN  0.00000000000000E+00
 cg2d: Sum(rhs),rhsMax =                    NaN  0.00000000000000E+00
 cg2d: Sum(rhs),rhsMax =                    NaN  0.00000000000000E+00
 cg2d: Sum(rhs),rhsMax =                    NaN  0.00000000000000E+00
 cg2d: Sum(rhs),rhsMax =                    NaN  0.00000000000000E+00
 cg2d: Sum(rhs),rhsMax =                    NaN  0.00000000000000E+00
 cg2d: Sum(rhs),rhsMax =                    NaN  0.00000000000000E+00
 cg2d: Sum(rhs),rhsMax =                    NaN  0.00000000000000E+00
 cg2d: Sum(rhs),rhsMax =                    NaN  0.00000000000000E+00
 cg2d: Sum(rhs),rhsMax =                    NaN  0.00000000000000E+00
 cg2d: Sum(rhs),rhsMax =                    NaN  0.00000000000000E+00
 cg2d: Sum(rhs),rhsMax =                    NaN  0.00000000000000E+00
 cg2d: Sum(rhs),rhsMax =                    NaN  0.00000000000000E+00
 cg2d: Sum(rhs),rhsMax =                    NaN  0.00000000000000E+00
 cg2d: Sum(rhs),rhsMax =                    NaN  0.00000000000000E+00
 cg2d: Sum(rhs),rhsMax =                    NaN  0.00000000000000E+00
 cg2d: Sum(rhs),rhsMax =                    NaN  0.00000000000000E+00
 cg2d: Sum(rhs),rhsMax =                    NaN  0.00000000000000E+00
 cg2d: Sum(rhs),rhsMax =                    NaN  0.00000000000000E+00
 cg2d: Sum(rhs),rhsMax =                    NaN  0.00000000000000E+00
 cg2d: Sum(rhs),rhsMax =                    NaN  0.00000000000000E+00
 cg2d: Sum(rhs),rhsMax =                    NaN  0.00000000000000E+00
 cg2d: Sum(rhs),rhsMax =                    NaN  0.00000000000000E+00
 cg2d: Sum(rhs),rhsMax =                    NaN  0.00000000000000E+00
 cg2d: Sum(rhs),rhsMax =                    NaN  0.00000000000000E+00
 cg2d: Sum(rhs),rhsMax =                    NaN  0.00000000000000E+00
 cg2d: Sum(rhs),rhsMax =                    NaN  0.00000000000000E+00
 cg2d: Sum(rhs),rhsMax =                    NaN  0.00000000000000E+00
 cg2d: Sum(rhs),rhsMax =                    NaN  0.00000000000000E+00
 cg2d: Sum(rhs),rhsMax =                    NaN  0.00000000000000E+00
 cg2d: Sum(rhs),rhsMax =                    NaN  0.00000000000000E+00
 cg2d: Sum(rhs),rhsMax =                    NaN  0.00000000000000E+00
 cg2d: Sum(rhs),rhsMax =                    NaN  0.00000000000000E+00
 cg2d: Sum(rhs),rhsMax =                    NaN  0.00000000000000E+00
 cg2d: Sum(rhs),rhsMax =                    NaN  0.00000000000000E+00
 cg2d: Sum(rhs),rhsMax =                    NaN  0.00000000000000E+00
 cg2d: Sum(rhs),rhsMax =                    NaN  0.00000000000000E+00
 cg2d: Sum(rhs),rhsMax =                    NaN  0.00000000000000E+00
 cg2d: Sum(rhs),rhsMax =                    NaN  0.00000000000000E+00
 cg2d: Sum(rhs),rhsMax =                    NaN  0.00000000000000E+00
 cg2d: Sum(rhs),rhsMax =                    NaN  0.00000000000000E+00
 cg2d: Sum(rhs),rhsMax =                    NaN  0.00000000000000E+00
 cg2d: Sum(rhs),rhsMax =                    NaN  0.00000000000000E+00
 cg2d: Sum(rhs),rhsMax =                    NaN  0.00000000000000E+00
 cg2d: Sum(rhs),rhsMax =                    NaN  0.00000000000000E+00
 cg2d: Sum(rhs),rhsMax =                    NaN  0.00000000000000E+00
 cg2d: Sum(rhs),rhsMax =                    NaN  0.00000000000000E+00
 cg2d: Sum(rhs),rhsMax =                    NaN  0.00000000000000E+00
 cg2d: Sum(rhs),rhsMax =                    NaN  0.00000000000000E+00
 cg2d: Sum(rhs),rhsMax =                    NaN  0.00000000000000E+00
 cg2d: Sum(rhs),rhsMax =                    NaN  0.00000000000000E+00
 cg2d: Sum(rhs),rhsMax =                    NaN  0.00000000000000E+00
 cg2d: Sum(rhs),rhsMax =                    NaN  0.00000000000000E+00
 cg2d: Sum(rhs),rhsMax =                    NaN  0.00000000000000E+00
 cg2d: Sum(rhs),rhsMax =                    NaN  0.00000000000000E+00
 cg2d: Sum(rhs),rhsMax =                    NaN  0.00000000000000E+00
 cg2d: Sum(rhs),rhsMax =                    NaN  0.00000000000000E+00
 cg2d: Sum(rhs),rhsMax =                    NaN  0.00000000000000E+00
 cg2d: Sum(rhs),rhsMax =                    NaN  0.00000000000000E+00
 cg2d: Sum(rhs),rhsMax =                    NaN  0.00000000000000E+00
 cg2d: Sum(rhs),rhsMax =                    NaN  0.00000000000000E+00
 cg2d: Sum(rhs),rhsMax =                    NaN  0.00000000000000E+00
 cg2d: Sum(rhs),rhsMax =                    NaN  0.00000000000000E+00
 cg2d: Sum(rhs),rhsMax =                    NaN  0.00000000000000E+00
 cg2d: Sum(rhs),rhsMax =                    NaN  0.00000000000000E+00
 cg2d: Sum(rhs),rhsMax =                    NaN  0.00000000000000E+00
 cg2d: Sum(rhs),rhsMax =                    NaN  0.00000000000000E+00
 cg2d: Sum(rhs),rhsMax =                    NaN  0.00000000000000E+00
 cg2d: Sum(rhs),rhsMax =                    NaN  0.00000000000000E+00
 cg2d: Sum(rhs),rhsMax =                    NaN  0.00000000000000E+00
 cg2d: Sum(rhs),rhsMax =                    NaN  0.00000000000000E+00
 cg2d: Sum(rhs),rhsMax =                    NaN  0.00000000000000E+00
 cg2d: Sum(rhs),rhsMax =                    NaN  0.00000000000000E+00
 cg2d: Sum(rhs),rhsMax =                    NaN  0.00000000000000E+00
 cg2d: Sum(rhs),rhsMax =                    NaN  0.00000000000000E+00
 cg2d: Sum(rhs),rhsMax =                    NaN  0.00000000000000E+00
 cg2d: Sum(rhs),rhsMax =                    NaN  0.00000000000000E+00
 cg2d: Sum(rhs),rhsMax =                    NaN  0.00000000000000E+00
 cg2d: Sum(rhs),rhsMax =                    NaN  0.00000000000000E+00
 cg2d: Sum(rhs),rhsMax =                    NaN  0.00000000000000E+00
 cg2d: Sum(rhs),rhsMax =                    NaN  0.00000000000000E+00
 cg2d: Sum(rhs),rhsMax =                    NaN  0.00000000000000E+00
 cg2d: Sum(rhs),rhsMax =                    NaN  0.00000000000000E+00
 cg2d: Sum(rhs),rhsMax =                    NaN  0.00000000000000E+00
 cg2d: Sum(rhs),rhsMax =                    NaN  0.00000000000000E+00
 cg2d: Sum(rhs),rhsMax =                    NaN  0.00000000000000E+00
 cg2d: Sum(rhs),rhsMax =                    NaN  0.00000000000000E+00
 cg2d: Sum(rhs),rhsMax =                    NaN  0.00000000000000E+00
 cg2d: Sum(rhs),rhsMax =                    NaN  0.00000000000000E+00
 cg2d: Sum(rhs),rhsMax =                    NaN  0.00000000000000E+00
 cg2d: Sum(rhs),rhsMax =                    NaN  0.00000000000000E+00
 cg2d: Sum(rhs),rhsMax =                    NaN  0.00000000000000E+00
 cg2d: Sum(rhs),rhsMax =                    NaN  0.00000000000000E+00
 cg2d: Sum(rhs),rhsMax =                    NaN  0.00000000000000E+00
 cg2d: Sum(rhs),rhsMax =                    NaN  0.00000000000000E+00
 cg2d: Sum(rhs),rhsMax =                    NaN  0.00000000000000E+00
 cg2d: Sum(rhs),rhsMax =                    NaN  0.00000000000000E+00
 cg2d: Sum(rhs),rhsMax =                    NaN  0.00000000000000E+00
 cg2d: Sum(rhs),rhsMax =                    NaN  0.00000000000000E+00
 cg2d: Sum(rhs),rhsMax =                    NaN  0.00000000000000E+00
 cg2d: Sum(rhs),rhsMax =                    NaN  0.00000000000000E+00
 cg2d: Sum(rhs),rhsMax =                    NaN  0.00000000000000E+00
 cg2d: Sum(rhs),rhsMax =                    NaN  0.00000000000000E+00
 cg2d: Sum(rhs),rhsMax =                    NaN  0.00000000000000E+00
 cg2d: Sum(rhs),rhsMax =                    NaN  0.00000000000000E+00
 cg2d: Sum(rhs),rhsMax =                    NaN  0.00000000000000E+00
 cg2d: Sum(rhs),rhsMax =                    NaN  0.00000000000000E+00
 cg2d: Sum(rhs),rhsMax =                    NaN  0.00000000000000E+00
 cg2d: Sum(rhs),rhsMax =                    NaN  0.00000000000000E+00
 cg2d: Sum(rhs),rhsMax =                    NaN  0.00000000000000E+00
 cg2d: Sum(rhs),rhsMax =                    NaN  0.00000000000000E+00
 cg2d: Sum(rhs),rhsMax =                    NaN  0.00000000000000E+00
 cg2d: Sum(rhs),rhsMax =                    NaN  0.00000000000000E+00
 cg2d: Sum(rhs),rhsMax =                    NaN  0.00000000000000E+00
 cg2d: Sum(rhs),rhsMax =                    NaN  0.00000000000000E+00
 cg2d: Sum(rhs),rhsMax =                    NaN  0.00000000000000E+00
 cg2d: Sum(rhs),rhsMax =                    NaN  0.00000000000000E+00
 cg2d: Sum(rhs),rhsMax =                    NaN  0.00000000000000E+00
 cg2d: Sum(rhs),rhsMax =                    NaN  0.00000000000000E+00
 cg2d: Sum(rhs),rhsMax =                    NaN  0.00000000000000E+00
 cg2d: Sum(rhs),rhsMax =                    NaN  0.00000000000000E+00
 cg2d: Sum(rhs),rhsMax =                    NaN  0.00000000000000E+00
 cg2d: Sum(rhs),rhsMax =                    NaN  0.00000000000000E+00
 cg2d: Sum(rhs),rhsMax =                    NaN  0.00000000000000E+00
 cg2d: Sum(rhs),rhsMax =                    NaN  0.00000000000000E+00
 cg2d: Sum(rhs),rhsMax =                    NaN  0.00000000000000E+00
 cg2d: Sum(rhs),rhsMax =                    NaN  0.00000000000000E+00
 cg2d: Sum(rhs),rhsMax =                    NaN  0.00000000000000E+00
 cg2d: Sum(rhs),rhsMax =                    NaN  0.00000000000000E+00
 cg2d: Sum(rhs),rhsMax =                    NaN  0.00000000000000E+00
 cg2d: Sum(rhs),rhsMax =                    NaN  0.00000000000000E+00
 cg2d: Sum(rhs),rhsMax =                    NaN  0.00000000000000E+00
 cg2d: Sum(rhs),rhsMax =                    NaN  0.00000000000000E+00
 cg2d: Sum(rhs),rhsMax =                    NaN  0.00000000000000E+00
 cg2d: Sum(rhs),rhsMax =                    NaN  0.00000000000000E+00
 cg2d: Sum(rhs),rhsMax =                    NaN  0.00000000000000E+00
 cg2d: Sum(rhs),rhsMax =                    NaN  0.00000000000000E+00
 cg2d: Sum(rhs),rhsMax =                    NaN  0.00000000000000E+00
 cg2d: Sum(rhs),rhsMax =                    NaN  0.00000000000000E+00
 cg2d: Sum(rhs),rhsMax =                    NaN  0.00000000000000E+00
 cg2d: Sum(rhs),rhsMax =                    NaN  0.00000000000000E+00
 cg2d: Sum(rhs),rhsMax =                    NaN  0.00000000000000E+00
 cg2d: Sum(rhs),rhsMax =                    NaN  0.00000000000000E+00
 cg2d: Sum(rhs),rhsMax =                    NaN  0.00000000000000E+00
 cg2d: Sum(rhs),rhsMax =                    NaN  0.00000000000000E+00
 cg2d: Sum(rhs),rhsMax =                    NaN  0.00000000000000E+00
 cg2d: Sum(rhs),rhsMax =                    NaN  0.00000000000000E+00
 cg2d: Sum(rhs),rhsMax =                    NaN  0.00000000000000E+00
 cg2d: Sum(rhs),rhsMax =                    NaN  0.00000000000000E+00
 cg2d: Sum(rhs),rhsMax =                    NaN  0.00000000000000E+00
 cg2d: Sum(rhs),rhsMax =                    NaN  0.00000000000000E+00
 cg2d: Sum(rhs),rhsMax =                    NaN  0.00000000000000E+00
 cg2d: Sum(rhs),rhsMax =                    NaN  0.00000000000000E+00
 cg2d: Sum(rhs),rhsMax =                    NaN  0.00000000000000E+00
 cg2d: Sum(rhs),rhsMax =                    NaN  0.00000000000000E+00
 cg2d: Sum(rhs),rhsMax =                    NaN  0.00000000000000E+00
 cg2d: Sum(rhs),rhsMax =                    NaN  0.00000000000000E+00
 cg2d: Sum(rhs),rhsMax =                    NaN  0.00000000000000E+00
 cg2d: Sum(rhs),rhsMax =                    NaN  0.00000000000000E+00
 cg2d: Sum(rhs),rhsMax =                    NaN  0.00000000000000E+00
 cg2d: Sum(rhs),rhsMax =                    NaN  0.00000000000000E+00
 cg2d: Sum(rhs),rhsMax =                    NaN  0.00000000000000E+00
 cg2d: Sum(rhs),rhsMax =                    NaN  0.00000000000000E+00
 cg2d: Sum(rhs),rhsMax =                    NaN  0.00000000000000E+00
 cg2d: Sum(rhs),rhsMax =                    NaN  0.00000000000000E+00
 cg2d: Sum(rhs),rhsMax =                    NaN  0.00000000000000E+00
 cg2d: Sum(rhs),rhsMax =                    NaN  0.00000000000000E+00
 cg2d: Sum(rhs),rhsMax =                    NaN  0.00000000000000E+00
 cg2d: Sum(rhs),rhsMax =                    NaN  0.00000000000000E+00
 cg2d: Sum(rhs),rhsMax =                    NaN  0.00000000000000E+00
 cg2d: Sum(rhs),rhsMax =                    NaN  0.00000000000000E+00
 cg2d: Sum(rhs),rhsMax =                    NaN  0.00000000000000E+00
 cg2d: Sum(rhs),rhsMax =                    NaN  0.00000000000000E+00
 cg2d: Sum(rhs),rhsMax =                    NaN  0.00000000000000E+00
 cg2d: Sum(rhs),rhsMax =                    NaN  0.00000000000000E+00
 cg2d: Sum(rhs),rhsMax =                    NaN  0.00000000000000E+00
 cg2d: Sum(rhs),rhsMax =                    NaN  0.00000000000000E+00
 cg2d: Sum(rhs),rhsMax =                    NaN  0.00000000000000E+00
 cg2d: Sum(rhs),rhsMax =                    NaN  0.00000000000000E+00
 cg2d: Sum(rhs),rhsMax =                    NaN  0.00000000000000E+00
 cg2d: Sum(rhs),rhsMax =                    NaN  0.00000000000000E+00
 cg2d: Sum(rhs),rhsMax =                    NaN  0.00000000000000E+00
 cg2d: Sum(rhs),rhsMax =                    NaN  0.00000000000000E+00
 cg2d: Sum(rhs),rhsMax =                    NaN  0.00000000000000E+00
 cg2d: Sum(rhs),rhsMax =                    NaN  0.00000000000000E+00
 cg2d: Sum(rhs),rhsMax =                    NaN  0.00000000000000E+00
 cg2d: Sum(rhs),rhsMax =                    NaN  0.00000000000000E+00
 cg2d: Sum(rhs),rhsMax =                    NaN  0.00000000000000E+00
 cg2d: Sum(rhs),rhsMax =                    NaN  0.00000000000000E+00
 cg2d: Sum(rhs),rhsMax =                    NaN  0.00000000000000E+00
 cg2d: Sum(rhs),rhsMax =                    NaN  0.00000000000000E+00
 cg2d: Sum(rhs),rhsMax =                    NaN  0.00000000000000E+00
 cg2d: Sum(rhs),rhsMax =                    NaN  0.00000000000000E+00
 cg2d: Sum(rhs),rhsMax =                    NaN  0.00000000000000E+00
 cg2d: Sum(rhs),rhsMax =                    NaN  0.00000000000000E+00
 cg2d: Sum(rhs),rhsMax =                    NaN  0.00000000000000E+00
 cg2d: Sum(rhs),rhsMax =                    NaN  0.00000000000000E+00
 cg2d: Sum(rhs),rhsMax =                    NaN  0.00000000000000E+00
 cg2d: Sum(rhs),rhsMax =                    NaN  0.00000000000000E+00
 cg2d: Sum(rhs),rhsMax =                    NaN  0.00000000000000E+00
 cg2d: Sum(rhs),rhsMax =                    NaN  0.00000000000000E+00
 cg2d: Sum(rhs),rhsMax =                    NaN  0.00000000000000E+00
 cg2d: Sum(rhs),rhsMax =                    NaN  0.00000000000000E+00
 cg2d: Sum(rhs),rhsMax =                    NaN  0.00000000000000E+00
 cg2d: Sum(rhs),rhsMax =                    NaN  0.00000000000000E+00
 cg2d: Sum(rhs),rhsMax =                    NaN  0.00000000000000E+00
 cg2d: Sum(rhs),rhsMax =                    NaN  0.00000000000000E+00
 cg2d: Sum(rhs),rhsMax =                    NaN  0.00000000000000E+00
 cg2d: Sum(rhs),rhsMax =                    NaN  0.00000000000000E+00
 cg2d: Sum(rhs),rhsMax =                    NaN  0.00000000000000E+00
 cg2d: Sum(rhs),rhsMax =                    NaN  0.00000000000000E+00
 cg2d: Sum(rhs),rhsMax =                    NaN  0.00000000000000E+00
 cg2d: Sum(rhs),rhsMax =                    NaN  0.00000000000000E+00
 cg2d: Sum(rhs),rhsMax =                    NaN  0.00000000000000E+00
 cg2d: Sum(rhs),rhsMax =                    NaN  0.00000000000000E+00
 cg2d: Sum(rhs),rhsMax =                    NaN  0.00000000000000E+00
 cg2d: Sum(rhs),rhsMax =                    NaN  0.00000000000000E+00
 cg2d: Sum(rhs),rhsMax =                    NaN  0.00000000000000E+00
 cg2d: Sum(rhs),rhsMax =                    NaN  0.00000000000000E+00
 cg2d: Sum(rhs),rhsMax =                    NaN  0.00000000000000E+00
 cg2d: Sum(rhs),rhsMax =                    NaN  0.00000000000000E+00
 cg2d: Sum(rhs),rhsMax =                    NaN  0.00000000000000E+00
 cg2d: Sum(rhs),rhsMax =                    NaN  0.00000000000000E+00
 cg2d: Sum(rhs),rhsMax =                    NaN  0.00000000000000E+00
 cg2d: Sum(rhs),rhsMax =                    NaN  0.00000000000000E+00
 cg2d: Sum(rhs),rhsMax =                    NaN  0.00000000000000E+00
 cg2d: Sum(rhs),rhsMax =                    NaN  0.00000000000000E+00
 cg2d: Sum(rhs),rhsMax =                    NaN  0.00000000000000E+00
 cg2d: Sum(rhs),rhsMax =                    NaN  0.00000000000000E+00
 cg2d: Sum(rhs),rhsMax =                    NaN  0.00000000000000E+00
 cg2d: Sum(rhs),rhsMax =                    NaN  0.00000000000000E+00
 cg2d: Sum(rhs),rhsMax =                    NaN  0.00000000000000E+00
 cg2d: Sum(rhs),rhsMax =                    NaN  0.00000000000000E+00
 cg2d: Sum(rhs),rhsMax =                    NaN  0.00000000000000E+00
 cg2d: Sum(rhs),rhsMax =                    NaN  0.00000000000000E+00
 cg2d: Sum(rhs),rhsMax =                    NaN  0.00000000000000E+00
 cg2d: Sum(rhs),rhsMax =                    NaN  0.00000000000000E+00
 cg2d: Sum(rhs),rhsMax =                    NaN  0.00000000000000E+00
 cg2d: Sum(rhs),rhsMax =                    NaN  0.00000000000000E+00
 cg2d: Sum(rhs),rhsMax =                    NaN  0.00000000000000E+00
 cg2d: Sum(rhs),rhsMax =                    NaN  0.00000000000000E+00
 cg2d: Sum(rhs),rhsMax =                    NaN  0.00000000000000E+00
 cg2d: Sum(rhs),rhsMax =                    NaN  0.00000000000000E+00
 cg2d: Sum(rhs),rhsMax =                    NaN  0.00000000000000E+00
 cg2d: Sum(rhs),rhsMax =                    NaN  0.00000000000000E+00
 cg2d: Sum(rhs),rhsMax =                    NaN  0.00000000000000E+00
 cg2d: Sum(rhs),rhsMax =                    NaN  0.00000000000000E+00
 cg2d: Sum(rhs),rhsMax =                    NaN  0.00000000000000E+00
 cg2d: Sum(rhs),rhsMax =                    NaN  0.00000000000000E+00
 cg2d: Sum(rhs),rhsMax =                    NaN  0.00000000000000E+00
 cg2d: Sum(rhs),rhsMax =                    NaN  0.00000000000000E+00
 cg2d: Sum(rhs),rhsMax =                    NaN  0.00000000000000E+00
 cg2d: Sum(rhs),rhsMax =                    NaN  0.00000000000000E+00
 cg2d: Sum(rhs),rhsMax =                    NaN  0.00000000000000E+00
 cg2d: Sum(rhs),rhsMax =                    NaN  0.00000000000000E+00
 cg2d: Sum(rhs),rhsMax =                    NaN  0.00000000000000E+00
 cg2d: Sum(rhs),rhsMax =                    NaN  0.00000000000000E+00
 cg2d: Sum(rhs),rhsMax =                    NaN  0.00000000000000E+00
 cg2d: Sum(rhs),rhsMax =                    NaN  0.00000000000000E+00
 cg2d: Sum(rhs),rhsMax =                    NaN  0.00000000000000E+00
 cg2d: Sum(rhs),rhsMax =                    NaN  0.00000000000000E+00
 cg2d: Sum(rhs),rhsMax =                    NaN  0.00000000000000E+00
 cg2d: Sum(rhs),rhsMax =                    NaN  0.00000000000000E+00
 cg2d: Sum(rhs),rhsMax =                    NaN  0.00000000000000E+00
 cg2d: Sum(rhs),rhsMax =                    NaN  0.00000000000000E+00
 cg2d: Sum(rhs),rhsMax =                    NaN  0.00000000000000E+00
 cg2d: Sum(rhs),rhsMax =                    NaN  0.00000000000000E+00
 cg2d: Sum(rhs),rhsMax =                    NaN  0.00000000000000E+00
 cg2d: Sum(rhs),rhsMax =                    NaN  0.00000000000000E+00
 cg2d: Sum(rhs),rhsMax =                    NaN  0.00000000000000E+00
 cg2d: Sum(rhs),rhsMax =                    NaN  0.00000000000000E+00
 cg2d: Sum(rhs),rhsMax =                    NaN  0.00000000000000E+00
 cg2d: Sum(rhs),rhsMax =                    NaN  0.00000000000000E+00
 cg2d: Sum(rhs),rhsMax =                    NaN  0.00000000000000E+00
 cg2d: Sum(rhs),rhsMax =                    NaN  0.00000000000000E+00
 cg2d: Sum(rhs),rhsMax =                    NaN  0.00000000000000E+00
 cg2d: Sum(rhs),rhsMax =                    NaN  0.00000000000000E+00
 cg2d: Sum(rhs),rhsMax =                    NaN  0.00000000000000E+00
 cg2d: Sum(rhs),rhsMax =                    NaN  0.00000000000000E+00
 cg2d: Sum(rhs),rhsMax =                    NaN  0.00000000000000E+00
 cg2d: Sum(rhs),rhsMax =                    NaN  0.00000000000000E+00
 cg2d: Sum(rhs),rhsMax =                    NaN  0.00000000000000E+00
 cg2d: Sum(rhs),rhsMax =                    NaN  0.00000000000000E+00
 cg2d: Sum(rhs),rhsMax =                    NaN  0.00000000000000E+00
 cg2d: Sum(rhs),rhsMax =                    NaN  0.00000000000000E+00
 cg2d: Sum(rhs),rhsMax =                    NaN  0.00000000000000E+00
 cg2d: Sum(rhs),rhsMax =                    NaN  0.00000000000000E+00
 cg2d: Sum(rhs),rhsMax =                    NaN  0.00000000000000E+00
 cg2d: Sum(rhs),rhsMax =                    NaN  0.00000000000000E+00
 cg2d: Sum(rhs),rhsMax =                    NaN  0.00000000000000E+00
 cg2d: Sum(rhs),rhsMax =                    NaN  0.00000000000000E+00
 cg2d: Sum(rhs),rhsMax =                    NaN  0.00000000000000E+00
 cg2d: Sum(rhs),rhsMax =                    NaN  0.00000000000000E+00
 cg2d: Sum(rhs),rhsMax =                    NaN  0.00000000000000E+00
 cg2d: Sum(rhs),rhsMax =                    NaN  0.00000000000000E+00
 cg2d: Sum(rhs),rhsMax =                    NaN  0.00000000000000E+00
 cg2d: Sum(rhs),rhsMax =                    NaN  0.00000000000000E+00
 cg2d: Sum(rhs),rhsMax =                    NaN  0.00000000000000E+00
 cg2d: Sum(rhs),rhsMax =                    NaN  0.00000000000000E+00
 cg2d: Sum(rhs),rhsMax =                    NaN  0.00000000000000E+00
 cg2d: Sum(rhs),rhsMax =                    NaN  0.00000000000000E+00
 cg2d: Sum(rhs),rhsMax =                    NaN  0.00000000000000E+00
 cg2d: Sum(rhs),rhsMax =                    NaN  0.00000000000000E+00
 cg2d: Sum(rhs),rhsMax =                    NaN  0.00000000000000E+00
 cg2d: Sum(rhs),rhsMax =                    NaN  0.00000000000000E+00
 cg2d: Sum(rhs),rhsMax =                    NaN  0.00000000000000E+00
 cg2d: Sum(rhs),rhsMax =                    NaN  0.00000000000000E+00
 cg2d: Sum(rhs),rhsMax =                    NaN  0.00000000000000E+00
 cg2d: Sum(rhs),rhsMax =                    NaN  0.00000000000000E+00
 cg2d: Sum(rhs),rhsMax =                    NaN  0.00000000000000E+00
 cg2d: Sum(rhs),rhsMax =                    NaN  0.00000000000000E+00
 cg2d: Sum(rhs),rhsMax =                    NaN  0.00000000000000E+00
 cg2d: Sum(rhs),rhsMax =                    NaN  0.00000000000000E+00
 cg2d: Sum(rhs),rhsMax =                    NaN  0.00000000000000E+00
 cg2d: Sum(rhs),rhsMax =                    NaN  0.00000000000000E+00
 cg2d: Sum(rhs),rhsMax =                    NaN  0.00000000000000E+00
 cg2d: Sum(rhs),rhsMax =                    NaN  0.00000000000000E+00
 cg2d: Sum(rhs),rhsMax =                    NaN  0.00000000000000E+00
 cg2d: Sum(rhs),rhsMax =                    NaN  0.00000000000000E+00
 cg2d: Sum(rhs),rhsMax =                    NaN  0.00000000000000E+00
 cg2d: Sum(rhs),rhsMax =                    NaN  0.00000000000000E+00
 cg2d: Sum(rhs),rhsMax =                    NaN  0.00000000000000E+00
 cg2d: Sum(rhs),rhsMax =                    NaN  0.00000000000000E+00
 cg2d: Sum(rhs),rhsMax =                    NaN  0.00000000000000E+00
 cg2d: Sum(rhs),rhsMax =                    NaN  0.00000000000000E+00
 cg2d: Sum(rhs),rhsMax =                    NaN  0.00000000000000E+00
 cg2d: Sum(rhs),rhsMax =                    NaN  0.00000000000000E+00
 cg2d: Sum(rhs),rhsMax =                    NaN  0.00000000000000E+00
 cg2d: Sum(rhs),rhsMax =                    NaN  0.00000000000000E+00
 cg2d: Sum(rhs),rhsMax =                    NaN  0.00000000000000E+00
 cg2d: Sum(rhs),rhsMax =                    NaN  0.00000000000000E+00
 cg2d: Sum(rhs),rhsMax =                    NaN  0.00000000000000E+00
 cg2d: Sum(rhs),rhsMax =                    NaN  0.00000000000000E+00
 cg2d: Sum(rhs),rhsMax =                    NaN  0.00000000000000E+00
 cg2d: Sum(rhs),rhsMax =                    NaN  0.00000000000000E+00
 cg2d: Sum(rhs),rhsMax =                    NaN  0.00000000000000E+00
 cg2d: Sum(rhs),rhsMax =                    NaN  0.00000000000000E+00
 cg2d: Sum(rhs),rhsMax =                    NaN  0.00000000000000E+00
 cg2d: Sum(rhs),rhsMax =                    NaN  0.00000000000000E+00
 cg2d: Sum(rhs),rhsMax =                    NaN  0.00000000000000E+00
 cg2d: Sum(rhs),rhsMax =                    NaN  0.00000000000000E+00
 cg2d: Sum(rhs),rhsMax =                    NaN  0.00000000000000E+00
 cg2d: Sum(rhs),rhsMax =                    NaN  0.00000000000000E+00
 cg2d: Sum(rhs),rhsMax =                    NaN  0.00000000000000E+00
 cg2d: Sum(rhs),rhsMax =                    NaN  0.00000000000000E+00
 cg2d: Sum(rhs),rhsMax =                    NaN  0.00000000000000E+00
 cg2d: Sum(rhs),rhsMax =                    NaN  0.00000000000000E+00
 cg2d: Sum(rhs),rhsMax =                    NaN  0.00000000000000E+00
 cg2d: Sum(rhs),rhsMax =                    NaN  0.00000000000000E+00
 cg2d: Sum(rhs),rhsMax =                    NaN  0.00000000000000E+00
 cg2d: Sum(rhs),rhsMax =                    NaN  0.00000000000000E+00
 cg2d: Sum(rhs),rhsMax =                    NaN  0.00000000000000E+00
 cg2d: Sum(rhs),rhsMax =                    NaN  0.00000000000000E+00
 cg2d: Sum(rhs),rhsMax =                    NaN  0.00000000000000E+00
 cg2d: Sum(rhs),rhsMax =                    NaN  0.00000000000000E+00
 cg2d: Sum(rhs),rhsMax =                    NaN  0.00000000000000E+00
 cg2d: Sum(rhs),rhsMax =                    NaN  0.00000000000000E+00
 cg2d: Sum(rhs),rhsMax =                    NaN  0.00000000000000E+00
 cg2d: Sum(rhs),rhsMax =                    NaN  0.00000000000000E+00
 cg2d: Sum(rhs),rhsMax =                    NaN  0.00000000000000E+00
 cg2d: Sum(rhs),rhsMax =                    NaN  0.00000000000000E+00
 cg2d: Sum(rhs),rhsMax =                    NaN  0.00000000000000E+00
 cg2d: Sum(rhs),rhsMax =                    NaN  0.00000000000000E+00
(PID.TID 0000.0001)      cg2d_init_res =                    NaN
(PID.TID 0000.0001)      cg2d_iters(min,last) =      -1    1000
(PID.TID 0000.0001)      cg2d_last_res =                    NaN
(PID.TID 0000.0001) // =======================================================
(PID.TID 0000.0001) // Begin MONITOR dynamic field statistics
(PID.TID 0000.0001) // =======================================================
(PID.TID 0000.0001) %MON time_tsnumber                =                  7200
(PID.TID 0000.0001) %MON time_secondsf                =   1.0800000000000E+05
(PID.TID 0000.0001) %MON dynstat_eta_max              =                   NaN
(PID.TID 0000.0001) %MON dynstat_eta_min              =                   NaN
(PID.TID 0000.0001) %MON dynstat_eta_mean             =                   NaN
(PID.TID 0000.0001) %MON dynstat_eta_sd               =                   NaN
(PID.TID 0000.0001) %MON dynstat_eta_del2             =                   NaN
(PID.TID 0000.0001) %MON dynstat_uvel_max             =   6.6809804669674E-01
(PID.TID 0000.0001) %MON dynstat_uvel_min             =   6.6809804669674E-01
(PID.TID 0000.0001) %MON dynstat_uvel_mean            =                   NaN
(PID.TID 0000.0001) %MON dynstat_uvel_sd              =                   NaN
(PID.TID 0000.0001) %MON dynstat_uvel_del2            =                   NaN
(PID.TID 0000.0001) %MON dynstat_vvel_max             =                   NaN
(PID.TID 0000.0001) %MON dynstat_vvel_min             =                   NaN
(PID.TID 0000.0001) %MON dynstat_vvel_mean            =                   NaN
(PID.TID 0000.0001) %MON dynstat_vvel_sd              =                   NaN
(PID.TID 0000.0001) %MON dynstat_vvel_del2            =                   NaN
(PID.TID 0000.0001) %MON dynstat_wvel_max             =                   NaN
(PID.TID 0000.0001) %MON dynstat_wvel_min             =                   NaN
(PID.TID 0000.0001) %MON dynstat_wvel_mean            =                   NaN
(PID.TID 0000.0001) %MON dynstat_wvel_sd              =                   NaN
(PID.TID 0000.0001) %MON dynstat_wvel_del2            =                   NaN
(PID.TID 0000.0001) %MON dynstat_theta_max            =                   NaN
(PID.TID 0000.0001) %MON dynstat_theta_min            =                   NaN
(PID.TID 0000.0001) %MON dynstat_theta_mean           =                   NaN
(PID.TID 0000.0001) %MON dynstat_theta_sd             =                   NaN
(PID.TID 0000.0001) %MON dynstat_theta_del2           =                   NaN
(PID.TID 0000.0001) %MON dynstat_salt_max             =   3.5000000000000E+01
(PID.TID 0000.0001) %MON dynstat_salt_min             =   3.5000000000000E+01
(PID.TID 0000.0001) %MON dynstat_salt_mean            =   3.5000000000000E+01
(PID.TID 0000.0001) %MON dynstat_salt_sd              =   2.1316282072803E-14
(PID.TID 0000.0001) %MON dynstat_salt_del2            =   0.0000000000000E+00
(PID.TID 0000.0001) %MON dynstat_sst_max              =                   NaN
(PID.TID 0000.0001) %MON dynstat_sst_min              =                   NaN
(PID.TID 0000.0001) %MON dynstat_sst_mean             =                   NaN
(PID.TID 0000.0001) %MON dynstat_sst_sd               =                   NaN
(PID.TID 0000.0001) %MON dynstat_sst_del2             =                   NaN
(PID.TID 0000.0001) %MON dynstat_sss_max              =   3.5000000000000E+01
(PID.TID 0000.0001) %MON dynstat_sss_min              =   3.5000000000000E+01
(PID.TID 0000.0001) %MON dynstat_sss_mean             =   3.5000000000000E+01
(PID.TID 0000.0001) %MON dynstat_sss_sd               =   7.8159700933611E-14
(PID.TID 0000.0001) %MON dynstat_sss_del2             =   0.0000000000000E+00
(PID.TID 0000.0001) %MON forcing_qnet_max             =   0.0000000000000E+00
(PID.TID 0000.0001) %MON forcing_qnet_min             =   0.0000000000000E+00
(PID.TID 0000.0001) %MON forcing_qnet_mean            =   0.0000000000000E+00
(PID.TID 0000.0001) %MON forcing_qnet_sd              =   0.0000000000000E+00
(PID.TID 0000.0001) %MON forcing_qnet_del2            =   0.0000000000000E+00
(PID.TID 0000.0001) %MON forcing_qsw_max              =   0.0000000000000E+00
(PID.TID 0000.0001) %MON forcing_qsw_min              =   0.0000000000000E+00
(PID.TID 0000.0001) %MON forcing_qsw_mean             =   0.0000000000000E+00
(PID.TID 0000.0001) %MON forcing_qsw_sd               =   0.0000000000000E+00
(PID.TID 0000.0001) %MON forcing_qsw_del2             =   0.0000000000000E+00
(PID.TID 0000.0001) %MON forcing_empmr_max            =   0.0000000000000E+00
(PID.TID 0000.0001) %MON forcing_empmr_min            =   0.0000000000000E+00
(PID.TID 0000.0001) %MON forcing_empmr_mean           =   0.0000000000000E+00
(PID.TID 0000.0001) %MON forcing_empmr_sd             =   0.0000000000000E+00
(PID.TID 0000.0001) %MON forcing_empmr_del2           =   0.0000000000000E+00
(PID.TID 0000.0001) %MON forcing_fu_max               =   0.0000000000000E+00
(PID.TID 0000.0001) %MON forcing_fu_min               =   0.0000000000000E+00
(PID.TID 0000.0001) %MON forcing_fu_mean              =   0.0000000000000E+00
(PID.TID 0000.0001) %MON forcing_fu_sd                =   0.0000000000000E+00
(PID.TID 0000.0001) %MON forcing_fu_del2              =   0.0000000000000E+00
(PID.TID 0000.0001) %MON forcing_fv_max               =   0.0000000000000E+00
(PID.TID 0000.0001) %MON forcing_fv_min               =   0.0000000000000E+00
(PID.TID 0000.0001) %MON forcing_fv_mean              =   0.0000000000000E+00
(PID.TID 0000.0001) %MON forcing_fv_sd                =   0.0000000000000E+00
(PID.TID 0000.0001) %MON forcing_fv_del2              =   0.0000000000000E+00
(PID.TID 0000.0001) %MON advcfl_uvel_max              =   9.5851945436867E-03
(PID.TID 0000.0001) %MON advcfl_vvel_max              =   0.0000000000000E+00
(PID.TID 0000.0001) %MON advcfl_wvel_max              =   0.0000000000000E+00
(PID.TID 0000.0001) %MON advcfl_W_hf_max              =   0.0000000000000E+00
(PID.TID 0000.0001) %MON pe_b_mean                    =                   NaN
(PID.TID 0000.0001) %MON ke_max                       =   0.0000000000000E+00
(PID.TID 0000.0001) %MON ke_mean                      =                   NaN
(PID.TID 0000.0001) %MON ke_vol                       =   9.5889217545975E+10
(PID.TID 0000.0001) %MON vort_r_min                   =   0.0000000000000E+00
(PID.TID 0000.0001) %MON vort_r_max                   =   0.0000000000000E+00
(PID.TID 0000.0001) %MON vort_a_mean                  =                   NaN
(PID.TID 0000.0001) %MON vort_a_sd                    =                   NaN
(PID.TID 0000.0001) %MON vort_p_mean                  =                   NaN
(PID.TID 0000.0001) %MON vort_p_sd                    =   0.0000000000000E+00
(PID.TID 0000.0001) %MON surfExpan_theta_mean         =                   NaN
(PID.TID 0000.0001) %MON surfExpan_salt_mean          =                   NaN
(PID.TID 0000.0001) // =======================================================
(PID.TID 0000.0001) // End MONITOR dynamic field statistics
(PID.TID 0000.0001) // =======================================================
(PID.TID 0000.0001) // =======================================================
(PID.TID 0000.0001) // Begin OBCS MONITOR field statistics
(PID.TID 0000.0001) // =======================================================
(PID.TID 0000.0001) %MON obc_E_uVel_max               =   6.6809804669674E-01
(PID.TID 0000.0001) %MON obc_E_uVel_min               =   6.6809804669674E-01
(PID.TID 0000.0001) %MON obc_E_uVel_mean              =   6.6809804669674E-01
(PID.TID 0000.0001) %MON obc_E_uVel_sd                =   1.6660004686563E-08
(PID.TID 0000.0001) %MON obc_E_uVel_Int               =   6.6809804669674E+05
(PID.TID 0000.0001) %MON obc_W_uVel_max               =   6.6809804669674E-01
(PID.TID 0000.0001) %MON obc_W_uVel_min               =   6.6809804669674E-01
(PID.TID 0000.0001) %MON obc_W_uVel_mean              =   6.6809804669674E-01
(PID.TID 0000.0001) %MON obc_W_uVel_sd                =   1.6660004686563E-08
(PID.TID 0000.0001) %MON obc_W_uVel_Int               =   6.6809804669674E+05
(PID.TID 0000.0001) // =======================================================
(PID.TID 0000.0001) // End OBCS MONITOR field statistics
(PID.TID 0000.0001) // =======================================================
(PID.TID 0000.0001) %CHECKPOINT      7200 0000007200
(PID.TID 0000.0001)   Seconds in section "ALL                    [THE_MODEL_MAIN]":
(PID.TID 0000.0001)           User time:   253.76000000000002
(PID.TID 0000.0001)         System time:  0.28000000000000003
(PID.TID 0000.0001)     Wall clock time:   254.70035505294800
(PID.TID 0000.0001)          No. starts:           1
(PID.TID 0000.0001)           No. stops:           1
(PID.TID 0000.0001)   Seconds in section "INITIALISE_FIXED       [THE_MODEL_MAIN]":
(PID.TID 0000.0001)           User time:   4.0000000000000001E-002
(PID.TID 0000.0001)         System time:   0.0000000000000000
(PID.TID 0000.0001)     Wall clock time:   9.1933965682983398E-002
(PID.TID 0000.0001)          No. starts:           1
(PID.TID 0000.0001)           No. stops:           1
(PID.TID 0000.0001)   Seconds in section "THE_MAIN_LOOP          [THE_MODEL_MAIN]":
(PID.TID 0000.0001)           User time:   253.72000000000003
(PID.TID 0000.0001)         System time:  0.28000000000000003
(PID.TID 0000.0001)     Wall clock time:   254.60838794708252
(PID.TID 0000.0001)          No. starts:           1
(PID.TID 0000.0001)           No. stops:           1
(PID.TID 0000.0001)   Seconds in section "INITIALISE_VARIA    [THE_MAIN_LOOP]":
(PID.TID 0000.0001)           User time:   0.0000000000000000
(PID.TID 0000.0001)         System time:   1.0000000000000000E-002
(PID.TID 0000.0001)     Wall clock time:   2.7718067169189453E-002
(PID.TID 0000.0001)          No. starts:           1
(PID.TID 0000.0001)           No. stops:           1
(PID.TID 0000.0001)   Seconds in section "MAIN LOOP           [THE_MAIN_LOOP]":
(PID.TID 0000.0001)           User time:   253.72000000000003
(PID.TID 0000.0001)         System time:  0.27000000000000002
(PID.TID 0000.0001)     Wall clock time:   254.58064007759094
(PID.TID 0000.0001)          No. starts:           1
(PID.TID 0000.0001)           No. stops:           1
(PID.TID 0000.0001)   Seconds in section "MAIN_DO_LOOP        [THE_MAIN_LOOP]":
(PID.TID 0000.0001)           User time:   253.65999999999306
(PID.TID 0000.0001)         System time:  0.27000000000000024
(PID.TID 0000.0001)     Wall clock time:   254.51647853851318
(PID.TID 0000.0001)          No. starts:        7200
(PID.TID 0000.0001)           No. stops:        7200
(PID.TID 0000.0001)   Seconds in section "FORWARD_STEP        [MAIN_DO_LOOP]":
(PID.TID 0000.0001)           User time:   253.53999999999317
(PID.TID 0000.0001)         System time:  0.27000000000000024
(PID.TID 0000.0001)     Wall clock time:   254.38590216636658
(PID.TID 0000.0001)          No. starts:        7200
(PID.TID 0000.0001)           No. stops:        7200
(PID.TID 0000.0001)   Seconds in section "LOAD_FIELDS_DRIVER  [FORWARD_STEP]":
(PID.TID 0000.0001)           User time:  0.11999999999997613
(PID.TID 0000.0001)         System time:   0.0000000000000000
(PID.TID 0000.0001)     Wall clock time:  0.19701504707336426
(PID.TID 0000.0001)          No. starts:        7200
(PID.TID 0000.0001)           No. stops:        7200
(PID.TID 0000.0001)   Seconds in section "EXTERNAL_FLDS_LOAD [LOAD_FLDS_DRIVER]":
(PID.TID 0000.0001)           User time:   2.0000000000010232E-002
(PID.TID 0000.0001)         System time:   0.0000000000000000
(PID.TID 0000.0001)     Wall clock time:   6.5762281417846680E-002
(PID.TID 0000.0001)          No. starts:        7200
(PID.TID 0000.0001)           No. stops:        7200
(PID.TID 0000.0001)   Seconds in section "DO_ATMOSPHERIC_PHYS [FORWARD_STEP]":
(PID.TID 0000.0001)           User time:   4.0000000000020464E-002
(PID.TID 0000.0001)         System time:   0.0000000000000000
(PID.TID 0000.0001)     Wall clock time:   6.5281391143798828E-002
(PID.TID 0000.0001)          No. starts:        7200
(PID.TID 0000.0001)           No. stops:        7200
(PID.TID 0000.0001)   Seconds in section "DO_OCEANIC_PHYS     [FORWARD_STEP]":
(PID.TID 0000.0001)           User time:   75.719999999971748
(PID.TID 0000.0001)         System time:   8.0000000000000071E-002
(PID.TID 0000.0001)     Wall clock time:   75.361573457717896
(PID.TID 0000.0001)          No. starts:        7200
(PID.TID 0000.0001)           No. stops:        7200
(PID.TID 0000.0001)   Seconds in section "DYNAMICS            [FORWARD_STEP]":
(PID.TID 0000.0001)           User time:   83.279999999980447
(PID.TID 0000.0001)         System time:   2.0000000000000018E-002
(PID.TID 0000.0001)     Wall clock time:   83.238377809524536
(PID.TID 0000.0001)          No. starts:        7200
(PID.TID 0000.0001)           No. stops:        7200
(PID.TID 0000.0001)   Seconds in section "SOLVE_FOR_PRESSURE  [FORWARD_STEP]":
(PID.TID 0000.0001)           User time:   8.9699999999961619
(PID.TID 0000.0001)         System time:   1.0000000000000009E-002
(PID.TID 0000.0001)     Wall clock time:   9.2326629161834717
(PID.TID 0000.0001)          No. starts:        7200
(PID.TID 0000.0001)           No. stops:        7200
(PID.TID 0000.0001)   Seconds in section "MOM_CORRECTION_STEP [FORWARD_STEP]":
(PID.TID 0000.0001)           User time:   3.0399999999995089
(PID.TID 0000.0001)         System time:   2.0000000000000018E-002
(PID.TID 0000.0001)     Wall clock time:   2.9049224853515625
(PID.TID 0000.0001)          No. starts:        7200
(PID.TID 0000.0001)           No. stops:        7200
(PID.TID 0000.0001)   Seconds in section "INTEGR_CONTINUITY   [FORWARD_STEP]":
(PID.TID 0000.0001)           User time:   1.7600000000000477
(PID.TID 0000.0001)         System time:   0.0000000000000000
(PID.TID 0000.0001)     Wall clock time:   1.4411036968231201
(PID.TID 0000.0001)          No. starts:        7200
(PID.TID 0000.0001)           No. stops:        7200
(PID.TID 0000.0001)   Seconds in section "BLOCKING_EXCHANGES  [FORWARD_STEP]":
(PID.TID 0000.0001)           User time:   7.5399999999947340
(PID.TID 0000.0001)         System time:   0.0000000000000000
(PID.TID 0000.0001)     Wall clock time:   7.7276673316955566
(PID.TID 0000.0001)          No. starts:       14400
(PID.TID 0000.0001)           No. stops:       14400
(PID.TID 0000.0001)   Seconds in section "THERMODYNAMICS      [FORWARD_STEP]":
(PID.TID 0000.0001)           User time:   71.329999999977076
(PID.TID 0000.0001)         System time:   7.0000000000000062E-002
(PID.TID 0000.0001)     Wall clock time:   72.057394742965698
(PID.TID 0000.0001)          No. starts:        7200
(PID.TID 0000.0001)           No. stops:        7200
(PID.TID 0000.0001)   Seconds in section "TRC_CORRECTION_STEP [FORWARD_STEP]":
(PID.TID 0000.0001)           User time:   6.0000000000002274E-002
(PID.TID 0000.0001)         System time:   0.0000000000000000
(PID.TID 0000.0001)     Wall clock time:   6.5886259078979492E-002
(PID.TID 0000.0001)          No. starts:        7200
(PID.TID 0000.0001)           No. stops:        7200
(PID.TID 0000.0001)   Seconds in section "MONITOR             [FORWARD_STEP]":
(PID.TID 0000.0001)           User time:  0.11000000000004206
(PID.TID 0000.0001)         System time:   0.0000000000000000
(PID.TID 0000.0001)     Wall clock time:  0.11236977577209473
(PID.TID 0000.0001)          No. starts:        7200
(PID.TID 0000.0001)           No. stops:        7200
(PID.TID 0000.0001)   Seconds in section "DO_THE_MODEL_IO     [FORWARD_STEP]":
(PID.TID 0000.0001)           User time:  0.27999999999994429
(PID.TID 0000.0001)         System time:   6.0000000000000053E-002
(PID.TID 0000.0001)     Wall clock time:  0.81735229492187500
(PID.TID 0000.0001)          No. starts:        7200
(PID.TID 0000.0001)           No. stops:        7200
(PID.TID 0000.0001)   Seconds in section "DO_WRITE_PICKUP     [FORWARD_STEP]":
(PID.TID 0000.0001)           User time:   7.9999999999955662E-002
(PID.TID 0000.0001)         System time:   1.0000000000000009E-002
(PID.TID 0000.0001)     Wall clock time:  0.17351722717285156
(PID.TID 0000.0001)          No. starts:        7200
(PID.TID 0000.0001)           No. stops:        7200
(PID.TID 0000.0001) // ======================================================
(PID.TID 0000.0001) // Tile <-> Tile communication statistics
(PID.TID 0000.0001) // ======================================================
(PID.TID 0000.0001) // o Tile number: 000001
(PID.TID 0000.0001) //         No. X exchanges =              0
(PID.TID 0000.0001) //            Max. X spins =              0
(PID.TID 0000.0001) //            Min. X spins =     1000000000
(PID.TID 0000.0001) //          Total. X spins =              0
(PID.TID 0000.0001) //            Avg. X spins =       0.00E+00
(PID.TID 0000.0001) //         No. Y exchanges =              0
(PID.TID 0000.0001) //            Max. Y spins =              0
(PID.TID 0000.0001) //            Min. Y spins =     1000000000
(PID.TID 0000.0001) //          Total. Y spins =              0
(PID.TID 0000.0001) //            Avg. Y spins =       0.00E+00
(PID.TID 0000.0001) // o Thread number: 000001
(PID.TID 0000.0001) //            No. barriers =       14498088
(PID.TID 0000.0001) //      Max. barrier spins =              1
(PID.TID 0000.0001) //      Min. barrier spins =              1
(PID.TID 0000.0001) //     Total barrier spins =       14498088
(PID.TID 0000.0001) //      Avg. barrier spins =       1.00E+00
PROGRAM MAIN: Execution ended Normally
