(PID.TID 0000.0001) 
(PID.TID 0000.0001) // ======================================================
(PID.TID 0000.0001) //                      MITgcm UV
(PID.TID 0000.0001) //                      =========
(PID.TID 0000.0001) // ======================================================
(PID.TID 0000.0001) // execution environment starting up...
(PID.TID 0000.0001) 
(PID.TID 0000.0001) // MITgcmUV version:  checkpoint65d
(PID.TID 0000.0001) // Build user:        hugke729
(PID.TID 0000.0001) // Build host:        hugke729
(PID.TID 0000.0001) // Build date:        Mon Apr 10 14:21:54 PDT 2017
(PID.TID 0000.0001) 
(PID.TID 0000.0001) // =======================================================
(PID.TID 0000.0001) // Execution Environment parameter file "eedata"
(PID.TID 0000.0001) // =======================================================
(PID.TID 0000.0001) ># Example "eedata" file
(PID.TID 0000.0001) ># Lines beginning "#" are comments
(PID.TID 0000.0001) ># nTx - No. threads per process in X
(PID.TID 0000.0001) ># nTy - No. threads per process in Y
(PID.TID 0000.0001) > &EEPARMS
(PID.TID 0000.0001) > /
(PID.TID 0000.0001) ># Note: Some systems use & as the
(PID.TID 0000.0001) ># namelist terminator. Other systems
(PID.TID 0000.0001) ># use a / character (as shown here).
(PID.TID 0000.0001) 
(PID.TID 0000.0001) // =======================================================
(PID.TID 0000.0001) // Computational Grid Specification ( see files "SIZE.h" )
(PID.TID 0000.0001) //                                  ( and "eedata"       )
(PID.TID 0000.0001) // =======================================================
(PID.TID 0000.0001)      nPx =    1 ; /* No. processes in X */
(PID.TID 0000.0001)      nPy =    1 ; /* No. processes in Y */
(PID.TID 0000.0001)      nSx =    1 ; /* No. tiles in X per process */
(PID.TID 0000.0001)      nSy =    1 ; /* No. tiles in Y per process */
(PID.TID 0000.0001)      sNx =  200 ; /* Tile size in X */
(PID.TID 0000.0001)      sNy =    1 ; /* Tile size in Y */
(PID.TID 0000.0001)      OLx =    2 ; /* Tile overlap distance in X */
(PID.TID 0000.0001)      OLy =    2 ; /* Tile overlap distance in Y */
(PID.TID 0000.0001)      nTx =    1 ; /* No. threads in X per process */
(PID.TID 0000.0001)      nTy =    1 ; /* No. threads in Y per process */
(PID.TID 0000.0001)       Nr =  100 ; /* No. levels in the vertical   */
(PID.TID 0000.0001)       Nx =  200 ; /* Total domain size in X ( = nPx*nSx*sNx ) */
(PID.TID 0000.0001)       Ny =    1 ; /* Total domain size in Y ( = nPy*nSy*sNy ) */
(PID.TID 0000.0001)   nTiles =    1 ; /* Total no. tiles per process ( = nSx*nSy ) */
(PID.TID 0000.0001)   nProcs =    1 ; /* Total no. processes ( = nPx*nPy ) */
(PID.TID 0000.0001) nThreads =    1 ; /* Total no. threads per process ( = nTx*nTy ) */
(PID.TID 0000.0001) usingMPI =    F ; /* Flag used to control whether MPI is in use */
(PID.TID 0000.0001)                   /*  note: To execute a program with MPI calls */
(PID.TID 0000.0001)                   /*  it must be launched appropriately e.g     */
(PID.TID 0000.0001)                   /*  "mpirun -np 64 ......"                    */
(PID.TID 0000.0001) useCoupler=    F ;/* Flag used to control communications with   */
(PID.TID 0000.0001)                   /*  other model components, through a coupler */
(PID.TID 0000.0001) debugMode =    F ; /* print debug msg. (sequence of S/R calls)  */
(PID.TID 0000.0001) printMapIncludesZeros=    F ; /* print zeros in Std.Output maps */
(PID.TID 0000.0001) maxLengthPrt1D=   65 /* maxLength of 1D array printed to StdOut */
(PID.TID 0000.0001) 
(PID.TID 0000.0001) // ======================================================
(PID.TID 0000.0001) // Mapping of tiles to threads
(PID.TID 0000.0001) // ======================================================
(PID.TID 0000.0001) // -o- Thread   1, tiles (   1:   1,   1:   1)
(PID.TID 0000.0001) 
(PID.TID 0000.0001) // ======================================================
(PID.TID 0000.0001) // Tile <-> Tile connectvity table
(PID.TID 0000.0001) // ======================================================
(PID.TID 0000.0001) // Tile number: 000001 (process no. = 000000)
(PID.TID 0000.0001) //        WEST: Tile = 000001, Process = 000000, Comm = put
(PID.TID 0000.0001) //                bi = 000001, bj = 000001
(PID.TID 0000.0001) //        EAST: Tile = 000001, Process = 000000, Comm = put
(PID.TID 0000.0001) //                bi = 000001, bj = 000001
(PID.TID 0000.0001) //       SOUTH: Tile = 000001, Process = 000000, Comm = put
(PID.TID 0000.0001) //                bi = 000001, bj = 000001
(PID.TID 0000.0001) //       NORTH: Tile = 000001, Process = 000000, Comm = put
(PID.TID 0000.0001) //                bi = 000001, bj = 000001
(PID.TID 0000.0001) 
(PID.TID 0000.0001)  INI_PARMS: opening model parameter file "data"
(PID.TID 0000.0001)  OPEN_COPY_DATA_FILE: opening file data
(PID.TID 0000.0001) // =======================================================
(PID.TID 0000.0001) // Parameter file "data"
(PID.TID 0000.0001) // =======================================================
(PID.TID 0000.0001) ># ====================
(PID.TID 0000.0001) ># | Model parameters |
(PID.TID 0000.0001) ># ====================
(PID.TID 0000.0001) >#
(PID.TID 0000.0001) ># See src/ini_parms.F for possible parameters.
(PID.TID 0000.0001) >#
(PID.TID 0000.0001) ># Continuous equation parameters
(PID.TID 0000.0001) > &PARM01
(PID.TID 0000.0001) > tRefFile='Tref.bin'
(PID.TID 0000.0001) > sRef= 25*35.,
(PID.TID 0000.0001) > viscAz=1.E-5,
(PID.TID 0000.0001) > viscAh=1.E-4,
(PID.TID 0000.0001) > no_slip_sides=.FALSE.,
(PID.TID 0000.0001) > no_slip_bottom=.FALSE.,
(PID.TID 0000.0001) > viscA4=0.E12,
(PID.TID 0000.0001) > diffKhT=1.E-4,
(PID.TID 0000.0001) > diffKzT=1.E-5,
(PID.TID 0000.0001) > diffKhS=1.E3,
(PID.TID 0000.0001) > diffKzS=1.E-5,
(PID.TID 0000.0001) > f0=0.E-4,
(PID.TID 0000.0001) > beta=0.0E-11,
(PID.TID 0000.0001) > tAlpha=2.E-4,
(PID.TID 0000.0001) > sBeta =0.E-4,
(PID.TID 0000.0001) > gravity=9.81,
(PID.TID 0000.0001) > gBaro=9.81,
(PID.TID 0000.0001) > rigidLid=.FALSE.,
(PID.TID 0000.0001) > implicitFreeSurface=.TRUE.,
(PID.TID 0000.0001) > eosType='LINEAR',
(PID.TID 0000.0001) > nonHydrostatic=.FALSE.,
(PID.TID 0000.0001) > readBinaryPrec=64,
(PID.TID 0000.0001) > useSingleCpuIO=.TRUE.
(PID.TID 0000.0001) > writeBinaryPrec=64,
(PID.TID 0000.0001) > writeStatePrec=64,
(PID.TID 0000.0001) > saltStepping=.FALSE.,
(PID.TID 0000.0001) ># minimum cell fraction.  This reduces steppiness..
(PID.TID 0000.0001) >  hFacMin=0.1,
(PID.TID 0000.0001) >  exactConserv=.FALSE.,
(PID.TID 0000.0001) >  implicitDiffusion=.TRUE.
(PID.TID 0000.0001) >  implicitViscosity=.TRUE.
(PID.TID 0000.0001) ># Superbee on:
(PID.TID 0000.0001) > tempAdvScheme=77,
(PID.TID 0000.0001) > staggerTimeStep=.TRUE.,
(PID.TID 0000.0001) >/
(PID.TID 0000.0001) >
(PID.TID 0000.0001) ># Elliptic solver parameters
(PID.TID 0000.0001) > &PARM02
(PID.TID 0000.0001) > cg2dMaxIters=1000,
(PID.TID 0000.0001) > cg2dTargetResidual=1.E-13,
(PID.TID 0000.0001) > cg3dMaxIters=400,
(PID.TID 0000.0001) > cg3dTargetResidual=1.E-13,
(PID.TID 0000.0001) >/
(PID.TID 0000.0001) >
(PID.TID 0000.0001) ># Time stepping parameters
(PID.TID 0000.0001) > &PARM03
(PID.TID 0000.0001) > niter0=0,
(PID.TID 0000.0001) ># times are in s
(PID.TID 0000.0001) > startTime=0,
(PID.TID 0000.0001) > endTime=108000,
(PID.TID 0000.0001) > deltaT=15,
(PID.TID 0000.0001) > abEps=0.1,
(PID.TID 0000.0001) ># once per tide checkpoint...
(PID.TID 0000.0001) > pChkptFreq=21600,
(PID.TID 0000.0001) > chkptFreq=0.0,
(PID.TID 0000.0001) > dumpFreq=7200,
(PID.TID 0000.0001) > monitorFreq=7200,
(PID.TID 0000.0001) ># Forcing for boundary condition files
(PID.TID 0000.0001) > periodicExternalForcing=.FALSE.,
(PID.TID 0000.0001) >/
(PID.TID 0000.0001) >
(PID.TID 0000.0001) ># Gridding parameters
(PID.TID 0000.0001) > &PARM04
(PID.TID 0000.0001) > usingCartesianGrid=.TRUE.,
(PID.TID 0000.0001) > usingSphericalPolarGrid=.FALSE.,
(PID.TID 0000.0001) > delXfile='delXvar.bin',
(PID.TID 0000.0001) > delY=5.e3,
(PID.TID 0000.0001) > delRfile = 'delZvar.bin',
(PID.TID 0000.0001) >/
(PID.TID 0000.0001) >
(PID.TID 0000.0001) ># Input datasets
(PID.TID 0000.0001) > &PARM05
(PID.TID 0000.0001) > bathyFile='topo.bin',
(PID.TID 0000.0001) > hydrogThetaFile='T0.bin',
(PID.TID 0000.0001) > checkIniTemp=.FALSE.,
(PID.TID 0000.0001) > uVelInitFile='U0.bin',
(PID.TID 0000.0001) > /
(PID.TID 0000.0001) 
(PID.TID 0000.0001)  INI_PARMS ; starts to read PARM01
(PID.TID 0000.0001)  INI_PARMS ; read PARM01 : OK
(PID.TID 0000.0001)  INI_PARMS ; starts to read PARM02
(PID.TID 0000.0001)  INI_PARMS ; read PARM02 : OK
(PID.TID 0000.0001)  INI_PARMS ; starts to read PARM03
(PID.TID 0000.0001)  INI_PARMS ; read PARM03 : OK
(PID.TID 0000.0001)  INI_PARMS ; starts to read PARM04
(PID.TID 0000.0001)  INI_PARMS ; read PARM04 : OK
(PID.TID 0000.0001)  INI_PARMS ; starts to read PARM05
(PID.TID 0000.0001)  INI_PARMS ; read PARM05 : OK
(PID.TID 0000.0001)  INI_PARMS: finished reading file "data"
(PID.TID 0000.0001)  PACKAGES_BOOT: opening data.pkg
(PID.TID 0000.0001)  OPEN_COPY_DATA_FILE: opening file data.pkg
(PID.TID 0000.0001) // =======================================================
(PID.TID 0000.0001) // Parameter file "data.pkg"
(PID.TID 0000.0001) // =======================================================
(PID.TID 0000.0001) ># Packages
(PID.TID 0000.0001) > &PACKAGES
(PID.TID 0000.0001) > useOBCS=.TRUE.,
(PID.TID 0000.0001) > useKL10=.TRUE.,
(PID.TID 0000.0001) > useDIAGNOSTICS=.FALSE.,
(PID.TID 0000.0001) > useMNC=.FALSE.,
(PID.TID 0000.0001) > /
(PID.TID 0000.0001) 
(PID.TID 0000.0001)  PACKAGES_BOOT: finished reading data.pkg
(PID.TID 0000.0001)  PACKAGES_BOOT: On/Off package Summary
 --------  pkgs with a standard "usePKG" On/Off switch in "data.pkg":  --------
 pkg/obcs                 compiled   and   used ( useOBCS                  = T )
 pkg/kl10                 compiled   and   used ( useKL10                  = T )
 -------- pkgs without standard "usePKG" On/Off switch in "data.pkg":  --------
 pkg/generic_advdiff      compiled   and   used ( useGAD                   = T )
 pkg/mom_common           compiled   and   used ( momStepping              = T )
 pkg/mom_vecinv           compiled but not used ( +vectorInvariantMomentum = F )
 pkg/mom_fluxform         compiled   and   used ( & not vectorInvariantMom = T )
 pkg/monitor              compiled   and   used ( monitorFreq > 0.         = T )
 pkg/debug                compiled but not used ( debugMode                = F )
 pkg/rw                   compiled   and   used
 pkg/mdsio                compiled   and   used
(PID.TID 0000.0001)  PACKAGES_BOOT: End of package Summary
(PID.TID 0000.0001) 
(PID.TID 0000.0001)  OBCS_READPARMS: opening data.obcs
(PID.TID 0000.0001)  OPEN_COPY_DATA_FILE: opening file data.obcs
(PID.TID 0000.0001) // =======================================================
(PID.TID 0000.0001) // Parameter file "data.obcs"
(PID.TID 0000.0001) // =======================================================
(PID.TID 0000.0001) ># Open-boundaries
(PID.TID 0000.0001) > &OBCS_PARM01
(PID.TID 0000.0001) > OB_Iwest=1*1,
(PID.TID 0000.0001) > OB_Ieast=1*-1,
(PID.TID 0000.0001) > OB_Jnorth=100*0,
(PID.TID 0000.0001) > OB_Jsouth=100*0,
(PID.TID 0000.0001) > useOBCSsponge=.TRUE.,
(PID.TID 0000.0001) > OBEuFile='U_in.bin',
(PID.TID 0000.0001) > OBWuFile='U_in.bin',
(PID.TID 0000.0001) > OBEtFile='TE.bin',
(PID.TID 0000.0001) > OBWtFile='TW.bin',
(PID.TID 0000.0001) > useOBCSprescribe=.TRUE.,
(PID.TID 0000.0001) > /
(PID.TID 0000.0001) >
(PID.TID 0000.0001) ># Orlanski parameters
(PID.TID 0000.0001) > &OBCS_PARM02
(PID.TID 0000.0001) >/
(PID.TID 0000.0001) >
(PID.TID 0000.0001) ># Sponge layer parameters
(PID.TID 0000.0001) > &OBCS_PARM03
(PID.TID 0000.0001) > Urelaxobcsinner=1000.,
(PID.TID 0000.0001) > Urelaxobcsbound=100.,
(PID.TID 0000.0001) > Vrelaxobcsinner=1000.0,
(PID.TID 0000.0001) > Vrelaxobcsbound=100.0,
(PID.TID 0000.0001) > spongeThickness=10,
(PID.TID 0000.0001) > /
(PID.TID 0000.0001) 
(PID.TID 0000.0001)  OBCS_READPARMS: finished reading data.obcs
(PID.TID 0000.0001)  OB_indexUnset = /* unset OB index value (i.e. no OB) */
(PID.TID 0000.0001)                       0
(PID.TID 0000.0001)     ;
(PID.TID 0000.0001)  Northern OB global indices : OB_Jnorth =
(PID.TID 0000.0001)   200 @        0                            /* I =  1:200 */
(PID.TID 0000.0001)  Southern OB global indices : OB_Jsouth =
(PID.TID 0000.0001)   200 @        0                            /* I =  1:200 */
(PID.TID 0000.0001)  Eastern  OB global indices : OB_Ieast =
(PID.TID 0000.0001)                     200                     /* J =  1 */
(PID.TID 0000.0001)  Western  OB global indices : OB_Iwest =
(PID.TID 0000.0001)                       1                     /* J =  1 */
(PID.TID 0000.0001) 
(PID.TID 0000.0001)  KL10_READPARMS: opening data.kl10
(PID.TID 0000.0001)  OPEN_COPY_DATA_FILE: opening file data.kl10
(PID.TID 0000.0001) // =======================================================
(PID.TID 0000.0001) // Parameter file "data.kl10"
(PID.TID 0000.0001) // =======================================================
(PID.TID 0000.0001) ># =====================================================================
(PID.TID 0000.0001) ># | Parameters for Klymak and Legg (2010) vertical mixing scheme      |
(PID.TID 0000.0001) ># =====================================================================
(PID.TID 0000.0001) > &KL10_PARM01
(PID.TID 0000.0001) > KLwriteState=.TRUE.,
(PID.TID 0000.0001) >/
(PID.TID 0000.0001) 
(PID.TID 0000.0001)  KL10_READPARMS: finished reading data.kl10
(PID.TID 0000.0001) SET_PARMS: done
(PID.TID 0000.0001)  MDS_READVEC_LOC: open file: delXvar.bin
(PID.TID 0000.0001) S/R LOAD_GRID_SPACING: delX loaded from file: delXvar.bin
(PID.TID 0000.0001)  MDS_READVEC_LOC: open file: delZvar.bin
(PID.TID 0000.0001) S/R LOAD_GRID_SPACING: delR loaded from file: delZvar.bin
(PID.TID 0000.0001) Enter INI_VERTICAL_GRID: setInterFDr=    T ; setCenterDr=    F
(PID.TID 0000.0001) %MON XC_max                       =   9.9471849328752E+04
(PID.TID 0000.0001) %MON XC_min                       =   6.3164731900833E+02
(PID.TID 0000.0001) %MON XC_mean                      =   5.2906107272275E+04
(PID.TID 0000.0001) %MON XC_sd                        =   2.2139310392762E+04
(PID.TID 0000.0001) %MON XG_max                       =   9.8943698657505E+04
(PID.TID 0000.0001) %MON XG_min                       =   0.0000000000000E+00
(PID.TID 0000.0001) %MON XG_mean                      =   5.2656107272275E+04
(PID.TID 0000.0001) %MON XG_sd                        =   2.2172561685063E+04
(PID.TID 0000.0001) %MON DXC_max                      =   1.2503953509116E+03
(PID.TID 0000.0001) %MON DXC_min                      =   2.0000000000000E+02
(PID.TID 0000.0001) %MON DXC_mean                     =   5.0000000000000E+02
(PID.TID 0000.0001) %MON DXC_sd                       =   2.8531736750525E+02
(PID.TID 0000.0001) %MON DXF_max                      =   1.2632946380167E+03
(PID.TID 0000.0001) %MON DXF_min                      =   2.0000000000000E+02
(PID.TID 0000.0001) %MON DXF_mean                     =   5.0000000000000E+02
(PID.TID 0000.0001) %MON DXF_sd                       =   2.8547066202794E+02
(PID.TID 0000.0001) %MON DXG_max                      =   1.2632946380167E+03
(PID.TID 0000.0001) %MON DXG_min                      =   2.0000000000000E+02
(PID.TID 0000.0001) %MON DXG_mean                     =   5.0000000000000E+02
(PID.TID 0000.0001) %MON DXG_sd                       =   2.8547066202794E+02
(PID.TID 0000.0001) %MON DXV_max                      =   1.2503953509116E+03
(PID.TID 0000.0001) %MON DXV_min                      =   2.0000000000000E+02
(PID.TID 0000.0001) %MON DXV_mean                     =   5.0000000000000E+02
(PID.TID 0000.0001) %MON DXV_sd                       =   2.8531736750525E+02
(PID.TID 0000.0001) %MON YC_max                       =   2.5000000000000E+03
(PID.TID 0000.0001) %MON YC_min                       =   2.5000000000000E+03
(PID.TID 0000.0001) %MON YC_mean                      =   2.5000000000000E+03
(PID.TID 0000.0001) %MON YC_sd                        =   0.0000000000000E+00
(PID.TID 0000.0001) %MON YG_max                       =   0.0000000000000E+00
(PID.TID 0000.0001) %MON YG_min                       =   0.0000000000000E+00
(PID.TID 0000.0001) %MON YG_mean                      =   0.0000000000000E+00
(PID.TID 0000.0001) %MON YG_sd                        =   0.0000000000000E+00
(PID.TID 0000.0001) %MON DYC_max                      =   5.0000000000000E+03
(PID.TID 0000.0001) %MON DYC_min                      =   5.0000000000000E+03
(PID.TID 0000.0001) %MON DYC_mean                     =   5.0000000000000E+03
(PID.TID 0000.0001) %MON DYC_sd                       =   0.0000000000000E+00
(PID.TID 0000.0001) %MON DYF_max                      =   5.0000000000000E+03
(PID.TID 0000.0001) %MON DYF_min                      =   5.0000000000000E+03
(PID.TID 0000.0001) %MON DYF_mean                     =   5.0000000000000E+03
(PID.TID 0000.0001) %MON DYF_sd                       =   0.0000000000000E+00
(PID.TID 0000.0001) %MON DYG_max                      =   5.0000000000000E+03
(PID.TID 0000.0001) %MON DYG_min                      =   5.0000000000000E+03
(PID.TID 0000.0001) %MON DYG_mean                     =   5.0000000000000E+03
(PID.TID 0000.0001) %MON DYG_sd                       =   0.0000000000000E+00
(PID.TID 0000.0001) %MON DYU_max                      =   5.0000000000000E+03
(PID.TID 0000.0001) %MON DYU_min                      =   5.0000000000000E+03
(PID.TID 0000.0001) %MON DYU_mean                     =   5.0000000000000E+03
(PID.TID 0000.0001) %MON DYU_sd                       =   0.0000000000000E+00
(PID.TID 0000.0001) %MON RA_max                       =   6.3164731900833E+06
(PID.TID 0000.0001) %MON RA_min                       =   1.0000000000000E+06
(PID.TID 0000.0001) %MON RA_mean                      =   2.5000000000000E+06
(PID.TID 0000.0001) %MON RA_sd                        =   1.4273533101397E+06
(PID.TID 0000.0001) %MON RAW_max                      =   6.2519767545581E+06
(PID.TID 0000.0001) %MON RAW_min                      =   1.0000000000000E+06
(PID.TID 0000.0001) %MON RAW_mean                     =   2.5000000000000E+06
(PID.TID 0000.0001) %MON RAW_sd                       =   1.4265868375263E+06
(PID.TID 0000.0001) %MON RAS_max                      =   6.3164731900833E+06
(PID.TID 0000.0001) %MON RAS_min                      =   1.0000000000000E+06
(PID.TID 0000.0001) %MON RAS_mean                     =   2.5000000000000E+06
(PID.TID 0000.0001) %MON RAS_sd                       =   1.4273533101397E+06
(PID.TID 0000.0001) %MON RAZ_max                      =   6.2519767545581E+06
(PID.TID 0000.0001) %MON RAZ_min                      =   1.0000000000000E+06
(PID.TID 0000.0001) %MON RAZ_mean                     =   2.5000000000000E+06
(PID.TID 0000.0001) %MON RAZ_sd                       =   1.4265868375263E+06
(PID.TID 0000.0001) %MON AngleCS_max                  =   1.0000000000000E+00
(PID.TID 0000.0001) %MON AngleCS_min                  =   1.0000000000000E+00
(PID.TID 0000.0001) %MON AngleCS_mean                 =   1.0000000000000E+00
(PID.TID 0000.0001) %MON AngleCS_sd                   =   0.0000000000000E+00
(PID.TID 0000.0001) %MON AngleSN_max                  =   0.0000000000000E+00
(PID.TID 0000.0001) %MON AngleSN_min                  =   0.0000000000000E+00
(PID.TID 0000.0001) %MON AngleSN_mean                 =   0.0000000000000E+00
(PID.TID 0000.0001) %MON AngleSN_sd                   =   0.0000000000000E+00
(PID.TID 0000.0001)  MDS_READVEC_LOC: open file: Tref.bin
(PID.TID 0000.0001) S/R LOAD_REF_FILES: tRef loaded from file: Tref.bin
(PID.TID 0000.0001)  MDS_READ_FIELD: opening global file: topo.bin
(PID.TID 0000.0001) // =======================================================
(PID.TID 0000.0001) // Field Model R_low (ini_masks_etc)
(PID.TID 0000.0001) // CMIN =         -1.999999999999999E+02
(PID.TID 0000.0001) // CMAX =         -1.300874453352793E+02
(PID.TID 0000.0001) // CINT =          2.589353876471134E+00
(PID.TID 0000.0001) // SYMBOLS (CMIN->CMAX): -abcdefghijklmnopqrstuvwxyz+
(PID.TID 0000.0001) //                  0.0: .
(PID.TID 0000.0001) // RANGE I (Lo:Hi:Step):(    -1:   202:     1)
(PID.TID 0000.0001) // RANGE J (Lo:Hi:Step):(     3:    -1:    -1)
(PID.TID 0000.0001) // RANGE K (Lo:Hi:Step):(   1:   1:   1)
(PID.TID 0000.0001) // =======================================================
(PID.TID 0000.0001) K =   1
(PID.TID 0000.0001) //                I=8       I=18      I=28      I=38      I=48      I=58      I=68      I=78      I=88      I=98      I=108     I=118     I=128     I=138     I=148     I=158     I=168     I=178     I=188     I=198
(PID.TID 0000.0001) // |--J--|101234567|901234567|901234567|901234567|901234567|901234567|901234567|901234567|901234567|901234567|901234567|901234567|901234567|901234567|901234567|901234567|901234567|901234567|901234567|901234567|9012
(PID.TID 0000.0001) //      3 --------------------------------------------------------------------------aaaabbccdefghiklnpqstvwxyz++++zyxwvtsqpnlkihgfedccbbaaaa--------------------------------------------------------------------------
(PID.TID 0000.0001) //      2 --------------------------------------------------------------------------aaaabbccdefghiklnpqstvwxyz++++zyxwvtsqpnlkihgfedccbbaaaa--------------------------------------------------------------------------
(PID.TID 0000.0001) //      1 --------------------------------------------------------------------------aaaabbccdefghiklnpqstvwxyz++++zyxwvtsqpnlkihgfedccbbaaaa--------------------------------------------------------------------------
(PID.TID 0000.0001) //      0 --------------------------------------------------------------------------aaaabbccdefghiklnpqstvwxyz++++zyxwvtsqpnlkihgfedccbbaaaa--------------------------------------------------------------------------
(PID.TID 0000.0001) //     -1 --------------------------------------------------------------------------aaaabbccdefghiklnpqstvwxyz++++zyxwvtsqpnlkihgfedccbbaaaa--------------------------------------------------------------------------
(PID.TID 0000.0001) // =======================================================
(PID.TID 0000.0001) // END OF FIELD                                          =
(PID.TID 0000.0001) // =======================================================
(PID.TID 0000.0001) 
(PID.TID 0000.0001) // =======================================================
(PID.TID 0000.0001) // Field Model Ro_surf (ini_masks_etc)
(PID.TID 0000.0001) // CMIN =         -3.153033389935445E-14
(PID.TID 0000.0001) // CMAX =          1.105782132526656E-13
(PID.TID 0000.0001) // CINT =          5.263279524148890E-15
(PID.TID 0000.0001) // SYMBOLS (CMIN->CMAX): -abcdefghijklmnopqrstuvwxyz+
(PID.TID 0000.0001) //                  0.0: .
(PID.TID 0000.0001) // RANGE I (Lo:Hi:Step):(    -1:   202:     1)
(PID.TID 0000.0001) // RANGE J (Lo:Hi:Step):(     3:    -1:    -1)
(PID.TID 0000.0001) // RANGE K (Lo:Hi:Step):(   1:   1:   1)
(PID.TID 0000.0001) // =======================================================
(PID.TID 0000.0001) K =   1
(PID.TID 0000.0001) //                I=8       I=18      I=28      I=38      I=48      I=58      I=68      I=78      I=88      I=98      I=108     I=118     I=128     I=138     I=148     I=158     I=168     I=178     I=188     I=198
(PID.TID 0000.0001) // |--J--|101234567|901234567|901234567|901234567|901234567|901234567|901234567|901234567|901234567|901234567|901234567|901234567|901234567|901234567|901234567|901234567|901234567|901234567|901234567|901234567|9012
(PID.TID 0000.0001) //      3 vvvvvvvvvvvvvvvvvpvvppvvpvvvpvvppvppvpvvvpvvpvppppppvvvvvpppvvpppvpvvvvvpppvpv+vvvpvvvvkpkkke-kkekkvppppvkkekk-ekkkpkvvvvpvvv+vpvpppvvvvvpvpppvvpppvvvvvppppppvpvvpvvvpvppvppvvpvvvpvvppvvpvvvvvvvvvvvvvvvvv
(PID.TID 0000.0001) //      2 vvvvvvvvvvvvvvvvvpvvppvvpvvvpvvppvppvpvvvpvvpvppppppvvvvvpppvvpppvpvvvvvpppvpv+vvvpvvvvkpkkke-kkekkvppppvkkekk-ekkkpkvvvvpvvv+vpvpppvvvvvpvpppvvpppvvvvvppppppvpvvpvvvpvppvppvvpvvvpvvppvvpvvvvvvvvvvvvvvvvv
(PID.TID 0000.0001) //      1 vvvvvvvvvvvvvvvvvpvvppvvpvvvpvvppvppvpvvvpvvpvppppppvvvvvpppvvpppvpvvvvvpppvpv+vvvpvvvvkpkkke-kkekkvppppvkkekk-ekkkpkvvvvpvvv+vpvpppvvvvvpvpppvvpppvvvvvppppppvpvvpvvvpvppvppvvpvvvpvvppvvpvvvvvvvvvvvvvvvvv
(PID.TID 0000.0001) //      0 vvvvvvvvvvvvvvvvvpvvppvvpvvvpvvppvppvpvvvpvvpvppppppvvvvvpppvvpppvpvvvvvpppvpv+vvvpvvvvkpkkke-kkekkvppppvkkekk-ekkkpkvvvvpvvv+vpvpppvvvvvpvpppvvpppvvvvvppppppvpvvpvvvpvppvppvvpvvvpvvppvvpvvvvvvvvvvvvvvvvv
(PID.TID 0000.0001) //     -1 vvvvvvvvvvvvvvvvvpvvppvvpvvvpvvppvppvpvvvpvvpvppppppvvvvvpppvvpppvpvvvvvpppvpv+vvvpvvvvkpkkke-kkekkvppppvkkekk-ekkkpkvvvvpvvv+vpvpppvvvvvpvpppvvpppvvvvvppppppvpvvpvvvpvppvppvvpvvvpvvppvvpvvvvvvvvvvvvvvvvv
(PID.TID 0000.0001) // =======================================================
(PID.TID 0000.0001) // END OF FIELD                                          =
(PID.TID 0000.0001) // =======================================================
(PID.TID 0000.0001) 
(PID.TID 0000.0001) // =======================================================
(PID.TID 0000.0001) // Field hFacC at iteration          0
(PID.TID 0000.0001) // CMIN =          1.000000000000000E+00
(PID.TID 0000.0001) // CMAX =          1.000000000000000E+00
(PID.TID 0000.0001) // CINT =          0.000000000000000E+00
(PID.TID 0000.0001) // SYMBOLS (CMIN->CMAX): -abcdefghijklmnopqrstuvwxyz+
(PID.TID 0000.0001) //                  0.0: .
(PID.TID 0000.0001) // RANGE I (Lo:Hi:Step):(    -1:   202:     1)
(PID.TID 0000.0001) // RANGE J (Lo:Hi:Step):(     3:    -1:    -1)
(PID.TID 0000.0001) // RANGE K (Lo:Hi:Step):(   1:   1:   1)
(PID.TID 0000.0001) // =======================================================
(PID.TID 0000.0001) // =======================================================
(PID.TID 0000.0001) // END OF FIELD                                          =
(PID.TID 0000.0001) // =======================================================
(PID.TID 0000.0001) 
(PID.TID 0000.0001) // =======================================================
(PID.TID 0000.0001) // Field hFacW at iteration          0
(PID.TID 0000.0001) // CMIN =          1.000000000000000E+00
(PID.TID 0000.0001) // CMAX =          1.000000000000000E+00
(PID.TID 0000.0001) // CINT =          0.000000000000000E+00
(PID.TID 0000.0001) // SYMBOLS (CMIN->CMAX): -abcdefghijklmnopqrstuvwxyz+
(PID.TID 0000.0001) //                  0.0: .
(PID.TID 0000.0001) // RANGE I (Lo:Hi:Step):(    -1:   202:     1)
(PID.TID 0000.0001) // RANGE J (Lo:Hi:Step):(     3:    -1:    -1)
(PID.TID 0000.0001) // RANGE K (Lo:Hi:Step):(   1:   1:   1)
(PID.TID 0000.0001) // =======================================================
(PID.TID 0000.0001) // =======================================================
(PID.TID 0000.0001) // END OF FIELD                                          =
(PID.TID 0000.0001) // =======================================================
(PID.TID 0000.0001) 
(PID.TID 0000.0001) // =======================================================
(PID.TID 0000.0001) // Field hFacS at iteration          0
(PID.TID 0000.0001) // CMIN =          1.000000000000000E+00
(PID.TID 0000.0001) // CMAX =          1.000000000000000E+00
(PID.TID 0000.0001) // CINT =          0.000000000000000E+00
(PID.TID 0000.0001) // SYMBOLS (CMIN->CMAX): -abcdefghijklmnopqrstuvwxyz+
(PID.TID 0000.0001) //                  0.0: .
(PID.TID 0000.0001) // RANGE I (Lo:Hi:Step):(    -1:   202:     1)
(PID.TID 0000.0001) // RANGE J (Lo:Hi:Step):(     3:    -1:    -1)
(PID.TID 0000.0001) // RANGE K (Lo:Hi:Step):(   1:   1:   1)
(PID.TID 0000.0001) // =======================================================
(PID.TID 0000.0001) // =======================================================
(PID.TID 0000.0001) // END OF FIELD                                          =
(PID.TID 0000.0001) // =======================================================
(PID.TID 0000.0001) 
(PID.TID 0000.0001) GAD_INIT_FIXED: GAD_OlMinSize=  2  0  1
(PID.TID 0000.0001) 
(PID.TID 0000.0001) // ===================================
(PID.TID 0000.0001) // GAD parameters :
(PID.TID 0000.0001) // ===================================
(PID.TID 0000.0001) tempAdvScheme =   /* Temp. Horiz.Advection scheme selector */
(PID.TID 0000.0001)                      77
(PID.TID 0000.0001)     ;
(PID.TID 0000.0001) tempVertAdvScheme =   /* Temp. Vert. Advection scheme selector */
(PID.TID 0000.0001)                      77
(PID.TID 0000.0001)     ;
(PID.TID 0000.0001) tempMultiDimAdvec =   /* use Muti-Dim Advec method for Temp */
(PID.TID 0000.0001)                   T
(PID.TID 0000.0001)     ;
(PID.TID 0000.0001) tempSOM_Advection = /* use 2nd Order Moment Advection for Temp */
(PID.TID 0000.0001)                   F
(PID.TID 0000.0001)     ;
(PID.TID 0000.0001) AdamsBashforthGt = /* apply Adams-Bashforth extrapolation on Gt */
(PID.TID 0000.0001)                   F
(PID.TID 0000.0001)     ;
(PID.TID 0000.0001) AdamsBashforth_T = /* apply Adams-Bashforth extrapolation on Temp */
(PID.TID 0000.0001)                   F
(PID.TID 0000.0001)     ;
(PID.TID 0000.0001) saltAdvScheme =   /* Salt. Horiz.advection scheme selector */
(PID.TID 0000.0001)                       2
(PID.TID 0000.0001)     ;
(PID.TID 0000.0001) saltVertAdvScheme =   /* Salt. Vert. Advection scheme selector */
(PID.TID 0000.0001)                       2
(PID.TID 0000.0001)     ;
(PID.TID 0000.0001) saltMultiDimAdvec =   /* use Muti-Dim Advec method for Salt */
(PID.TID 0000.0001)                   F
(PID.TID 0000.0001)     ;
(PID.TID 0000.0001) saltSOM_Advection = /* use 2nd Order Moment Advection for Salt */
(PID.TID 0000.0001)                   F
(PID.TID 0000.0001)     ;
(PID.TID 0000.0001) AdamsBashforthGs = /* apply Adams-Bashforth extrapolation on Gs */
(PID.TID 0000.0001)                   F
(PID.TID 0000.0001)     ;
(PID.TID 0000.0001) AdamsBashforth_S = /* apply Adams-Bashforth extrapolation on Salt */
(PID.TID 0000.0001)                   F
(PID.TID 0000.0001)     ;
(PID.TID 0000.0001) // ===================================
(PID.TID 0000.0001) %MON fCori_max                    =   0.0000000000000E+00
(PID.TID 0000.0001) %MON fCori_min                    =   0.0000000000000E+00
(PID.TID 0000.0001) %MON fCori_mean                   =   0.0000000000000E+00
(PID.TID 0000.0001) %MON fCori_sd                     =   0.0000000000000E+00
(PID.TID 0000.0001) %MON fCoriG_max                   =   0.0000000000000E+00
(PID.TID 0000.0001) %MON fCoriG_min                   =   0.0000000000000E+00
(PID.TID 0000.0001) %MON fCoriG_mean                  =   0.0000000000000E+00
(PID.TID 0000.0001) %MON fCoriG_sd                    =   0.0000000000000E+00
(PID.TID 0000.0001) %MON fCoriCos_max                 =   0.0000000000000E+00
(PID.TID 0000.0001) %MON fCoriCos_min                 =   0.0000000000000E+00
(PID.TID 0000.0001) %MON fCoriCos_mean                =   0.0000000000000E+00
(PID.TID 0000.0001) %MON fCoriCos_sd                  =   0.0000000000000E+00
(PID.TID 0000.0001) INI_CG2D: CG2D normalisation factor =  2.1495624220097895E-04
(PID.TID 0000.0001) 
(PID.TID 0000.0001) // =======================================================
(PID.TID 0000.0001) // Model configuration
(PID.TID 0000.0001) // =======================================================
(PID.TID 0000.0001) //
(PID.TID 0000.0001) // "Physical" paramters ( PARM01 in namelist )
(PID.TID 0000.0001) //
(PID.TID 0000.0001) buoyancyRelation = /* Type of relation to get Buoyancy */
(PID.TID 0000.0001)               'OCEANIC'
(PID.TID 0000.0001)     ;
(PID.TID 0000.0001) fluidIsAir   =  /* fluid major constituent is Air */
(PID.TID 0000.0001)                   F
(PID.TID 0000.0001)     ;
(PID.TID 0000.0001) fluidIsWater =  /* fluid major constituent is Water */
(PID.TID 0000.0001)                   T
(PID.TID 0000.0001)     ;
(PID.TID 0000.0001) usingPCoords =  /* use p (or p*) vertical coordinate */
(PID.TID 0000.0001)                   F
(PID.TID 0000.0001)     ;
(PID.TID 0000.0001) usingZCoords =  /* use z (or z*) vertical coordinate */
(PID.TID 0000.0001)                   T
(PID.TID 0000.0001)     ;
(PID.TID 0000.0001) tRef =   /* Reference temperature profile ( oC or K ) */
(PID.TID 0000.0001)    75 @  1.500000000000000E+01,             /* K =  1: 75 */
(PID.TID 0000.0001)                 1.499933084687693E+01,      /* K = 76 */
(PID.TID 0000.0001)                 1.497717153877677E+01,      /* K = 77 */
(PID.TID 0000.0001)                 1.470721590167325E+01,      /* K = 78 */
(PID.TID 0000.0001)                 1.349735867339025E+01,      /* K = 79 */
(PID.TID 0000.0001)                 1.150264132660976E+01,      /* K = 80 */
(PID.TID 0000.0001)                 1.029278409832675E+01,      /* K = 81 */
(PID.TID 0000.0001)                 1.002282846122323E+01,      /* K = 82 */
(PID.TID 0000.0001)                 1.000066915312308E+01,      /* K = 83 */
(PID.TID 0000.0001)    17 @  1.000000000000000E+01              /* K = 84:100 */
(PID.TID 0000.0001)     ;
(PID.TID 0000.0001) sRef =   /* Reference salinity profile ( psu ) */
(PID.TID 0000.0001)   100 @  3.500000000000000E+01              /* K =  1:100 */
(PID.TID 0000.0001)     ;
(PID.TID 0000.0001) useStrainTensionVisc= /* Use StrainTension Form of Viscous Operator */
(PID.TID 0000.0001)                   F
(PID.TID 0000.0001)     ;
(PID.TID 0000.0001) useVariableVisc = /* Use variable horizontal viscosity */
(PID.TID 0000.0001)                   F
(PID.TID 0000.0001)     ;
(PID.TID 0000.0001) useHarmonicVisc = /* Use harmonic horizontal viscosity */
(PID.TID 0000.0001)                   T
(PID.TID 0000.0001)     ;
(PID.TID 0000.0001) useBiharmonicVisc= /* Use biharmonic horiz.  viscosity */
(PID.TID 0000.0001)                   F
(PID.TID 0000.0001)     ;
(PID.TID 0000.0001) useSmag3D = /* Use isotropic 3-D Smagorinsky viscosity */
(PID.TID 0000.0001)                   F
(PID.TID 0000.0001)     ;
(PID.TID 0000.0001) viscAh  =   /* Lateral harmonic viscosity ( m^2/s ) */
(PID.TID 0000.0001)                 1.000000000000000E-04
(PID.TID 0000.0001)     ;
(PID.TID 0000.0001) viscA4  =   /* Lateral biharmonic viscosity ( m^4/s ) */
(PID.TID 0000.0001)                 0.000000000000000E+00
(PID.TID 0000.0001)     ;
(PID.TID 0000.0001) no_slip_sides =  /* Viscous BCs: No-slip sides */
(PID.TID 0000.0001)                   F
(PID.TID 0000.0001)     ;
(PID.TID 0000.0001) sideDragFactor = /* side-drag scaling factor (non-dim) */
(PID.TID 0000.0001)                 2.000000000000000E+00
(PID.TID 0000.0001)     ;
(PID.TID 0000.0001) viscArNr = /* vertical profile of vertical viscosity ( m^2/s )*/
(PID.TID 0000.0001)   100 @  1.000000000000000E-05              /* K =  1:100 */
(PID.TID 0000.0001)     ;
(PID.TID 0000.0001) no_slip_bottom =  /* Viscous BCs: No-slip bottom */
(PID.TID 0000.0001)                   F
(PID.TID 0000.0001)     ;
(PID.TID 0000.0001) bottomDragLinear = /* linear bottom-drag coefficient ( m/s ) */
(PID.TID 0000.0001)                 0.000000000000000E+00
(PID.TID 0000.0001)     ;
(PID.TID 0000.0001) bottomDragQuadratic = /* quadratic bottom-drag coefficient (-) */
(PID.TID 0000.0001)                 0.000000000000000E+00
(PID.TID 0000.0001)     ;
(PID.TID 0000.0001) diffKhT =   /* Laplacian diffusion of heat laterally ( m^2/s ) */
(PID.TID 0000.0001)                 1.000000000000000E-04
(PID.TID 0000.0001)     ;
(PID.TID 0000.0001) diffK4T =   /* Biharmonic diffusion of heat laterally ( m^4/s ) */
(PID.TID 0000.0001)                 0.000000000000000E+00
(PID.TID 0000.0001)     ;
(PID.TID 0000.0001) diffKhS =   /* Laplacian diffusion of salt laterally ( m^2/s ) */
(PID.TID 0000.0001)                 1.000000000000000E+03
(PID.TID 0000.0001)     ;
(PID.TID 0000.0001) diffK4S =   /* Biharmonic diffusion of salt laterally ( m^4/s ) */
(PID.TID 0000.0001)                 0.000000000000000E+00
(PID.TID 0000.0001)     ;
(PID.TID 0000.0001) diffKrNrT = /* vertical profile of vertical diffusion of Temp ( m^2/s )*/
(PID.TID 0000.0001)   100 @  1.000000000000000E-05              /* K =  1:100 */
(PID.TID 0000.0001)     ;
(PID.TID 0000.0001) diffKrNrS = /* vertical profile of vertical diffusion of Salt ( m^2/s )*/
(PID.TID 0000.0001)   100 @  1.000000000000000E-05              /* K =  1:100 */
(PID.TID 0000.0001)     ;
(PID.TID 0000.0001) diffKrBL79surf = /* Surface diffusion for Bryan and Lewis 79 ( m^2/s ) */
(PID.TID 0000.0001)                 0.000000000000000E+00
(PID.TID 0000.0001)     ;
(PID.TID 0000.0001) diffKrBL79deep = /* Deep diffusion for Bryan and Lewis 1979 ( m^2/s ) */
(PID.TID 0000.0001)                 0.000000000000000E+00
(PID.TID 0000.0001)     ;
(PID.TID 0000.0001) diffKrBL79scl = /* Depth scale for Bryan and Lewis 1979 ( m ) */
(PID.TID 0000.0001)                 2.000000000000000E+02
(PID.TID 0000.0001)     ;
(PID.TID 0000.0001) diffKrBL79Ho = /* Turning depth for Bryan and Lewis 1979 ( m ) */
(PID.TID 0000.0001)                -2.000000000000000E+03
(PID.TID 0000.0001)     ;
(PID.TID 0000.0001) ivdc_kappa = /* Implicit Vertical Diffusivity for Convection ( m^2/s) */
(PID.TID 0000.0001)                 0.000000000000000E+00
(PID.TID 0000.0001)     ;
(PID.TID 0000.0001) hMixCriteria=  /* Criteria for mixed-layer diagnostic */
(PID.TID 0000.0001)                -8.000000000000000E-01
(PID.TID 0000.0001)     ;
(PID.TID 0000.0001) dRhoSmall =  /* Parameter for mixed-layer diagnostic */
(PID.TID 0000.0001)                 1.000000000000000E-06
(PID.TID 0000.0001)     ;
(PID.TID 0000.0001) hMixSmooth=  /* Smoothing parameter for mixed-layer diagnostic */
(PID.TID 0000.0001)                 0.000000000000000E+00
(PID.TID 0000.0001)     ;
(PID.TID 0000.0001) eosType =  /* Type of Equation of State */
(PID.TID 0000.0001)               'LINEAR'
(PID.TID 0000.0001)     ;
(PID.TID 0000.0001) tAlpha = /* Linear EOS thermal expansion coefficient ( 1/oC ) */
(PID.TID 0000.0001)                 2.000000000000000E-04
(PID.TID 0000.0001)     ;
(PID.TID 0000.0001) sBeta  = /* Linear EOS haline contraction coefficient ( 1/psu ) */
(PID.TID 0000.0001)                 0.000000000000000E+00
(PID.TID 0000.0001)     ;
(PID.TID 0000.0001) rhoNil    = /* Reference density for Linear EOS ( kg/m^3 ) */
(PID.TID 0000.0001)                 9.998000000000000E+02
(PID.TID 0000.0001)     ;
(PID.TID 0000.0001) HeatCapacity_Cp =  /* Specific heat capacity ( J/kg/K ) */
(PID.TID 0000.0001)                 3.994000000000000E+03
(PID.TID 0000.0001)     ;
(PID.TID 0000.0001) celsius2K = /* 0 degree Celsius converted to Kelvin ( K ) */
(PID.TID 0000.0001)                 2.731500000000000E+02
(PID.TID 0000.0001)     ;
(PID.TID 0000.0001) rhoConst  = /* Reference density (Boussinesq)  ( kg/m^3 ) */
(PID.TID 0000.0001)                 9.998000000000000E+02
(PID.TID 0000.0001)     ;
(PID.TID 0000.0001) rhoFacC = /* normalized Reference density @ cell-Center (-) */
(PID.TID 0000.0001)   100 @  1.000000000000000E+00              /* K =  1:100 */
(PID.TID 0000.0001)     ;
(PID.TID 0000.0001) rhoFacF = /* normalized Reference density @ W-Interface (-) */
(PID.TID 0000.0001)   101 @  1.000000000000000E+00              /* K =  1:101 */
(PID.TID 0000.0001)     ;
(PID.TID 0000.0001) rhoConstFresh = /* Fresh-water reference density ( kg/m^3 ) */
(PID.TID 0000.0001)                 9.998000000000000E+02
(PID.TID 0000.0001)     ;
(PID.TID 0000.0001) gravity =   /* Gravitational acceleration ( m/s^2 ) */
(PID.TID 0000.0001)                 9.810000000000000E+00
(PID.TID 0000.0001)     ;
(PID.TID 0000.0001) gBaro =   /* Barotropic gravity ( m/s^2 ) */
(PID.TID 0000.0001)                 9.810000000000000E+00
(PID.TID 0000.0001)     ;
(PID.TID 0000.0001) rotationPeriod =   /* Rotation Period ( s ) */
(PID.TID 0000.0001)                 8.616400000000000E+04
(PID.TID 0000.0001)     ;
(PID.TID 0000.0001) omega =   /* Angular velocity ( rad/s ) */
(PID.TID 0000.0001)                 7.292123516990375E-05
(PID.TID 0000.0001)     ;
(PID.TID 0000.0001) f0 =   /* Reference coriolis parameter ( 1/s ) */
(PID.TID 0000.0001)                 0.000000000000000E+00
(PID.TID 0000.0001)     ;
(PID.TID 0000.0001) beta =   /* Beta ( 1/(m.s) ) */
(PID.TID 0000.0001)                 0.000000000000000E+00
(PID.TID 0000.0001)     ;
(PID.TID 0000.0001) fPrime =   /* Second coriolis parameter ( 1/s ) */
(PID.TID 0000.0001)                 0.000000000000000E+00
(PID.TID 0000.0001)     ;
(PID.TID 0000.0001) rigidLid =   /* Rigid lid on/off flag */
(PID.TID 0000.0001)                   F
(PID.TID 0000.0001)     ;
(PID.TID 0000.0001) implicitFreeSurface =   /* Implicit free surface on/off flag */
(PID.TID 0000.0001)                   T
(PID.TID 0000.0001)     ;
(PID.TID 0000.0001) freeSurfFac =   /* Implicit free surface factor */
(PID.TID 0000.0001)                 1.000000000000000E+00
(PID.TID 0000.0001)     ;
(PID.TID 0000.0001) implicSurfPress =  /* Surface Pressure implicit factor (0-1)*/
(PID.TID 0000.0001)                 1.000000000000000E+00
(PID.TID 0000.0001)     ;
(PID.TID 0000.0001) implicDiv2Dflow =  /* Barot. Flow Div. implicit factor (0-1)*/
(PID.TID 0000.0001)                 1.000000000000000E+00
(PID.TID 0000.0001)     ;
(PID.TID 0000.0001) uniformLin_PhiSurf = /* use uniform Bo_surf on/off flag*/
(PID.TID 0000.0001)                   T
(PID.TID 0000.0001)     ;
(PID.TID 0000.0001) uniformFreeSurfLev = /* free-surface level-index is uniform */
(PID.TID 0000.0001)                   T
(PID.TID 0000.0001)     ;
(PID.TID 0000.0001) hFacMin =   /* minimum partial cell factor (hFac) */
(PID.TID 0000.0001)                 1.000000000000000E-01
(PID.TID 0000.0001)     ;
(PID.TID 0000.0001) hFacMinDr = /* minimum partial cell thickness ( m) */
(PID.TID 0000.0001)                 0.000000000000000E+00
(PID.TID 0000.0001)     ;
(PID.TID 0000.0001) exactConserv =  /* Exact Volume Conservation on/off flag*/
(PID.TID 0000.0001)                   F
(PID.TID 0000.0001)     ;
(PID.TID 0000.0001) linFSConserveTr = /* Tracer correction for Lin Free Surface on/off flag*/
(PID.TID 0000.0001)                   F
(PID.TID 0000.0001)     ;
(PID.TID 0000.0001) nonlinFreeSurf = /* Non-linear Free Surf. options (-1,0,1,2,3)*/
(PID.TID 0000.0001)                       0
(PID.TID 0000.0001)      -1,0= Off ; 1,2,3= On, 2=+rescale gU,gV, 3=+update cg2d solv.
(PID.TID 0000.0001)     ;
(PID.TID 0000.0001) hFacInf =   /* lower threshold for hFac (nonlinFreeSurf only)*/
(PID.TID 0000.0001)                 2.000000000000000E-01
(PID.TID 0000.0001)     ;
(PID.TID 0000.0001) hFacSup =   /* upper threshold for hFac (nonlinFreeSurf only)*/
(PID.TID 0000.0001)                 2.000000000000000E+00
(PID.TID 0000.0001)     ;
(PID.TID 0000.0001) select_rStar = /* r* Vertical coord. options (=0 r coord.; >0 uses r*)*/
(PID.TID 0000.0001)                       0
(PID.TID 0000.0001)     ;
(PID.TID 0000.0001) useRealFreshWaterFlux = /* Real Fresh Water Flux on/off flag*/
(PID.TID 0000.0001)                   F
(PID.TID 0000.0001)     ;
(PID.TID 0000.0001) temp_EvPrRn = /* Temp. of Evap/Prec/R (UNSET=use local T)(oC)*/
(PID.TID 0000.0001)                 1.234567000000000E+05
(PID.TID 0000.0001)     ;
(PID.TID 0000.0001) salt_EvPrRn = /* Salin. of Evap/Prec/R (UNSET=use local S)(psu)*/
(PID.TID 0000.0001)                 0.000000000000000E+00
(PID.TID 0000.0001)     ;
(PID.TID 0000.0001) selectAddFluid = /* option for mass source/sink of fluid (=0: off) */
(PID.TID 0000.0001)                       0
(PID.TID 0000.0001)     ;
(PID.TID 0000.0001) temp_addMass = /* Temp. of addMass array (UNSET=use local T)(oC)*/
(PID.TID 0000.0001)                 1.234567000000000E+05
(PID.TID 0000.0001)     ;
(PID.TID 0000.0001) salt_addMass = /* Salin. of addMass array (UNSET=use local S)(psu)*/
(PID.TID 0000.0001)                 0.000000000000000E+00
(PID.TID 0000.0001)     ;
(PID.TID 0000.0001) convertFW2Salt = /* convert F.W. Flux to Salt Flux (-1=use local S)(psu)*/
(PID.TID 0000.0001)                 3.500000000000000E+01
(PID.TID 0000.0001)     ;
(PID.TID 0000.0001) use3Dsolver = /* use 3-D pressure solver on/off flag */
(PID.TID 0000.0001)                   F
(PID.TID 0000.0001)     ;
(PID.TID 0000.0001) nonHydrostatic =  /* Non-Hydrostatic on/off flag */
(PID.TID 0000.0001)                   F
(PID.TID 0000.0001)     ;
(PID.TID 0000.0001) nh_Am2 = /* Non-Hydrostatic terms scaling factor */
(PID.TID 0000.0001)                 1.000000000000000E+00
(PID.TID 0000.0001)     ;
(PID.TID 0000.0001) implicitNHPress = /* Non-Hyd Pressure implicit factor (0-1)*/
(PID.TID 0000.0001)                 1.000000000000000E+00
(PID.TID 0000.0001)     ;
(PID.TID 0000.0001) selectNHfreeSurf = /* Non-Hyd (free-)Surface option */
(PID.TID 0000.0001)                       0
(PID.TID 0000.0001)     ;
(PID.TID 0000.0001) quasiHydrostatic = /* Quasi-Hydrostatic on/off flag */
(PID.TID 0000.0001)                   F
(PID.TID 0000.0001)     ;
(PID.TID 0000.0001) calc_wVelocity = /* vertical velocity calculation on/off flag */
(PID.TID 0000.0001)                   T
(PID.TID 0000.0001)     ;
(PID.TID 0000.0001) momStepping =  /* Momentum equation on/off flag */
(PID.TID 0000.0001)                   T
(PID.TID 0000.0001)     ;
(PID.TID 0000.0001) vectorInvariantMomentum= /* Vector-Invariant Momentum on/off */
(PID.TID 0000.0001)                   F
(PID.TID 0000.0001)     ;
(PID.TID 0000.0001) momAdvection =  /* Momentum advection on/off flag */
(PID.TID 0000.0001)                   T
(PID.TID 0000.0001)     ;
(PID.TID 0000.0001) momViscosity =  /* Momentum viscosity on/off flag */
(PID.TID 0000.0001)                   T
(PID.TID 0000.0001)     ;
(PID.TID 0000.0001) momImplVertAdv= /* Momentum implicit vert. advection on/off*/
(PID.TID 0000.0001)                   F
(PID.TID 0000.0001)     ;
(PID.TID 0000.0001) implicitViscosity = /* Implicit viscosity on/off flag */
(PID.TID 0000.0001)                   T
(PID.TID 0000.0001)     ;
(PID.TID 0000.0001) metricTerms =  /* metric-Terms on/off flag */
(PID.TID 0000.0001)                   F
(PID.TID 0000.0001)     ;
(PID.TID 0000.0001) useNHMTerms = /* Non-Hydrostatic Metric-Terms on/off */
(PID.TID 0000.0001)                   F
(PID.TID 0000.0001)     ;
(PID.TID 0000.0001) selectCoriMap = /* Coriolis Map options (0,1,2,3)*/
(PID.TID 0000.0001)                       1
(PID.TID 0000.0001)     0= f-Plane ; 1= Beta-Plane ; 2= Spherical ; 3= read from file
(PID.TID 0000.0001)     ;
(PID.TID 0000.0001) use3dCoriolis = /* 3-D Coriolis on/off flag */
(PID.TID 0000.0001)                   F
(PID.TID 0000.0001)     ;
(PID.TID 0000.0001) useCoriolis =  /* Coriolis on/off flag */
(PID.TID 0000.0001)                   T
(PID.TID 0000.0001)     ;
(PID.TID 0000.0001) useCDscheme =  /* CD scheme on/off flag */
(PID.TID 0000.0001)                   F
(PID.TID 0000.0001)     ;
(PID.TID 0000.0001) useEnergyConservingCoriolis= /* Flx-Form Coriolis scheme flag */
(PID.TID 0000.0001)                   F
(PID.TID 0000.0001)     ;
(PID.TID 0000.0001) useJamartWetPoints= /* Coriolis WetPoints method flag */
(PID.TID 0000.0001)                   F
(PID.TID 0000.0001)     ;
(PID.TID 0000.0001) useJamartMomAdv= /* V.I Non-linear terms Jamart flag */
(PID.TID 0000.0001)                   F
(PID.TID 0000.0001)     ;
(PID.TID 0000.0001) useAbsVorticity= /* V.I Works with f+zeta in Coriolis */
(PID.TID 0000.0001)                   F
(PID.TID 0000.0001)     ;
(PID.TID 0000.0001) selectVortScheme= /* V.I Scheme selector for Vorticity-Term */
(PID.TID 0000.0001)               123456789
(PID.TID 0000.0001)    = 0 : enstrophy (Shallow-Water Eq.) conserving scheme by Sadourny, JAS 75
(PID.TID 0000.0001)    = 1 : same as 0 with modified hFac
(PID.TID 0000.0001)    = 2 : energy conserving scheme (used by Sadourny in JAS 75 paper)
(PID.TID 0000.0001)    = 3 : energy (general) and enstrophy (2D, nonDiv.) conserving scheme
(PID.TID 0000.0001)          from Sadourny (Burridge & Haseler, ECMWF Rep.4, 1977)
(PID.TID 0000.0001)     ;
(PID.TID 0000.0001) upwindVorticity= /* V.I Upwind bias vorticity flag */
(PID.TID 0000.0001)                   F
(PID.TID 0000.0001)     ;
(PID.TID 0000.0001) highOrderVorticity= /* V.I High order vort. advect. flag */
(PID.TID 0000.0001)                   F
(PID.TID 0000.0001)     ;
(PID.TID 0000.0001) upwindShear= /* V.I Upwind vertical Shear advection flag */
(PID.TID 0000.0001)                   F
(PID.TID 0000.0001)     ;
(PID.TID 0000.0001) selectKEscheme= /* V.I Kinetic Energy scheme selector */
(PID.TID 0000.0001)                       0
(PID.TID 0000.0001)     ;
(PID.TID 0000.0001) momForcing =  /* Momentum forcing on/off flag */
(PID.TID 0000.0001)                   T
(PID.TID 0000.0001)     ;
(PID.TID 0000.0001) momPressureForcing =  /* Momentum pressure term on/off flag */
(PID.TID 0000.0001)                   T
(PID.TID 0000.0001)     ;
(PID.TID 0000.0001) implicitIntGravWave= /* Implicit Internal Gravity Wave flag */
(PID.TID 0000.0001)                   F
(PID.TID 0000.0001)     ;
(PID.TID 0000.0001) staggerTimeStep =    /* Stagger time stepping on/off flag */
(PID.TID 0000.0001)                   T
(PID.TID 0000.0001)     ;
(PID.TID 0000.0001) doResetHFactors = /* reset thickness factors @ each time-step */
(PID.TID 0000.0001)                   F
(PID.TID 0000.0001)     ;
(PID.TID 0000.0001) multiDimAdvection =  /* enable/disable Multi-Dim Advection */
(PID.TID 0000.0001)                   T
(PID.TID 0000.0001)     ;
(PID.TID 0000.0001) useMultiDimAdvec =   /* Multi-Dim Advection is/is-not used */
(PID.TID 0000.0001)                   T
(PID.TID 0000.0001)     ;
(PID.TID 0000.0001) implicitDiffusion = /* Implicit Diffusion on/off flag */
(PID.TID 0000.0001)                   T
(PID.TID 0000.0001)     ;
(PID.TID 0000.0001) tempStepping =  /* Temperature equation on/off flag */
(PID.TID 0000.0001)                   T
(PID.TID 0000.0001)     ;
(PID.TID 0000.0001) tempAdvection = /* Temperature advection on/off flag */
(PID.TID 0000.0001)                   T
(PID.TID 0000.0001)     ;
(PID.TID 0000.0001) tempImplVertAdv = /* Temp. implicit vert. advection on/off */
(PID.TID 0000.0001)                   F
(PID.TID 0000.0001)     ;
(PID.TID 0000.0001) tempForcing  =  /* Temperature forcing on/off flag */
(PID.TID 0000.0001)                   T
(PID.TID 0000.0001)     ;
(PID.TID 0000.0001) doThetaClimRelax = /* apply SST relaxation on/off flag */
(PID.TID 0000.0001)                   F
(PID.TID 0000.0001)     ;
(PID.TID 0000.0001) tempIsActiveTr = /* Temp. is a dynamically Active Tracer */
(PID.TID 0000.0001)                   T
(PID.TID 0000.0001)     ;
(PID.TID 0000.0001) saltStepping =  /* Salinity equation on/off flag */
(PID.TID 0000.0001)                   F
(PID.TID 0000.0001)     ;
(PID.TID 0000.0001) saltAdvection = /* Salinity advection on/off flag */
(PID.TID 0000.0001)                   F
(PID.TID 0000.0001)     ;
(PID.TID 0000.0001) saltImplVertAdv = /* Sali. implicit vert. advection on/off */
(PID.TID 0000.0001)                   F
(PID.TID 0000.0001)     ;
(PID.TID 0000.0001) saltForcing  =  /* Salinity forcing on/off flag */
(PID.TID 0000.0001)                   F
(PID.TID 0000.0001)     ;
(PID.TID 0000.0001) doSaltClimRelax = /* apply SSS relaxation on/off flag */
(PID.TID 0000.0001)                   F
(PID.TID 0000.0001)     ;
(PID.TID 0000.0001) saltIsActiveTr = /* Salt  is a dynamically Active Tracer */
(PID.TID 0000.0001)                   F
(PID.TID 0000.0001)     ;
(PID.TID 0000.0001)  readBinaryPrec = /* Precision used for reading binary files */
(PID.TID 0000.0001)                      64
(PID.TID 0000.0001)     ;
(PID.TID 0000.0001) writeBinaryPrec = /* Precision used for writing binary files */
(PID.TID 0000.0001)                      64
(PID.TID 0000.0001)     ;
(PID.TID 0000.0001)  globalFiles = /* write "global" (=not per tile) files */
(PID.TID 0000.0001)                   F
(PID.TID 0000.0001)     ;
(PID.TID 0000.0001)  useSingleCpuIO = /* only master MPI process does I/O */
(PID.TID 0000.0001)                   T
(PID.TID 0000.0001)     ;
(PID.TID 0000.0001)  useSingleCpuInput = /* only master process reads input */
(PID.TID 0000.0001)                   T
(PID.TID 0000.0001)     ;
(PID.TID 0000.0001) /* debLev[*]  : level of debug & auxiliary message printing */
(PID.TID 0000.0001) debLevZero =  0 ; /* level of disabled aux. msg printing */
(PID.TID 0000.0001)    debLevA =  1 ; /* level of minimum  aux. msg printing */
(PID.TID 0000.0001)    debLevB =  2 ; /* level of low aux. print (report read-file opening)*/
(PID.TID 0000.0001)    debLevC =  3 ; /* level of moderate debug prt (most pkgs debug msg) */
(PID.TID 0000.0001)    debLevD =  4 ; /* level of enhanced debug prt (add DEBUG_STATS prt) */
(PID.TID 0000.0001)    debLevE =  5 ; /* level of extensive debug printing */
(PID.TID 0000.0001) debugLevel =  /* select debug printing level */
(PID.TID 0000.0001)                       2
(PID.TID 0000.0001)     ;
(PID.TID 0000.0001) //
(PID.TID 0000.0001) // Elliptic solver(s) paramters ( PARM02 in namelist )
(PID.TID 0000.0001) //
(PID.TID 0000.0001) cg2dMaxIters =   /* Upper limit on 2d con. grad iterations  */
(PID.TID 0000.0001)                    1000
(PID.TID 0000.0001)     ;
(PID.TID 0000.0001) cg2dChkResFreq =   /* 2d con. grad convergence test frequency */
(PID.TID 0000.0001)                       1
(PID.TID 0000.0001)     ;
(PID.TID 0000.0001) cg2dUseMinResSol= /* use cg2d last-iter(=0) / min-resid.(=1) solution */
(PID.TID 0000.0001)                       0
(PID.TID 0000.0001)     ;
(PID.TID 0000.0001) cg2dTargetResidual =   /* 2d con. grad target residual  */
(PID.TID 0000.0001)                 1.000000000000000E-13
(PID.TID 0000.0001)     ;
(PID.TID 0000.0001) cg2dTargetResWunit =   /* CG2d target residual [W units] */
(PID.TID 0000.0001)                -1.000000000000000E+00
(PID.TID 0000.0001)     ;
(PID.TID 0000.0001) cg2dPreCondFreq =   /* Freq. for updating cg2d preconditioner */
(PID.TID 0000.0001)                       1
(PID.TID 0000.0001)     ;
(PID.TID 0000.0001) useSRCGSolver =  /* use single reduction CG solver(s) */
(PID.TID 0000.0001)                   F
(PID.TID 0000.0001)     ;
(PID.TID 0000.0001) printResidualFreq = /* Freq. for printing CG residual */
(PID.TID 0000.0001)                       0
(PID.TID 0000.0001)     ;
(PID.TID 0000.0001) //
(PID.TID 0000.0001) // Time stepping paramters ( PARM03 in namelist )
(PID.TID 0000.0001) //
(PID.TID 0000.0001) deltaTMom =   /* Momentum equation timestep ( s ) */
(PID.TID 0000.0001)                 1.500000000000000E+01
(PID.TID 0000.0001)     ;
(PID.TID 0000.0001) deltaTFreeSurf = /* FreeSurface equation timestep ( s ) */
(PID.TID 0000.0001)                 1.500000000000000E+01
(PID.TID 0000.0001)     ;
(PID.TID 0000.0001) dTtracerLev =  /* Tracer equation timestep ( s ) */
(PID.TID 0000.0001)   100 @  1.500000000000000E+01              /* K =  1:100 */
(PID.TID 0000.0001)     ;
(PID.TID 0000.0001) deltaTClock  =   /* Model clock timestep ( s ) */
(PID.TID 0000.0001)                 1.500000000000000E+01
(PID.TID 0000.0001)     ;
(PID.TID 0000.0001) cAdjFreq =   /* Convective adjustment interval ( s ) */
(PID.TID 0000.0001)                 0.000000000000000E+00
(PID.TID 0000.0001)     ;
(PID.TID 0000.0001) momForcingOutAB = /* =1: take Momentum Forcing out of Adams-Bash. stepping */
(PID.TID 0000.0001)                       0
(PID.TID 0000.0001)     ;
(PID.TID 0000.0001) tracForcingOutAB = /* =1: take T,S,pTr Forcing out of Adams-Bash. stepping */
(PID.TID 0000.0001)                       0
(PID.TID 0000.0001)     ;
(PID.TID 0000.0001) momDissip_In_AB = /* put Dissipation Tendency in Adams-Bash. stepping */
(PID.TID 0000.0001)                   T
(PID.TID 0000.0001)     ;
(PID.TID 0000.0001) doAB_onGtGs = /* apply AB on Tendencies (rather than on T,S)*/
(PID.TID 0000.0001)                   T
(PID.TID 0000.0001)     ;
(PID.TID 0000.0001) abEps =   /* Adams-Bashforth-2 stabilizing weight */
(PID.TID 0000.0001)                 1.000000000000000E-01
(PID.TID 0000.0001)     ;
(PID.TID 0000.0001) pickupStrictlyMatch= /* stop if pickup do not strictly match */
(PID.TID 0000.0001)                   T
(PID.TID 0000.0001)     ;
(PID.TID 0000.0001) nIter0   =   /* Run starting timestep number */
(PID.TID 0000.0001)                       0
(PID.TID 0000.0001)     ;
(PID.TID 0000.0001) nTimeSteps = /* Number of timesteps */
(PID.TID 0000.0001)                    7200
(PID.TID 0000.0001)     ;
(PID.TID 0000.0001) nEndIter =   /* Run ending timestep number */
(PID.TID 0000.0001)                    7200
(PID.TID 0000.0001)     ;
(PID.TID 0000.0001) baseTime =   /* Model base time ( s ) */
(PID.TID 0000.0001)                 0.000000000000000E+00
(PID.TID 0000.0001)     ;
(PID.TID 0000.0001) startTime =  /* Run start time ( s ) */
(PID.TID 0000.0001)                 0.000000000000000E+00
(PID.TID 0000.0001)     ;
(PID.TID 0000.0001) endTime  =   /* Integration ending time ( s ) */
(PID.TID 0000.0001)                 1.080000000000000E+05
(PID.TID 0000.0001)     ;
(PID.TID 0000.0001) pChkPtFreq = /* Permanent restart/pickup file interval ( s ) */
(PID.TID 0000.0001)                 2.160000000000000E+04
(PID.TID 0000.0001)     ;
(PID.TID 0000.0001) chkPtFreq  = /* Rolling restart/pickup file interval ( s ) */
(PID.TID 0000.0001)                 0.000000000000000E+00
(PID.TID 0000.0001)     ;
(PID.TID 0000.0001) pickup_write_mdsio =   /* Model IO flag. */
(PID.TID 0000.0001)                   T
(PID.TID 0000.0001)     ;
(PID.TID 0000.0001) pickup_read_mdsio =   /* Model IO flag. */
(PID.TID 0000.0001)                   T
(PID.TID 0000.0001)     ;
(PID.TID 0000.0001) pickup_write_immed =   /* Model IO flag. */
(PID.TID 0000.0001)                   F
(PID.TID 0000.0001)     ;
(PID.TID 0000.0001) writePickupAtEnd =   /* Model IO flag. */
(PID.TID 0000.0001)                   T
(PID.TID 0000.0001)     ;
(PID.TID 0000.0001) dumpFreq =   /* Model state write out interval ( s ). */
(PID.TID 0000.0001)                 7.200000000000000E+03
(PID.TID 0000.0001)     ;
(PID.TID 0000.0001) dumpInitAndLast= /* write out Initial & Last iter. model state */
(PID.TID 0000.0001)                   T
(PID.TID 0000.0001)     ;
(PID.TID 0000.0001) snapshot_mdsio =   /* Model IO flag. */
(PID.TID 0000.0001)                   T
(PID.TID 0000.0001)     ;
(PID.TID 0000.0001) monitorFreq =   /* Monitor output interval ( s ). */
(PID.TID 0000.0001)                 7.200000000000000E+03
(PID.TID 0000.0001)     ;
(PID.TID 0000.0001) monitorSelect = /* select group of variables to monitor */
(PID.TID 0000.0001)                       3
(PID.TID 0000.0001)     ;
(PID.TID 0000.0001) monitor_stdio =   /* Model IO flag. */
(PID.TID 0000.0001)                   T
(PID.TID 0000.0001)     ;
(PID.TID 0000.0001) externForcingPeriod =   /* forcing period (s) */
(PID.TID 0000.0001)                 0.000000000000000E+00
(PID.TID 0000.0001)     ;
(PID.TID 0000.0001) externForcingCycle =   /* period of the cyle (s). */
(PID.TID 0000.0001)                 0.000000000000000E+00
(PID.TID 0000.0001)     ;
(PID.TID 0000.0001) tauThetaClimRelax =   /* relaxation time scale (s) */
(PID.TID 0000.0001)                 0.000000000000000E+00
(PID.TID 0000.0001)     ;
(PID.TID 0000.0001) tauSaltClimRelax =   /* relaxation time scale (s) */
(PID.TID 0000.0001)                 0.000000000000000E+00
(PID.TID 0000.0001)     ;
(PID.TID 0000.0001) latBandClimRelax =   /* max. Lat. where relaxation */
(PID.TID 0000.0001)                 1.500000000000000E+04
(PID.TID 0000.0001)     ;
(PID.TID 0000.0001) //
(PID.TID 0000.0001) // Gridding paramters ( PARM04 in namelist )
(PID.TID 0000.0001) //
(PID.TID 0000.0001) usingCartesianGrid = /* Cartesian coordinates flag ( True/False ) */
(PID.TID 0000.0001)                   T
(PID.TID 0000.0001)     ;
(PID.TID 0000.0001) usingCylindricalGrid = /* Cylindrical coordinates flag ( True/False ) */
(PID.TID 0000.0001)                   F
(PID.TID 0000.0001)     ;
(PID.TID 0000.0001) usingSphericalPolarGrid = /* Spherical coordinates flag ( True/False ) */
(PID.TID 0000.0001)                   F
(PID.TID 0000.0001)     ;
(PID.TID 0000.0001) usingCurvilinearGrid = /* Curvilinear coordinates flag ( True/False ) */
(PID.TID 0000.0001)                   F
(PID.TID 0000.0001)     ;
(PID.TID 0000.0001) selectSigmaCoord = /* Hybrid-Sigma Vert. Coordinate option */
(PID.TID 0000.0001)                       0
(PID.TID 0000.0001)     ;
(PID.TID 0000.0001) Ro_SeaLevel = /* r(1) ( units of r ==  m ) */
(PID.TID 0000.0001)                 0.000000000000000E+00
(PID.TID 0000.0001)     ;
(PID.TID 0000.0001) rSigmaBnd = /* r/sigma transition ( units of r ==  m ) */
(PID.TID 0000.0001)                 1.234567000000000E+05
(PID.TID 0000.0001)     ;
(PID.TID 0000.0001) rkSign =   /* index orientation relative to vertical coordinate */
(PID.TID 0000.0001)                -1.000000000000000E+00
(PID.TID 0000.0001)     ;
(PID.TID 0000.0001) gravitySign = /* gravity orientation relative to vertical coordinate */
(PID.TID 0000.0001)                -1.000000000000000E+00
(PID.TID 0000.0001)     ;
(PID.TID 0000.0001) mass2rUnit = /* convert mass per unit area [kg/m2] to r-units [m] */
(PID.TID 0000.0001)                 1.000200040008002E-03
(PID.TID 0000.0001)     ;
(PID.TID 0000.0001) rUnit2mass = /* convert r-units [m] to mass per unit area [kg/m2] */
(PID.TID 0000.0001)                 9.998000000000000E+02
(PID.TID 0000.0001)     ;
(PID.TID 0000.0001) drC =   /* C spacing ( units of r ) */
(PID.TID 0000.0001)                 1.353562536445951E+00,      /* K =  1 */
(PID.TID 0000.0001)                 2.673354807502220E+00,      /* K =  2 */
(PID.TID 0000.0001)                 2.606656816903882E+00,      /* K =  3 */
(PID.TID 0000.0001)                 2.541622885987175E+00,      /* K =  4 */
(PID.TID 0000.0001)                 2.478211497839832E+00,      /* K =  5 */
(PID.TID 0000.0001)                 2.416382171362196E+00,      /* K =  6 */
(PID.TID 0000.0001)                 2.356095435424556E+00,      /* K =  7 */
(PID.TID 0000.0001)                 2.297312803669231E+00,      /* K =  8 */
(PID.TID 0000.0001)                 2.239996749941318E+00,      /* K =  9 */
(PID.TID 0000.0001)                 2.184110684332436E+00,      /* K = 10 */
(PID.TID 0000.0001)                 2.129618929822139E+00,      /* K = 11 */
(PID.TID 0000.0001)                 2.076486699502127E+00,      /* K = 12 */
(PID.TID 0000.0001)                 2.024680074368680E+00,      /* K = 13 */
(PID.TID 0000.0001)                 1.974165981669157E+00,      /* K = 14 */
(PID.TID 0000.0001)                 1.924912173788732E+00,      /* K = 15 */
(PID.TID 0000.0001)                 1.876887207663887E+00,      /* K = 16 */
(PID.TID 0000.0001)                 1.830060424709525E+00,      /* K = 17 */
(PID.TID 0000.0001)                 1.784401931246882E+00,      /* K = 18 */
(PID.TID 0000.0001)                 1.739882579419745E+00,      /* K = 19 */
(PID.TID 0000.0001)                 1.696473948586798E+00,      /* K = 20 */
(PID.TID 0000.0001)                 1.654148327178210E+00,      /* K = 21 */
(PID.TID 0000.0001)                 1.612878695004893E+00,      /* K = 22 */
(PID.TID 0000.0001)                 1.572638706009116E+00,      /* K = 23 */
(PID.TID 0000.0001)                 1.533402671445496E+00,      /* K = 24 */
(PID.TID 0000.0001)                 1.495145543481590E+00,      /* K = 25 */
(PID.TID 0000.0001)                 1.457842899207651E+00,      /* K = 26 */
(PID.TID 0000.0001)                 1.421470925045323E+00,      /* K = 27 */
(PID.TID 0000.0001)                 1.386006401545330E+00,      /* K = 28 */
(PID.TID 0000.0001)                 1.351426688564441E+00,      /* K = 29 */
(PID.TID 0000.0001)                 1.317709710812270E+00,      /* K = 30 */
(PID.TID 0000.0001)                 1.284833943758659E+00,      /* K = 31 */
(PID.TID 0000.0001)                 1.252778399892670E+00,      /* K = 32 */
(PID.TID 0000.0001)                 1.221522615324399E+00,      /* K = 33 */
(PID.TID 0000.0001)                 1.191046636721063E+00,      /* K = 34 */
(PID.TID 0000.0001)                 1.161331008569023E+00,      /* K = 35 */
(PID.TID 0000.0001)                 1.132356760753611E+00,      /* K = 36 */
(PID.TID 0000.0001)                 1.104105396448821E+00,      /* K = 37 */
(PID.TID 0000.0001)                 1.076558880309153E+00,      /* K = 38 */
(PID.TID 0000.0001)                 1.049699626956059E+00,      /* K = 39 */
(PID.TID 0000.0001)                 1.018219822785758E+00,      /* K = 40 */
(PID.TID 0000.0001)     3 @  1.000000000000000E+00,             /* K = 41: 43 */
(PID.TID 0000.0001)                 1.008367036018186E+00,      /* K = 44 */
(PID.TID 0000.0001)                 1.029741944637383E+00,      /* K = 45 */
(PID.TID 0000.0001)                 1.056090529574512E+00,      /* K = 46 */
(PID.TID 0000.0001)                 1.083113310538912E+00,      /* K = 47 */
(PID.TID 0000.0001)                 1.110827538562632E+00,      /* K = 48 */
(PID.TID 0000.0001)                 1.139250906089557E+00,      /* K = 49 */
(PID.TID 0000.0001)                 1.168401558270063E+00,      /* K = 50 */
(PID.TID 0000.0001)                 1.198298104544667E+00,      /* K = 51 */
(PID.TID 0000.0001)                 1.228959630524085E+00,      /* K = 52 */
(PID.TID 0000.0001)                 1.260405710173262E+00,      /* K = 53 */
(PID.TID 0000.0001)                 1.292656418307170E+00,      /* K = 54 */
(PID.TID 0000.0001)                 1.325732343406332E+00,      /* K = 55 */
(PID.TID 0000.0001)                 1.359654600760276E+00,      /* K = 56 */
(PID.TID 0000.0001)                 1.394444845947293E+00,      /* K = 57 */
(PID.TID 0000.0001)                 1.430125288659104E+00,      /* K = 58 */
(PID.TID 0000.0001)                 1.466718706879278E+00,      /* K = 59 */
(PID.TID 0000.0001)                 1.504248461424425E+00,      /* K = 60 */
(PID.TID 0000.0001)                 1.542738510857484E+00,      /* K = 61 */
(PID.TID 0000.0001)                 1.582213426782582E+00,      /* K = 62 */
(PID.TID 0000.0001)                 1.622698409531272E+00,      /* K = 63 */
(PID.TID 0000.0001)                 1.664219304250127E+00,      /* K = 64 */
(PID.TID 0000.0001)                 1.706802617399992E+00,      /* K = 65 */
(PID.TID 0000.0001)                 1.750475533677393E+00,      /* K = 66 */
(PID.TID 0000.0001)                 1.795265933368946E+00,      /* K = 67 */
(PID.TID 0000.0001)                 1.841202410149798E+00,      /* K = 68 */
(PID.TID 0000.0001)                 1.888314289337512E+00,      /* K = 69 */
(PID.TID 0000.0001)                 1.936631646613004E+00,      /* K = 70 */
(PID.TID 0000.0001)                 1.986185327220511E+00,      /* K = 71 */
(PID.TID 0000.0001)                 2.037006965658845E+00,      /* K = 72 */
(PID.TID 0000.0001)                 2.089129005876489E+00,      /* K = 73 */
(PID.TID 0000.0001)                 2.142584721983441E+00,      /* K = 74 */
(PID.TID 0000.0001)                 2.197408239493019E+00,      /* K = 75 */
(PID.TID 0000.0001)                 2.253634557107203E+00,      /* K = 76 */
(PID.TID 0000.0001)                 2.311299569059395E+00,      /* K = 77 */
(PID.TID 0000.0001)                 2.370440088028889E+00,      /* K = 78 */
(PID.TID 0000.0001)                 2.431093868641659E+00,      /* K = 79 */
(PID.TID 0000.0001)                 2.493299631572482E+00,      /* K = 80 */
(PID.TID 0000.0001)                 2.557097088263764E+00,      /* K = 81 */
(PID.TID 0000.0001)                 2.622526966276870E+00,      /* K = 82 */
(PID.TID 0000.0001)                 2.689631035292131E+00,      /* K = 83 */
(PID.TID 0000.0001)                 2.758452133774128E+00,      /* K = 84 */
(PID.TID 0000.0001)                 2.829034196319270E+00,      /* K = 85 */
(PID.TID 0000.0001)                 2.901422281703137E+00,      /* K = 86 */
(PID.TID 0000.0001)                 2.975662601645483E+00,      /* K = 87 */
(PID.TID 0000.0001)                 3.051802550311265E+00,      /* K = 88 */
(PID.TID 0000.0001)                 3.129890734566534E+00,      /* K = 89 */
(PID.TID 0000.0001)                 3.209977005008493E+00,      /* K = 90 */
(PID.TID 0000.0001)                 3.292112487789551E+00,      /* K = 91 */
(PID.TID 0000.0001)                 3.376349617255663E+00,      /* K = 92 */
(PID.TID 0000.0001)                 3.462742169419818E+00,      /* K = 93 */
(PID.TID 0000.0001)                 3.551345296292022E+00,      /* K = 94 */
(PID.TID 0000.0001)                 3.642215561087707E+00,      /* K = 95 */
(PID.TID 0000.0001)                 3.735410974337039E+00,      /* K = 96 */
(PID.TID 0000.0001)                 3.830991030918167E+00,      /* K = 97 */
(PID.TID 0000.0001)                 3.929016748038072E+00,      /* K = 98 */
(PID.TID 0000.0001)                 4.029550704185248E+00,      /* K = 99 */
(PID.TID 0000.0001)                 4.132657079079086E+00,      /* K =100 */
(PID.TID 0000.0001)                 2.092430747509357E+00       /* K =101 */
(PID.TID 0000.0001)     ;
(PID.TID 0000.0001) drF =   /* W spacing ( units of r ) */
(PID.TID 0000.0001)                 2.707125072891902E+00,      /* K =  1 */
(PID.TID 0000.0001)                 2.639584542112537E+00,      /* K =  2 */
(PID.TID 0000.0001)                 2.573729091695228E+00,      /* K =  3 */
(PID.TID 0000.0001)                 2.509516680279123E+00,      /* K =  4 */
(PID.TID 0000.0001)                 2.446906315400540E+00,      /* K =  5 */
(PID.TID 0000.0001)                 2.385858027323851E+00,      /* K =  6 */
(PID.TID 0000.0001)                 2.326332843525261E+00,      /* K =  7 */
(PID.TID 0000.0001)                 2.268292763813200E+00,      /* K =  8 */
(PID.TID 0000.0001)                 2.211700736069437E+00,      /* K =  9 */
(PID.TID 0000.0001)                 2.156520632595434E+00,      /* K = 10 */
(PID.TID 0000.0001)                 2.102717227048843E+00,      /* K = 11 */
(PID.TID 0000.0001)                 2.050256171955411E+00,      /* K = 12 */
(PID.TID 0000.0001)                 1.999103976781950E+00,      /* K = 13 */
(PID.TID 0000.0001)                 1.949227986556365E+00,      /* K = 14 */
(PID.TID 0000.0001)                 1.900596361021098E+00,      /* K = 15 */
(PID.TID 0000.0001)                 1.853178054306675E+00,      /* K = 16 */
(PID.TID 0000.0001)                 1.806942795112376E+00,      /* K = 17 */
(PID.TID 0000.0001)                 1.761861067381389E+00,      /* K = 18 */
(PID.TID 0000.0001)                 1.717904091458102E+00,      /* K = 19 */
(PID.TID 0000.0001)                 1.675043805715495E+00,      /* K = 20 */
(PID.TID 0000.0001)                 1.633252848640927E+00,      /* K = 21 */
(PID.TID 0000.0001)                 1.592504541368859E+00,      /* K = 22 */
(PID.TID 0000.0001)                 1.552772870649374E+00,      /* K = 23 */
(PID.TID 0000.0001)                 1.514032472241619E+00,      /* K = 24 */
(PID.TID 0000.0001)                 1.476258614721562E+00,      /* K = 25 */
(PID.TID 0000.0001)                 1.439427183693740E+00,      /* K = 26 */
(PID.TID 0000.0001)                 1.403514666396906E+00,      /* K = 27 */
(PID.TID 0000.0001)                 1.368498136693753E+00,      /* K = 28 */
(PID.TID 0000.0001)                 1.334355240435129E+00,      /* K = 29 */
(PID.TID 0000.0001)                 1.301064181189410E+00,      /* K = 30 */
(PID.TID 0000.0001)                 1.268603706327907E+00,      /* K = 31 */
(PID.TID 0000.0001)                 1.236953093457433E+00,      /* K = 32 */
(PID.TID 0000.0001)                 1.206092137191365E+00,      /* K = 33 */
(PID.TID 0000.0001)                 1.176001136250761E+00,      /* K = 34 */
(PID.TID 0000.0001)                 1.146660880887286E+00,      /* K = 35 */
(PID.TID 0000.0001)                 1.118052640619935E+00,      /* K = 36 */
(PID.TID 0000.0001)                 1.090158152277706E+00,      /* K = 37 */
(PID.TID 0000.0001)                 1.062959608340601E+00,      /* K = 38 */
(PID.TID 0000.0001)                 1.036439645571516E+00,      /* K = 39 */
(PID.TID 0000.0001)     4 @  1.000000000000000E+00,             /* K = 40: 43 */
(PID.TID 0000.0001)                 1.016734072036371E+00,      /* K = 44 */
(PID.TID 0000.0001)                 1.042749817238396E+00,      /* K = 45 */
(PID.TID 0000.0001)                 1.069431241910629E+00,      /* K = 46 */
(PID.TID 0000.0001)                 1.096795379167196E+00,      /* K = 47 */
(PID.TID 0000.0001)                 1.124859697958069E+00,      /* K = 48 */
(PID.TID 0000.0001)                 1.153642114221046E+00,      /* K = 49 */
(PID.TID 0000.0001)                 1.183161002319080E+00,      /* K = 50 */
(PID.TID 0000.0001)                 1.213435206770255E+00,      /* K = 51 */
(PID.TID 0000.0001)                 1.244484054277915E+00,      /* K = 52 */
(PID.TID 0000.0001)                 1.276327366068610E+00,      /* K = 53 */
(PID.TID 0000.0001)                 1.308985470545730E+00,      /* K = 54 */
(PID.TID 0000.0001)                 1.342479216266933E+00,      /* K = 55 */
(PID.TID 0000.0001)                 1.376829985253619E+00,      /* K = 56 */
(PID.TID 0000.0001)                 1.412059706640966E+00,      /* K = 57 */
(PID.TID 0000.0001)                 1.448190870677242E+00,      /* K = 58 */
(PID.TID 0000.0001)                 1.485246543081313E+00,      /* K = 59 */
(PID.TID 0000.0001)                 1.523250379767538E+00,      /* K = 60 */
(PID.TID 0000.0001)                 1.562226641947430E+00,      /* K = 61 */
(PID.TID 0000.0001)                 1.602200211617735E+00,      /* K = 62 */
(PID.TID 0000.0001)                 1.643196607444809E+00,      /* K = 63 */
(PID.TID 0000.0001)                 1.685242001055446E+00,      /* K = 64 */
(PID.TID 0000.0001)                 1.728363233744537E+00,      /* K = 65 */
(PID.TID 0000.0001)                 1.772587833610249E+00,      /* K = 66 */
(PID.TID 0000.0001)                 1.817944033127642E+00,      /* K = 67 */
(PID.TID 0000.0001)                 1.864460787171955E+00,      /* K = 68 */
(PID.TID 0000.0001)                 1.912167791503070E+00,      /* K = 69 */
(PID.TID 0000.0001)                 1.961095501722937E+00,      /* K = 70 */
(PID.TID 0000.0001)                 2.011275152718084E+00,      /* K = 71 */
(PID.TID 0000.0001)                 2.062738778599606E+00,      /* K = 72 */
(PID.TID 0000.0001)                 2.115519233153373E+00,      /* K = 73 */
(PID.TID 0000.0001)                 2.169650210813509E+00,      /* K = 74 */
(PID.TID 0000.0001)                 2.225166268172530E+00,      /* K = 75 */
(PID.TID 0000.0001)                 2.282102846041876E+00,      /* K = 76 */
(PID.TID 0000.0001)                 2.340496292076914E+00,      /* K = 77 */
(PID.TID 0000.0001)                 2.400383883980863E+00,      /* K = 78 */
(PID.TID 0000.0001)                 2.461803853302456E+00,      /* K = 79 */
(PID.TID 0000.0001)                 2.524795409842509E+00,      /* K = 80 */
(PID.TID 0000.0001)                 2.589398766685018E+00,      /* K = 81 */
(PID.TID 0000.0001)                 2.655655165868721E+00,      /* K = 82 */
(PID.TID 0000.0001)                 2.723606904715541E+00,      /* K = 83 */
(PID.TID 0000.0001)                 2.793297362832715E+00,      /* K = 84 */
(PID.TID 0000.0001)                 2.864771029805825E+00,      /* K = 85 */
(PID.TID 0000.0001)                 2.938073533600448E+00,      /* K = 86 */
(PID.TID 0000.0001)                 3.013251669690518E+00,      /* K = 87 */
(PID.TID 0000.0001)                 3.090353430932014E+00,      /* K = 88 */
(PID.TID 0000.0001)                 3.169428038201054E+00,      /* K = 89 */
(PID.TID 0000.0001)                 3.250525971815932E+00,      /* K = 90 */
(PID.TID 0000.0001)                 3.333699003763170E+00,      /* K = 91 */
(PID.TID 0000.0001)                 3.419000230748157E+00,      /* K = 92 */
(PID.TID 0000.0001)                 3.506484108091479E+00,      /* K = 93 */
(PID.TID 0000.0001)                 3.596206484492564E+00,      /* K = 94 */
(PID.TID 0000.0001)                 3.688224637682850E+00,      /* K = 95 */
(PID.TID 0000.0001)                 3.782597310991227E+00,      /* K = 96 */
(PID.TID 0000.0001)                 3.879384750845106E+00,      /* K = 97 */
(PID.TID 0000.0001)                 3.978648745231038E+00,      /* K = 98 */
(PID.TID 0000.0001)                 4.080452663139458E+00,      /* K = 99 */
(PID.TID 0000.0001)                 4.184861495018715E+00       /* K =100 */
(PID.TID 0000.0001)     ;
(PID.TID 0000.0001) delX = /* U spacing ( m - cartesian, degrees - spherical ) */
(PID.TID 0000.0001)                 1.263294638016668E+03,      /* I =  1 */
(PID.TID 0000.0001)                 1.237496063806571E+03,      /* I =  2 */
(PID.TID 0000.0001)                 1.212224339320398E+03,      /* I =  3 */
(PID.TID 0000.0001)      . . .
(PID.TID 0000.0001)                 4.790113490274632E+02,      /* I = 48 */
(PID.TID 0000.0001)                 4.692291418815790E+02,      /* I = 49 */
(PID.TID 0000.0001)                 4.596467036489769E+02,      /* I = 50 */
(PID.TID 0000.0001)                 4.502599547167311E+02,      /* I = 51 */
(PID.TID 0000.0001)                 4.410648987843862E+02,      /* I = 52 */
(PID.TID 0000.0001)                 4.320576211625778E+02,      /* I = 53 */
(PID.TID 0000.0001)      . . .
(PID.TID 0000.0001)                 2.000000000000000E+02,      /* I = 98 */
(PID.TID 0000.0001)                 2.000000000000000E+02,      /* I = 99 */
(PID.TID 0000.0001)                 2.000000000000000E+02,      /* I =100 */
(PID.TID 0000.0001)                 2.000000000000000E+02,      /* I =101 */
(PID.TID 0000.0001)                 2.000000000000000E+02,      /* I =102 */
(PID.TID 0000.0001)                 2.000000000000000E+02,      /* I =103 */
(PID.TID 0000.0001)      . . .
(PID.TID 0000.0001)                 3.612641354876311E+02,      /* I =148 */
(PID.TID 0000.0001)                 3.687955530665730E+02,      /* I =149 */
(PID.TID 0000.0001)                 3.764839811128614E+02,      /* I =150 */
(PID.TID 0000.0001)                 3.843326928863569E+02,      /* I =151 */
(PID.TID 0000.0001)                 3.923450298858749E+02,      /* I =152 */
(PID.TID 0000.0001)                 4.005244032717896E+02,      /* I =153 */
(PID.TID 0000.0001)      . . .
(PID.TID 0000.0001)                 1.013599012055986E+03,      /* I =198 */
(PID.TID 0000.0001)                 1.034729915092050E+03,      /* I =199 */
(PID.TID 0000.0001)                 1.056301342495056E+03       /* I =200 */
(PID.TID 0000.0001)     ;
(PID.TID 0000.0001) delY = /* V spacing ( m - cartesian, degrees - spherical ) */
(PID.TID 0000.0001)                 5.000000000000000E+03       /* J =  1 */
(PID.TID 0000.0001)     ;
(PID.TID 0000.0001) xgOrigin = /* X-axis origin of West  edge (cartesian: m, lat-lon: deg) */
(PID.TID 0000.0001)                 0.000000000000000E+00
(PID.TID 0000.0001)     ;
(PID.TID 0000.0001) ygOrigin = /* Y-axis origin of South edge (cartesian: m, lat-lon: deg) */
(PID.TID 0000.0001)                 0.000000000000000E+00
(PID.TID 0000.0001)     ;
(PID.TID 0000.0001) rSphere =  /* Radius ( ignored - cartesian, m - spherical ) */
(PID.TID 0000.0001)                 6.370000000000000E+06
(PID.TID 0000.0001)     ;
(PID.TID 0000.0001) deepAtmosphere = /* Deep/Shallow Atmosphere flag (True/False) */
(PID.TID 0000.0001)                   F
(PID.TID 0000.0001)     ;
(PID.TID 0000.0001) xC =  /* xC(:,1,:,1) : P-point X coord ( deg. or m if cartesian) */
(PID.TID 0000.0001)                 6.316473190083342E+02,      /* I =  1 */
(PID.TID 0000.0001)                 1.882042669919954E+03,      /* I =  2 */
(PID.TID 0000.0001)                 3.106902871483439E+03,      /* I =  3 */
(PID.TID 0000.0001)      . . .
(PID.TID 0000.0001)                 3.864398747251778E+04,      /* I = 48 */
(PID.TID 0000.0001)                 3.911810771797229E+04,      /* I = 49 */
(PID.TID 0000.0001)                 3.958254564073758E+04,      /* I = 50 */
(PID.TID 0000.0001)                 4.003749896992043E+04,      /* I = 51 */
(PID.TID 0000.0001)                 4.048316139667099E+04,      /* I = 52 */
(PID.TID 0000.0001)                 4.091972265664447E+04,      /* I = 53 */
(PID.TID 0000.0001)      . . .
(PID.TID 0000.0001)                 5.369999999999999E+04,      /* I = 98 */
(PID.TID 0000.0001)                 5.389999999999999E+04,      /* I = 99 */
(PID.TID 0000.0001)                 5.409999999999999E+04,      /* I =100 */
(PID.TID 0000.0001)                 5.429999999999999E+04,      /* I =101 */
(PID.TID 0000.0001)                 5.449999999999999E+04,      /* I =102 */
(PID.TID 0000.0001)                 5.469999999999999E+04,      /* I =103 */
(PID.TID 0000.0001)      . . .
(PID.TID 0000.0001)                 6.578505387737689E+04,      /* I =148 */
(PID.TID 0000.0001)                 6.615008372165399E+04,      /* I =149 */
(PID.TID 0000.0001)                 6.652272348874371E+04,      /* I =150 */
(PID.TID 0000.0001)                 6.690313182574332E+04,      /* I =151 */
(PID.TID 0000.0001)                 6.729147068712943E+04,      /* I =152 */
(PID.TID 0000.0001)                 6.768790540370827E+04,      /* I =153 */
(PID.TID 0000.0001)      . . .
(PID.TID 0000.0001)                 9.740216923638493E+04,      /* I =198 */
(PID.TID 0000.0001)                 9.842633369995895E+04,      /* I =199 */
(PID.TID 0000.0001)                 9.947184932875249E+04       /* I =200 */
(PID.TID 0000.0001)     ;
(PID.TID 0000.0001) yC =  /* yC(1,:,1,:) : P-point Y coord ( deg. or m if cartesian) */
(PID.TID 0000.0001)                 2.500000000000000E+03       /* J =  1 */
(PID.TID 0000.0001)     ;
(PID.TID 0000.0001) rcoord = /* P-point R coordinate (  units of r ) */
(PID.TID 0000.0001)                -1.353562536445951E+00,      /* K =  1 */
(PID.TID 0000.0001)                -4.026917343948170E+00,      /* K =  2 */
(PID.TID 0000.0001)                -6.633574160852053E+00,      /* K =  3 */
(PID.TID 0000.0001)                -9.175197046839228E+00,      /* K =  4 */
(PID.TID 0000.0001)                -1.165340854467906E+01,      /* K =  5 */
(PID.TID 0000.0001)                -1.406979071604126E+01,      /* K =  6 */
(PID.TID 0000.0001)                -1.642588615146581E+01,      /* K =  7 */
(PID.TID 0000.0001)                -1.872319895513504E+01,      /* K =  8 */
(PID.TID 0000.0001)                -2.096319570507636E+01,      /* K =  9 */
(PID.TID 0000.0001)                -2.314730638940879E+01,      /* K = 10 */
(PID.TID 0000.0001)                -2.527692531923093E+01,      /* K = 11 */
(PID.TID 0000.0001)                -2.735341201873306E+01,      /* K = 12 */
(PID.TID 0000.0001)                -2.937809209310174E+01,      /* K = 13 */
(PID.TID 0000.0001)                -3.135225807477090E+01,      /* K = 14 */
(PID.TID 0000.0001)                -3.327717024855963E+01,      /* K = 15 */
(PID.TID 0000.0001)                -3.515405745622351E+01,      /* K = 16 */
(PID.TID 0000.0001)                -3.698411788093303E+01,      /* K = 17 */
(PID.TID 0000.0001)                -3.876851981217992E+01,      /* K = 18 */
(PID.TID 0000.0001)                -4.050840239159966E+01,      /* K = 19 */
(PID.TID 0000.0001)                -4.220487634018646E+01,      /* K = 20 */
(PID.TID 0000.0001)                -4.385902466736467E+01,      /* K = 21 */
(PID.TID 0000.0001)                -4.547190336236957E+01,      /* K = 22 */
(PID.TID 0000.0001)                -4.704454206837868E+01,      /* K = 23 */
(PID.TID 0000.0001)                -4.857794473982418E+01,      /* K = 24 */
(PID.TID 0000.0001)                -5.007309028330577E+01,      /* K = 25 */
(PID.TID 0000.0001)                -5.153093318251342E+01,      /* K = 26 */
(PID.TID 0000.0001)                -5.295240410755873E+01,      /* K = 27 */
(PID.TID 0000.0001)                -5.433841050910407E+01,      /* K = 28 */
(PID.TID 0000.0001)                -5.568983719766851E+01,      /* K = 29 */
(PID.TID 0000.0001)                -5.700754690848078E+01,      /* K = 30 */
(PID.TID 0000.0001)                -5.829238085223943E+01,      /* K = 31 */
(PID.TID 0000.0001)                -5.954515925213210E+01,      /* K = 32 */
(PID.TID 0000.0001)                -6.076668186745650E+01,      /* K = 33 */
(PID.TID 0000.0001)                -6.195772850417756E+01,      /* K = 34 */
(PID.TID 0000.0001)                -6.311905951274658E+01,      /* K = 35 */
(PID.TID 0000.0001)                -6.425141627350020E+01,      /* K = 36 */
(PID.TID 0000.0001)                -6.535552166994901E+01,      /* K = 37 */
(PID.TID 0000.0001)                -6.643208055025816E+01,      /* K = 38 */
(PID.TID 0000.0001)                -6.748178017721422E+01,      /* K = 39 */
(PID.TID 0000.0001)                -6.849999999999997E+01,      /* K = 40 */
(PID.TID 0000.0001)                -6.949999999999997E+01,      /* K = 41 */
(PID.TID 0000.0001)                -7.049999999999997E+01,      /* K = 42 */
(PID.TID 0000.0001)                -7.149999999999997E+01,      /* K = 43 */
(PID.TID 0000.0001)                -7.250836703601816E+01,      /* K = 44 */
(PID.TID 0000.0001)                -7.353810898065554E+01,      /* K = 45 */
(PID.TID 0000.0001)                -7.459419951023006E+01,      /* K = 46 */
(PID.TID 0000.0001)                -7.567731282076896E+01,      /* K = 47 */
(PID.TID 0000.0001)                -7.678814035933159E+01,      /* K = 48 */
(PID.TID 0000.0001)                -7.792739126542115E+01,      /* K = 49 */
(PID.TID 0000.0001)                -7.909579282369121E+01,      /* K = 50 */
(PID.TID 0000.0001)                -8.029409092823587E+01,      /* K = 51 */
(PID.TID 0000.0001)                -8.152305055875996E+01,      /* K = 52 */
(PID.TID 0000.0001)                -8.278345626893322E+01,      /* K = 53 */
(PID.TID 0000.0001)                -8.407611268724040E+01,      /* K = 54 */
(PID.TID 0000.0001)                -8.540184503064673E+01,      /* K = 55 */
(PID.TID 0000.0001)                -8.676149963140701E+01,      /* K = 56 */
(PID.TID 0000.0001)                -8.815594447735430E+01,      /* K = 57 */
(PID.TID 0000.0001)                -8.958606976601340E+01,      /* K = 58 */
(PID.TID 0000.0001)                -9.105278847289267E+01,      /* K = 59 */
(PID.TID 0000.0001)                -9.255703693431710E+01,      /* K = 60 */
(PID.TID 0000.0001)                -9.409977544517459E+01,      /* K = 61 */
(PID.TID 0000.0001)                -9.568198887195717E+01,      /* K = 62 */
(PID.TID 0000.0001)                -9.730468728148844E+01,      /* K = 63 */
(PID.TID 0000.0001)                -9.896890658573857E+01,      /* K = 64 */
(PID.TID 0000.0001)                -1.006757092031386E+02,      /* K = 65 */
(PID.TID 0000.0001)                -1.024261847368159E+02,      /* K = 66 */
(PID.TID 0000.0001)                -1.042214506701849E+02,      /* K = 67 */
(PID.TID 0000.0001)                -1.060626530803347E+02,      /* K = 68 */
(PID.TID 0000.0001)                -1.079509673696722E+02,      /* K = 69 */
(PID.TID 0000.0001)                -1.098875990162852E+02,      /* K = 70 */
(PID.TID 0000.0001)                -1.118737843435057E+02,      /* K = 71 */
(PID.TID 0000.0001)                -1.139107913091646E+02,      /* K = 72 */
(PID.TID 0000.0001)                -1.159999203150411E+02,      /* K = 73 */
(PID.TID 0000.0001)                -1.181425050370245E+02,      /* K = 74 */
(PID.TID 0000.0001)                -1.203399132765175E+02,      /* K = 75 */
(PID.TID 0000.0001)                -1.225935478336247E+02,      /* K = 76 */
(PID.TID 0000.0001)                -1.249048474026841E+02,      /* K = 77 */
(PID.TID 0000.0001)                -1.272752874907130E+02,      /* K = 78 */
(PID.TID 0000.0001)                -1.297063813593547E+02,      /* K = 79 */
(PID.TID 0000.0001)                -1.321996809909272E+02,      /* K = 80 */
(PID.TID 0000.0001)                -1.347567780791909E+02,      /* K = 81 */
(PID.TID 0000.0001)                -1.373793050454678E+02,      /* K = 82 */
(PID.TID 0000.0001)                -1.400689360807599E+02,      /* K = 83 */
(PID.TID 0000.0001)                -1.428273882145340E+02,      /* K = 84 */
(PID.TID 0000.0001)                -1.456564224108533E+02,      /* K = 85 */
(PID.TID 0000.0001)                -1.485578446925564E+02,      /* K = 86 */
(PID.TID 0000.0001)                -1.515335072942019E+02,      /* K = 87 */
(PID.TID 0000.0001)                -1.545853098445132E+02,      /* K = 88 */
(PID.TID 0000.0001)                -1.577152005790797E+02,      /* K = 89 */
(PID.TID 0000.0001)                -1.609251775840882E+02,      /* K = 90 */
(PID.TID 0000.0001)                -1.642172900718778E+02,      /* K = 91 */
(PID.TID 0000.0001)                -1.675936396891335E+02,      /* K = 92 */
(PID.TID 0000.0001)                -1.710563818585533E+02,      /* K = 93 */
(PID.TID 0000.0001)                -1.746077271548453E+02,      /* K = 94 */
(PID.TID 0000.0001)                -1.782499427159330E+02,      /* K = 95 */
(PID.TID 0000.0001)                -1.819853536902700E+02,      /* K = 96 */
(PID.TID 0000.0001)                -1.858163447211882E+02,      /* K = 97 */
(PID.TID 0000.0001)                -1.897453614692263E+02,      /* K = 98 */
(PID.TID 0000.0001)                -1.937749121734115E+02,      /* K = 99 */
(PID.TID 0000.0001)                -1.979075692524906E+02       /* K =100 */
(PID.TID 0000.0001)     ;
(PID.TID 0000.0001) rF =   /* W-Interf. R coordinate (  units of r ) */
(PID.TID 0000.0001)                 0.000000000000000E+00,      /* K =  1 */
(PID.TID 0000.0001)                -2.707125072891902E+00,      /* K =  2 */
(PID.TID 0000.0001)                -5.346709615004439E+00,      /* K =  3 */
(PID.TID 0000.0001)                -7.920438706699667E+00,      /* K =  4 */
(PID.TID 0000.0001)                -1.042995538697879E+01,      /* K =  5 */
(PID.TID 0000.0001)                -1.287686170237933E+01,      /* K =  6 */
(PID.TID 0000.0001)                -1.526271972970318E+01,      /* K =  7 */
(PID.TID 0000.0001)                -1.758905257322844E+01,      /* K =  8 */
(PID.TID 0000.0001)                -1.985734533704164E+01,      /* K =  9 */
(PID.TID 0000.0001)                -2.206904607311108E+01,      /* K = 10 */
(PID.TID 0000.0001)                -2.422556670570651E+01,      /* K = 11 */
(PID.TID 0000.0001)                -2.632828393275535E+01,      /* K = 12 */
(PID.TID 0000.0001)                -2.837854010471077E+01,      /* K = 13 */
(PID.TID 0000.0001)                -3.037764408149271E+01,      /* K = 14 */
(PID.TID 0000.0001)                -3.232687206804908E+01,      /* K = 15 */
(PID.TID 0000.0001)                -3.422746842907018E+01,      /* K = 16 */
(PID.TID 0000.0001)                -3.608064648337685E+01,      /* K = 17 */
(PID.TID 0000.0001)                -3.788758927848923E+01,      /* K = 18 */
(PID.TID 0000.0001)                -3.964945034587062E+01,      /* K = 19 */
(PID.TID 0000.0001)                -4.136735443732872E+01,      /* K = 20 */
(PID.TID 0000.0001)                -4.304239824304422E+01,      /* K = 21 */
(PID.TID 0000.0001)                -4.467565109168515E+01,      /* K = 22 */
(PID.TID 0000.0001)                -4.626815563305401E+01,      /* K = 23 */
(PID.TID 0000.0001)                -4.782092850370339E+01,      /* K = 24 */
(PID.TID 0000.0001)                -4.933496097594500E+01,      /* K = 25 */
(PID.TID 0000.0001)                -5.081121959066656E+01,      /* K = 26 */
(PID.TID 0000.0001)                -5.225064677436030E+01,      /* K = 27 */
(PID.TID 0000.0001)                -5.365416144075721E+01,      /* K = 28 */
(PID.TID 0000.0001)                -5.502265957745096E+01,      /* K = 29 */
(PID.TID 0000.0001)                -5.635701481788609E+01,      /* K = 30 */
(PID.TID 0000.0001)                -5.765807899907550E+01,      /* K = 31 */
(PID.TID 0000.0001)                -5.892668270540341E+01,      /* K = 32 */
(PID.TID 0000.0001)                -6.016363579886084E+01,      /* K = 33 */
(PID.TID 0000.0001)                -6.136972793605220E+01,      /* K = 34 */
(PID.TID 0000.0001)                -6.254572907230296E+01,      /* K = 35 */
(PID.TID 0000.0001)                -6.369238995319025E+01,      /* K = 36 */
(PID.TID 0000.0001)                -6.481044259381018E+01,      /* K = 37 */
(PID.TID 0000.0001)                -6.590060074608789E+01,      /* K = 38 */
(PID.TID 0000.0001)                -6.696356035442849E+01,      /* K = 39 */
(PID.TID 0000.0001)                -6.800000000000001E+01,      /* K = 40 */
(PID.TID 0000.0001)                -6.900000000000001E+01,      /* K = 41 */
(PID.TID 0000.0001)                -7.000000000000001E+01,      /* K = 42 */
(PID.TID 0000.0001)                -7.100000000000001E+01,      /* K = 43 */
(PID.TID 0000.0001)                -7.200000000000001E+01,      /* K = 44 */
(PID.TID 0000.0001)                -7.301673407203639E+01,      /* K = 45 */
(PID.TID 0000.0001)                -7.405948388927479E+01,      /* K = 46 */
(PID.TID 0000.0001)                -7.512891513118542E+01,      /* K = 47 */
(PID.TID 0000.0001)                -7.622571051035261E+01,      /* K = 48 */
(PID.TID 0000.0001)                -7.735057020831069E+01,      /* K = 49 */
(PID.TID 0000.0001)                -7.850421232253173E+01,      /* K = 50 */
(PID.TID 0000.0001)                -7.968737332485081E+01,      /* K = 51 */
(PID.TID 0000.0001)                -8.090080853162107E+01,      /* K = 52 */
(PID.TID 0000.0001)                -8.214529258589899E+01,      /* K = 53 */
(PID.TID 0000.0001)                -8.342161995196760E+01,      /* K = 54 */
(PID.TID 0000.0001)                -8.473060542251334E+01,      /* K = 55 */
(PID.TID 0000.0001)                -8.607308463878027E+01,      /* K = 56 */
(PID.TID 0000.0001)                -8.744991462403389E+01,      /* K = 57 */
(PID.TID 0000.0001)                -8.886197433067485E+01,      /* K = 58 */
(PID.TID 0000.0001)                -9.031016520135209E+01,      /* K = 59 */
(PID.TID 0000.0001)                -9.179541174443341E+01,      /* K = 60 */
(PID.TID 0000.0001)                -9.331866212420094E+01,      /* K = 61 */
(PID.TID 0000.0001)                -9.488088876614837E+01,      /* K = 62 */
(PID.TID 0000.0001)                -9.648308897776610E+01,      /* K = 63 */
(PID.TID 0000.0001)                -9.812628558521091E+01,      /* K = 64 */
(PID.TID 0000.0001)                -9.981152758626635E+01,      /* K = 65 */
(PID.TID 0000.0001)                -1.015398908200109E+02,      /* K = 66 */
(PID.TID 0000.0001)                -1.033124786536211E+02,      /* K = 67 */
(PID.TID 0000.0001)                -1.051304226867488E+02,      /* K = 68 */
(PID.TID 0000.0001)                -1.069948834739207E+02,      /* K = 69 */
(PID.TID 0000.0001)                -1.089070512654238E+02,      /* K = 70 */
(PID.TID 0000.0001)                -1.108681467671467E+02,      /* K = 71 */
(PID.TID 0000.0001)                -1.128794219198648E+02,      /* K = 72 */
(PID.TID 0000.0001)                -1.149421606984644E+02,      /* K = 73 */
(PID.TID 0000.0001)                -1.170576799316178E+02,      /* K = 74 */
(PID.TID 0000.0001)                -1.192273301424313E+02,      /* K = 75 */
(PID.TID 0000.0001)                -1.214524964106038E+02,      /* K = 76 */
(PID.TID 0000.0001)                -1.237345992566457E+02,      /* K = 77 */
(PID.TID 0000.0001)                -1.260750955487226E+02,      /* K = 78 */
(PID.TID 0000.0001)                -1.284754794327035E+02,      /* K = 79 */
(PID.TID 0000.0001)                -1.309372832860059E+02,      /* K = 80 */
(PID.TID 0000.0001)                -1.334620786958484E+02,      /* K = 81 */
(PID.TID 0000.0001)                -1.360514774625335E+02,      /* K = 82 */
(PID.TID 0000.0001)                -1.387071326284022E+02,      /* K = 83 */
(PID.TID 0000.0001)                -1.414307395331177E+02,      /* K = 84 */
(PID.TID 0000.0001)                -1.442240368959504E+02,      /* K = 85 */
(PID.TID 0000.0001)                -1.470888079257563E+02,      /* K = 86 */
(PID.TID 0000.0001)                -1.500268814593567E+02,      /* K = 87 */
(PID.TID 0000.0001)                -1.530401331290472E+02,      /* K = 88 */
(PID.TID 0000.0001)                -1.561304865599793E+02,      /* K = 89 */
(PID.TID 0000.0001)                -1.592999145981803E+02,      /* K = 90 */
(PID.TID 0000.0001)                -1.625504405699963E+02,      /* K = 91 */
(PID.TID 0000.0001)                -1.658841395737594E+02,      /* K = 92 */
(PID.TID 0000.0001)                -1.693031398045076E+02,      /* K = 93 */
(PID.TID 0000.0001)                -1.728096239125991E+02,      /* K = 94 */
(PID.TID 0000.0001)                -1.764058303970916E+02,      /* K = 95 */
(PID.TID 0000.0001)                -1.800940550347745E+02,      /* K = 96 */
(PID.TID 0000.0001)                -1.838766523457657E+02,      /* K = 97 */
(PID.TID 0000.0001)                -1.877560370966108E+02,      /* K = 98 */
(PID.TID 0000.0001)                -1.917346858418419E+02,      /* K = 99 */
(PID.TID 0000.0001)                -1.958151385049813E+02,      /* K =100 */
(PID.TID 0000.0001)                -2.000000000000000E+02       /* K =101 */
(PID.TID 0000.0001)     ;
(PID.TID 0000.0001) deepFacC = /* deep-model grid factor @ cell-Center (-) */
(PID.TID 0000.0001)   100 @  1.000000000000000E+00              /* K =  1:100 */
(PID.TID 0000.0001)     ;
(PID.TID 0000.0001) deepFacF = /* deep-model grid factor @ W-Interface (-) */
(PID.TID 0000.0001)   101 @  1.000000000000000E+00              /* K =  1:101 */
(PID.TID 0000.0001)     ;
(PID.TID 0000.0001) rVel2wUnit = /* convert units: rVel -> wSpeed (=1 if z-coord)*/
(PID.TID 0000.0001)   101 @  1.000000000000000E+00              /* K =  1:101 */
(PID.TID 0000.0001)     ;
(PID.TID 0000.0001) wUnit2rVel = /* convert units: wSpeed -> rVel (=1 if z-coord)*/
(PID.TID 0000.0001)   101 @  1.000000000000000E+00              /* K =  1:101 */
(PID.TID 0000.0001)     ;
(PID.TID 0000.0001) dBdrRef = /* Vertical grad. of reference buoyancy [(m/s/r)^2] */
(PID.TID 0000.0001)    75 @  0.000000000000000E+00,             /* K =  1: 75 */
(PID.TID 0000.0001)                 5.825604791735191E-07,      /* K = 76 */
(PID.TID 0000.0001)                 1.881044027114069E-05,      /* K = 77 */
(PID.TID 0000.0001)                 2.234407706281814E-04,      /* K = 78 */
(PID.TID 0000.0001)                 9.764081562253908E-04,      /* K = 79 */
(PID.TID 0000.0001)                 1.569661096815331E-03,      /* K = 80 */
(PID.TID 0000.0001)                 9.282947811351950E-04,      /* K = 81 */
(PID.TID 0000.0001)                 2.019628270015629E-04,      /* K = 82 */
(PID.TID 0000.0001)                 1.616450803921616E-05,      /* K = 83 */
(PID.TID 0000.0001)                 4.759475110681318E-07,      /* K = 84 */
(PID.TID 0000.0001)    16 @  0.000000000000000E+00              /* K = 85:100 */
(PID.TID 0000.0001)     ;
(PID.TID 0000.0001) rotateGrid = /* use rotated grid ( True/False ) */
(PID.TID 0000.0001)                   F
(PID.TID 0000.0001)     ;
(PID.TID 0000.0001) phiEuler = /* Euler angle, rotation about original z-coordinate [rad] */
(PID.TID 0000.0001)                 0.000000000000000E+00
(PID.TID 0000.0001)     ;
(PID.TID 0000.0001) thetaEuler = /* Euler angle, rotation about new x-coordinate [rad] */
(PID.TID 0000.0001)                 0.000000000000000E+00
(PID.TID 0000.0001)     ;
(PID.TID 0000.0001) psiEuler = /* Euler angle, rotation about new z-coordinate [rad] */
(PID.TID 0000.0001)                 0.000000000000000E+00
(PID.TID 0000.0001)     ;
(PID.TID 0000.0001) dxF =  /* dxF(:,1,:,1) ( units: m ) */
(PID.TID 0000.0001)                 1.263294638016668E+03,      /* I =  1 */
(PID.TID 0000.0001)                 1.237496063806571E+03,      /* I =  2 */
(PID.TID 0000.0001)                 1.212224339320398E+03,      /* I =  3 */
(PID.TID 0000.0001)      . . .
(PID.TID 0000.0001)                 4.790113490274632E+02,      /* I = 48 */
(PID.TID 0000.0001)                 4.692291418815790E+02,      /* I = 49 */
(PID.TID 0000.0001)                 4.596467036489769E+02,      /* I = 50 */
(PID.TID 0000.0001)                 4.502599547167311E+02,      /* I = 51 */
(PID.TID 0000.0001)                 4.410648987843862E+02,      /* I = 52 */
(PID.TID 0000.0001)                 4.320576211625778E+02,      /* I = 53 */
(PID.TID 0000.0001)      . . .
(PID.TID 0000.0001)                 2.000000000000000E+02,      /* I = 98 */
(PID.TID 0000.0001)                 2.000000000000000E+02,      /* I = 99 */
(PID.TID 0000.0001)                 2.000000000000000E+02,      /* I =100 */
(PID.TID 0000.0001)                 2.000000000000000E+02,      /* I =101 */
(PID.TID 0000.0001)                 2.000000000000000E+02,      /* I =102 */
(PID.TID 0000.0001)                 2.000000000000000E+02,      /* I =103 */
(PID.TID 0000.0001)      . . .
(PID.TID 0000.0001)                 3.612641354876311E+02,      /* I =148 */
(PID.TID 0000.0001)                 3.687955530665730E+02,      /* I =149 */
(PID.TID 0000.0001)                 3.764839811128614E+02,      /* I =150 */
(PID.TID 0000.0001)                 3.843326928863569E+02,      /* I =151 */
(PID.TID 0000.0001)                 3.923450298858749E+02,      /* I =152 */
(PID.TID 0000.0001)                 4.005244032717896E+02,      /* I =153 */
(PID.TID 0000.0001)      . . .
(PID.TID 0000.0001)                 1.013599012055986E+03,      /* I =198 */
(PID.TID 0000.0001)                 1.034729915092050E+03,      /* I =199 */
(PID.TID 0000.0001)                 1.056301342495056E+03       /* I =200 */
(PID.TID 0000.0001)     ;
(PID.TID 0000.0001) dxF =  /* dxF(1,:,1,:) ( units: m ) */
(PID.TID 0000.0001)                 1.263294638016668E+03       /* J =  1 */
(PID.TID 0000.0001)     ;
(PID.TID 0000.0001) dyF =  /* dyF(:,1,:,1) ( units: m ) */
(PID.TID 0000.0001)   200 @  5.000000000000000E+03              /* I =  1:200 */
(PID.TID 0000.0001)     ;
(PID.TID 0000.0001) dyF =  /* dyF(1,:,1,:) ( units: m ) */
(PID.TID 0000.0001)                 5.000000000000000E+03       /* J =  1 */
(PID.TID 0000.0001)     ;
(PID.TID 0000.0001) dxG =  /* dxG(:,1,:,1) ( units: m ) */
(PID.TID 0000.0001)                 1.263294638016668E+03,      /* I =  1 */
(PID.TID 0000.0001)                 1.237496063806571E+03,      /* I =  2 */
(PID.TID 0000.0001)                 1.212224339320398E+03,      /* I =  3 */
(PID.TID 0000.0001)      . . .
(PID.TID 0000.0001)                 4.790113490274632E+02,      /* I = 48 */
(PID.TID 0000.0001)                 4.692291418815790E+02,      /* I = 49 */
(PID.TID 0000.0001)                 4.596467036489769E+02,      /* I = 50 */
(PID.TID 0000.0001)                 4.502599547167311E+02,      /* I = 51 */
(PID.TID 0000.0001)                 4.410648987843862E+02,      /* I = 52 */
(PID.TID 0000.0001)                 4.320576211625778E+02,      /* I = 53 */
(PID.TID 0000.0001)      . . .
(PID.TID 0000.0001)                 2.000000000000000E+02,      /* I = 98 */
(PID.TID 0000.0001)                 2.000000000000000E+02,      /* I = 99 */
(PID.TID 0000.0001)                 2.000000000000000E+02,      /* I =100 */
(PID.TID 0000.0001)                 2.000000000000000E+02,      /* I =101 */
(PID.TID 0000.0001)                 2.000000000000000E+02,      /* I =102 */
(PID.TID 0000.0001)                 2.000000000000000E+02,      /* I =103 */
(PID.TID 0000.0001)      . . .
(PID.TID 0000.0001)                 3.612641354876311E+02,      /* I =148 */
(PID.TID 0000.0001)                 3.687955530665730E+02,      /* I =149 */
(PID.TID 0000.0001)                 3.764839811128614E+02,      /* I =150 */
(PID.TID 0000.0001)                 3.843326928863569E+02,      /* I =151 */
(PID.TID 0000.0001)                 3.923450298858749E+02,      /* I =152 */
(PID.TID 0000.0001)                 4.005244032717896E+02,      /* I =153 */
(PID.TID 0000.0001)      . . .
(PID.TID 0000.0001)                 1.013599012055986E+03,      /* I =198 */
(PID.TID 0000.0001)                 1.034729915092050E+03,      /* I =199 */
(PID.TID 0000.0001)                 1.056301342495056E+03       /* I =200 */
(PID.TID 0000.0001)     ;
(PID.TID 0000.0001) dxG =  /* dxG(1,:,1,:) ( units: m ) */
(PID.TID 0000.0001)                 1.263294638016668E+03       /* J =  1 */
(PID.TID 0000.0001)     ;
(PID.TID 0000.0001) dyG =  /* dyG(:,1,:,1) ( units: m ) */
(PID.TID 0000.0001)   200 @  5.000000000000000E+03              /* I =  1:200 */
(PID.TID 0000.0001)     ;
(PID.TID 0000.0001) dyG =  /* dyG(1,:,1,:) ( units: m ) */
(PID.TID 0000.0001)                 5.000000000000000E+03       /* J =  1 */
(PID.TID 0000.0001)     ;
(PID.TID 0000.0001) dxC =  /* dxC(:,1,:,1) ( units: m ) */
(PID.TID 0000.0001)                 1.159797990255862E+03,      /* I =  1 */
(PID.TID 0000.0001)                 1.250395350911620E+03,      /* I =  2 */
(PID.TID 0000.0001)                 1.224860201563485E+03,      /* I =  3 */
(PID.TID 0000.0001)      . . .
(PID.TID 0000.0001)                 4.840044193881684E+02,      /* I = 48 */
(PID.TID 0000.0001)                 4.741202454545211E+02,      /* I = 49 */
(PID.TID 0000.0001)                 4.644379227652780E+02,      /* I = 50 */
(PID.TID 0000.0001)                 4.549533291828540E+02,      /* I = 51 */
(PID.TID 0000.0001)                 4.456624267505587E+02,      /* I = 52 */
(PID.TID 0000.0001)                 4.365612599734820E+02,      /* I = 53 */
(PID.TID 0000.0001)      . . .
(PID.TID 0000.0001)                 2.000000000000000E+02,      /* I = 98 */
(PID.TID 0000.0001)                 2.000000000000000E+02,      /* I = 99 */
(PID.TID 0000.0001)                 2.000000000000000E+02,      /* I =100 */
(PID.TID 0000.0001)                 2.000000000000000E+02,      /* I =101 */
(PID.TID 0000.0001)                 2.000000000000000E+02,      /* I =102 */
(PID.TID 0000.0001)                 2.000000000000000E+02,      /* I =103 */
(PID.TID 0000.0001)      . . .
(PID.TID 0000.0001)                 3.575753287246037E+02,      /* I =148 */
(PID.TID 0000.0001)                 3.650298442771020E+02,      /* I =149 */
(PID.TID 0000.0001)                 3.726397670897172E+02,      /* I =150 */
(PID.TID 0000.0001)                 3.804083369996092E+02,      /* I =151 */
(PID.TID 0000.0001)                 3.883388613861159E+02,      /* I =152 */
(PID.TID 0000.0001)                 3.964347165788323E+02,      /* I =153 */
(PID.TID 0000.0001)      . . .
(PID.TID 0000.0001)                 1.003249324601893E+03,      /* I =198 */
(PID.TID 0000.0001)                 1.024164463574018E+03,      /* I =199 */
(PID.TID 0000.0001)                 1.045515628793553E+03       /* I =200 */
(PID.TID 0000.0001)     ;
(PID.TID 0000.0001) dxC =  /* dxC(1,:,1,:) ( units: m ) */
(PID.TID 0000.0001)                 1.159797990255862E+03       /* J =  1 */
(PID.TID 0000.0001)     ;
(PID.TID 0000.0001) dyC =  /* dyC(:,1,:,1) ( units: m ) */
(PID.TID 0000.0001)   200 @  5.000000000000000E+03              /* I =  1:200 */
(PID.TID 0000.0001)     ;
(PID.TID 0000.0001) dyC =  /* dyC(1,:,1,:) ( units: m ) */
(PID.TID 0000.0001)                 5.000000000000000E+03       /* J =  1 */
(PID.TID 0000.0001)     ;
(PID.TID 0000.0001) dxV =  /* dxV(:,1,:,1) ( units: m ) */
(PID.TID 0000.0001)                 1.159797990255862E+03,      /* I =  1 */
(PID.TID 0000.0001)                 1.250395350911620E+03,      /* I =  2 */
(PID.TID 0000.0001)                 1.224860201563485E+03,      /* I =  3 */
(PID.TID 0000.0001)      . . .
(PID.TID 0000.0001)                 4.840044193881684E+02,      /* I = 48 */
(PID.TID 0000.0001)                 4.741202454545211E+02,      /* I = 49 */
(PID.TID 0000.0001)                 4.644379227652780E+02,      /* I = 50 */
(PID.TID 0000.0001)                 4.549533291828540E+02,      /* I = 51 */
(PID.TID 0000.0001)                 4.456624267505587E+02,      /* I = 52 */
(PID.TID 0000.0001)                 4.365612599734820E+02,      /* I = 53 */
(PID.TID 0000.0001)      . . .
(PID.TID 0000.0001)                 2.000000000000000E+02,      /* I = 98 */
(PID.TID 0000.0001)                 2.000000000000000E+02,      /* I = 99 */
(PID.TID 0000.0001)                 2.000000000000000E+02,      /* I =100 */
(PID.TID 0000.0001)                 2.000000000000000E+02,      /* I =101 */
(PID.TID 0000.0001)                 2.000000000000000E+02,      /* I =102 */
(PID.TID 0000.0001)                 2.000000000000000E+02,      /* I =103 */
(PID.TID 0000.0001)      . . .
(PID.TID 0000.0001)                 3.575753287246037E+02,      /* I =148 */
(PID.TID 0000.0001)                 3.650298442771020E+02,      /* I =149 */
(PID.TID 0000.0001)                 3.726397670897172E+02,      /* I =150 */
(PID.TID 0000.0001)                 3.804083369996092E+02,      /* I =151 */
(PID.TID 0000.0001)                 3.883388613861159E+02,      /* I =152 */
(PID.TID 0000.0001)                 3.964347165788323E+02,      /* I =153 */
(PID.TID 0000.0001)      . . .
(PID.TID 0000.0001)                 1.003249324601893E+03,      /* I =198 */
(PID.TID 0000.0001)                 1.024164463574018E+03,      /* I =199 */
(PID.TID 0000.0001)                 1.045515628793553E+03       /* I =200 */
(PID.TID 0000.0001)     ;
(PID.TID 0000.0001) dxV =  /* dxV(1,:,1,:) ( units: m ) */
(PID.TID 0000.0001)                 1.159797990255862E+03       /* J =  1 */
(PID.TID 0000.0001)     ;
(PID.TID 0000.0001) dyU =  /* dyU(:,1,:,1) ( units: m ) */
(PID.TID 0000.0001)   200 @  5.000000000000000E+03              /* I =  1:200 */
(PID.TID 0000.0001)     ;
(PID.TID 0000.0001) dyU =  /* dyU(1,:,1,:) ( units: m ) */
(PID.TID 0000.0001)                 5.000000000000000E+03       /* J =  1 */
(PID.TID 0000.0001)     ;
(PID.TID 0000.0001) rA  =  /* rA (:,1,:,1) ( units: m^2 ) */
(PID.TID 0000.0001)                 6.316473190083342E+06,      /* I =  1 */
(PID.TID 0000.0001)                 6.187480319032855E+06,      /* I =  2 */
(PID.TID 0000.0001)                 6.061121696601991E+06,      /* I =  3 */
(PID.TID 0000.0001)      . . .
(PID.TID 0000.0001)                 2.395056745137316E+06,      /* I = 48 */
(PID.TID 0000.0001)                 2.346145709407895E+06,      /* I = 49 */
(PID.TID 0000.0001)                 2.298233518244884E+06,      /* I = 50 */
(PID.TID 0000.0001)                 2.251299773583656E+06,      /* I = 51 */
(PID.TID 0000.0001)                 2.205324493921931E+06,      /* I = 52 */
(PID.TID 0000.0001)                 2.160288105812889E+06,      /* I = 53 */
(PID.TID 0000.0001)      . . .
(PID.TID 0000.0001)                 1.000000000000000E+06,      /* I = 98 */
(PID.TID 0000.0001)                 1.000000000000000E+06,      /* I = 99 */
(PID.TID 0000.0001)                 1.000000000000000E+06,      /* I =100 */
(PID.TID 0000.0001)                 1.000000000000000E+06,      /* I =101 */
(PID.TID 0000.0001)                 1.000000000000000E+06,      /* I =102 */
(PID.TID 0000.0001)                 1.000000000000000E+06,      /* I =103 */
(PID.TID 0000.0001)      . . .
(PID.TID 0000.0001)                 1.806320677438155E+06,      /* I =148 */
(PID.TID 0000.0001)                 1.843977765332865E+06,      /* I =149 */
(PID.TID 0000.0001)                 1.882419905564307E+06,      /* I =150 */
(PID.TID 0000.0001)                 1.921663464431785E+06,      /* I =151 */
(PID.TID 0000.0001)                 1.961725149429375E+06,      /* I =152 */
(PID.TID 0000.0001)                 2.002622016358948E+06,      /* I =153 */
(PID.TID 0000.0001)      . . .
(PID.TID 0000.0001)                 5.067995060279928E+06,      /* I =198 */
(PID.TID 0000.0001)                 5.173649575460250E+06,      /* I =199 */
(PID.TID 0000.0001)                 5.281506712475282E+06       /* I =200 */
(PID.TID 0000.0001)     ;
(PID.TID 0000.0001) rA  =  /* rA (1,:,1,:) ( units: m^2 ) */
(PID.TID 0000.0001)                 6.316473190083342E+06       /* J =  1 */
(PID.TID 0000.0001)     ;
(PID.TID 0000.0001) rAw =  /* rAw(:,1,:,1) ( units: m^2 ) */
(PID.TID 0000.0001)                 5.798989951279311E+06,      /* I =  1 */
(PID.TID 0000.0001)                 6.251976754558099E+06,      /* I =  2 */
(PID.TID 0000.0001)                 6.124301007817423E+06,      /* I =  3 */
(PID.TID 0000.0001)      . . .
(PID.TID 0000.0001)                 2.420022096940842E+06,      /* I = 48 */
(PID.TID 0000.0001)                 2.370601227272606E+06,      /* I = 49 */
(PID.TID 0000.0001)                 2.322189613826390E+06,      /* I = 50 */
(PID.TID 0000.0001)                 2.274766645914270E+06,      /* I = 51 */
(PID.TID 0000.0001)                 2.228312133752794E+06,      /* I = 52 */
(PID.TID 0000.0001)                 2.182806299867410E+06,      /* I = 53 */
(PID.TID 0000.0001)      . . .
(PID.TID 0000.0001)                 1.000000000000000E+06,      /* I = 98 */
(PID.TID 0000.0001)                 1.000000000000000E+06,      /* I = 99 */
(PID.TID 0000.0001)                 1.000000000000000E+06,      /* I =100 */
(PID.TID 0000.0001)                 1.000000000000000E+06,      /* I =101 */
(PID.TID 0000.0001)                 1.000000000000000E+06,      /* I =102 */
(PID.TID 0000.0001)                 1.000000000000000E+06,      /* I =103 */
(PID.TID 0000.0001)      . . .
(PID.TID 0000.0001)                 1.787876643623018E+06,      /* I =148 */
(PID.TID 0000.0001)                 1.825149221385510E+06,      /* I =149 */
(PID.TID 0000.0001)                 1.863198835448586E+06,      /* I =150 */
(PID.TID 0000.0001)                 1.902041684998046E+06,      /* I =151 */
(PID.TID 0000.0001)                 1.941694306930580E+06,      /* I =152 */
(PID.TID 0000.0001)                 1.982173582894161E+06,      /* I =153 */
(PID.TID 0000.0001)      . . .
(PID.TID 0000.0001)                 5.016246623009465E+06,      /* I =198 */
(PID.TID 0000.0001)                 5.120822317870088E+06,      /* I =199 */
(PID.TID 0000.0001)                 5.227578143967765E+06       /* I =200 */
(PID.TID 0000.0001)     ;
(PID.TID 0000.0001) rAw =  /* rAw(1,:,1,:) ( units: m^2 ) */
(PID.TID 0000.0001)                 5.798989951279311E+06       /* J =  1 */
(PID.TID 0000.0001)     ;
(PID.TID 0000.0001) rAs =  /* rAs(:,1,:,1) ( units: m^2 ) */
(PID.TID 0000.0001)                 6.316473190083342E+06,      /* I =  1 */
(PID.TID 0000.0001)                 6.187480319032855E+06,      /* I =  2 */
(PID.TID 0000.0001)                 6.061121696601991E+06,      /* I =  3 */
(PID.TID 0000.0001)      . . .
(PID.TID 0000.0001)                 2.395056745137316E+06,      /* I = 48 */
(PID.TID 0000.0001)                 2.346145709407895E+06,      /* I = 49 */
(PID.TID 0000.0001)                 2.298233518244884E+06,      /* I = 50 */
(PID.TID 0000.0001)                 2.251299773583656E+06,      /* I = 51 */
(PID.TID 0000.0001)                 2.205324493921931E+06,      /* I = 52 */
(PID.TID 0000.0001)                 2.160288105812889E+06,      /* I = 53 */
(PID.TID 0000.0001)      . . .
(PID.TID 0000.0001)                 1.000000000000000E+06,      /* I = 98 */
(PID.TID 0000.0001)                 1.000000000000000E+06,      /* I = 99 */
(PID.TID 0000.0001)                 1.000000000000000E+06,      /* I =100 */
(PID.TID 0000.0001)                 1.000000000000000E+06,      /* I =101 */
(PID.TID 0000.0001)                 1.000000000000000E+06,      /* I =102 */
(PID.TID 0000.0001)                 1.000000000000000E+06,      /* I =103 */
(PID.TID 0000.0001)      . . .
(PID.TID 0000.0001)                 1.806320677438155E+06,      /* I =148 */
(PID.TID 0000.0001)                 1.843977765332865E+06,      /* I =149 */
(PID.TID 0000.0001)                 1.882419905564307E+06,      /* I =150 */
(PID.TID 0000.0001)                 1.921663464431785E+06,      /* I =151 */
(PID.TID 0000.0001)                 1.961725149429375E+06,      /* I =152 */
(PID.TID 0000.0001)                 2.002622016358948E+06,      /* I =153 */
(PID.TID 0000.0001)      . . .
(PID.TID 0000.0001)                 5.067995060279928E+06,      /* I =198 */
(PID.TID 0000.0001)                 5.173649575460250E+06,      /* I =199 */
(PID.TID 0000.0001)                 5.281506712475282E+06       /* I =200 */
(PID.TID 0000.0001)     ;
(PID.TID 0000.0001) rAs =  /* rAs(1,:,1,:) ( units: m^2 ) */
(PID.TID 0000.0001)                 6.316473190083342E+06       /* J =  1 */
(PID.TID 0000.0001)     ;
(PID.TID 0000.0001) globalArea = /* Integrated horizontal Area (m^2) */
(PID.TID 0000.0001)                 4.884020200974414E+08
(PID.TID 0000.0001)     ;
(PID.TID 0000.0001) // =======================================================
(PID.TID 0000.0001) // End of Model config. summary
(PID.TID 0000.0001) // =======================================================
(PID.TID 0000.0001) 
(PID.TID 0000.0001) == Packages configuration : Check & print summary ==
(PID.TID 0000.0001) 
(PID.TID 0000.0001) OBCS_CHECK: #define ALLOW_OBCS
(PID.TID 0000.0001) OBCS_CHECK: start summary:
(PID.TID 0000.0001) useOBCSprescribe = /* prescribe OB values */
(PID.TID 0000.0001)                   T
(PID.TID 0000.0001)     ;
(PID.TID 0000.0001) useOBCSbalance = /* balance the flow through OB */
(PID.TID 0000.0001)                   F
(PID.TID 0000.0001)     ;
(PID.TID 0000.0001) OBCS_uvApplyFac = /* Factor to apply to U,V 2nd column/row */
(PID.TID 0000.0001)                 1.000000000000000E+00
(PID.TID 0000.0001)     ;
(PID.TID 0000.0001) OBCS_u1_adv_T = /* Temp uses upwind adv-scheme @ OB */
(PID.TID 0000.0001)                       0
(PID.TID 0000.0001)     ;
(PID.TID 0000.0001) OBCS_u1_adv_S = /* Salt uses upwind adv-scheme @ OB */
(PID.TID 0000.0001)                       0
(PID.TID 0000.0001)     ;
(PID.TID 0000.0001) OBCS_monitorFreq = /* monitor output frequency [s] */
(PID.TID 0000.0001)                 7.200000000000000E+03
(PID.TID 0000.0001)     ;
(PID.TID 0000.0001) OBCS_monSelect = /* select group of variables to monitor */
(PID.TID 0000.0001)                       0
(PID.TID 0000.0001)     ;
(PID.TID 0000.0001) useOBCStides = /* apply tidal forcing through OB */
(PID.TID 0000.0001)                   F
(PID.TID 0000.0001)     ;
(PID.TID 0000.0001) tidalPeriod = /* (s) */
(PID.TID 0000.0001)    10 @  0.000000000000000E+00              /* I =  1: 10 */
(PID.TID 0000.0001)     ;
(PID.TID 0000.0001) OB_indexNone = /* null value for OB index (i.e. no OB) */
(PID.TID 0000.0001)                     -99
(PID.TID 0000.0001)     ;
(PID.TID 0000.0001) ======== Tile bi=   1 , bj=   1 ========
(PID.TID 0000.0001)  OB_Jn = /* Northern OB local indices */
(PID.TID 0000.0001)   204 @      -99                            /* I = -1:202 */
(PID.TID 0000.0001)  OB_Js = /* Southern OB local indices */
(PID.TID 0000.0001)   204 @      -99                            /* I = -1:202 */
(PID.TID 0000.0001)  OB_Ie = /* Eastern OB local indices */
(PID.TID 0000.0001)     5 @      200                            /* J = -1:  3 */
(PID.TID 0000.0001)  OB_Iw = /* Western OB local indices */
(PID.TID 0000.0001)     5 @        1                            /* J = -1:  3 */
(PID.TID 0000.0001) OBCS_CHECK: end summary.
(PID.TID 0000.0001) OBCS_CHECK: set-up OK
(PID.TID 0000.0001) OBCS_CHECK: check Inside Mask and OB locations: OK
(PID.TID 0000.0001) KL10_CHECK: #define ALLOW_KL10
(PID.TID 0000.0001) GAD_CHECK: #define ALLOW_GENERIC_ADVDIFF
(PID.TID 0000.0001) // =======================================================
(PID.TID 0000.0001) // Check Model config. (CONFIG_CHECK):
(PID.TID 0000.0001) // CONFIG_CHECK : Normal End
(PID.TID 0000.0001) // =======================================================
(PID.TID 0000.0001) 
(PID.TID 0000.0001)  MDS_READ_FIELD: opening global file: U0.bin
(PID.TID 0000.0001)  MDS_READ_FIELD: opening global file: T0.bin
(PID.TID 0000.0001) Start initial hydrostatic pressure computation
(PID.TID 0000.0001) Pressure is predetermined for buoyancyRelation OCEANIC
(PID.TID 0000.0001) 
(PID.TID 0000.0001)  OBCS_FIELDS_LOAD: Reading initial data:         0  0.000000000000E+00
(PID.TID 0000.0001)  MDS_READ_SEC_YZ: opening global file: U_in.bin
(PID.TID 0000.0001)  MDS_READ_SEC_YZ: opening global file: TE.bin
(PID.TID 0000.0001)  MDS_READ_SEC_YZ: opening global file: U_in.bin
(PID.TID 0000.0001)  MDS_READ_SEC_YZ: opening global file: TW.bin
(PID.TID 0000.0001) // =======================================================
(PID.TID 0000.0001) // Model current state
(PID.TID 0000.0001) // =======================================================
(PID.TID 0000.0001) 
(PID.TID 0000.0001) // =======================================================
(PID.TID 0000.0001) // Begin MONITOR dynamic field statistics
(PID.TID 0000.0001) // =======================================================
(PID.TID 0000.0001) %MON time_tsnumber                =                     0
(PID.TID 0000.0001) %MON time_secondsf                =   0.0000000000000E+00
(PID.TID 0000.0001) %MON dynstat_eta_max              =   0.0000000000000E+00
(PID.TID 0000.0001) %MON dynstat_eta_min              =   0.0000000000000E+00
(PID.TID 0000.0001) %MON dynstat_eta_mean             =   0.0000000000000E+00
(PID.TID 0000.0001) %MON dynstat_eta_sd               =   0.0000000000000E+00
(PID.TID 0000.0001) %MON dynstat_eta_del2             =   0.0000000000000E+00
(PID.TID 0000.0001) %MON dynstat_uvel_max             =   3.3404902334837E-01
(PID.TID 0000.0001) %MON dynstat_uvel_min             =   3.3404902334837E-01
(PID.TID 0000.0001) %MON dynstat_uvel_mean            =   3.3404902334837E-01
(PID.TID 0000.0001) %MON dynstat_uvel_sd              =   1.1657341758564E-15
(PID.TID 0000.0001) %MON dynstat_uvel_del2            =   0.0000000000000E+00
(PID.TID 0000.0001) %MON dynstat_vvel_max             =   0.0000000000000E+00
(PID.TID 0000.0001) %MON dynstat_vvel_min             =   0.0000000000000E+00
(PID.TID 0000.0001) %MON dynstat_vvel_mean            =   0.0000000000000E+00
(PID.TID 0000.0001) %MON dynstat_vvel_sd              =   0.0000000000000E+00
(PID.TID 0000.0001) %MON dynstat_vvel_del2            =   0.0000000000000E+00
(PID.TID 0000.0001) %MON dynstat_wvel_max             =   7.0854768366360E-03
(PID.TID 0000.0001) %MON dynstat_wvel_min             =  -7.0854768366360E-03
(PID.TID 0000.0001) %MON dynstat_wvel_mean            =   9.0537229622088E-21
(PID.TID 0000.0001) %MON dynstat_wvel_sd              =   1.4102475793557E-03
(PID.TID 0000.0001) %MON dynstat_wvel_del2            =   1.3267790138619E-06
(PID.TID 0000.0001) %MON dynstat_theta_max            =   1.5000000000000E+01
(PID.TID 0000.0001) %MON dynstat_theta_min            =   1.0000000000000E+01
(PID.TID 0000.0001) %MON dynstat_theta_mean           =   1.3335043390653E+01
(PID.TID 0000.0001) %MON dynstat_theta_sd             =   2.3199864738194E+00
(PID.TID 0000.0001) %MON dynstat_theta_del2           =   0.0000000000000E+00
(PID.TID 0000.0001) %MON dynstat_salt_max             =   3.5000000000000E+01
(PID.TID 0000.0001) %MON dynstat_salt_min             =   3.5000000000000E+01
(PID.TID 0000.0001) %MON dynstat_salt_mean            =   3.5000000000000E+01
(PID.TID 0000.0001) %MON dynstat_salt_sd              =   2.1316282072803E-14
(PID.TID 0000.0001) %MON dynstat_salt_del2            =   0.0000000000000E+00
(PID.TID 0000.0001) %MON dynstat_sst_max              =   1.5000000000000E+01
(PID.TID 0000.0001) %MON dynstat_sst_min              =   1.5000000000000E+01
(PID.TID 0000.0001) %MON dynstat_sst_mean             =   1.5000000000000E+01
(PID.TID 0000.0001) %MON dynstat_sst_sd               =   3.5527136788005E-14
(PID.TID 0000.0001) %MON dynstat_sst_del2             =   0.0000000000000E+00
(PID.TID 0000.0001) %MON dynstat_sss_max              =   3.5000000000000E+01
(PID.TID 0000.0001) %MON dynstat_sss_min              =   3.5000000000000E+01
(PID.TID 0000.0001) %MON dynstat_sss_mean             =   3.5000000000000E+01
(PID.TID 0000.0001) %MON dynstat_sss_sd               =   7.8159700933611E-14
(PID.TID 0000.0001) %MON dynstat_sss_del2             =   0.0000000000000E+00
(PID.TID 0000.0001) %MON forcing_qnet_max             =   0.0000000000000E+00
(PID.TID 0000.0001) %MON forcing_qnet_min             =   0.0000000000000E+00
(PID.TID 0000.0001) %MON forcing_qnet_mean            =   0.0000000000000E+00
(PID.TID 0000.0001) %MON forcing_qnet_sd              =   0.0000000000000E+00
(PID.TID 0000.0001) %MON forcing_qnet_del2            =   0.0000000000000E+00
(PID.TID 0000.0001) %MON forcing_qsw_max              =   0.0000000000000E+00
(PID.TID 0000.0001) %MON forcing_qsw_min              =   0.0000000000000E+00
(PID.TID 0000.0001) %MON forcing_qsw_mean             =   0.0000000000000E+00
(PID.TID 0000.0001) %MON forcing_qsw_sd               =   0.0000000000000E+00
(PID.TID 0000.0001) %MON forcing_qsw_del2             =   0.0000000000000E+00
(PID.TID 0000.0001) %MON forcing_empmr_max            =   0.0000000000000E+00
(PID.TID 0000.0001) %MON forcing_empmr_min            =   0.0000000000000E+00
(PID.TID 0000.0001) %MON forcing_empmr_mean           =   0.0000000000000E+00
(PID.TID 0000.0001) %MON forcing_empmr_sd             =   0.0000000000000E+00
(PID.TID 0000.0001) %MON forcing_empmr_del2           =   0.0000000000000E+00
(PID.TID 0000.0001) %MON forcing_fu_max               =   0.0000000000000E+00
(PID.TID 0000.0001) %MON forcing_fu_min               =   0.0000000000000E+00
(PID.TID 0000.0001) %MON forcing_fu_mean              =   0.0000000000000E+00
(PID.TID 0000.0001) %MON forcing_fu_sd                =   0.0000000000000E+00
(PID.TID 0000.0001) %MON forcing_fu_del2              =   0.0000000000000E+00
(PID.TID 0000.0001) %MON forcing_fv_max               =   0.0000000000000E+00
(PID.TID 0000.0001) %MON forcing_fv_min               =   0.0000000000000E+00
(PID.TID 0000.0001) %MON forcing_fv_mean              =   0.0000000000000E+00
(PID.TID 0000.0001) %MON forcing_fv_sd                =   0.0000000000000E+00
(PID.TID 0000.0001) %MON forcing_fv_del2              =   0.0000000000000E+00
(PID.TID 0000.0001) %MON advcfl_uvel_max              =   2.5053676751128E-02
(PID.TID 0000.0001) %MON advcfl_vvel_max              =   0.0000000000000E+00
(PID.TID 0000.0001) %MON advcfl_wvel_max              =   1.0628215254954E-01
(PID.TID 0000.0001) %MON advcfl_W_hf_max              =   1.0628215254954E-01
(PID.TID 0000.0001) %MON pe_b_mean                    =   0.0000000000000E+00
(PID.TID 0000.0001) %MON ke_max                       =   5.6182585084927E-02
(PID.TID 0000.0001) %MON ke_mean                      =   5.5758240785633E-02
(PID.TID 0000.0001) %MON ke_vol                       =   9.5889217545975E+10
(PID.TID 0000.0001) %MON vort_r_min                   =   0.0000000000000E+00
(PID.TID 0000.0001) %MON vort_r_max                   =   0.0000000000000E+00
(PID.TID 0000.0001) %MON vort_a_mean                  =   0.0000000000000E+00
(PID.TID 0000.0001) %MON vort_a_sd                    =   0.0000000000000E+00
(PID.TID 0000.0001) %MON vort_p_mean                  =   0.0000000000000E+00
(PID.TID 0000.0001) %MON vort_p_sd                    =   0.0000000000000E+00
(PID.TID 0000.0001) %MON surfExpan_theta_mean         =   6.5545127399448E-19
(PID.TID 0000.0001) %MON surfExpan_salt_mean          =   4.8789190049859E-19
(PID.TID 0000.0001) // =======================================================
(PID.TID 0000.0001) // End MONITOR dynamic field statistics
(PID.TID 0000.0001) // =======================================================
(PID.TID 0000.0001) // =======================================================
(PID.TID 0000.0001) // Begin OBCS MONITOR field statistics
(PID.TID 0000.0001) // =======================================================
(PID.TID 0000.0001) %MON obc_E_uVel_max               =   3.3404902334837E-01
(PID.TID 0000.0001) %MON obc_E_uVel_min               =   3.3404902334837E-01
(PID.TID 0000.0001) %MON obc_E_uVel_mean              =   3.3404902334837E-01
(PID.TID 0000.0001) %MON obc_E_uVel_sd                =   8.3300023432813E-09
(PID.TID 0000.0001) %MON obc_E_uVel_Int               =   3.3404902334837E+05
(PID.TID 0000.0001) %MON obc_W_uVel_max               =   3.3404902334837E-01
(PID.TID 0000.0001) %MON obc_W_uVel_min               =   3.3404902334837E-01
(PID.TID 0000.0001) %MON obc_W_uVel_mean              =   3.3404902334837E-01
(PID.TID 0000.0001) %MON obc_W_uVel_sd                =   8.3300023432813E-09
(PID.TID 0000.0001) %MON obc_W_uVel_Int               =   3.3404902334837E+05
(PID.TID 0000.0001) // =======================================================
(PID.TID 0000.0001) // End OBCS MONITOR field statistics
(PID.TID 0000.0001) // =======================================================
(PID.TID 0000.0001) SOLVE_FOR_PRESSURE: putPmEinXvector =    F
 cg2d: Sum(rhs),rhsMax =  -6.60988319732259E-15  1.02038507221880E-01
 cg2d: Sum(rhs),rhsMax =  -1.95669227204405E-14  1.76001006577748E-01
 cg2d: Sum(rhs),rhsMax =   1.97123098577269E-14  2.24700938588692E-01
 cg2d: Sum(rhs),rhsMax =   5.73304342684719E-14  2.55045645995335E-01
 cg2d: Sum(rhs),rhsMax =   1.55149182433741E-13  2.73109859917329E-01
 cg2d: Sum(rhs),rhsMax =   1.94412803475337E-14  2.84563531812162E-01
 cg2d: Sum(rhs),rhsMax =   7.35553826862149E-14  2.93701972996964E-01
 cg2d: Sum(rhs),rhsMax =   1.69442505567710E-13  3.01937950440311E-01
 cg2d: Sum(rhs),rhsMax =   3.49523257432533E-13  3.09796348226413E-01
 cg2d: Sum(rhs),rhsMax =   3.71636449279591E-13  3.17333397752432E-01
 cg2d: Sum(rhs),rhsMax =   4.32627956711787E-13  3.24918653816609E-01
 cg2d: Sum(rhs),rhsMax =   4.24051731147092E-13  3.32493354443185E-01
 cg2d: Sum(rhs),rhsMax =   3.63616943038016E-13  3.39856580989960E-01
 cg2d: Sum(rhs),rhsMax =   3.24360934414486E-13  3.46999674416112E-01
 cg2d: Sum(rhs),rhsMax =   2.56208316261072E-13  3.54010353043725E-01
 cg2d: Sum(rhs),rhsMax =   1.25301920146174E-13  3.61310816798535E-01
 cg2d: Sum(rhs),rhsMax =   5.97577199162053E-14  3.68348682403643E-01
 cg2d: Sum(rhs),rhsMax =   4.46865482757419E-14  3.74875723661370E-01
 cg2d: Sum(rhs),rhsMax =   5.07831946376746E-14  3.81675956603455E-01
 cg2d: Sum(rhs),rhsMax =   2.75489784564421E-15  3.88387864134757E-01
 cg2d: Sum(rhs),rhsMax =  -5.92501749882663E-14  3.94632057099910E-01
 cg2d: Sum(rhs),rhsMax =  -4.79065797655491E-14  4.01305194373264E-01
 cg2d: Sum(rhs),rhsMax =   2.81548921759733E-14  4.07525382915852E-01
 cg2d: Sum(rhs),rhsMax =   1.56331426128566E-13  4.13607371010434E-01
 cg2d: Sum(rhs),rhsMax =   3.07812317303821E-13  4.20146531794892E-01
 cg2d: Sum(rhs),rhsMax =   3.58358891064219E-13  4.25910859226551E-01
 cg2d: Sum(rhs),rhsMax =   3.54895390283555E-13  4.31732284358679E-01
 cg2d: Sum(rhs),rhsMax =   3.99572852900093E-13  4.38144620770145E-01
 cg2d: Sum(rhs),rhsMax =   4.58700647621845E-13  4.44087136944162E-01
 cg2d: Sum(rhs),rhsMax =   4.96430162399302E-13  4.49667919382546E-01
 cg2d: Sum(rhs),rhsMax =   5.75751092987556E-13  4.54984866117905E-01
 cg2d: Sum(rhs),rhsMax =   5.98873916765868E-13  4.60567726744628E-01
 cg2d: Sum(rhs),rhsMax =   6.31214861195745E-13  4.66530636572253E-01
 cg2d: Sum(rhs),rhsMax =   6.53302092328348E-13  4.72304785177466E-01
 cg2d: Sum(rhs),rhsMax =   7.63821948399079E-13  4.77934914901542E-01
 cg2d: Sum(rhs),rhsMax =   8.75082666919325E-13  4.83454339677025E-01
 cg2d: Sum(rhs),rhsMax =   9.86129580771156E-13  4.88884691335536E-01
 cg2d: Sum(rhs),rhsMax =   1.06534486093990E-12  4.94235684048289E-01
 cg2d: Sum(rhs),rhsMax =   1.15340939924047E-12  4.99504881041157E-01
 cg2d: Sum(rhs),rhsMax =   1.19014260252515E-12  5.04677455133339E-01
 cg2d: Sum(rhs),rhsMax =   1.25915597393167E-12  5.09725948753795E-01
 cg2d: Sum(rhs),rhsMax =   1.33897060106136E-12  5.14610048193823E-01
 cg2d: Sum(rhs),rhsMax =   1.46850587245950E-12  5.19276397807557E-01
 cg2d: Sum(rhs),rhsMax =   1.56090765313088E-12  5.24328757630815E-01
 cg2d: Sum(rhs),rhsMax =   1.63980634626526E-12  5.29916698007246E-01
 cg2d: Sum(rhs),rhsMax =   1.72376696250254E-12  5.35326771739349E-01
 cg2d: Sum(rhs),rhsMax =   1.76329784107310E-12  5.40462061152061E-01
 cg2d: Sum(rhs),rhsMax =   1.79496695285053E-12  5.45211342676167E-01
 cg2d: Sum(rhs),rhsMax =   1.84610660092233E-12  5.49449434174270E-01
 cg2d: Sum(rhs),rhsMax =   1.93137172921354E-12  5.53678416810733E-01
 cg2d: Sum(rhs),rhsMax =   1.98516203475663E-12  5.59481262648691E-01
 cg2d: Sum(rhs),rhsMax =   1.98119298744359E-12  5.64660172081485E-01
 cg2d: Sum(rhs),rhsMax =   1.87372339865988E-12  5.69044621593806E-01
 cg2d: Sum(rhs),rhsMax =   1.84235959821422E-12  5.72455897730526E-01
 cg2d: Sum(rhs),rhsMax =   1.83952852950142E-12  5.78260099131405E-01
 cg2d: Sum(rhs),rhsMax =   1.82198700571234E-12  5.83543251627729E-01
 cg2d: Sum(rhs),rhsMax =   1.82054371578033E-12  5.89789252227154E-01
 cg2d: Sum(rhs),rhsMax =   1.81621384598429E-12  6.10522488601152E-01
 cg2d: Sum(rhs),rhsMax =   1.86284321301855E-12  6.39209598171963E-01
 cg2d: Sum(rhs),rhsMax =   1.81876735894093E-12  6.81243672084187E-01
 cg2d: Sum(rhs),rhsMax =   1.71918035363205E-12  7.40519325403324E-01
 cg2d: Sum(rhs),rhsMax =   1.63402624764331E-12  8.15784165096219E-01
 cg2d: Sum(rhs),rhsMax =   1.62148072746504E-12  8.89165238011623E-01
 cg2d: Sum(rhs),rhsMax =   1.63724589441472E-12  9.56542709941789E-01
 cg2d: Sum(rhs),rhsMax =   1.58761892521397E-12  1.01592568919636E+00
 cg2d: Sum(rhs),rhsMax =   1.58062452015884E-12  1.06555587924384E+00
 cg2d: Sum(rhs),rhsMax =   1.69020353268934E-12  1.10399959528884E+00
 cg2d: Sum(rhs),rhsMax =   1.82243109492219E-12  1.13022012326252E+00
 cg2d: Sum(rhs),rhsMax =   1.96331839674713E-12  1.14362527289756E+00
 cg2d: Sum(rhs),rhsMax =   2.12974082813844E-12  1.14408718991696E+00
 cg2d: Sum(rhs),rhsMax =   2.20790052907205E-12  1.13193391387848E+00
 cg2d: Sum(rhs),rhsMax =   2.38187247703081E-12  1.10791453011650E+00
 cg2d: Sum(rhs),rhsMax =   2.49211762337609E-12  1.07314182530112E+00
 cg2d: Sum(rhs),rhsMax =   2.59692267690070E-12  1.02901791483092E+00
 cg2d: Sum(rhs),rhsMax =   2.68596256347564E-12  9.77149250848558E-01
 cg2d: Sum(rhs),rhsMax =   2.49578135935735E-12  1.02953276684643E+00
 cg2d: Sum(rhs),rhsMax =   2.29360974657311E-12  1.09397670944324E+00
 cg2d: Sum(rhs),rhsMax =   2.09410266904797E-12  1.15026603600638E+00
 cg2d: Sum(rhs),rhsMax =   1.91502369517593E-12  1.19699649123500E+00
 cg2d: Sum(rhs),rhsMax =   1.72184488889116E-12  1.23303579932000E+00
 cg2d: Sum(rhs),rhsMax =   1.54498636106837E-12  1.25757198310794E+00
 cg2d: Sum(rhs),rhsMax =   1.47326595367758E-12  1.27014486142810E+00
 cg2d: Sum(rhs),rhsMax =   1.39466216353412E-12  1.27065906616102E+00
 cg2d: Sum(rhs),rhsMax =   1.31467059460988E-12  1.25937828742915E+00
 cg2d: Sum(rhs),rhsMax =   1.22601928609356E-12  1.23690179463549E+00
 cg2d: Sum(rhs),rhsMax =   1.14502851644716E-12  1.20412547019159E+00
 cg2d: Sum(rhs),rhsMax =   1.07802655691103E-12  1.16219053776920E+00
 cg2d: Sum(rhs),rhsMax =   1.04941055845131E-12  1.11242379034576E+00
 cg2d: Sum(rhs),rhsMax =   1.01815778030812E-12  1.05627343696121E+00
 cg2d: Sum(rhs),rhsMax =   1.01560426735148E-12  9.95244607543536E-01
 cg2d: Sum(rhs),rhsMax =   9.94843096790987E-13  9.30838209209353E-01
 cg2d: Sum(rhs),rhsMax =   9.70001856614999E-13  8.64496192944711E-01
 cg2d: Sum(rhs),rhsMax =   1.00544572667616E-12  7.97555611485813E-01
 cg2d: Sum(rhs),rhsMax =   1.03217434599401E-12  7.31212974498351E-01
 cg2d: Sum(rhs),rhsMax =   1.03411723628710E-12  6.66499481882558E-01
 cg2d: Sum(rhs),rhsMax =   1.02601260820734E-12  6.04267032428229E-01
 cg2d: Sum(rhs),rhsMax =   9.90790782751105E-13  5.45184218346038E-01
 cg2d: Sum(rhs),rhsMax =   1.03150821217923E-12  4.96288306112309E-01
 cg2d: Sum(rhs),rhsMax =   1.03229924608428E-12  4.81822963502171E-01
 cg2d: Sum(rhs),rhsMax =   9.58913504156556E-13  4.70029968702718E-01
 cg2d: Sum(rhs),rhsMax =   9.19500586782362E-13  4.60331788638483E-01
 cg2d: Sum(rhs),rhsMax =   8.38967784133615E-13  4.52769369022777E-01
 cg2d: Sum(rhs),rhsMax =   8.10518319127596E-13  4.44358371920383E-01
 cg2d: Sum(rhs),rhsMax =   7.29527549481190E-13  4.35999119458564E-01
 cg2d: Sum(rhs),rhsMax =   7.03173630434151E-13  4.28917779040473E-01
 cg2d: Sum(rhs),rhsMax =   6.58348375814910E-13  4.21261883155268E-01
 cg2d: Sum(rhs),rhsMax =   6.31245056226248E-13  4.13414354706443E-01
 cg2d: Sum(rhs),rhsMax =   5.94545246368483E-13  4.06692230127639E-01
 cg2d: Sum(rhs),rhsMax =   5.63292468225285E-13  3.99469743632215E-01
 cg2d: Sum(rhs),rhsMax =   5.20680720761391E-13  3.91867477092681E-01
 cg2d: Sum(rhs),rhsMax =   4.54809800931599E-13  3.85232719292039E-01
 cg2d: Sum(rhs),rhsMax =   4.01380317871514E-13  3.78378135838957E-01
 cg2d: Sum(rhs),rhsMax =   3.36335126416287E-13  3.71234719260974E-01
 cg2d: Sum(rhs),rhsMax =   2.94590740690381E-13  3.64198936882544E-01
 cg2d: Sum(rhs),rhsMax =   2.91475177327527E-13  3.57687359686015E-01
 cg2d: Sum(rhs),rhsMax =   2.65391875142740E-13  3.50956758861754E-01
 cg2d: Sum(rhs),rhsMax =   1.95100879896160E-13  3.44076558729989E-01
 cg2d: Sum(rhs),rhsMax =   1.39589728664902E-13  3.37189609585908E-01
 cg2d: Sum(rhs),rhsMax =   1.30104260698261E-14  3.30817115292340E-01
 cg2d: Sum(rhs),rhsMax =  -5.96675486796983E-14  3.24325181982890E-01
 cg2d: Sum(rhs),rhsMax =  -3.99957844621213E-14  3.17756065219854E-01
 cg2d: Sum(rhs),rhsMax =  -6.05765437811101E-14  3.11142686662355E-01
 cg2d: Sum(rhs),rhsMax =  -1.22020449300209E-13  3.04508930693660E-01
 cg2d: Sum(rhs),rhsMax =  -7.17551018603046E-14  2.98168271995173E-01
 cg2d: Sum(rhs),rhsMax =  -9.69224700497762E-14  2.91828113050684E-01
 cg2d: Sum(rhs),rhsMax =  -4.96061525190328E-14  2.85429672699510E-01
 cg2d: Sum(rhs),rhsMax =  -9.85322934354826E-16  2.78969474733806E-01
 cg2d: Sum(rhs),rhsMax =   5.20000709158808E-14  2.72432383631004E-01
 cg2d: Sum(rhs),rhsMax =   1.60871316268185E-13  2.65790411035321E-01
 cg2d: Sum(rhs),rhsMax =   2.65037991553640E-13  2.59001519466315E-01
 cg2d: Sum(rhs),rhsMax =   3.70981023678496E-13  2.52140176925690E-01
 cg2d: Sum(rhs),rhsMax =   4.20247170396237E-13  2.45092198366997E-01
 cg2d: Sum(rhs),rhsMax =   4.76646500047195E-13  2.37687692455521E-01
 cg2d: Sum(rhs),rhsMax =   5.32476840398033E-13  2.29833363369961E-01
 cg2d: Sum(rhs),rhsMax =   6.29565843901503E-13  2.21424008628372E-01
 cg2d: Sum(rhs),rhsMax =   6.66536270621521E-13  2.12541239417458E-01
 cg2d: Sum(rhs),rhsMax =   7.38700767222156E-13  2.03053513177624E-01
 cg2d: Sum(rhs),rhsMax =   8.04342703553118E-13  1.92695911742318E-01
 cg2d: Sum(rhs),rhsMax =   9.29756271972337E-13  1.81689824760073E-01
 cg2d: Sum(rhs),rhsMax =   1.00230934663159E-12  1.69790066327664E-01
 cg2d: Sum(rhs),rhsMax =   1.13919984556787E-12  1.57103970754047E-01
 cg2d: Sum(rhs),rhsMax =   1.28705379687233E-12  1.43519046157820E-01
 cg2d: Sum(rhs),rhsMax =   1.51975654283376E-12  1.29265749436363E-01
 cg2d: Sum(rhs),rhsMax =   1.75712222549862E-12  1.14189251009896E-01
 cg2d: Sum(rhs),rhsMax =   2.15213957766025E-12  9.84802633837465E-02
 cg2d: Sum(rhs),rhsMax =   2.68379762857762E-12  8.22867776074630E-02
 cg2d: Sum(rhs),rhsMax =   3.54632989640891E-12  6.56306661075012E-02
 cg2d: Sum(rhs),rhsMax =   4.87948570437879E-12  4.86663533737903E-02
 cg2d: Sum(rhs),rhsMax =   7.61346541366947E-12  3.16311056793756E-02
 cg2d: Sum(rhs),rhsMax =   1.02520214539936E-11  2.37347050552251E-02
 cg2d: Sum(rhs),rhsMax =   1.01483266234936E-11  2.41012681228786E-02
 cg2d: Sum(rhs),rhsMax =   1.00264241353898E-11  2.45522455247398E-02
 cg2d: Sum(rhs),rhsMax =   6.94910795573378E-12  3.55796030187780E-02
 cg2d: Sum(rhs),rhsMax =   4.89747131737772E-12  5.12893324993771E-02
 cg2d: Sum(rhs),rhsMax =   3.84425824506707E-12  6.63511046017665E-02
 cg2d: Sum(rhs),rhsMax =   3.22941673402966E-12  8.06551692346993E-02
 cg2d: Sum(rhs),rhsMax =   2.76978440183484E-12  9.41187568813096E-02
 cg2d: Sum(rhs),rhsMax =   2.46852538410280E-12  1.06835079654681E-01
 cg2d: Sum(rhs),rhsMax =   2.29918861727185E-12  1.18591161576144E-01
 cg2d: Sum(rhs),rhsMax =   2.14978035373292E-12  1.29443024820493E-01
 cg2d: Sum(rhs),rhsMax =   2.05904737704543E-12  1.39482803044712E-01
 cg2d: Sum(rhs),rhsMax =   1.98741023638149E-12  1.48619262237092E-01
 cg2d: Sum(rhs),rhsMax =   1.93686733318543E-12  1.56994582480965E-01
 cg2d: Sum(rhs),rhsMax =   1.91174853725329E-12  1.64691008283130E-01
 cg2d: Sum(rhs),rhsMax =   1.89773197156740E-12  1.71637162891157E-01
 cg2d: Sum(rhs),rhsMax =   1.88016269220270E-12  1.78044770065648E-01
 cg2d: Sum(rhs),rhsMax =   1.89595561472800E-12  1.84039092337788E-01
 cg2d: Sum(rhs),rhsMax =   1.92543203603179E-12  1.89560165544740E-01
 cg2d: Sum(rhs),rhsMax =   1.89978588416295E-12  1.94687002880517E-01
 cg2d: Sum(rhs),rhsMax =   1.91685556316656E-12  1.99485187918747E-01
 cg2d: Sum(rhs),rhsMax =   1.93006721715960E-12  2.04007337227014E-01
 cg2d: Sum(rhs),rhsMax =   2.08255634959187E-12  2.08457879116521E-01
 cg2d: Sum(rhs),rhsMax =   2.06623607112988E-12  2.12729833695958E-01
 cg2d: Sum(rhs),rhsMax =   2.04203320919305E-12  2.16838857654063E-01
 cg2d: Sum(rhs),rhsMax =   2.07764361270790E-12  2.20804526792073E-01
 cg2d: Sum(rhs),rhsMax =   2.12202477811729E-12  2.24639714279523E-01
 cg2d: Sum(rhs),rhsMax =   2.11583528475501E-12  2.28351518941901E-01
 cg2d: Sum(rhs),rhsMax =   2.00253702509201E-12  2.31986901248046E-01
 cg2d: Sum(rhs),rhsMax =   1.94941285336370E-12  2.35750861703916E-01
 cg2d: Sum(rhs),rhsMax =   1.90150672985112E-12  2.39428655032485E-01
 cg2d: Sum(rhs),rhsMax =   1.86656246015104E-12  2.43015095570438E-01
 cg2d: Sum(rhs),rhsMax =   1.79603554251173E-12  2.46502633744818E-01
 cg2d: Sum(rhs),rhsMax =   1.73094871769308E-12  2.49882536444282E-01
 cg2d: Sum(rhs),rhsMax =   1.68132174849234E-12  2.53572306780509E-01
 cg2d: Sum(rhs),rhsMax =   1.63341562497976E-12  2.57212038946038E-01
 cg2d: Sum(rhs),rhsMax =   1.58664748006743E-12  2.60780235569348E-01
 cg2d: Sum(rhs),rhsMax =   1.48370205010906E-12  2.64282149932321E-01
 cg2d: Sum(rhs),rhsMax =   1.42877376596573E-12  2.68031181607746E-01
 cg2d: Sum(rhs),rhsMax =   1.35150224345182E-12  2.72041986123659E-01
 cg2d: Sum(rhs),rhsMax =   1.30034871759221E-12  2.76115982261690E-01
 cg2d: Sum(rhs),rhsMax =   1.20931042957295E-12  2.80325953280389E-01
 cg2d: Sum(rhs),rhsMax =   1.14955267527250E-12  2.84796344244192E-01
 cg2d: Sum(rhs),rhsMax =   1.07729103415721E-12  2.90126601605558E-01
 cg2d: Sum(rhs),rhsMax =   1.00452285378694E-12  2.96002964074785E-01
 cg2d: Sum(rhs),rhsMax =   9.21325515879090E-13  3.02672354967775E-01
 cg2d: Sum(rhs),rhsMax =   8.71615279951499E-13  3.10455964890995E-01
 cg2d: Sum(rhs),rhsMax =   7.89576737325604E-13  3.20051330841393E-01
 cg2d: Sum(rhs),rhsMax =   6.97178426101175E-13  3.30632875535691E-01
 cg2d: Sum(rhs),rhsMax =   6.21558360336394E-13  3.42858840945422E-01
 cg2d: Sum(rhs),rhsMax =   8.15680856192103E-13  3.57154018569520E-01
 cg2d: Sum(rhs),rhsMax =   7.12818692960582E-13  3.73921607031340E-01
 cg2d: Sum(rhs),rhsMax =   6.50007825342414E-13  3.93481036958705E-01
 cg2d: Sum(rhs),rhsMax =   5.85587134338539E-13  4.15984584727437E-01
 cg2d: Sum(rhs),rhsMax =   4.76674255622811E-13  4.42090395110622E-01
 cg2d: Sum(rhs),rhsMax =   3.21576099082677E-13  4.70610183710682E-01
 cg2d: Sum(rhs),rhsMax =   2.26041407813682E-13  4.98673335339790E-01
 cg2d: Sum(rhs),rhsMax =   1.14075415780235E-13  5.26012417088121E-01
 cg2d: Sum(rhs),rhsMax =   3.22519788653608E-14  5.52369388861741E-01
 cg2d: Sum(rhs),rhsMax =  -2.78110867668602E-14  5.77487966144557E-01
 cg2d: Sum(rhs),rhsMax =  -8.16013923099490E-14  6.01118033734863E-01
 cg2d: Sum(rhs),rhsMax =  -1.47493128821452E-13  6.23020084218472E-01
 cg2d: Sum(rhs),rhsMax =  -1.95288230031565E-13  6.42969568568884E-01
 cg2d: Sum(rhs),rhsMax =  -2.31481500634345E-13  6.60761045615548E-01
 cg2d: Sum(rhs),rhsMax =  -2.69895217286376E-13  6.76212020301358E-01
 cg2d: Sum(rhs),rhsMax =  -3.74478226206065E-13  6.89166367572524E-01
 cg2d: Sum(rhs),rhsMax =  -4.59299265287427E-13  6.99497249274198E-01
 cg2d: Sum(rhs),rhsMax =  -5.44564393578639E-13  7.07109445182577E-01
 cg2d: Sum(rhs),rhsMax =  -6.61803944979056E-13  7.11941035740704E-01
 cg2d: Sum(rhs),rhsMax =  -7.50954853856456E-13  7.13964392502883E-01
 cg2d: Sum(rhs),rhsMax =  -8.25117751901416E-13  7.13186452322430E-01
 cg2d: Sum(rhs),rhsMax =  -9.20818976624105E-13  7.09648276120942E-01
 cg2d: Sum(rhs),rhsMax =  -9.86433157379452E-13  7.03423906737650E-01
 cg2d: Sum(rhs),rhsMax =  -1.06381570219582E-12  6.94618563851039E-01
 cg2d: Sum(rhs),rhsMax =  -1.12121423256895E-12  6.83366232553839E-01
 cg2d: Sum(rhs),rhsMax =  -1.19304566226219E-12  6.69826718503006E-01
 cg2d: Sum(rhs),rhsMax =  -1.31161748129216E-12  6.54182257345625E-01
 cg2d: Sum(rhs),rhsMax =  -1.43418610321078E-12  6.36633771857245E-01
 cg2d: Sum(rhs),rhsMax =  -1.48070444794257E-12  6.43156296998566E-01
 cg2d: Sum(rhs),rhsMax =  -1.51378909407640E-12  6.47899958058244E-01
 cg2d: Sum(rhs),rhsMax =  -1.53432822003197E-12  6.50240949405293E-01
 cg2d: Sum(rhs),rhsMax =  -1.59805502164545E-12  6.50179388911523E-01
 cg2d: Sum(rhs),rhsMax =  -1.61970437062564E-12  6.47740207352957E-01
 cg2d: Sum(rhs),rhsMax =  -1.63058455626697E-12  6.42972523665364E-01
 cg2d: Sum(rhs),rhsMax =  -1.70741198957103E-12  6.35948598822877E-01
 cg2d: Sum(rhs),rhsMax =  -1.85917947703729E-12  6.26762396323280E-01
 cg2d: Sum(rhs),rhsMax =  -2.00051086807207E-12  6.15527790055293E-01
 cg2d: Sum(rhs),rhsMax =  -2.17104112465449E-12  6.02376465868846E-01
 cg2d: Sum(rhs),rhsMax =  -2.32824870494142E-12  5.87455569917985E-01
 cg2d: Sum(rhs),rhsMax =  -2.45947706645211E-12  5.70925160656266E-01
 cg2d: Sum(rhs),rhsMax =  -2.58193466606826E-12  5.52955528611619E-01
 cg2d: Sum(rhs),rhsMax =  -2.72604161466461E-12  5.33724446767374E-01
 cg2d: Sum(rhs),rhsMax =  -2.96518365416887E-12  5.13414412128688E-01
 cg2d: Sum(rhs),rhsMax =  -3.07553982281661E-12  4.92209931627671E-01
 cg2d: Sum(rhs),rhsMax =  -3.11695114163513E-12  4.70294910480969E-01
 cg2d: Sum(rhs),rhsMax =  -3.15891757196596E-12  4.47850198964787E-01
 cg2d: Sum(rhs),rhsMax =  -3.21698223615385E-12  4.25051339191711E-01
 cg2d: Sum(rhs),rhsMax =  -3.33610916669613E-12  4.02066542453731E-01
 cg2d: Sum(rhs),rhsMax =  -3.48954198869933E-12  3.79054924271418E-01
 cg2d: Sum(rhs),rhsMax =  -3.62776475526516E-12  3.56165016849588E-01
 cg2d: Sum(rhs),rhsMax =  -3.80051545789684E-12  3.33533569900380E-01
 cg2d: Sum(rhs),rhsMax =  -4.02144983979724E-12  3.11284643049200E-01
 cg2d: Sum(rhs),rhsMax =  -4.23727719578437E-12  2.89528984929071E-01
 cg2d: Sum(rhs),rhsMax =  -4.48874271086197E-12  2.68363687708770E-01
 cg2d: Sum(rhs),rhsMax =  -4.73909800291494E-12  2.47872099806748E-01
 cg2d: Sum(rhs),rhsMax =  -5.05184782895185E-12  2.28123974736680E-01
 cg2d: Sum(rhs),rhsMax =  -5.26445553816757E-12  2.12514756684299E-01
 cg2d: Sum(rhs),rhsMax =  -5.26167998060600E-12  2.06284499321296E-01
 cg2d: Sum(rhs),rhsMax =  -5.28932453391917E-12  2.00734078416556E-01
 cg2d: Sum(rhs),rhsMax =  -5.27111687631532E-12  1.95600977752238E-01
 cg2d: Sum(rhs),rhsMax =  -5.34727817580460E-12  1.90781115811569E-01
 cg2d: Sum(rhs),rhsMax =  -5.33428856641649E-12  1.86198892447375E-01
 cg2d: Sum(rhs),rhsMax =  -5.25723908850750E-12  1.81816075758561E-01
 cg2d: Sum(rhs),rhsMax =  -5.29876142962848E-12  1.77604362945598E-01
 cg2d: Sum(rhs),rhsMax =  -5.24713605898341E-12  1.73500419037355E-01
 cg2d: Sum(rhs),rhsMax =  -5.23153742548743E-12  1.69478141978270E-01
 cg2d: Sum(rhs),rhsMax =  -5.24436050142185E-12  1.65517963409367E-01
 cg2d: Sum(rhs),rhsMax =  -5.26451104931880E-12  1.61604692722412E-01
 cg2d: Sum(rhs),rhsMax =  -5.22049070639241E-12  1.57725888821028E-01
 cg2d: Sum(rhs),rhsMax =  -5.26167998060600E-12  1.53870632543841E-01
 cg2d: Sum(rhs),rhsMax =  -5.23828203036203E-12  1.50028598698242E-01
 cg2d: Sum(rhs),rhsMax =  -5.29487564904230E-12  1.46189363628198E-01
 cg2d: Sum(rhs),rhsMax =  -5.34877697688785E-12  1.42341904321674E-01
 cg2d: Sum(rhs),rhsMax =  -5.35886612862413E-12  1.38780128528274E-01
 cg2d: Sum(rhs),rhsMax =  -5.42173250739353E-12  1.35678001515979E-01
 cg2d: Sum(rhs),rhsMax =  -5.51052953268183E-12  1.32451978035323E-01
 cg2d: Sum(rhs),rhsMax =  -5.59158275237337E-12  1.29068770010563E-01
 cg2d: Sum(rhs),rhsMax =  -5.65439882416197E-12  1.25586622722324E-01
 cg2d: Sum(rhs),rhsMax =  -5.75876152320021E-12  1.21906272518374E-01
 cg2d: Sum(rhs),rhsMax =  -5.98236737925362E-12  1.17973565954460E-01
 cg2d: Sum(rhs),rhsMax =  -6.17179918283028E-12  1.13896603551359E-01
 cg2d: Sum(rhs),rhsMax =  -6.38865349511519E-12  1.09516926515633E-01
 cg2d: Sum(rhs),rhsMax =  -6.56222298722753E-12  1.04937337613520E-01
 cg2d: Sum(rhs),rhsMax =  -6.85132506283992E-12  1.00040987103056E-01
 cg2d: Sum(rhs),rhsMax =  -7.19585502295672E-12  9.49430697385949E-02
 cg2d: Sum(rhs),rhsMax =  -7.59584062315355E-12  8.95537110658333E-02
 cg2d: Sum(rhs),rhsMax =  -7.98239252475241E-12  8.38881132191537E-02
 cg2d: Sum(rhs),rhsMax =  -8.54294412988565E-12  7.79812147522458E-02
 cg2d: Sum(rhs),rhsMax =  -9.27646848225550E-12  7.18492682501302E-02
 cg2d: Sum(rhs),rhsMax =  -1.01030850352402E-11  6.54860615646063E-02
 cg2d: Sum(rhs),rhsMax =  -1.11616271780690E-11  5.89140950413935E-02
 cg2d: Sum(rhs),rhsMax =  -1.25780497128858E-11  5.21773834741565E-02
 cg2d: Sum(rhs),rhsMax =  -1.44673162338904E-11  4.53042949395723E-02
 cg2d: Sum(rhs),rhsMax =  -1.71324066045031E-11  3.83253320356319E-02
 cg2d: Sum(rhs),rhsMax =  -2.08268957635482E-11  3.17619172140548E-02
 cg2d: Sum(rhs),rhsMax =  -2.20605755885117E-11  3.01328821443655E-02
 cg2d: Sum(rhs),rhsMax =  -2.18025597575888E-11  3.06674793962119E-02
 cg2d: Sum(rhs),rhsMax =  -2.16260342966734E-11  3.11699899520376E-02
 cg2d: Sum(rhs),rhsMax =  -2.14386286501167E-11  3.16491595079417E-02
 cg2d: Sum(rhs),rhsMax =  -2.13071782440011E-11  3.21136130519438E-02
 cg2d: Sum(rhs),rhsMax =  -2.11559658680471E-11  3.25719614993687E-02
 cg2d: Sum(rhs),rhsMax =  -2.10056416705129E-11  3.30329062106350E-02
 cg2d: Sum(rhs),rhsMax =  -2.08797423795204E-11  3.35053412900429E-02
 cg2d: Sum(rhs),rhsMax =  -1.81267223453574E-11  3.89199904467016E-02
 cg2d: Sum(rhs),rhsMax =  -1.54762869186698E-11  4.59113500860052E-02
 cg2d: Sum(rhs),rhsMax =  -1.35806921264248E-11  5.28236765632994E-02
 cg2d: Sum(rhs),rhsMax =  -1.21485044246583E-11  5.96167686828271E-02
 cg2d: Sum(rhs),rhsMax =  -1.10029763078501E-11  6.62591132538718E-02
 cg2d: Sum(rhs),rhsMax =  -1.01493258242158E-11  7.27483264297787E-02
 cg2d: Sum(rhs),rhsMax =  -9.43767286543107E-12  7.90923867713631E-02
 cg2d: Sum(rhs),rhsMax =  -8.84642359366694E-12  8.52501022743924E-02
 cg2d: Sum(rhs),rhsMax =  -8.34610158761961E-12  9.12343188514481E-02
 cg2d: Sum(rhs),rhsMax =  -7.92665932891623E-12  9.70844297515699E-02
 cg2d: Sum(rhs),rhsMax =  -7.52764517386595E-12  1.02758785220844E-01
 cg2d: Sum(rhs),rhsMax =  -7.28317406384349E-12  1.08266551270014E-01
 cg2d: Sum(rhs),rhsMax =  -6.98696656087350E-12  1.13647288735526E-01
 cg2d: Sum(rhs),rhsMax =  -6.75964839658150E-12  1.18916920149001E-01
 cg2d: Sum(rhs),rhsMax =  -6.50318687789309E-12  1.24056983863235E-01
 cg2d: Sum(rhs),rhsMax =  -6.42502717695947E-12  1.29079077828791E-01
 cg2d: Sum(rhs),rhsMax =  -6.36918295882083E-12  1.33993277169378E-01
 cg2d: Sum(rhs),rhsMax =  -6.26698692940408E-12  1.38809966566585E-01
 cg2d: Sum(rhs),rhsMax =  -6.10000938650046E-12  1.43587106261942E-01
 cg2d: Sum(rhs),rhsMax =  -5.96378502137895E-12  1.48279367325620E-01
 cg2d: Sum(rhs),rhsMax =  -5.78254111260890E-12  1.52888789817962E-01
 cg2d: Sum(rhs),rhsMax =  -5.70898883722748E-12  1.57415013903065E-01
 cg2d: Sum(rhs),rhsMax =  -5.65891777881689E-12  1.61855508126190E-01
 cg2d: Sum(rhs),rhsMax =  -5.56338308754789E-12  1.66215654470765E-01
 cg2d: Sum(rhs),rhsMax =  -5.54123413820662E-12  1.70565073532747E-01
 cg2d: Sum(rhs),rhsMax =  -5.43953770915095E-12  1.74826388111854E-01
 cg2d: Sum(rhs),rhsMax =  -5.40234523782601E-12  1.78992894533430E-01
 cg2d: Sum(rhs),rhsMax =  -5.39612798888811E-12  1.83057151457050E-01
 cg2d: Sum(rhs),rhsMax =  -5.31485966348555E-12  1.87058411333585E-01
 cg2d: Sum(rhs),rhsMax =  -5.30175903179497E-12  1.91042491274168E-01
 cg2d: Sum(rhs),rhsMax =  -5.25379739713117E-12  1.94919544158754E-01
 cg2d: Sum(rhs),rhsMax =  -5.27033972019808E-12  1.98682422497967E-01
 cg2d: Sum(rhs),rhsMax =  -5.20006260273931E-12  2.02369853885881E-01
 cg2d: Sum(rhs),rhsMax =  -5.21471754666436E-12  2.06077108067087E-01
 cg2d: Sum(rhs),rhsMax =  -5.20905540923877E-12  2.09673935309650E-01
 cg2d: Sum(rhs),rhsMax =  -5.17219600482122E-12  2.13158050757893E-01
 cg2d: Sum(rhs),rhsMax =  -5.11390929602840E-12  2.16627830298786E-01
 cg2d: Sum(rhs),rhsMax =  -4.92483831493473E-12  2.20122082562532E-01
 cg2d: Sum(rhs),rhsMax =  -4.87865303711033E-12  2.23535488561551E-01
 cg2d: Sum(rhs),rhsMax =  -4.67803573656056E-12  2.31208217437403E-01
 cg2d: Sum(rhs),rhsMax =  -4.54725146425972E-12  2.44491941011406E-01
 cg2d: Sum(rhs),rhsMax =  -4.28090896065214E-12  2.58089482587014E-01
 cg2d: Sum(rhs),rhsMax =  -4.21263024463769E-12  2.71951618825968E-01
 cg2d: Sum(rhs),rhsMax =  -3.95328214608526E-12  2.86024430562934E-01
 cg2d: Sum(rhs),rhsMax =  -3.71835895407457E-12  3.00249607751096E-01
 cg2d: Sum(rhs),rhsMax =  -3.51252360530907E-12  3.14564825329040E-01
 cg2d: Sum(rhs),rhsMax =  -3.30990790331498E-12  3.28904187518063E-01
 cg2d: Sum(rhs),rhsMax =  -3.11006775888245E-12  3.43198736834195E-01
 cg2d: Sum(rhs),rhsMax =  -2.91711099720260E-12  3.57377022804990E-01
 cg2d: Sum(rhs),rhsMax =  -2.74780198594726E-12  3.71365724041297E-01
 cg2d: Sum(rhs),rhsMax =  -2.55528931347726E-12  3.85090316166430E-01
 cg2d: Sum(rhs),rhsMax =  -2.38120634321604E-12  3.98475776819828E-01
 cg2d: Sum(rhs),rhsMax =  -2.22988294495963E-12  4.11447318257102E-01
 cg2d: Sum(rhs),rhsMax =  -2.04369854372999E-12  4.23931137203866E-01
 cg2d: Sum(rhs),rhsMax =  -1.84074977482851E-12  4.35855170989785E-01
 cg2d: Sum(rhs),rhsMax =  -1.66267000167863E-12  4.47149848616505E-01
 cg2d: Sum(rhs),rhsMax =  -1.53255186319257E-12  4.57748825262349E-01
 cg2d: Sum(rhs),rhsMax =  -1.43629552695757E-12  4.67589688824366E-01
 cg2d: Sum(rhs),rhsMax =  -1.31494815036604E-12  4.76614627423966E-01
 cg2d: Sum(rhs),rhsMax =  -1.24300569837033E-12  4.84771047353041E-01
 cg2d: Sum(rhs),rhsMax =  -1.16939791183768E-12  4.92012131694016E-01
 cg2d: Sum(rhs),rhsMax =  -1.13820064484571E-12  4.98297330843668E-01
 cg2d: Sum(rhs),rhsMax =  -1.06026298851702E-12  5.03592777317610E-01
 cg2d: Sum(rhs),rhsMax =  -9.87654402706539E-13  5.07871618559972E-01
 cg2d: Sum(rhs),rhsMax =  -1.05171427122741E-12  5.16662332260224E-01
 cg2d: Sum(rhs),rhsMax =  -1.08946185406467E-12  5.33770112708782E-01
 cg2d: Sum(rhs),rhsMax =  -1.22246657241476E-12  5.50134790964185E-01
 cg2d: Sum(rhs),rhsMax =  -1.32749367054430E-12  5.65667982853489E-01
 cg2d: Sum(rhs),rhsMax =  -1.40998324127395E-12  5.80285362258208E-01
 cg2d: Sum(rhs),rhsMax =  -1.45217171620970E-12  5.93907453330536E-01
 cg2d: Sum(rhs),rhsMax =  -1.44351197661763E-12  6.06460380109687E-01
 cg2d: Sum(rhs),rhsMax =  -1.43274281327876E-12  6.17876563197697E-01
 cg2d: Sum(rhs),rhsMax =  -1.42119649382266E-12  6.28095353885245E-01
 cg2d: Sum(rhs),rhsMax =  -1.41098244199611E-12  6.37063596917183E-01
 cg2d: Sum(rhs),rhsMax =  -1.41808786935371E-12  6.44736114079308E-01
 cg2d: Sum(rhs),rhsMax =  -1.43385303630339E-12  6.51076103096342E-01
 cg2d: Sum(rhs),rhsMax =  -1.49091849976912E-12  6.56055445724701E-01
 cg2d: Sum(rhs),rhsMax =  -1.52866608260638E-12  6.59654921034269E-01
 cg2d: Sum(rhs),rhsMax =  -1.54398716034621E-12  6.61864321514769E-01
 cg2d: Sum(rhs),rhsMax =  -1.54654067330284E-12  6.62682471305377E-01
 cg2d: Sum(rhs),rhsMax =  -1.58784096981890E-12  6.62117147262783E-01
 cg2d: Sum(rhs),rhsMax =  -1.63946634046397E-12  6.60184904989725E-01
 cg2d: Sum(rhs),rhsMax =  -1.69442238018291E-12  6.56910813407566E-01
 cg2d: Sum(rhs),rhsMax =  -1.75048864292648E-12  6.52328102650660E-01
 cg2d: Sum(rhs),rhsMax =  -1.84163795324821E-12  6.46477731711534E-01
 cg2d: Sum(rhs),rhsMax =  -1.91502369517593E-12  6.39407883129066E-01
 cg2d: Sum(rhs),rhsMax =  -1.99873451123267E-12  6.31173390494527E-01
 cg2d: Sum(rhs),rhsMax =  -2.11064499211489E-12  6.21835110272621E-01
 cg2d: Sum(rhs),rhsMax =  -2.24276153204528E-12  6.11459246835142E-01
 cg2d: Sum(rhs),rhsMax =  -2.35611530285951E-12  6.00116640251403E-01
 cg2d: Sum(rhs),rhsMax =  -2.48934206581453E-12  5.87882029673788E-01
 cg2d: Sum(rhs),rhsMax =  -2.63111754605916E-12  5.74833301384536E-01
 cg2d: Sum(rhs),rhsMax =  -2.77244893709394E-12  5.61050729957291E-01
 cg2d: Sum(rhs),rhsMax =  -2.94297919367636E-12  5.46616221664262E-01
 cg2d: Sum(rhs),rhsMax =  -3.09918757324112E-12  5.31612569431643E-01
 cg2d: Sum(rhs),rhsMax =  -3.21503934586076E-12  5.16122729646364E-01
 cg2d: Sum(rhs),rhsMax =  -3.38984396108799E-12  5.00229129907564E-01
 cg2d: Sum(rhs),rhsMax =  -3.54660745216506E-12  4.84013014983921E-01
 cg2d: Sum(rhs),rhsMax =  -3.72751829402773E-12  4.67553836747089E-01
 cg2d: Sum(rhs),rhsMax =  -3.89982490744956E-12  4.50928693168265E-01
 cg2d: Sum(rhs),rhsMax =  -4.12980760700066E-12  4.34211820605039E-01
 cg2d: Sum(rhs),rhsMax =  -4.37339053860342E-12  4.17474142745799E-01
 cg2d: Sum(rhs),rhsMax =  -4.62230254072438E-12  4.00782878725928E-01
 cg2d: Sum(rhs),rhsMax =  -4.86138906907740E-12  3.84201211610967E-01
 cg2d: Sum(rhs),rhsMax =  -5.18335374621870E-12  3.67788017630633E-01
 cg2d: Sum(rhs),rhsMax =  -5.44558842463516E-12  3.51597655607410E-01
 cg2d: Sum(rhs),rhsMax =  -5.81606984795258E-12  3.35679815478295E-01
 cg2d: Sum(rhs),rhsMax =  -6.13092909773627E-12  3.20079423663477E-01
 cg2d: Sum(rhs),rhsMax =  -6.51340092971964E-12  3.04836602306783E-01
 cg2d: Sum(rhs),rhsMax =  -6.88993306852126E-12  2.89986679003286E-01
 cg2d: Sum(rhs),rhsMax =  -7.32985894202898E-12  2.75560243491381E-01
 cg2d: Sum(rhs),rhsMax =  -7.76056996443231E-12  2.61583245938756E-01
 cg2d: Sum(rhs),rhsMax =  -8.21703816100694E-12  2.48077133697610E-01
 cg2d: Sum(rhs),rhsMax =  -8.74161854014233E-12  2.35059020436786E-01
 cg2d: Sum(rhs),rhsMax =  -9.26070331530582E-12  2.22603052030887E-01
 cg2d: Sum(rhs),rhsMax =  -9.68797264633281E-12  2.17625285327438E-01
 cg2d: Sum(rhs),rhsMax =  -9.91123849658493E-12  2.12787813781857E-01
 cg2d: Sum(rhs),rhsMax =  -1.01227359827760E-11  2.08133603404792E-01
 cg2d: Sum(rhs),rhsMax =  -1.03786979011034E-11  2.03550938411145E-01
 cg2d: Sum(rhs),rhsMax =  -1.04934949618496E-11  1.98929642864560E-01
 cg2d: Sum(rhs),rhsMax =  -1.07345798916469E-11  1.94346407157638E-01
 cg2d: Sum(rhs),rhsMax =  -1.09470765785602E-11  1.89738397757817E-01
 cg2d: Sum(rhs),rhsMax =  -1.11973208483107E-11  1.84991409519341E-01
 cg2d: Sum(rhs),rhsMax =  -1.14783738069946E-11  1.80277727965906E-01
 cg2d: Sum(rhs),rhsMax =  -1.17919007891487E-11  1.75340459360580E-01
 cg2d: Sum(rhs),rhsMax =  -1.20438103934362E-11  1.70405729743083E-01
 cg2d: Sum(rhs),rhsMax =  -1.24033006088098E-11  1.65217683089747E-01
 cg2d: Sum(rhs),rhsMax =  -1.27618471346125E-11  1.60001355336855E-01
 cg2d: Sum(rhs),rhsMax =  -1.32178712419773E-11  1.54546147501461E-01
 cg2d: Sum(rhs),rhsMax =  -1.36993749677572E-11  1.48967261608486E-01
 cg2d: Sum(rhs),rhsMax =  -1.41242018081300E-11  1.43222965045017E-01
 cg2d: Sum(rhs),rhsMax =  -1.47021284035986E-11  1.37256884881703E-01
 cg2d: Sum(rhs),rhsMax =  -1.53219659182469E-11  1.31190275796242E-01
 cg2d: Sum(rhs),rhsMax =  -1.60337854104853E-11  1.24934800704500E-01
 cg2d: Sum(rhs),rhsMax =  -1.68333680328203E-11  1.18486488511729E-01
 cg2d: Sum(rhs),rhsMax =  -1.77939329937260E-11  1.11891367770366E-01
 cg2d: Sum(rhs),rhsMax =  -1.88147275537176E-11  1.05176090239207E-01
 cg2d: Sum(rhs),rhsMax =  -2.00097716174241E-11  9.83033496526360E-02
 cg2d: Sum(rhs),rhsMax =  -2.15033546524523E-11  9.12918168519651E-02
 cg2d: Sum(rhs),rhsMax =  -2.33258967696770E-11  8.41602093452851E-02
 cg2d: Sum(rhs),rhsMax =  -2.55051535447137E-11  7.69337750569776E-02
 cg2d: Sum(rhs),rhsMax =  -2.81177303662616E-11  6.96391825239408E-02
 cg2d: Sum(rhs),rhsMax =  -3.13623571557287E-11  6.22709710302319E-02
 cg2d: Sum(rhs),rhsMax =  -3.55301343901715E-11  5.48491032761666E-02
 cg2d: Sum(rhs),rhsMax =  -4.05706579442722E-11  4.79620514120568E-02
 cg2d: Sum(rhs),rhsMax =  -4.06328304336512E-11  4.78290914497504E-02
 cg2d: Sum(rhs),rhsMax =  -4.06156219767695E-11  4.77566130100779E-02
 cg2d: Sum(rhs),rhsMax =  -4.05621092269826E-11  4.77374705702077E-02
 cg2d: Sum(rhs),rhsMax =  -4.04765110317840E-11  4.77640645204669E-02
 cg2d: Sum(rhs),rhsMax =  -4.03326261277925E-11  4.78283037520272E-02
 cg2d: Sum(rhs),rhsMax =  -4.01993993648375E-11  4.79215712724129E-02
 cg2d: Sum(rhs),rhsMax =  -3.99968946851459E-11  4.80346934117553E-02
 cg2d: Sum(rhs),rhsMax =  -3.98188149119960E-11  4.81579129063979E-02
 cg2d: Sum(rhs),rhsMax =  -3.96469523877840E-11  4.82808663139806E-02
 cg2d: Sum(rhs),rhsMax =  -3.94568822059682E-11  4.83925659857321E-02
 cg2d: Sum(rhs),rhsMax =  -3.93172161494704E-11  4.84813869961646E-02
 cg2d: Sum(rhs),rhsMax =  -3.92083032707546E-11  4.85350592758344E-02
 cg2d: Sum(rhs),rhsMax =  -3.91060517301867E-11  4.85406650106341E-02
 cg2d: Sum(rhs),rhsMax =  -3.76323416872992E-11  5.03574249739999E-02
 cg2d: Sum(rhs),rhsMax =  -3.36169980741374E-11  5.62690745742228E-02
 cg2d: Sum(rhs),rhsMax =  -3.04485325841597E-11  6.20137755144817E-02
 cg2d: Sum(rhs),rhsMax =  -2.79181122664340E-11  6.75436196326846E-02
 cg2d: Sum(rhs),rhsMax =  -2.58206789283122E-11  7.28482646249923E-02
 cg2d: Sum(rhs),rhsMax =  -2.40898412329216E-11  7.80034834445541E-02
 cg2d: Sum(rhs),rhsMax =  -2.25918173057948E-11  8.29577339547296E-02
 cg2d: Sum(rhs),rhsMax =  -2.13365991541536E-11  8.76754952198838E-02
 cg2d: Sum(rhs),rhsMax =  -2.02317607111979E-11  9.22924567337238E-02
 cg2d: Sum(rhs),rhsMax =  -1.92135196641630E-11  9.66849981291780E-02
 cg2d: Sum(rhs),rhsMax =  -1.83316695157032E-11  1.00943120191863E-01
 cg2d: Sum(rhs),rhsMax =  -1.75007786040737E-11  1.05045828753566E-01
 cg2d: Sum(rhs),rhsMax =  -1.67826308405949E-11  1.09029329428791E-01
 cg2d: Sum(rhs),rhsMax =  -1.61426427780498E-11  1.12884103588665E-01
 cg2d: Sum(rhs),rhsMax =  -1.55358503839409E-11  1.16694562898134E-01
 cg2d: Sum(rhs),rhsMax =  -1.49881218547421E-11  1.20383413645270E-01
 cg2d: Sum(rhs),rhsMax =  -1.45221334957313E-11  1.24103159367475E-01
 cg2d: Sum(rhs),rhsMax =  -1.40780997970325E-11  1.27820739901321E-01
 cg2d: Sum(rhs),rhsMax =  -1.38229705459736E-11  1.31559679457146E-01
 cg2d: Sum(rhs),rhsMax =  -1.34800642870303E-11  1.35386315119567E-01
(PID.TID 0000.0001)      cg2d_init_res =   2.90185348519424E-01
(PID.TID 0000.0001)      cg2d_iters(min,last) =      -1      38
(PID.TID 0000.0001)      cg2d_last_res =   6.87373604232417E-14
(PID.TID 0000.0001) // =======================================================
(PID.TID 0000.0001) // Begin MONITOR dynamic field statistics
(PID.TID 0000.0001) // =======================================================
(PID.TID 0000.0001) %MON time_tsnumber                =                   480
(PID.TID 0000.0001) %MON time_secondsf                =   7.2000000000000E+03
(PID.TID 0000.0001) %MON dynstat_eta_max              =   3.9229001582762E-02
(PID.TID 0000.0001) %MON dynstat_eta_min              =  -3.4328021548703E-02
(PID.TID 0000.0001) %MON dynstat_eta_mean             =   3.9279754299499E-15
(PID.TID 0000.0001) %MON dynstat_eta_sd               =   2.5265912417050E-02
(PID.TID 0000.0001) %MON dynstat_eta_del2             =   1.5250189605540E-05
(PID.TID 0000.0001) %MON dynstat_uvel_max             =   1.3106846497833E+00
(PID.TID 0000.0001) %MON dynstat_uvel_min             =  -3.0195838376736E-02
(PID.TID 0000.0001) %MON dynstat_uvel_mean            =   3.4818983330601E-01
(PID.TID 0000.0001) %MON dynstat_uvel_sd              =   4.7589708714832E-02
(PID.TID 0000.0001) %MON dynstat_uvel_del2            =   1.9648997198560E-04
(PID.TID 0000.0001) %MON dynstat_vvel_max             =   0.0000000000000E+00
(PID.TID 0000.0001) %MON dynstat_vvel_min             =   0.0000000000000E+00
(PID.TID 0000.0001) %MON dynstat_vvel_mean            =   0.0000000000000E+00
(PID.TID 0000.0001) %MON dynstat_vvel_sd              =   0.0000000000000E+00
(PID.TID 0000.0001) %MON dynstat_vvel_del2            =   0.0000000000000E+00
(PID.TID 0000.0001) %MON dynstat_wvel_max             =   2.2116087059101E-02
(PID.TID 0000.0001) %MON dynstat_wvel_min             =  -2.2260179398353E-02
(PID.TID 0000.0001) %MON dynstat_wvel_mean            =   1.0938486762828E-20
(PID.TID 0000.0001) %MON dynstat_wvel_sd              =   1.5147944899559E-03
(PID.TID 0000.0001) %MON dynstat_wvel_del2            =   2.0852531234181E-05
(PID.TID 0000.0001) %MON dynstat_theta_max            =   1.5000000000002E+01
(PID.TID 0000.0001) %MON dynstat_theta_min            =   9.9999999999991E+00
(PID.TID 0000.0001) %MON dynstat_theta_mean           =   1.3335039031846E+01
(PID.TID 0000.0001) %MON dynstat_theta_sd             =   2.3170305453243E+00
(PID.TID 0000.0001) %MON dynstat_theta_del2           =   6.4158505479556E-04
(PID.TID 0000.0001) %MON dynstat_salt_max             =   3.5000000000000E+01
(PID.TID 0000.0001) %MON dynstat_salt_min             =   3.5000000000000E+01
(PID.TID 0000.0001) %MON dynstat_salt_mean            =   3.5000000000000E+01
(PID.TID 0000.0001) %MON dynstat_salt_sd              =   2.1316282072803E-14
(PID.TID 0000.0001) %MON dynstat_salt_del2            =   0.0000000000000E+00
(PID.TID 0000.0001) %MON dynstat_sst_max              =   1.5000000000000E+01
(PID.TID 0000.0001) %MON dynstat_sst_min              =   1.4999999999999E+01
(PID.TID 0000.0001) %MON dynstat_sst_mean             =   1.4999999999999E+01
(PID.TID 0000.0001) %MON dynstat_sst_sd               =   2.6979644129781E-13
(PID.TID 0000.0001) %MON dynstat_sst_del2             =   3.0540807002809E-15
(PID.TID 0000.0001) %MON dynstat_sss_max              =   3.5000000000000E+01
(PID.TID 0000.0001) %MON dynstat_sss_min              =   3.5000000000000E+01
(PID.TID 0000.0001) %MON dynstat_sss_mean             =   3.5000000000000E+01
(PID.TID 0000.0001) %MON dynstat_sss_sd               =   7.8159700933611E-14
(PID.TID 0000.0001) %MON dynstat_sss_del2             =   0.0000000000000E+00
(PID.TID 0000.0001) %MON forcing_qnet_max             =   0.0000000000000E+00
(PID.TID 0000.0001) %MON forcing_qnet_min             =   0.0000000000000E+00
(PID.TID 0000.0001) %MON forcing_qnet_mean            =   0.0000000000000E+00
(PID.TID 0000.0001) %MON forcing_qnet_sd              =   0.0000000000000E+00
(PID.TID 0000.0001) %MON forcing_qnet_del2            =   0.0000000000000E+00
(PID.TID 0000.0001) %MON forcing_qsw_max              =   0.0000000000000E+00
(PID.TID 0000.0001) %MON forcing_qsw_min              =   0.0000000000000E+00
(PID.TID 0000.0001) %MON forcing_qsw_mean             =   0.0000000000000E+00
(PID.TID 0000.0001) %MON forcing_qsw_sd               =   0.0000000000000E+00
(PID.TID 0000.0001) %MON forcing_qsw_del2             =   0.0000000000000E+00
(PID.TID 0000.0001) %MON forcing_empmr_max            =   0.0000000000000E+00
(PID.TID 0000.0001) %MON forcing_empmr_min            =   0.0000000000000E+00
(PID.TID 0000.0001) %MON forcing_empmr_mean           =   0.0000000000000E+00
(PID.TID 0000.0001) %MON forcing_empmr_sd             =   0.0000000000000E+00
(PID.TID 0000.0001) %MON forcing_empmr_del2           =   0.0000000000000E+00
(PID.TID 0000.0001) %MON forcing_fu_max               =   0.0000000000000E+00
(PID.TID 0000.0001) %MON forcing_fu_min               =   0.0000000000000E+00
(PID.TID 0000.0001) %MON forcing_fu_mean              =   0.0000000000000E+00
(PID.TID 0000.0001) %MON forcing_fu_sd                =   0.0000000000000E+00
(PID.TID 0000.0001) %MON forcing_fu_del2              =   0.0000000000000E+00
(PID.TID 0000.0001) %MON forcing_fv_max               =   0.0000000000000E+00
(PID.TID 0000.0001) %MON forcing_fv_min               =   0.0000000000000E+00
(PID.TID 0000.0001) %MON forcing_fv_mean              =   0.0000000000000E+00
(PID.TID 0000.0001) %MON forcing_fv_sd                =   0.0000000000000E+00
(PID.TID 0000.0001) %MON forcing_fv_del2              =   0.0000000000000E+00
(PID.TID 0000.0001) %MON advcfl_uvel_max              =   9.8301348733749E-02
(PID.TID 0000.0001) %MON advcfl_vvel_max              =   0.0000000000000E+00
(PID.TID 0000.0001) %MON advcfl_wvel_max              =   2.1089961338515E-01
(PID.TID 0000.0001) %MON advcfl_W_hf_max              =   2.1266421804656E-01
(PID.TID 0000.0001) %MON pe_b_mean                    =   1.5948383165055E-05
(PID.TID 0000.0001) %MON ke_max                       =   7.2144788162231E-01
(PID.TID 0000.0001) %MON ke_mean                      =   6.1781783119727E-02
(PID.TID 0000.0001) %MON ke_vol                       =   9.5889217545975E+10
(PID.TID 0000.0001) %MON vort_r_min                   =   0.0000000000000E+00
(PID.TID 0000.0001) %MON vort_r_max                   =   0.0000000000000E+00
(PID.TID 0000.0001) %MON vort_a_mean                  =   0.0000000000000E+00
(PID.TID 0000.0001) %MON vort_a_sd                    =   0.0000000000000E+00
(PID.TID 0000.0001) %MON vort_p_mean                  =   0.0000000000000E+00
(PID.TID 0000.0001) %MON vort_p_sd                    =   0.0000000000000E+00
(PID.TID 0000.0001) %MON surfExpan_theta_mean         =  -3.7113338316492E-18
(PID.TID 0000.0001) %MON surfExpan_salt_mean          =   1.2551123946470E-18
(PID.TID 0000.0001) // =======================================================
(PID.TID 0000.0001) // End MONITOR dynamic field statistics
(PID.TID 0000.0001) // =======================================================
(PID.TID 0000.0001) // =======================================================
(PID.TID 0000.0001) // Begin OBCS MONITOR field statistics
(PID.TID 0000.0001) // =======================================================
(PID.TID 0000.0001) %MON obc_E_uVel_max               =   3.3404902334837E-01
(PID.TID 0000.0001) %MON obc_E_uVel_min               =   3.3404902334837E-01
(PID.TID 0000.0001) %MON obc_E_uVel_mean              =   3.3404902334837E-01
(PID.TID 0000.0001) %MON obc_E_uVel_sd                =   8.3300023432813E-09
(PID.TID 0000.0001) %MON obc_E_uVel_Int               =   3.3404902334837E+05
(PID.TID 0000.0001) %MON obc_W_uVel_max               =   3.3404902334837E-01
(PID.TID 0000.0001) %MON obc_W_uVel_min               =   3.3404902334837E-01
(PID.TID 0000.0001) %MON obc_W_uVel_mean              =   3.3404902334837E-01
(PID.TID 0000.0001) %MON obc_W_uVel_sd                =   8.3300023432813E-09
(PID.TID 0000.0001) %MON obc_W_uVel_Int               =   3.3404902334837E+05
(PID.TID 0000.0001) // =======================================================
(PID.TID 0000.0001) // End OBCS MONITOR field statistics
(PID.TID 0000.0001) // =======================================================
 cg2d: Sum(rhs),rhsMax =  -1.31603061781504E-11  1.39375426421027E-01
 cg2d: Sum(rhs),rhsMax =  -1.28144612976389E-11  1.43610209925981E-01
 cg2d: Sum(rhs),rhsMax =  -1.24524609373955E-11  1.48185370266059E-01
 cg2d: Sum(rhs),rhsMax =  -1.20333257247474E-11  1.53205276444211E-01
 cg2d: Sum(rhs),rhsMax =  -1.15609327666633E-11  1.58875284008975E-01
 cg2d: Sum(rhs),rhsMax =  -1.11022857574028E-11  1.65544789499684E-01
 cg2d: Sum(rhs),rhsMax =  -1.07168995899798E-11  1.72628599152413E-01
 cg2d: Sum(rhs),rhsMax =  -1.02888531028356E-11  1.80314353029249E-01
 cg2d: Sum(rhs),rhsMax =  -9.89866522083105E-12  1.88762878806633E-01
 cg2d: Sum(rhs),rhsMax =  -9.50700629331891E-12  1.97933527462114E-01
 cg2d: Sum(rhs),rhsMax =  -9.05886476942896E-12  2.08453936872853E-01
 cg2d: Sum(rhs),rhsMax =  -8.67483862521112E-12  2.19651219865751E-01
 cg2d: Sum(rhs),rhsMax =  -8.32789393001576E-12  2.30921262082343E-01
 cg2d: Sum(rhs),rhsMax =  -8.00637334208432E-12  2.42229903983513E-01
 cg2d: Sum(rhs),rhsMax =  -7.73286989996791E-12  2.53541516624996E-01
 cg2d: Sum(rhs),rhsMax =  -7.44920791717618E-12  2.64819200300302E-01
 cg2d: Sum(rhs),rhsMax =  -7.20529191866603E-12  2.76025000145013E-01
 cg2d: Sum(rhs),rhsMax =  -7.01488866994282E-12  2.87120137120538E-01
 cg2d: Sum(rhs),rhsMax =  -6.82703893417624E-12  2.98065252542906E-01
 cg2d: Sum(rhs),rhsMax =  -6.63324950522792E-12  3.08820664122167E-01
 cg2d: Sum(rhs),rhsMax =  -6.47992770552719E-12  3.19346631228391E-01
 cg2d: Sum(rhs),rhsMax =  -6.34192698356628E-12  3.29603627079179E-01
 cg2d: Sum(rhs),rhsMax =  -6.21269702349991E-12  3.39552615202492E-01
 cg2d: Sum(rhs),rhsMax =  -6.11377615200581E-12  3.49155327437958E-01
 cg2d: Sum(rhs),rhsMax =  -5.99154059699458E-12  3.58374540670934E-01
 cg2d: Sum(rhs),rhsMax =  -5.90516524567875E-12  3.67174349417616E-01
 cg2d: Sum(rhs),rhsMax =  -5.81557024759149E-12  3.75520431344867E-01
 cg2d: Sum(rhs),rhsMax =  -5.74884584381152E-12  3.83380302875869E-01
 cg2d: Sum(rhs),rhsMax =  -5.69033709041378E-12  3.90723561925465E-01
 cg2d: Sum(rhs),rhsMax =  -5.63504798378744E-12  3.97522114958102E-01
 cg2d: Sum(rhs),rhsMax =  -5.60351764988809E-12  4.03750385683115E-01
 cg2d: Sum(rhs),rhsMax =  -5.57431878434045E-12  4.09385502869598E-01
 cg2d: Sum(rhs),rhsMax =  -5.53634915689827E-12  4.14407464976880E-01
 cg2d: Sum(rhs),rhsMax =  -5.53512791157118E-12  4.18799279555621E-01
 cg2d: Sum(rhs),rhsMax =  -5.59663426713541E-12  4.22547075692960E-01
 cg2d: Sum(rhs),rhsMax =  -5.57753843111186E-12  4.25640188120459E-01
 cg2d: Sum(rhs),rhsMax =  -5.60884672040629E-12  4.28071211985188E-01
 cg2d: Sum(rhs),rhsMax =  -5.67434987885918E-12  4.29836027709453E-01
 cg2d: Sum(rhs),rhsMax =  -5.71676039839986E-12  4.30933795802069E-01
 cg2d: Sum(rhs),rhsMax =  -5.78936898421034E-12  4.31366921913886E-01
 cg2d: Sum(rhs),rhsMax =  -5.87474513480402E-12  4.31140992864490E-01
 cg2d: Sum(rhs),rhsMax =  -5.92981219682542E-12  4.30264684887215E-01
 cg2d: Sum(rhs),rhsMax =  -6.00097749270390E-12  4.28749645797832E-01
 cg2d: Sum(rhs),rhsMax =  -6.06137362524350E-12  4.26610352337144E-01
 cg2d: Sum(rhs),rhsMax =  -6.13009643046780E-12  4.23863945081010E-01
 cg2d: Sum(rhs),rhsMax =  -6.22935036886929E-12  4.20937681575557E-01
 cg2d: Sum(rhs),rhsMax =  -6.15518747082433E-12  4.24043032936119E-01
 cg2d: Sum(rhs),rhsMax =  -6.13264994342444E-12  4.26391961238490E-01
 cg2d: Sum(rhs),rhsMax =  -6.09745587354382E-12  4.27980404396289E-01
 cg2d: Sum(rhs),rhsMax =  -6.12243589159789E-12  4.28807929844048E-01
 cg2d: Sum(rhs),rhsMax =  -6.15307804707754E-12  4.28877698216478E-01
 cg2d: Sum(rhs),rhsMax =  -6.21280804580238E-12  4.28196398559999E-01
 cg2d: Sum(rhs),rhsMax =  -6.27553564669370E-12  4.26774156161300E-01
 cg2d: Sum(rhs),rhsMax =  -6.35880237354058E-12  4.24624414437905E-01
 cg2d: Sum(rhs),rhsMax =  -6.43241016007323E-12  4.21763792711969E-01
 cg2d: Sum(rhs),rhsMax =  -6.51889653369153E-12  4.18211921590061E-01
 cg2d: Sum(rhs),rhsMax =  -6.63591404048702E-12  4.13991258227377E-01
 cg2d: Sum(rhs),rhsMax =  -6.85673740008497E-12  4.09126883951303E-01
 cg2d: Sum(rhs),rhsMax =  -7.08699765539222E-12  4.03646287283630E-01
 cg2d: Sum(rhs),rhsMax =  -7.19779791324981E-12  3.97579134485777E-01
 cg2d: Sum(rhs),rhsMax =  -7.26707582998642E-12  3.90957029955813E-01
 cg2d: Sum(rhs),rhsMax =  -7.40174588287346E-12  3.83813269657386E-01
 cg2d: Sum(rhs),rhsMax =  -7.46869233125835E-12  3.76182589566167E-01
 cg2d: Sum(rhs),rhsMax =  -7.56028573078993E-12  3.68100911657597E-01
 cg2d: Sum(rhs),rhsMax =  -7.68540786566518E-12  3.59605090628885E-01
 cg2d: Sum(rhs),rhsMax =  -7.84294851285949E-12  3.50732664434391E-01
 cg2d: Sum(rhs),rhsMax =  -7.95341570380970E-12  3.41521609535552E-01
 cg2d: Sum(rhs),rhsMax =  -8.11550826540497E-12  3.32010103874158E-01
 cg2d: Sum(rhs),rhsMax =  -8.25683965643975E-12  3.22236297338230E-01
 cg2d: Sum(rhs),rhsMax =  -8.47077963328502E-12  3.12238091763419E-01
 cg2d: Sum(rhs),rhsMax =  -8.63409344020738E-12  3.02052931196063E-01
 cg2d: Sum(rhs),rhsMax =  -8.84015083357781E-12  2.91717603474338E-01
 cg2d: Sum(rhs),rhsMax =  -9.06252850541023E-12  2.81268053907855E-01
 cg2d: Sum(rhs),rhsMax =  -9.30988619529671E-12  2.70739211671271E-01
 cg2d: Sum(rhs),rhsMax =  -9.64861524010985E-12  2.60164829430923E-01
 cg2d: Sum(rhs),rhsMax =  -9.98645610650328E-12  2.49577336875386E-01
 cg2d: Sum(rhs),rhsMax =  -1.03649311355980E-11  2.39007708474257E-01
 cg2d: Sum(rhs),rhsMax =  -1.07760467216167E-11  2.28485346573535E-01
 cg2d: Sum(rhs),rhsMax =  -1.11907150213142E-11  2.18037980148502E-01
 cg2d: Sum(rhs),rhsMax =  -1.17058585047403E-11  2.07691579661895E-01
 cg2d: Sum(rhs),rhsMax =  -1.21842536060512E-11  1.97470288411165E-01
 cg2d: Sum(rhs),rhsMax =  -1.27364785384998E-11  1.87396370257055E-01
 cg2d: Sum(rhs),rhsMax =  -1.33867361640228E-11  1.77490174300517E-01
 cg2d: Sum(rhs),rhsMax =  -1.40853995134194E-11  1.67770116755994E-01
 cg2d: Sum(rhs),rhsMax =  -1.48407952593743E-11  1.58252677413223E-01
 cg2d: Sum(rhs),rhsMax =  -1.56696877695595E-11  1.48952411837363E-01
 cg2d: Sum(rhs),rhsMax =  -1.66722191607960E-11  1.39881978681924E-01
 cg2d: Sum(rhs),rhsMax =  -1.76738623736128E-11  1.31052178275255E-01
 cg2d: Sum(rhs),rhsMax =  -1.88042914572861E-11  1.22472002796006E-01
 cg2d: Sum(rhs),rhsMax =  -2.02076133604123E-11  1.14148695953515E-01
 cg2d: Sum(rhs),rhsMax =  -2.16950901688051E-11  1.06097048684987E-01
 cg2d: Sum(rhs),rhsMax =  -2.24584795205374E-11  1.02208445282865E-01
 cg2d: Sum(rhs),rhsMax =  -2.32723840198901E-11  9.84198982963171E-02
 cg2d: Sum(rhs),rhsMax =  -2.40378827953691E-11  9.48520646499525E-02
 cg2d: Sum(rhs),rhsMax =  -2.47312170742475E-11  9.21486975664305E-02
 cg2d: Sum(rhs),rhsMax =  -2.53892462609429E-11  8.93485481859185E-02
 cg2d: Sum(rhs),rhsMax =  -2.62122545890975E-11  8.64407402748521E-02
 cg2d: Sum(rhs),rhsMax =  -2.70899969123661E-11  8.34680061904934E-02
 cg2d: Sum(rhs),rhsMax =  -2.80931944374174E-11  8.03924662858527E-02
 cg2d: Sum(rhs),rhsMax =  -2.91319190992567E-11  7.72072775057629E-02
 cg2d: Sum(rhs),rhsMax =  -3.04896108360708E-11  7.39153880026688E-02
 cg2d: Sum(rhs),rhsMax =  -3.19160253781092E-11  7.05196665527423E-02
 cg2d: Sum(rhs),rhsMax =  -3.35999561507094E-11  6.70228930990889E-02
 cg2d: Sum(rhs),rhsMax =  -3.53879148207170E-11  6.34277544786346E-02
 cg2d: Sum(rhs),rhsMax =  -3.75404152208603E-11  5.97368456243793E-02
 cg2d: Sum(rhs),rhsMax =  -4.00511290798988E-11  5.59526763835546E-02
 cg2d: Sum(rhs),rhsMax =  -4.29915547606186E-11  5.20776839140517E-02
 cg2d: Sum(rhs),rhsMax =  -4.65456562181998E-11  4.81174067423763E-02
 cg2d: Sum(rhs),rhsMax =  -5.03785346772645E-11  4.41161272733751E-02
 cg2d: Sum(rhs),rhsMax =  -5.55592342965650E-11  4.00367473565256E-02
 cg2d: Sum(rhs),rhsMax =  -6.19089918219018E-11  3.59293041430923E-02
 cg2d: Sum(rhs),rhsMax =  -6.99821589567051E-11  3.17817744177140E-02
 cg2d: Sum(rhs),rhsMax =  -8.05389643865340E-11  2.76413524867022E-02
 cg2d: Sum(rhs),rhsMax =  -9.47038003573653E-11  2.35267144243096E-02
 cg2d: Sum(rhs),rhsMax =  -1.03330233258703E-10  2.15732858870765E-02
 cg2d: Sum(rhs),rhsMax =  -1.05252362381236E-10  2.12057242905319E-02
 cg2d: Sum(rhs),rhsMax =  -9.99537119739102E-11  2.23558090403571E-02
 cg2d: Sum(rhs),rhsMax =  -8.84088358077406E-11  2.52990393447481E-02
 cg2d: Sum(rhs),rhsMax =  -7.93273224886093E-11  2.82306490518725E-02
 cg2d: Sum(rhs),rhsMax =  -7.19522219583268E-11  3.11400798852470E-02
 cg2d: Sum(rhs),rhsMax =  -6.59277077375009E-11  3.40395011725764E-02
 cg2d: Sum(rhs),rhsMax =  -6.08304517868419E-11  3.69409114972586E-02
 cg2d: Sum(rhs),rhsMax =  -5.64202018438209E-11  3.98561306236059E-02
 cg2d: Sum(rhs),rhsMax =  -5.26096943787024E-11  4.27967915939675E-02
 cg2d: Sum(rhs),rhsMax =  -4.91877649722028E-11  4.57743313168461E-02
 cg2d: Sum(rhs),rhsMax =  -4.62145877122566E-11  4.87999784647119E-02
 cg2d: Sum(rhs),rhsMax =  -4.34865476961477E-11  5.18847378306092E-02
 cg2d: Sum(rhs),rhsMax =  -4.10134148864927E-11  5.50393703361064E-02
 cg2d: Sum(rhs),rhsMax =  -3.89155374591610E-11  5.82743680112843E-02
 cg2d: Sum(rhs),rhsMax =  -3.69573260883271E-11  6.15999235907310E-02
 cg2d: Sum(rhs),rhsMax =  -3.50875994925559E-11  6.51150109822514E-02
 cg2d: Sum(rhs),rhsMax =  -3.32200933428339E-11  6.90338182906286E-02
 cg2d: Sum(rhs),rhsMax =  -3.13977732702142E-11  7.33151649489994E-02
 cg2d: Sum(rhs),rhsMax =  -2.97011304439820E-11  7.77194914792494E-02
 cg2d: Sum(rhs),rhsMax =  -2.82041057175775E-11  8.20980187689220E-02
 cg2d: Sum(rhs),rhsMax =  -2.69277933284684E-11  8.64046714514329E-02
 cg2d: Sum(rhs),rhsMax =  -2.57391885583047E-11  9.06720945616912E-02
 cg2d: Sum(rhs),rhsMax =  -2.47073472792181E-11  9.48842821459333E-02
 cg2d: Sum(rhs),rhsMax =  -2.37517783219232E-11  9.90117601917220E-02
 cg2d: Sum(rhs),rhsMax =  -2.28902452548141E-11  1.03120077410757E-01
 cg2d: Sum(rhs),rhsMax =  -2.20746754209245E-11  1.07126812176184E-01
 cg2d: Sum(rhs),rhsMax =  -2.12525552711895E-11  1.11678247393480E-01
 cg2d: Sum(rhs),rhsMax =  -2.03732586356864E-11  1.16888326336543E-01
 cg2d: Sum(rhs),rhsMax =  -1.94995131153064E-11  1.22273113921451E-01
 cg2d: Sum(rhs),rhsMax =  -1.87725390787818E-11  1.27832244597970E-01
 cg2d: Sum(rhs),rhsMax =  -1.80628845214414E-11  1.33564253698805E-01
 cg2d: Sum(rhs),rhsMax =  -1.73276948345347E-11  1.39466552911916E-01
 cg2d: Sum(rhs),rhsMax =  -1.65907287907885E-11  1.45535413494707E-01
 cg2d: Sum(rhs),rhsMax =  -1.59104951436007E-11  1.51765957619083E-01
 cg2d: Sum(rhs),rhsMax =  -1.52735601943732E-11  1.58152158131098E-01
 cg2d: Sum(rhs),rhsMax =  -1.46678225121377E-11  1.64686846904351E-01
 cg2d: Sum(rhs),rhsMax =  -1.41362477279472E-11  1.71361731777753E-01
 cg2d: Sum(rhs),rhsMax =  -1.36930466965168E-11  1.78167421861498E-01
 cg2d: Sum(rhs),rhsMax =  -1.31544775072712E-11  1.85093460839142E-01
 cg2d: Sum(rhs),rhsMax =  -1.27136079441925E-11  1.92128367627467E-01
 cg2d: Sum(rhs),rhsMax =  -1.23452359446219E-11  1.99259683622914E-01
 cg2d: Sum(rhs),rhsMax =  -1.19553256183735E-11  2.06474025578472E-01
 cg2d: Sum(rhs),rhsMax =  -1.16133769267890E-11  2.13757143064291E-01
 cg2d: Sum(rhs),rhsMax =  -1.12398979013051E-11  2.21093979335054E-01
 cg2d: Sum(rhs),rhsMax =  -1.09892095423447E-11  2.28468734698577E-01
 cg2d: Sum(rhs),rhsMax =  -1.06545883227227E-11  2.35864931526886E-01
 cg2d: Sum(rhs),rhsMax =  -1.03986819155466E-11  2.43265480305629E-01
 cg2d: Sum(rhs),rhsMax =  -1.01501029803330E-11  2.50652746399421E-01
 cg2d: Sum(rhs),rhsMax =  -9.96536186903541E-12  2.58008617566708E-01
 cg2d: Sum(rhs),rhsMax =  -9.78372938220673E-12  2.65314572623930E-01
 cg2d: Sum(rhs),rhsMax =  -9.65760804660931E-12  2.72551751946627E-01
 cg2d: Sum(rhs),rhsMax =  -9.52837808654294E-12  2.79701030682394E-01
 cg2d: Sum(rhs),rhsMax =  -9.40758582146373E-12  2.86743095662116E-01
 cg2d: Sum(rhs),rhsMax =  -9.29345489453226E-12  2.93658526978243E-01
 cg2d: Sum(rhs),rhsMax =  -9.18554121653870E-12  3.00427885034123E-01
 cg2d: Sum(rhs),rhsMax =  -9.08650932274213E-12  3.07031803592537E-01
 cg2d: Sum(rhs),rhsMax =  -9.00790553259867E-12  3.13451088851177E-01
 cg2d: Sum(rhs),rhsMax =  -8.92008689135082E-12  3.19666824195986E-01
 cg2d: Sum(rhs),rhsMax =  -8.84992079619451E-12  3.25660479733866E-01
 cg2d: Sum(rhs),rhsMax =  -8.77764527729141E-12  3.31414025240169E-01
 cg2d: Sum(rhs),rhsMax =  -8.74367245273788E-12  3.36910044581351E-01
 cg2d: Sum(rhs),rhsMax =  -8.64541771505856E-12  3.44076188753054E-01
 cg2d: Sum(rhs),rhsMax =  -8.46112069297078E-12  3.55348198281522E-01
 cg2d: Sum(rhs),rhsMax =  -8.28848101264157E-12  3.66466308874395E-01
 cg2d: Sum(rhs),rhsMax =  -8.12472311650936E-12  3.77397802755736E-01
 cg2d: Sum(rhs),rhsMax =  -7.95519206064910E-12  3.88110149684504E-01
 cg2d: Sum(rhs),rhsMax =  -7.80708830916410E-12  3.98571166222636E-01
 cg2d: Sum(rhs),rhsMax =  -7.69206920381293E-12  4.08749172028172E-01
 cg2d: Sum(rhs),rhsMax =  -7.58293428049228E-12  4.18613143086264E-01
 cg2d: Sum(rhs),rhsMax =  -7.49944550904047E-12  4.28132861435949E-01
 cg2d: Sum(rhs),rhsMax =  -7.35389527051211E-12  4.37279061246579E-01
 cg2d: Sum(rhs),rhsMax =  -7.29727389625623E-12  4.46023571251436E-01
 cg2d: Sum(rhs),rhsMax =  -7.18436421465185E-12  4.54339453130924E-01
 cg2d: Sum(rhs),rhsMax =  -7.11897207850143E-12  4.62201135495167E-01
 cg2d: Sum(rhs),rhsMax =  -7.01882996168024E-12  4.69584543069528E-01
 cg2d: Sum(rhs),rhsMax =  -7.01694258253838E-12  4.76467220332356E-01
 cg2d: Sum(rhs),rhsMax =  -6.99540425586065E-12  4.82828448680062E-01
 cg2d: Sum(rhs),rhsMax =  -7.00184354940347E-12  4.88649356029292E-01
 cg2d: Sum(rhs),rhsMax =  -6.96065427518988E-12  4.93913017622677E-01
 cg2d: Sum(rhs),rhsMax =  -6.88327173037351E-12  4.98604546720177E-01
 cg2d: Sum(rhs),rhsMax =  -6.81188438989011E-12  5.02711173841990E-01
 cg2d: Sum(rhs),rhsMax =  -6.75937084082534E-12  5.06222313299623E-01
 cg2d: Sum(rhs),rhsMax =  -6.74049704940671E-12  5.09129615884528E-01
 cg2d: Sum(rhs),rhsMax =  -6.70152822124237E-12  5.11427006784786E-01
 cg2d: Sum(rhs),rhsMax =  -6.71862565582160E-12  5.13110708060881E-01
 cg2d: Sum(rhs),rhsMax =  -6.72173428029055E-12  5.14179245294429E-01
 cg2d: Sum(rhs),rhsMax =  -6.75015598972095E-12  5.14633438318257E-01
 cg2d: Sum(rhs),rhsMax =  -6.78923584018776E-12  5.14476376280669E-01
 cg2d: Sum(rhs),rhsMax =  -6.87572221380606E-12  5.13713377555318E-01
 cg2d: Sum(rhs),rhsMax =  -6.96942503708442E-12  5.12351935268678E-01
 cg2d: Sum(rhs),rhsMax =  -7.03459512862992E-12  5.10401648611688E-01
 cg2d: Sum(rhs),rhsMax =  -7.14928116707370E-12  5.07874141477046E-01
 cg2d: Sum(rhs),rhsMax =  -7.26219084867807E-12  5.04782969682612E-01
 cg2d: Sum(rhs),rhsMax =  -7.34790006617914E-12  5.01143517751067E-01
 cg2d: Sum(rhs),rhsMax =  -7.44082573334026E-12  4.96972886662705E-01
 cg2d: Sum(rhs),rhsMax =  -7.55118190198800E-12  4.92289772690921E-01
 cg2d: Sum(rhs),rhsMax =  -7.68274333040608E-12  4.87114339720002E-01
 cg2d: Sum(rhs),rhsMax =  -7.80842057679365E-12  4.81468085879942E-01
 cg2d: Sum(rhs),rhsMax =  -7.93676235844032E-12  4.75373704872264E-01
 cg2d: Sum(rhs),rhsMax =  -8.08797473439427E-12  4.68854943635798E-01
 cg2d: Sum(rhs),rhsMax =  -8.31412716451041E-12  4.61936457123559E-01
 cg2d: Sum(rhs),rhsMax =  -8.47322212393919E-12  4.54643661173715E-01
 cg2d: Sum(rhs),rhsMax =  -8.65574278918757E-12  4.47002585005913E-01
 cg2d: Sum(rhs),rhsMax =  -8.87190321208209E-12  4.39039724149334E-01
 cg2d: Sum(rhs),rhsMax =  -9.10849173862971E-12  4.30781895803835E-01
 cg2d: Sum(rhs),rhsMax =  -9.33564336946802E-12  4.22256096990161E-01
 cg2d: Sum(rhs),rhsMax =  -9.60254098458790E-12  4.13489366580467E-01
 cg2d: Sum(rhs),rhsMax =  -9.86677406444869E-12  4.04508651989577E-01
 cg2d: Sum(rhs),rhsMax =  -1.01023633902741E-11  3.95340681151276E-01
 cg2d: Sum(rhs),rhsMax =  -1.04197761530145E-11  3.86011840582303E-01
 cg2d: Sum(rhs),rhsMax =  -1.06998854221274E-11  3.76548059775644E-01
 cg2d: Sum(rhs),rhsMax =  -1.10412790021996E-11  3.66974702728059E-01
 cg2d: Sum(rhs),rhsMax =  -1.13939968571231E-11  3.57316466728671E-01
 cg2d: Sum(rhs),rhsMax =  -1.17461596005342E-11  3.47597288943781E-01
 cg2d: Sum(rhs),rhsMax =  -1.21518350937322E-11  3.37840261217672E-01
 cg2d: Sum(rhs),rhsMax =  -1.25678356610592E-11  3.28067553088841E-01
 cg2d: Sum(rhs),rhsMax =  -1.29306565455067E-11  3.18300343107311E-01
 cg2d: Sum(rhs),rhsMax =  -1.33733024654248E-11  3.08558758352902E-01
 cg2d: Sum(rhs),rhsMax =  -1.36879396706036E-11  2.98861823275766E-01
 cg2d: Sum(rhs),rhsMax =  -1.40444322838107E-11  2.89227416755053E-01
 cg2d: Sum(rhs),rhsMax =  -1.44600997842304E-11  2.79672236841759E-01
 cg2d: Sum(rhs),rhsMax =  -1.49018575257287E-11  2.70211774350243E-01
 cg2d: Sum(rhs),rhsMax =  -1.54035673105568E-11  2.60860293897318E-01
 cg2d: Sum(rhs),rhsMax =  -1.59814383948742E-11  2.51630821912493E-01
 cg2d: Sum(rhs),rhsMax =  -1.65917279915107E-11  2.42535141076951E-01
 cg2d: Sum(rhs),rhsMax =  -1.72024616773570E-11  2.33583790974379E-01
 cg2d: Sum(rhs),rhsMax =  -1.78450587640100E-11  2.24786074077715E-01
 cg2d: Sum(rhs),rhsMax =  -1.85692572429730E-11  2.16150066524089E-01
 cg2d: Sum(rhs),rhsMax =  -1.92486027117411E-11  2.07682633144989E-01
 cg2d: Sum(rhs),rhsMax =  -2.00367500369225E-11  1.99389446291255E-01
 cg2d: Sum(rhs),rhsMax =  -2.08565387183057E-11  1.91275008167877E-01
 cg2d: Sum(rhs),rhsMax =  -2.17202922314641E-11  1.83342676262991E-01
 cg2d: Sum(rhs),rhsMax =  -2.26378915613168E-11  1.75594691784328E-01
 cg2d: Sum(rhs),rhsMax =  -2.35751418387053E-11  1.68032211189863E-01
 cg2d: Sum(rhs),rhsMax =  -2.45845566126945E-11  1.60655340756727E-01
 cg2d: Sum(rhs),rhsMax =  -2.56507037832421E-11  1.53463174210369E-01
 cg2d: Sum(rhs),rhsMax =  -2.68748356901938E-11  1.46453833329308E-01
 cg2d: Sum(rhs),rhsMax =  -2.81731304951904E-11  1.39624511420078E-01
 cg2d: Sum(rhs),rhsMax =  -2.95339308564735E-11  1.32971519836323E-01
 cg2d: Sum(rhs),rhsMax =  -3.09570147294380E-11  1.26490337327647E-01
 cg2d: Sum(rhs),rhsMax =  -3.25149906998945E-11  1.20175661891300E-01
 cg2d: Sum(rhs),rhsMax =  -3.42913475392947E-11  1.14021464995472E-01
 cg2d: Sum(rhs),rhsMax =  -3.61377594515488E-11  1.08021047292107E-01
 cg2d: Sum(rhs),rhsMax =  -3.81278342231894E-11  1.02167095731715E-01
 cg2d: Sum(rhs),rhsMax =  -4.03155286932133E-11  9.64517413018415E-02
 cg2d: Sum(rhs),rhsMax =  -4.26879642745348E-11  9.08666172909475E-02
 cg2d: Sum(rhs),rhsMax =  -4.53478365969318E-11  8.54029172943874E-02
 cg2d: Sum(rhs),rhsMax =  -4.83317830202168E-11  8.00514528317897E-02
 cg2d: Sum(rhs),rhsMax =  -5.05897546076994E-11  7.64193895250715E-02
 cg2d: Sum(rhs),rhsMax =  -5.18447507147357E-11  7.45456337625227E-02
 cg2d: Sum(rhs),rhsMax =  -5.31138466541847E-11  7.27113514827070E-02
 cg2d: Sum(rhs),rhsMax =  -5.44342348973714E-11  7.09085700712834E-02
 cg2d: Sum(rhs),rhsMax =  -5.57656143485019E-11  6.91291090031598E-02
 cg2d: Sum(rhs),rhsMax =  -5.72051295222309E-11  6.73645860999860E-02
 cg2d: Sum(rhs),rhsMax =  -5.87077053637586E-11  6.56064225060729E-02
 cg2d: Sum(rhs),rhsMax =  -6.02762284529490E-11  6.38458469184791E-02
 cg2d: Sum(rhs),rhsMax =  -6.19684303870827E-11  6.20738997867632E-02
 cg2d: Sum(rhs),rhsMax =  -6.37282449034160E-11  6.02814384391795E-02
 cg2d: Sum(rhs),rhsMax =  -6.56483756245052E-11  5.84591441625100E-02
 cg2d: Sum(rhs),rhsMax =  -6.77522482561699E-11  5.65975323670983E-02
 cg2d: Sum(rhs),rhsMax =  -7.00568492106868E-11  5.46869671207260E-02
 cg2d: Sum(rhs),rhsMax =  -7.26210203083610E-11  5.27176809581924E-02
 cg2d: Sum(rhs),rhsMax =  -7.54807327751905E-11  5.06798008998916E-02
 cg2d: Sum(rhs),rhsMax =  -7.87085951969857E-11  4.85633811017562E-02
 cg2d: Sum(rhs),rhsMax =  -8.24054158243825E-11  4.63584426764036E-02
 cg2d: Sum(rhs),rhsMax =  -8.66287042100566E-11  4.40550204757895E-02
 cg2d: Sum(rhs),rhsMax =  -9.15925113531557E-11  4.16432162695688E-02
 cg2d: Sum(rhs),rhsMax =  -9.74424985145106E-11  3.91132574006174E-02
 cg2d: Sum(rhs),rhsMax =  -1.02054364958803E-10  3.73192554910575E-02
 cg2d: Sum(rhs),rhsMax =  -9.05475694423785E-11  4.20344676603573E-02
 cg2d: Sum(rhs),rhsMax =  -8.13619172035374E-11  4.67550687346728E-02
 cg2d: Sum(rhs),rhsMax =  -7.39257544069005E-11  5.14307353482650E-02
 cg2d: Sum(rhs),rhsMax =  -6.76255718090601E-11  5.61357723454395E-02
 cg2d: Sum(rhs),rhsMax =  -6.23752716144566E-11  6.08475157571228E-02
 cg2d: Sum(rhs),rhsMax =  -5.78221914793176E-11  6.56141086770510E-02
 cg2d: Sum(rhs),rhsMax =  -5.36470867729122E-11  7.05595858319147E-02
 cg2d: Sum(rhs),rhsMax =  -5.00145203030655E-11  7.55975940080162E-02
 cg2d: Sum(rhs),rhsMax =  -4.67785254976150E-11  8.06407950768021E-02
 cg2d: Sum(rhs),rhsMax =  -4.38779550887558E-11  8.58336091540618E-02
 cg2d: Sum(rhs),rhsMax =  -4.12589476472824E-11  9.11027169052114E-02
 cg2d: Sum(rhs),rhsMax =  -3.89051152405173E-11  9.64877684676957E-02
 cg2d: Sum(rhs),rhsMax =  -3.66466579304614E-11  1.02062353787514E-01
 cg2d: Sum(rhs),rhsMax =  -3.46706274800823E-11  1.07798815946271E-01
 cg2d: Sum(rhs),rhsMax =  -3.27915472553286E-11  1.13728891262732E-01
 cg2d: Sum(rhs),rhsMax =  -3.11066172820063E-11  1.20030833372267E-01
 cg2d: Sum(rhs),rhsMax =  -2.94798629951742E-11  1.26761394926332E-01
 cg2d: Sum(rhs),rhsMax =  -2.79952727666455E-11  1.33551158718630E-01
 cg2d: Sum(rhs),rhsMax =  -2.66699440309992E-11  1.40392540392309E-01
 cg2d: Sum(rhs),rhsMax =  -2.54762322349222E-11  1.47277287224614E-01
 cg2d: Sum(rhs),rhsMax =  -2.43797759758024E-11  1.54196491747487E-01
 cg2d: Sum(rhs),rhsMax =  -2.33588703935084E-11  1.61140610208615E-01
 cg2d: Sum(rhs),rhsMax =  -2.23978058322416E-11  1.68099486620095E-01
 cg2d: Sum(rhs),rhsMax =  -2.15696904781737E-11  1.75062382974881E-01
 cg2d: Sum(rhs),rhsMax =  -2.07176498179251E-11  1.82018015999227E-01
 cg2d: Sum(rhs),rhsMax =  -1.99604777151308E-11  1.88954600566193E-01
 cg2d: Sum(rhs),rhsMax =  -1.92673654808573E-11  1.95859899635033E-01
 cg2d: Sum(rhs),rhsMax =  -1.86507476129805E-11  2.02721280321875E-01
 cg2d: Sum(rhs),rhsMax =  -1.80420123285785E-11  2.09525775466214E-01
 cg2d: Sum(rhs),rhsMax =  -1.74769088090443E-11  2.16260149849923E-01
 cg2d: Sum(rhs),rhsMax =  -1.70297109747253E-11  2.22910970065399E-01
 cg2d: Sum(rhs),rhsMax =  -1.66257008160642E-11  2.29464676924149E-01
 cg2d: Sum(rhs),rhsMax =  -1.61732849335294E-11  2.35907659249837E-01
 cg2d: Sum(rhs),rhsMax =  -1.57805990497195E-11  2.42226327909406E-01
 cg2d: Sum(rhs),rhsMax =  -1.54264379048641E-11  2.48407188997971E-01
 cg2d: Sum(rhs),rhsMax =  -1.51129109227099E-11  2.54436915200105E-01
 cg2d: Sum(rhs),rhsMax =  -1.48383527687201E-11  2.60302414491993E-01
 cg2d: Sum(rhs),rhsMax =  -1.45704559528781E-11  2.65990895514003E-01
 cg2d: Sum(rhs),rhsMax =  -1.43391964968487E-11  2.71489929118855E-01
 cg2d: Sum(rhs),rhsMax =  -1.41222589178369E-11  2.76787505773962E-01
 cg2d: Sum(rhs),rhsMax =  -1.39692701850436E-11  2.81872088658461E-01
 cg2d: Sum(rhs),rhsMax =  -1.37888589435420E-11  2.86732662430895E-01
 cg2d: Sum(rhs),rhsMax =  -1.36504141323712E-11  2.91358777759515E-01
 cg2d: Sum(rhs),rhsMax =  -1.35084166075217E-11  2.95740591777204E-01
 cg2d: Sum(rhs),rhsMax =  -1.33731914431223E-11  2.99868904656669E-01
 cg2d: Sum(rhs),rhsMax =  -1.32628352744746E-11  3.03735192518420E-01
 cg2d: Sum(rhs),rhsMax =  -1.31463728791914E-11  3.07331636854131E-01
 cg2d: Sum(rhs),rhsMax =  -1.30180310975447E-11  3.10651150625433E-01
 cg2d: Sum(rhs),rhsMax =  -1.29414257088456E-11  3.13687401119904E-01
 cg2d: Sum(rhs),rhsMax =  -1.28062005444463E-11  3.16434829576705E-01
 cg2d: Sum(rhs),rhsMax =  -1.27581278874800E-11  3.18888667557599E-01
 cg2d: Sum(rhs),rhsMax =  -1.26842980563424E-11  3.21044949964318E-01
 cg2d: Sum(rhs),rhsMax =  -1.26083588014581E-11  3.22900524583337E-01
 cg2d: Sum(rhs),rhsMax =  -1.26062493777113E-11  3.24453058039949E-01
 cg2d: Sum(rhs),rhsMax =  -1.25780497128858E-11  3.25701037951648E-01
 cg2d: Sum(rhs),rhsMax =  -1.25518484495046E-11  3.26643771323994E-01
 cg2d: Sum(rhs),rhsMax =  -1.25607302337016E-11  3.27281378992408E-01
 cg2d: Sum(rhs),rhsMax =  -1.25576216092327E-11  3.27614786169924E-01
 cg2d: Sum(rhs),rhsMax =  -1.25752741553242E-11  3.27645709128826E-01
 cg2d: Sum(rhs),rhsMax =  -1.25830457164966E-11  3.27376638388587E-01
 cg2d: Sum(rhs),rhsMax =  -1.25016663687916E-11  3.29560824193470E-01
 cg2d: Sum(rhs),rhsMax =  -1.24223964448333E-11  3.31760091213798E-01
 cg2d: Sum(rhs),rhsMax =  -1.23864252188355E-11  3.33565919575059E-01
 cg2d: Sum(rhs),rhsMax =  -1.23350218927953E-11  3.34975836306381E-01
 cg2d: Sum(rhs),rhsMax =  -1.23416832309431E-11  3.35988567498573E-01
 cg2d: Sum(rhs),rhsMax =  -1.23298038445796E-11  3.36604022556819E-01
 cg2d: Sum(rhs),rhsMax =  -1.24004140289458E-11  3.36823274512602E-01
 cg2d: Sum(rhs),rhsMax =  -1.24951160529463E-11  3.36648537034390E-01
 cg2d: Sum(rhs),rhsMax =  -1.25975896381192E-11  3.36083138590523E-01
 cg2d: Sum(rhs),rhsMax =  -1.27092780743965E-11  3.35131494014929E-01
 cg2d: Sum(rhs),rhsMax =  -1.28479449301722E-11  3.33799073611276E-01
 cg2d: Sum(rhs),rhsMax =  -1.29730670650474E-11  3.32092369497236E-01
 cg2d: Sum(rhs),rhsMax =  -1.31721300533627E-11  3.30018859374877E-01
 cg2d: Sum(rhs),rhsMax =  -1.33641986366229E-11  3.27586967424788E-01
 cg2d: Sum(rhs),rhsMax =  -1.35886857322021E-11  3.24806021756803E-01
 cg2d: Sum(rhs),rhsMax =  -1.38390410242550E-11  3.21686208124116E-01
 cg2d: Sum(rhs),rhsMax =  -1.39819267275243E-11  3.18238520004151E-01
 cg2d: Sum(rhs),rhsMax =  -1.41170408696212E-11  3.14474704667611E-01
 cg2d: Sum(rhs),rhsMax =  -1.42843514794322E-11  3.10407205361650E-01
 cg2d: Sum(rhs),rhsMax =  -1.44747547281554E-11  3.06049099613400E-01
 cg2d: Sum(rhs),rhsMax =  -1.46500589437437E-11  3.01414033934892E-01
 cg2d: Sum(rhs),rhsMax =  -1.48687728795949E-11  2.96516155256735E-01
 cg2d: Sum(rhs),rhsMax =  -1.50914836183347E-11  2.91370040549409E-01
 cg2d: Sum(rhs),rhsMax =  -1.53449475348566E-11  2.85990624116697E-01
 cg2d: Sum(rhs),rhsMax =  -1.56027413211746E-11  2.80393123828429E-01
 cg2d: Sum(rhs),rhsMax =  -1.58631996427516E-11  2.74592967361192E-01
 cg2d: Sum(rhs),rhsMax =  -1.61498592277098E-11  2.68605718825137E-01
 cg2d: Sum(rhs),rhsMax =  -1.64783742206964E-11  2.62447006640931E-01
 cg2d: Sum(rhs),rhsMax =  -1.68315361648297E-11  2.56132453785240E-01
 cg2d: Sum(rhs),rhsMax =  -1.71812564175866E-11  2.49677610849991E-01
 cg2d: Sum(rhs),rhsMax =  -1.75904846244634E-11  2.43097892442903E-01
 cg2d: Sum(rhs),rhsMax =  -1.80166992436170E-11  2.36408517115481E-01
 cg2d: Sum(rhs),rhsMax =  -1.84479098663815E-11  2.29624450736693E-01
 cg2d: Sum(rhs),rhsMax =  -1.89962490182438E-11  2.22760353977745E-01
 cg2d: Sum(rhs),rhsMax =  -1.95202742858669E-11  2.15830533109558E-01
 cg2d: Sum(rhs),rhsMax =  -2.00425231966506E-11  2.08848894604846E-01
 cg2d: Sum(rhs),rhsMax =  -2.06522576817747E-11  2.01828902959058E-01
 cg2d: Sum(rhs),rhsMax =  -2.13592477038560E-11  1.94783541840829E-01
 cg2d: Sum(rhs),rhsMax =  -2.21077600670583E-11  1.87725278830967E-01
 cg2d: Sum(rhs),rhsMax =  -2.29620766845073E-11  1.80666033865218E-01
 cg2d: Sum(rhs),rhsMax =  -2.38878916647423E-11  1.73617151598781E-01
 cg2d: Sum(rhs),rhsMax =  -2.48857601192753E-11  1.66589377616076E-01
 cg2d: Sum(rhs),rhsMax =  -2.59471333308170E-11  1.59592837798089E-01
 cg2d: Sum(rhs),rhsMax =  -2.71233036031049E-11  1.52637021634910E-01
 cg2d: Sum(rhs),rhsMax =  -2.84235968095459E-11  1.45730769017298E-01
 cg2d: Sum(rhs),rhsMax =  -2.98179259061726E-11  1.38882260441833E-01
 cg2d: Sum(rhs),rhsMax =  -3.12244674560702E-11  1.32099008558540E-01
 cg2d: Sum(rhs),rhsMax =  -3.28025384632724E-11  1.25387851678123E-01
 cg2d: Sum(rhs),rhsMax =  -3.45650175148648E-11  1.18754948832829E-01
 cg2d: Sum(rhs),rhsMax =  -3.65388830303459E-11  1.12205776039447E-01
 cg2d: Sum(rhs),rhsMax =  -3.86751741743296E-11  1.05745123347089E-01
 cg2d: Sum(rhs),rhsMax =  -4.03075350874360E-11  1.01214713305607E-01
 cg2d: Sum(rhs),rhsMax =  -4.20665724476521E-11  9.68039843053992E-02
 cg2d: Sum(rhs),rhsMax =  -4.39747127600754E-11  9.24807043294815E-02
 cg2d: Sum(rhs),rhsMax =  -4.59946525310784E-11  8.82445294508212E-02
 cg2d: Sum(rhs),rhsMax =  -4.81510387118078E-11  8.40946838214455E-02
 cg2d: Sum(rhs),rhsMax =  -5.05557817831459E-11  8.00299676013176E-02
 cg2d: Sum(rhs),rhsMax =  -5.31029664685434E-11  7.60487661415782E-02
 cg2d: Sum(rhs),rhsMax =  -5.59179369474805E-11  7.21490602147818E-02
 cg2d: Sum(rhs),rhsMax =  -5.89808202278164E-11  6.83284368101554E-02
 cg2d: Sum(rhs),rhsMax =  -6.23667784083182E-11  6.45841002409315E-02
 cg2d: Sum(rhs),rhsMax =  -6.60538290730983E-11  6.09128833205501E-02
 cg2d: Sum(rhs),rhsMax =  -7.02512492622986E-11  5.73112584225646E-02
 cg2d: Sum(rhs),rhsMax =  -7.47293338321242E-11  5.37753481408828E-02
 cg2d: Sum(rhs),rhsMax =  -7.99329491485423E-11  5.03009353171171E-02
 cg2d: Sum(rhs),rhsMax =  -8.57979243207296E-11  4.68834723196509E-02
 cg2d: Sum(rhs),rhsMax =  -9.24844645311396E-11  4.35180896230334E-02
 cg2d: Sum(rhs),rhsMax =  -1.00193353613776E-10  4.01996037848650E-02
 cg2d: Sum(rhs),rhsMax =  -1.09181746976716E-10  3.69225250202312E-02
 cg2d: Sum(rhs),rhsMax =  -1.19813950427705E-10  3.36810646455936E-02
 cg2d: Sum(rhs),rhsMax =  -1.32619679127366E-10  3.04691428312924E-02
 cg2d: Sum(rhs),rhsMax =  -1.48321799287032E-10  2.72803971808365E-02
 cg2d: Sum(rhs),rhsMax =  -1.67960867436534E-10  2.41081926151931E-02
 cg2d: Sum(rhs),rhsMax =  -1.93384308566635E-10  2.09456331328699E-02
 cg2d: Sum(rhs),rhsMax =  -1.82716730634525E-10  2.21761036571558E-02
 cg2d: Sum(rhs),rhsMax =  -1.53589585494274E-10  2.64003063981876E-02
 cg2d: Sum(rhs),rhsMax =  -1.32482136372403E-10  3.06125529819506E-02
 cg2d: Sum(rhs),rhsMax =  -1.16425535878761E-10  3.48527349461679E-02
 cg2d: Sum(rhs),rhsMax =  -1.03834496556487E-10  3.90951502374274E-02
 cg2d: Sum(rhs),rhsMax =  -9.35909127974810E-11  4.33956421462220E-02
 cg2d: Sum(rhs),rhsMax =  -8.50985948375182E-11  4.77524464257251E-02
 cg2d: Sum(rhs),rhsMax =  -7.80651099319130E-11  5.21079191148746E-02
 cg2d: Sum(rhs),rhsMax =  -7.21622761545859E-11  5.64668672069409E-02
 cg2d: Sum(rhs),rhsMax =  -6.71156463738498E-11  6.08339323182617E-02
 cg2d: Sum(rhs),rhsMax =  -6.27145002596308E-11  6.52135711927988E-02
 cg2d: Sum(rhs),rhsMax =  -5.88662452116751E-11  6.96100348462349E-02
 cg2d: Sum(rhs),rhsMax =  -5.54989387779870E-11  7.40273463579599E-02
 cg2d: Sum(rhs),rhsMax =  -5.24202903307014E-11  7.84692774638953E-02
 cg2d: Sum(rhs),rhsMax =  -4.96962471174811E-11  8.29393243011496E-02
 cg2d: Sum(rhs),rhsMax =  -4.72368810733315E-11  8.74406826975522E-02
 cg2d: Sum(rhs),rhsMax =  -4.49809078872931E-11  9.19762234363047E-02
 cg2d: Sum(rhs),rhsMax =  -4.29396518342173E-11  9.65484679579386E-02
 cg2d: Sum(rhs),rhsMax =  -4.10443901088797E-11  1.01159564924141E-01
 cg2d: Sum(rhs),rhsMax =  -3.93294286027412E-11  1.05811268017133E-01
 cg2d: Sum(rhs),rhsMax =  -3.76554343262114E-11  1.10504915295413E-01
 cg2d: Sum(rhs),rhsMax =  -3.61866092646324E-11  1.15241410397273E-01
 cg2d: Sum(rhs),rhsMax =  -3.48179263198745E-11  1.20021205845378E-01
 cg2d: Sum(rhs),rhsMax =  -3.34876570917686E-11  1.24844288746311E-01
 cg2d: Sum(rhs),rhsMax =  -3.23199245144679E-11  1.29710169189653E-01
 cg2d: Sum(rhs),rhsMax =  -3.12359027532239E-11  1.34617871559676E-01
 cg2d: Sum(rhs),rhsMax =  -3.02466940382828E-11  1.39565929176458E-01
 cg2d: Sum(rhs),rhsMax =  -2.93434165854478E-11  1.44552382534485E-01
 cg2d: Sum(rhs),rhsMax =  -2.83904011411096E-11  1.49574781345918E-01
 cg2d: Sum(rhs),rhsMax =  -2.75726108611707E-11  1.54630190464886E-01
 cg2d: Sum(rhs),rhsMax =  -2.67670330345027E-11  1.59715199726371E-01
 cg2d: Sum(rhs),rhsMax =  -2.60113042216403E-11  1.64825937641375E-01
 cg2d: Sum(rhs),rhsMax =  -2.52362575281495E-11  1.69958088747887E-01
 cg2d: Sum(rhs),rhsMax =  -2.45665709996956E-11  1.75106914200017E-01
 cg2d: Sum(rhs),rhsMax =  -2.39128716827963E-11  1.80267275260160E-01
 cg2d: Sum(rhs),rhsMax =  -2.32822650048092E-11  1.85433659246913E-01
 cg2d: Sum(rhs),rhsMax =  -2.26441088102547E-11  1.90600207457712E-01
 cg2d: Sum(rhs),rhsMax =  -2.20694573727087E-11  1.95760744582209E-01
 cg2d: Sum(rhs),rhsMax =  -2.15019113625203E-11  2.00908809139721E-01
 cg2d: Sum(rhs),rhsMax =  -2.09725570243791E-11  2.06037684502885E-01
 cg2d: Sum(rhs),rhsMax =  -2.04454231322870E-11  2.11140430102397E-01
 cg2d: Sum(rhs),rhsMax =  -1.99822380864134E-11  2.16209912441478E-01
 cg2d: Sum(rhs),rhsMax =  -1.95323757168353E-11  2.21238835599383E-01
 cg2d: Sum(rhs),rhsMax =  -1.91101579005704E-11  2.26219770900231E-01
 cg2d: Sum(rhs),rhsMax =  -1.87245774441180E-11  2.31145185534376E-01
 cg2d: Sum(rhs),rhsMax =  -1.83670856301887E-11  2.36007470005293E-01
 cg2d: Sum(rhs),rhsMax =  -1.80568893171085E-11  2.40798964349119E-01
 cg2d: Sum(rhs),rhsMax =  -1.77644565724222E-11  2.45511983196502E-01
 cg2d: Sum(rhs),rhsMax =  -1.74793512996985E-11  2.50138839836534E-01
 cg2d: Sum(rhs),rhsMax =  -1.70042868674614E-11  2.57909987504576E-01
 cg2d: Sum(rhs),rhsMax =  -1.65473190705256E-11  2.66189276559131E-01
 cg2d: Sum(rhs),rhsMax =  -1.60806923332757E-11  2.74445169423554E-01
 cg2d: Sum(rhs),rhsMax =  -1.56802348882934E-11  2.82662356995186E-01
 cg2d: Sum(rhs),rhsMax =  -1.52936552311189E-11  2.90825264861491E-01
 cg2d: Sum(rhs),rhsMax =  -1.49558143647255E-11  2.98918112896209E-01
 cg2d: Sum(rhs),rhsMax =  -1.45988776623085E-11  3.06924976976437E-01
 cg2d: Sum(rhs),rhsMax =  -1.43102196759060E-11  3.14829852424406E-01
 cg2d: Sum(rhs),rhsMax =  -1.40131239945163E-11  3.22616718696615E-01
 cg2d: Sum(rhs),rhsMax =  -1.37383437959215E-11  3.30269604821021E-01
 cg2d: Sum(rhs),rhsMax =  -1.35028654923985E-11  3.37772654970938E-01
 cg2d: Sum(rhs),rhsMax =  -1.32480693082471E-11  3.45110193564658E-01
 cg2d: Sum(rhs),rhsMax =  -1.30341293314018E-11  3.52266789276745E-01
(PID.TID 0000.0001)      cg2d_init_res =   6.37704123763036E-02
(PID.TID 0000.0001)      cg2d_iters(min,last) =      -1      37
(PID.TID 0000.0001)      cg2d_last_res =   5.27732442750843E-14
(PID.TID 0000.0001) // =======================================================
(PID.TID 0000.0001) // Begin MONITOR dynamic field statistics
(PID.TID 0000.0001) // =======================================================
(PID.TID 0000.0001) %MON time_tsnumber                =                   960
(PID.TID 0000.0001) %MON time_secondsf                =   1.4400000000000E+04
(PID.TID 0000.0001) %MON dynstat_eta_max              =   6.0055952871842E-02
(PID.TID 0000.0001) %MON dynstat_eta_min              =  -6.0522662823677E-02
(PID.TID 0000.0001) %MON dynstat_eta_mean             =   9.8830586933727E-15
(PID.TID 0000.0001) %MON dynstat_eta_sd               =   4.2615492783529E-02
(PID.TID 0000.0001) %MON dynstat_eta_del2             =   1.5075337565675E-05
(PID.TID 0000.0001) %MON dynstat_uvel_max             =   1.2835787504608E+00
(PID.TID 0000.0001) %MON dynstat_uvel_min             =  -4.5718337199049E-01
(PID.TID 0000.0001) %MON dynstat_uvel_mean            =   3.3701996840467E-01
(PID.TID 0000.0001) %MON dynstat_uvel_sd              =   6.9002357719236E-02
(PID.TID 0000.0001) %MON dynstat_uvel_del2            =   3.4502527699004E-04
(PID.TID 0000.0001) %MON dynstat_vvel_max             =   0.0000000000000E+00
(PID.TID 0000.0001) %MON dynstat_vvel_min             =   0.0000000000000E+00
(PID.TID 0000.0001) %MON dynstat_vvel_mean            =   0.0000000000000E+00
(PID.TID 0000.0001) %MON dynstat_vvel_sd              =   0.0000000000000E+00
(PID.TID 0000.0001) %MON dynstat_vvel_del2            =   0.0000000000000E+00
(PID.TID 0000.0001) %MON dynstat_wvel_max             =   1.2734193490021E-02
(PID.TID 0000.0001) %MON dynstat_wvel_min             =  -2.4563235565770E-02
(PID.TID 0000.0001) %MON dynstat_wvel_mean            =   5.8520631165883E-21
(PID.TID 0000.0001) %MON dynstat_wvel_sd              =   1.4531554385550E-03
(PID.TID 0000.0001) %MON dynstat_wvel_del2            =   2.5878896242233E-05
(PID.TID 0000.0001) %MON dynstat_theta_max            =   1.5000000000003E+01
(PID.TID 0000.0001) %MON dynstat_theta_min            =   9.9999999999983E+00
(PID.TID 0000.0001) %MON dynstat_theta_mean           =   1.3335039626272E+01
(PID.TID 0000.0001) %MON dynstat_theta_sd             =   2.3088644392899E+00
(PID.TID 0000.0001) %MON dynstat_theta_del2           =   9.0087277807857E-04
(PID.TID 0000.0001) %MON dynstat_salt_max             =   3.5000000000000E+01
(PID.TID 0000.0001) %MON dynstat_salt_min             =   3.5000000000000E+01
(PID.TID 0000.0001) %MON dynstat_salt_mean            =   3.5000000000000E+01
(PID.TID 0000.0001) %MON dynstat_salt_sd              =   2.1316282072803E-14
(PID.TID 0000.0001) %MON dynstat_salt_del2            =   0.0000000000000E+00
(PID.TID 0000.0001) %MON dynstat_sst_max              =   1.5000000000000E+01
(PID.TID 0000.0001) %MON dynstat_sst_min              =   1.4999999999998E+01
(PID.TID 0000.0001) %MON dynstat_sst_mean             =   1.4999999999999E+01
(PID.TID 0000.0001) %MON dynstat_sst_sd               =   5.5678837266569E-13
(PID.TID 0000.0001) %MON dynstat_sst_del2             =   5.9867802920546E-15
(PID.TID 0000.0001) %MON dynstat_sss_max              =   3.5000000000000E+01
(PID.TID 0000.0001) %MON dynstat_sss_min              =   3.5000000000000E+01
(PID.TID 0000.0001) %MON dynstat_sss_mean             =   3.5000000000000E+01
(PID.TID 0000.0001) %MON dynstat_sss_sd               =   7.8159700933611E-14
(PID.TID 0000.0001) %MON dynstat_sss_del2             =   0.0000000000000E+00
(PID.TID 0000.0001) %MON forcing_qnet_max             =   0.0000000000000E+00
(PID.TID 0000.0001) %MON forcing_qnet_min             =   0.0000000000000E+00
(PID.TID 0000.0001) %MON forcing_qnet_mean            =   0.0000000000000E+00
(PID.TID 0000.0001) %MON forcing_qnet_sd              =   0.0000000000000E+00
(PID.TID 0000.0001) %MON forcing_qnet_del2            =   0.0000000000000E+00
(PID.TID 0000.0001) %MON forcing_qsw_max              =   0.0000000000000E+00
(PID.TID 0000.0001) %MON forcing_qsw_min              =   0.0000000000000E+00
(PID.TID 0000.0001) %MON forcing_qsw_mean             =   0.0000000000000E+00
(PID.TID 0000.0001) %MON forcing_qsw_sd               =   0.0000000000000E+00
(PID.TID 0000.0001) %MON forcing_qsw_del2             =   0.0000000000000E+00
(PID.TID 0000.0001) %MON forcing_empmr_max            =   0.0000000000000E+00
(PID.TID 0000.0001) %MON forcing_empmr_min            =   0.0000000000000E+00
(PID.TID 0000.0001) %MON forcing_empmr_mean           =   0.0000000000000E+00
(PID.TID 0000.0001) %MON forcing_empmr_sd             =   0.0000000000000E+00
(PID.TID 0000.0001) %MON forcing_empmr_del2           =   0.0000000000000E+00
(PID.TID 0000.0001) %MON forcing_fu_max               =   0.0000000000000E+00
(PID.TID 0000.0001) %MON forcing_fu_min               =   0.0000000000000E+00
(PID.TID 0000.0001) %MON forcing_fu_mean              =   0.0000000000000E+00
(PID.TID 0000.0001) %MON forcing_fu_sd                =   0.0000000000000E+00
(PID.TID 0000.0001) %MON forcing_fu_del2              =   0.0000000000000E+00
(PID.TID 0000.0001) %MON forcing_fv_max               =   0.0000000000000E+00
(PID.TID 0000.0001) %MON forcing_fv_min               =   0.0000000000000E+00
(PID.TID 0000.0001) %MON forcing_fv_mean              =   0.0000000000000E+00
(PID.TID 0000.0001) %MON forcing_fv_sd                =   0.0000000000000E+00
(PID.TID 0000.0001) %MON forcing_fv_del2              =   0.0000000000000E+00
(PID.TID 0000.0001) %MON advcfl_uvel_max              =   9.6268406284560E-02
(PID.TID 0000.0001) %MON advcfl_vvel_max              =   0.0000000000000E+00
(PID.TID 0000.0001) %MON advcfl_wvel_max              =   1.2675925832954E-01
(PID.TID 0000.0001) %MON advcfl_W_hf_max              =   1.2838098846400E-01
(PID.TID 0000.0001) %MON pe_b_mean                    =   4.5371351709021E-05
(PID.TID 0000.0001) %MON ke_max                       =   5.4948258570954E-01
(PID.TID 0000.0001) %MON ke_mean                      =   5.9174005206870E-02
(PID.TID 0000.0001) %MON ke_vol                       =   9.5889217545975E+10
(PID.TID 0000.0001) %MON vort_r_min                   =   0.0000000000000E+00
(PID.TID 0000.0001) %MON vort_r_max                   =   0.0000000000000E+00
(PID.TID 0000.0001) %MON vort_a_mean                  =   0.0000000000000E+00
(PID.TID 0000.0001) %MON vort_a_sd                    =   0.0000000000000E+00
(PID.TID 0000.0001) %MON vort_p_mean                  =   0.0000000000000E+00
(PID.TID 0000.0001) %MON vort_p_sd                    =   0.0000000000000E+00
(PID.TID 0000.0001) %MON surfExpan_theta_mean         =   8.2559952546998E-18
(PID.TID 0000.0001) %MON surfExpan_salt_mean          =   8.3798305280589E-20
(PID.TID 0000.0001) // =======================================================
(PID.TID 0000.0001) // End MONITOR dynamic field statistics
(PID.TID 0000.0001) // =======================================================
(PID.TID 0000.0001) // =======================================================
(PID.TID 0000.0001) // Begin OBCS MONITOR field statistics
(PID.TID 0000.0001) // =======================================================
(PID.TID 0000.0001) %MON obc_E_uVel_max               =   3.3404902334837E-01
(PID.TID 0000.0001) %MON obc_E_uVel_min               =   3.3404902334837E-01
(PID.TID 0000.0001) %MON obc_E_uVel_mean              =   3.3404902334837E-01
(PID.TID 0000.0001) %MON obc_E_uVel_sd                =   8.3300023432813E-09
(PID.TID 0000.0001) %MON obc_E_uVel_Int               =   3.3404902334837E+05
(PID.TID 0000.0001) %MON obc_W_uVel_max               =   3.3404902334837E-01
(PID.TID 0000.0001) %MON obc_W_uVel_min               =   3.3404902334837E-01
(PID.TID 0000.0001) %MON obc_W_uVel_mean              =   3.3404902334837E-01
(PID.TID 0000.0001) %MON obc_W_uVel_sd                =   8.3300023432813E-09
(PID.TID 0000.0001) %MON obc_W_uVel_Int               =   3.3404902334837E+05
(PID.TID 0000.0001) // =======================================================
(PID.TID 0000.0001) // End OBCS MONITOR field statistics
(PID.TID 0000.0001) // =======================================================
 cg2d: Sum(rhs),rhsMax =  -1.28109745034521E-11  3.59227317371614E-01
 cg2d: Sum(rhs),rhsMax =  -1.26411103806845E-11  3.65977019814886E-01
 cg2d: Sum(rhs),rhsMax =  -1.24489307751219E-11  3.72501562695577E-01
 cg2d: Sum(rhs),rhsMax =  -1.22635235300095E-11  3.78787090582660E-01
 cg2d: Sum(rhs),rhsMax =  -1.21309629008692E-11  3.84820277540606E-01
 cg2d: Sum(rhs),rhsMax =  -1.19805276810325E-11  3.90588374633725E-01
 cg2d: Sum(rhs),rhsMax =  -1.19059206937777E-11  3.96079253848479E-01
 cg2d: Sum(rhs),rhsMax =  -1.17966747481546E-11  4.01281448447843E-01
 cg2d: Sum(rhs),rhsMax =  -1.17093001961166E-11  4.06184189836111E-01
 cg2d: Sum(rhs),rhsMax =  -1.16368026326086E-11  4.10777441052855E-01
 cg2d: Sum(rhs),rhsMax =  -1.15230047725845E-11  4.15051927030514E-01
 cg2d: Sum(rhs),rhsMax =  -1.14916964832901E-11  4.18999161741705E-01
 cg2d: Sum(rhs),rhsMax =  -1.14159792730106E-11  4.22611472339052E-01
 cg2d: Sum(rhs),rhsMax =  -1.13269393864357E-11  4.25882020349820E-01
 cg2d: Sum(rhs),rhsMax =  -1.13160592007944E-11  4.28804819935878E-01
 cg2d: Sum(rhs),rhsMax =  -1.12559961351621E-11  4.31374753191762E-01
 cg2d: Sum(rhs),rhsMax =  -1.11824993709320E-11  4.33587582414315E-01
 cg2d: Sum(rhs),rhsMax =  -1.11446407657922E-11  4.35439959243280E-01
 cg2d: Sum(rhs),rhsMax =  -1.11318732010091E-11  4.36929430570225E-01
 cg2d: Sum(rhs),rhsMax =  -1.10825792987157E-11  4.38054441108995E-01
 cg2d: Sum(rhs),rhsMax =  -1.10512710094213E-11  4.38814332542794E-01
 cg2d: Sum(rhs),rhsMax =  -1.10292885935337E-11  4.39209339262840E-01
 cg2d: Sum(rhs),rhsMax =  -1.10623732396675E-11  4.39240580496772E-01
 cg2d: Sum(rhs),rhsMax =  -1.10927933505423E-11  4.38910048730688E-01
 cg2d: Sum(rhs),rhsMax =  -1.11763931442965E-11  4.38220594763197E-01
 cg2d: Sum(rhs),rhsMax =  -1.12181375300224E-11  4.37175909369972E-01
 cg2d: Sum(rhs),rhsMax =  -1.12808651309138E-11  4.35780501751843E-01
 cg2d: Sum(rhs),rhsMax =  -1.13736797757724E-11  4.34039674916265E-01
 cg2d: Sum(rhs),rhsMax =  -1.14047660204619E-11  4.31959498012480E-01
 cg2d: Sum(rhs),rhsMax =  -1.15376597165096E-11  4.29546775536687E-01
 cg2d: Sum(rhs),rhsMax =  -1.16828768881305E-11  4.26809014370326E-01
 cg2d: Sum(rhs),rhsMax =  -1.18017817740679E-11  4.23754388032779E-01
 cg2d: Sum(rhs),rhsMax =  -1.19492193917381E-11  4.20391698853008E-01
 cg2d: Sum(rhs),rhsMax =  -1.20826681992980E-11  4.16730338193009E-01
 cg2d: Sum(rhs),rhsMax =  -1.22544197012076E-11  4.12780244701090E-01
 cg2d: Sum(rhs),rhsMax =  -1.24613652729977E-11  4.08551860804975E-01
 cg2d: Sum(rhs),rhsMax =  -1.26735288930035E-11  4.04056087202069E-01
 cg2d: Sum(rhs),rhsMax =  -1.28650423647514E-11  3.99304236261028E-01
 cg2d: Sum(rhs),rhsMax =  -1.31018529359039E-11  3.94307984286092E-01
 cg2d: Sum(rhs),rhsMax =  -1.33543176517037E-11  3.89079322239004E-01
 cg2d: Sum(rhs),rhsMax =  -1.36022304531025E-11  3.83630505704393E-01
 cg2d: Sum(rhs),rhsMax =  -1.38432598717486E-11  3.77974004184068E-01
 cg2d: Sum(rhs),rhsMax =  -1.41013867249740E-11  3.72122449977827E-01
 cg2d: Sum(rhs),rhsMax =  -1.43782763473155E-11  3.66088586590486E-01
 cg2d: Sum(rhs),rhsMax =  -1.45408129981206E-11  3.59885217019759E-01
 cg2d: Sum(rhs),rhsMax =  -1.46732626049584E-11  3.53525152444964E-01
 cg2d: Sum(rhs),rhsMax =  -1.48933088084391E-11  3.47021161719112E-01
 cg2d: Sum(rhs),rhsMax =  -1.50973678003652E-11  3.40385922019311E-01
 cg2d: Sum(rhs),rhsMax =  -1.53830281846012E-11  3.33631971332571E-01
 cg2d: Sum(rhs),rhsMax =  -1.56639146098314E-11  3.26771663092230E-01
 cg2d: Sum(rhs),rhsMax =  -1.59786628373126E-11  3.19817123300095E-01
 cg2d: Sum(rhs),rhsMax =  -1.63159485921938E-11  3.12780210514656E-01
 cg2d: Sum(rhs),rhsMax =  -1.67119651450776E-11  3.05672478824009E-01
 cg2d: Sum(rhs),rhsMax =  -1.71254121994480E-11  2.98505144194420E-01
 cg2d: Sum(rhs),rhsMax =  -1.75196523954924E-11  2.91289054360313E-01
 cg2d: Sum(rhs),rhsMax =  -1.79696257873729E-11  2.84034661684676E-01
 cg2d: Sum(rhs),rhsMax =  -1.83962844957364E-11  2.76751998773280E-01
 cg2d: Sum(rhs),rhsMax =  -1.88926652100463E-11  2.69450656581280E-01
 cg2d: Sum(rhs),rhsMax =  -1.94070315373551E-11  2.62139765387763E-01
 cg2d: Sum(rhs),rhsMax =  -1.99031902070601E-11  2.54827977618263E-01
 cg2d: Sum(rhs),rhsMax =  -2.04267713854733E-11  2.47523452347881E-01
 cg2d: Sum(rhs),rhsMax =  -2.10055306482104E-11  2.40233841405576E-01
 cg2d: Sum(rhs),rhsMax =  -2.16449080880921E-11  2.32966277041740E-01
 cg2d: Sum(rhs),rhsMax =  -2.22729612531225E-11  2.25727361200695E-01
 cg2d: Sum(rhs),rhsMax =  -2.29916086169624E-11  2.18523156772376E-01
 cg2d: Sum(rhs),rhsMax =  -2.37105890477096E-11  2.11359180909440E-01
 cg2d: Sum(rhs),rhsMax =  -2.45000686405206E-11  2.04240400793774E-01
 cg2d: Sum(rhs),rhsMax =  -2.53554954809943E-11  1.97171232203585E-01
 cg2d: Sum(rhs),rhsMax =  -2.62202481948748E-11  1.90155541194505E-01
 cg2d: Sum(rhs),rhsMax =  -2.71499489556959E-11  1.83196649401921E-01
 cg2d: Sum(rhs),rhsMax =  -2.81226153475700E-11  1.76297343134589E-01
 cg2d: Sum(rhs),rhsMax =  -2.91894286519323E-11  1.69459886284165E-01
 cg2d: Sum(rhs),rhsMax =  -3.03335134788085E-11  1.62686036937604E-01
 cg2d: Sum(rhs),rhsMax =  -3.15689696606114E-11  1.55977067474145E-01
 cg2d: Sum(rhs),rhsMax =  -3.28607141497628E-11  1.49333787489484E-01
 cg2d: Sum(rhs),rhsMax =  -3.43564066085378E-11  1.42756569267654E-01
 cg2d: Sum(rhs),rhsMax =  -3.59556828755103E-11  1.36245375117268E-01
 cg2d: Sum(rhs),rhsMax =  -3.77011755148260E-11  1.29799785742029E-01
 cg2d: Sum(rhs),rhsMax =  -3.95715682444120E-11  1.23419028943128E-01
 cg2d: Sum(rhs),rhsMax =  -4.16245926615488E-11  1.17102007995078E-01
 cg2d: Sum(rhs),rhsMax =  -4.39256409023869E-11  1.10847329247772E-01
 cg2d: Sum(rhs),rhsMax =  -4.64880356432218E-11  1.04653328215177E-01
 cg2d: Sum(rhs),rhsMax =  -4.93103335941214E-11  9.85180941329746E-02
 cg2d: Sum(rhs),rhsMax =  -5.10748110471582E-11  9.49746599181307E-02
 cg2d: Sum(rhs),rhsMax =  -5.26966248415306E-11  9.18601437866278E-02
 cg2d: Sum(rhs),rhsMax =  -5.45281597652547E-11  8.87416181730995E-02
 cg2d: Sum(rhs),rhsMax =  -5.64241986467096E-11  8.56142583238654E-02
 cg2d: Sum(rhs),rhsMax =  -5.84972070782896E-11  8.24731846352006E-02
 cg2d: Sum(rhs),rhsMax =  -6.07438543909211E-11  7.93134902274767E-02
 cg2d: Sum(rhs),rhsMax =  -6.31767971270847E-11  7.61302672618785E-02
 cg2d: Sum(rhs),rhsMax =  -6.58701981848253E-11  7.29186312811191E-02
 cg2d: Sum(rhs),rhsMax =  -6.88960000161387E-11  6.96737430053857E-02
 cg2d: Sum(rhs),rhsMax =  -7.22379933648654E-11  6.63908272301390E-02
 cg2d: Sum(rhs),rhsMax =  -7.60014273737397E-11  6.30651884272484E-02
 cg2d: Sum(rhs),rhsMax =  -8.02606869854117E-11  5.96922232498643E-02
 cg2d: Sum(rhs),rhsMax =  -8.51129167145359E-11  5.62674302611084E-02
 cg2d: Sum(rhs),rhsMax =  -9.06807962053335E-11  5.27864174880687E-02
 cg2d: Sum(rhs),rhsMax =  -9.71468461230529E-11  4.92449086477422E-02
 cg2d: Sum(rhs),rhsMax =  -1.04809938505923E-10  4.56387490394397E-02
 cg2d: Sum(rhs),rhsMax =  -1.13911435839498E-10  4.19639122908727E-02
 cg2d: Sum(rhs),rhsMax =  -1.25030652498026E-10  3.82165089308697E-02
 cg2d: Sum(rhs),rhsMax =  -1.38860700715782E-10  3.43927978241823E-02
 cg2d: Sum(rhs),rhsMax =  -1.56585855393132E-10  3.04892012290894E-02
 cg2d: Sum(rhs),rhsMax =  -1.77347581065135E-10  2.69093921924413E-02
 cg2d: Sum(rhs),rhsMax =  -1.49747880762163E-10  3.18510247728885E-02
 cg2d: Sum(rhs),rhsMax =  -1.29495858480766E-10  3.68234247078127E-02
 cg2d: Sum(rhs),rhsMax =  -1.14050102695273E-10  4.17835488761823E-02
 cg2d: Sum(rhs),rhsMax =  -1.01785191386483E-10  4.68047739296114E-02
 cg2d: Sum(rhs),rhsMax =  -9.18289749796131E-11  5.18435149178498E-02
 cg2d: Sum(rhs),rhsMax =  -8.36608785720339E-11  5.69043672588859E-02
 cg2d: Sum(rhs),rhsMax =  -7.65841279282142E-11  6.20370293900126E-02
 cg2d: Sum(rhs),rhsMax =  -7.06098790548282E-11  6.71800343302872E-02
 cg2d: Sum(rhs),rhsMax =  -6.54249709963750E-11  7.24188216696598E-02
 cg2d: Sum(rhs),rhsMax =  -6.09122752237568E-11  7.76974391421229E-02
 cg2d: Sum(rhs),rhsMax =  -5.69239655412446E-11  8.30699531418528E-02
 cg2d: Sum(rhs),rhsMax =  -5.32304200717704E-11  8.86196813648991E-02
 cg2d: Sum(rhs),rhsMax =  -4.99435492962164E-11  9.42083782913392E-02
 cg2d: Sum(rhs),rhsMax =  -4.70833372290258E-11  9.97896854621351E-02
 cg2d: Sum(rhs),rhsMax =  -4.45066761223245E-11  1.05360659514776E-01
 cg2d: Sum(rhs),rhsMax =  -4.22464840887926E-11  1.10918108001568E-01
 cg2d: Sum(rhs),rhsMax =  -4.01796373949992E-11  1.16458604464021E-01
 cg2d: Sum(rhs),rhsMax =  -3.83684195526257E-11  1.21978502583582E-01
 cg2d: Sum(rhs),rhsMax =  -3.68656216664931E-11  1.27473949369400E-01
 cg2d: Sum(rhs),rhsMax =  -3.53663764940393E-11  1.32940897478270E-01
 cg2d: Sum(rhs),rhsMax =  -3.40059091996636E-11  1.38375116873595E-01
 cg2d: Sum(rhs),rhsMax =  -3.27546878509111E-11  1.43772206118805E-01
 cg2d: Sum(rhs),rhsMax =  -3.16155990276457E-11  1.49127603628058E-01
 cg2d: Sum(rhs),rhsMax =  -3.05707681391709E-11  1.54436599202009E-01
 cg2d: Sum(rhs),rhsMax =  -2.96053181969569E-11  1.59694346128559E-01
 cg2d: Sum(rhs),rhsMax =  -2.86975998520234E-11  1.64895874051476E-01
 cg2d: Sum(rhs),rhsMax =  -2.79126721736134E-11  1.70036102704325E-01
 cg2d: Sum(rhs),rhsMax =  -2.71209721347532E-11  1.75109856493708E-01
 cg2d: Sum(rhs),rhsMax =  -2.64415156436826E-11  1.80111879819547E-01
 cg2d: Sum(rhs),rhsMax =  -2.58083554527389E-11  1.85036852895053E-01
 cg2d: Sum(rhs),rhsMax =  -2.52280418777673E-11  1.89879407784823E-01
 cg2d: Sum(rhs),rhsMax =  -2.46133113890323E-11  1.94634144353143E-01
 cg2d: Sum(rhs),rhsMax =  -2.40276687435426E-11  1.99295645833366E-01
 cg2d: Sum(rhs),rhsMax =  -2.34745556326743E-11  2.03858493811549E-01
 cg2d: Sum(rhs),rhsMax =  -2.30028218695111E-11  2.08317282486767E-01
 cg2d: Sum(rhs),rhsMax =  -2.25364171768661E-11  2.12666632218880E-01
 cg2d: Sum(rhs),rhsMax =  -2.20865548072879E-11  2.16901202513300E-01
 cg2d: Sum(rhs),rhsMax =  -2.16617834780664E-11  2.21015704721693E-01
 cg2d: Sum(rhs),rhsMax =  -2.13132844706365E-11  2.25004914839725E-01
 cg2d: Sum(rhs),rhsMax =  -2.09509076753989E-11  2.28863686854784E-01
 cg2d: Sum(rhs),rhsMax =  -2.06237249500418E-11  2.32586967102376E-01
 cg2d: Sum(rhs),rhsMax =  -2.03022043621104E-11  2.36169810059490E-01
 cg2d: Sum(rhs),rhsMax =  -2.00278682527255E-11  2.39607395912821E-01
 cg2d: Sum(rhs),rhsMax =  -1.97546423663653E-11  2.42895050103136E-01
 cg2d: Sum(rhs),rhsMax =  -1.95293781146688E-11  2.46028264877882E-01
 cg2d: Sum(rhs),rhsMax =  -1.92993399039665E-11  2.49002722695959E-01
 cg2d: Sum(rhs),rhsMax =  -1.90758520091094E-11  2.51814321140161E-01
 cg2d: Sum(rhs),rhsMax =  -1.88793425337508E-11  2.54459198819095E-01
 cg2d: Sum(rhs),rhsMax =  -1.86978210692246E-11  2.56933761607337E-01
 cg2d: Sum(rhs),rhsMax =  -1.85383930428884E-11  2.59234708435741E-01
 cg2d: Sum(rhs),rhsMax =  -1.83953963173167E-11  2.61359055829044E-01
 cg2d: Sum(rhs),rhsMax =  -1.82602821752198E-11  2.63304160389061E-01
 cg2d: Sum(rhs),rhsMax =  -1.81273884791722E-11  2.65067738456749E-01
 cg2d: Sum(rhs),rhsMax =  -1.80532255811272E-11  2.66647882336070E-01
 cg2d: Sum(rhs),rhsMax =  -1.79564141333799E-11  2.68043072384731E-01
 cg2d: Sum(rhs),rhsMax =  -1.78892456403901E-11  2.69252184725248E-01
 cg2d: Sum(rhs),rhsMax =  -1.77967640624388E-11  2.70274494349278E-01
 cg2d: Sum(rhs),rhsMax =  -1.77559078551326E-11  2.71837689675701E-01
 cg2d: Sum(rhs),rhsMax =  -1.75944814273521E-11  2.74129305824341E-01
 cg2d: Sum(rhs),rhsMax =  -1.74522618578976E-11  2.76173564162939E-01
 cg2d: Sum(rhs),rhsMax =  -1.73656644619768E-11  2.77966897134796E-01
 cg2d: Sum(rhs),rhsMax =  -1.72938330322836E-11  2.79506338020616E-01
 cg2d: Sum(rhs),rhsMax =  -1.72442060630829E-11  2.80789542389970E-01
 cg2d: Sum(rhs),rhsMax =  -1.72060143910358E-11  2.81814803708354E-01
 cg2d: Sum(rhs),rhsMax =  -1.71914704694132E-11  2.82581062665626E-01
 cg2d: Sum(rhs),rhsMax =  -1.71722636110871E-11  2.83087910046061E-01
 cg2d: Sum(rhs),rhsMax =  -1.71661573844517E-11  2.83335583188372E-01
 cg2d: Sum(rhs),rhsMax =  -1.72216685356830E-11  2.83324956424479E-01
 cg2d: Sum(rhs),rhsMax =  -1.72419856170336E-11  2.83057525943890E-01
 cg2d: Sum(rhs),rhsMax =  -1.73169256711958E-11  2.82535389655183E-01
 cg2d: Sum(rhs),rhsMax =  -1.74182890333441E-11  2.81761222956298E-01
 cg2d: Sum(rhs),rhsMax =  -1.75162107041160E-11  2.80738251241424E-01
 cg2d: Sum(rhs),rhsMax =  -1.76464398649046E-11  2.79470219832363E-01
 cg2d: Sum(rhs),rhsMax =  -1.77902137465935E-11  2.77961362053052E-01
 cg2d: Sum(rhs),rhsMax =  -1.79691816981631E-11  2.76216366333694E-01
 cg2d: Sum(rhs),rhsMax =  -1.80848669373290E-11  2.74240342886880E-01
 cg2d: Sum(rhs),rhsMax =  -1.82103221391117E-11  2.72038790690829E-01
 cg2d: Sum(rhs),rhsMax =  -1.83304482703761E-11  2.69617564647195E-01
 cg2d: Sum(rhs),rhsMax =  -1.84924298096689E-11  2.66982843495547E-01
 cg2d: Sum(rhs),rhsMax =  -1.85795823171020E-11  2.64141098688071E-01
 cg2d: Sum(rhs),rhsMax =  -1.87688753428006E-11  2.61099063820964E-01
 cg2d: Sum(rhs),rhsMax =  -1.89163129604708E-11  2.57863704891618E-01
 cg2d: Sum(rhs),rhsMax =  -1.91263671567299E-11  2.54442191849671E-01
 cg2d: Sum(rhs),rhsMax =  -1.93161042716383E-11  2.50841871200856E-01
 cg2d: Sum(rhs),rhsMax =  -1.95374827427486E-11  2.47070239301794E-01
 cg2d: Sum(rhs),rhsMax =  -1.97841742988203E-11  2.43134916580975E-01
 cg2d: Sum(rhs),rhsMax =  -2.00957028795301E-11  2.39043623518111E-01
 cg2d: Sum(rhs),rhsMax =  -2.03732586356864E-11  2.34804157902387E-01
 cg2d: Sum(rhs),rhsMax =  -2.07110995020798E-11  2.30424373658561E-01
 cg2d: Sum(rhs),rhsMax =  -2.10665929145648E-11  2.25912161251274E-01
 cg2d: Sum(rhs),rhsMax =  -2.14727124969727E-11  2.21275429597593E-01
 cg2d: Sum(rhs),rhsMax =  -2.19343432306118E-11  2.16522089434131E-01
 cg2d: Sum(rhs),rhsMax =  -2.24582574759324E-11  2.11660037599663E-01
 cg2d: Sum(rhs),rhsMax =  -2.29662955320009E-11  2.06697142158485E-01
 cg2d: Sum(rhs),rhsMax =  -2.35369501666582E-11  2.01641227455114E-01
 cg2d: Sum(rhs),rhsMax =  -2.41212605445185E-11  1.96500058108735E-01
 cg2d: Sum(rhs),rhsMax =  -2.47847298240345E-11  1.91281322205212E-01
 cg2d: Sum(rhs),rhsMax =  -2.55342413879589E-11  1.85992612739888E-01
 cg2d: Sum(rhs),rhsMax =  -2.62228017078314E-11  1.80641407051215E-01
 cg2d: Sum(rhs),rhsMax =  -2.69599897961825E-11  1.75235044173102E-01
 cg2d: Sum(rhs),rhsMax =  -2.77660117120604E-11  1.69780700260315E-01
 cg2d: Sum(rhs),rhsMax =  -2.86061174747942E-11  1.64285362681257E-01
 cg2d: Sum(rhs),rhsMax =  -2.93742807855324E-11  1.59739023594920E-01
 cg2d: Sum(rhs),rhsMax =  -3.01465519214617E-11  1.55536916401633E-01
 cg2d: Sum(rhs),rhsMax =  -3.09117176300333E-11  1.51329751411306E-01
 cg2d: Sum(rhs),rhsMax =  -3.17894599533020E-11  1.47120127035089E-01
 cg2d: Sum(rhs),rhsMax =  -3.26756399715578E-11  1.42910368427229E-01
 cg2d: Sum(rhs),rhsMax =  -3.36258798583344E-11  1.38702528898935E-01
 cg2d: Sum(rhs),rhsMax =  -3.46216388891207E-11  1.34498392722638E-01
 cg2d: Sum(rhs),rhsMax =  -3.56753515617925E-11  1.30299479110004E-01
 cg2d: Sum(rhs),rhsMax =  -3.68087782476323E-11  1.26107047031562E-01
 cg2d: Sum(rhs),rhsMax =  -3.80393494481268E-11  1.21922100545914E-01
 cg2d: Sum(rhs),rhsMax =  -3.92815779903799E-11  1.17745394410454E-01
 cg2d: Sum(rhs),rhsMax =  -4.06976674582893E-11  1.13577439638888E-01
 cg2d: Sum(rhs),rhsMax =  -4.22482049344808E-11  1.09418508673576E-01
 cg2d: Sum(rhs),rhsMax =  -4.38651337475449E-11  1.05268639935954E-01
 cg2d: Sum(rhs),rhsMax =  -4.56363835610318E-11  1.01127641473801E-01
 cg2d: Sum(rhs),rhsMax =  -4.75200989669133E-11  9.69950936776306E-02
 cg2d: Sum(rhs),rhsMax =  -4.94929652816722E-11  9.28703511106719E-02
 cg2d: Sum(rhs),rhsMax =  -5.17044185244231E-11  8.87525436371103E-02
 cg2d: Sum(rhs),rhsMax =  -5.42325073737970E-11  8.46405770161254E-02
 cg2d: Sum(rhs),rhsMax =  -5.70458125181972E-11  8.05331333790391E-02
 cg2d: Sum(rhs),rhsMax =  -6.01969585289908E-11  7.64286721117123E-02
 cg2d: Sum(rhs),rhsMax =  -6.36753982874438E-11  7.23254314913620E-02
 cg2d: Sum(rhs),rhsMax =  -6.75721700815757E-11  6.82214315991019E-02
 cg2d: Sum(rhs),rhsMax =  -7.19594384079869E-11  6.41144789939508E-02
 cg2d: Sum(rhs),rhsMax =  -7.69629360242163E-11  6.00021735777500E-02
 cg2d: Sum(rhs),rhsMax =  -8.27146684478919E-11  5.58819179534713E-02
 cg2d: Sum(rhs),rhsMax =  -8.94206930723840E-11  5.17509293682554E-02
 cg2d: Sum(rhs),rhsMax =  -9.72922853392788E-11  4.76062542258767E-02
 cg2d: Sum(rhs),rhsMax =  -1.06741615546468E-10  4.34447851833078E-02
 cg2d: Sum(rhs),rhsMax =  -1.18208526300734E-10  3.92632806189636E-02
 cg2d: Sum(rhs),rhsMax =  -1.32455421630873E-10  3.50583861472323E-02
 cg2d: Sum(rhs),rhsMax =  -1.50706641610654E-10  3.08266577754552E-02
 cg2d: Sum(rhs),rhsMax =  -1.74938952213211E-10  2.65645862576185E-02
 cg2d: Sum(rhs),rhsMax =  -2.08770445375706E-10  2.22686221751162E-02
 cg2d: Sum(rhs),rhsMax =  -2.05239159001280E-10  2.26657011755866E-02
 cg2d: Sum(rhs),rhsMax =  -1.71591407749361E-10  2.71144983086950E-02
 cg2d: Sum(rhs),rhsMax =  -1.47323264698684E-10  3.15935446068451E-02
 cg2d: Sum(rhs),rhsMax =  -1.29009691818283E-10  3.60993093097631E-02
 cg2d: Sum(rhs),rhsMax =  -1.14646181437195E-10  4.06324533986392E-02
 cg2d: Sum(rhs),rhsMax =  -1.03005715068605E-10  4.52376229080307E-02
 cg2d: Sum(rhs),rhsMax =  -9.33890742516041E-11  4.99146757458573E-02
 cg2d: Sum(rhs),rhsMax =  -8.54918358328405E-11  5.45740220103459E-02
 cg2d: Sum(rhs),rhsMax =  -7.88933363082833E-11  5.92170523894829E-02
 cg2d: Sum(rhs),rhsMax =  -7.32429672467561E-11  6.38450993654085E-02
 cg2d: Sum(rhs),rhsMax =  -6.83959555658475E-11  6.84594146601156E-02
 cg2d: Sum(rhs),rhsMax =  -6.42024211572334E-11  7.30611471959573E-02
 cg2d: Sum(rhs),rhsMax =  -6.05084871097006E-11  7.76513224144257E-02
 cg2d: Sum(rhs),rhsMax =  -5.71969138718487E-11  8.22308236302767E-02
 cg2d: Sum(rhs),rhsMax =  -5.42932365732440E-11  8.68003761059035E-02
 cg2d: Sum(rhs),rhsMax =  -5.16369169645259E-11  9.13605342636290E-02
 cg2d: Sum(rhs),rhsMax =  -4.92392793205454E-11  9.59116722518123E-02
 cg2d: Sum(rhs),rhsMax =  -4.70365968396891E-11  1.00453977913741E-01
 cg2d: Sum(rhs),rhsMax =  -4.51243487020747E-11  1.04987449901887E-01
 cg2d: Sum(rhs),rhsMax =  -4.32778257675182E-11  1.09511897563278E-01
 cg2d: Sum(rhs),rhsMax =  -4.15849576995697E-11  1.14026943067437E-01
 cg2d: Sum(rhs),rhsMax =  -4.00821598134371E-11  1.18532025173888E-01
 cg2d: Sum(rhs),rhsMax =  -3.86610743419169E-11  1.23026404026486E-01
 cg2d: Sum(rhs),rhsMax =  -3.74238418032746E-11  1.27509166363827E-01
 cg2d: Sum(rhs),rhsMax =  -3.63147290016741E-11  1.31979230702379E-01
 cg2d: Sum(rhs),rhsMax =  -3.52002871295554E-11  1.36435351988744E-01
 cg2d: Sum(rhs),rhsMax =  -3.41446870777418E-11  1.40876125656031E-01
 cg2d: Sum(rhs),rhsMax =  -3.32032179528596E-11  1.45299990999088E-01
 cg2d: Sum(rhs),rhsMax =  -3.23037152583083E-11  1.49705233909262E-01
 cg2d: Sum(rhs),rhsMax =  -3.14512860200011E-11  1.54089989200656E-01
 cg2d: Sum(rhs),rhsMax =  -3.06688008322453E-11  1.58452242725445E-01
 cg2d: Sum(rhs),rhsMax =  -2.98685520760955E-11  1.62789833551141E-01
 cg2d: Sum(rhs),rhsMax =  -2.91913160310742E-11  1.67100456462211E-01
 cg2d: Sum(rhs),rhsMax =  -2.84879897449741E-11  1.71381665023927E-01
 cg2d: Sum(rhs),rhsMax =  -2.78217449078966E-11  1.75630875321148E-01
 cg2d: Sum(rhs),rhsMax =  -2.72384337307585E-11  1.79845370383046E-01
 cg2d: Sum(rhs),rhsMax =  -2.66209276844620E-11  1.84022305278189E-01
 cg2d: Sum(rhs),rhsMax =  -2.60887977887592E-11  1.88158712868302E-01
 cg2d: Sum(rhs),rhsMax =  -2.52051712834600E-11  1.94775867676288E-01
 cg2d: Sum(rhs),rhsMax =  -2.44011477690265E-11  2.01487388200159E-01
 cg2d: Sum(rhs),rhsMax =  -2.36431985101149E-11  2.08203962795780E-01
 cg2d: Sum(rhs),rhsMax =  -2.29422036923665E-11  2.14918270099998E-01
 cg2d: Sum(rhs),rhsMax =  -2.23071561222810E-11  2.21622741842761E-01
 cg2d: Sum(rhs),rhsMax =  -2.16676676600969E-11  2.28309584173437E-01
 cg2d: Sum(rhs),rhsMax =  -2.10574890857629E-11  2.34970799500130E-01
 cg2d: Sum(rhs),rhsMax =  -2.04927186331361E-11  2.41598208727820E-01
 cg2d: Sum(rhs),rhsMax =  -1.99619210050628E-11  2.48183473825563E-01
 cg2d: Sum(rhs),rhsMax =  -1.94602112202347E-11  2.54718120694221E-01
 cg2d: Sum(rhs),rhsMax =  -1.89581683684992E-11  2.61193562331431E-01
 cg2d: Sum(rhs),rhsMax =  -1.85339521507899E-11  2.67601122301041E-01
 cg2d: Sum(rhs),rhsMax =  -1.80875314725881E-11  2.73932058511381E-01
 cg2d: Sum(rhs),rhsMax =  -1.76731962397980E-11  2.80177587293848E-01
 cg2d: Sum(rhs),rhsMax =  -1.73170366934983E-11  2.86328907753925E-01
 cg2d: Sum(rhs),rhsMax =  -1.69495528723473E-11  2.92377226344922E-01
 cg2d: Sum(rhs),rhsMax =  -1.66030522663618E-11  2.98313781593847E-01
 cg2d: Sum(rhs),rhsMax =  -1.62860835928313E-11  3.04129868891562E-01
 cg2d: Sum(rhs),rhsMax =  -1.59824375955964E-11  3.09816865248580E-01
 cg2d: Sum(rhs),rhsMax =  -1.57118762444952E-11  3.15366253913765E-01
 cg2d: Sum(rhs),rhsMax =  -1.54685153574974E-11  3.20769648755683E-01
 cg2d: Sum(rhs),rhsMax =  -1.52297063849005E-11  3.26018818314630E-01
 cg2d: Sum(rhs),rhsMax =  -1.49692480633234E-11  3.31105709445642E-01
 cg2d: Sum(rhs),rhsMax =  -1.47447609677442E-11  3.36022470484958E-01
 cg2d: Sum(rhs),rhsMax =  -1.45267131657079E-11  3.40761473888737E-01
 cg2d: Sum(rhs),rhsMax =  -1.43193235047079E-11  3.45315338303250E-01
 cg2d: Sum(rhs),rhsMax =  -1.41245903861886E-11  3.49676950015066E-01
 cg2d: Sum(rhs),rhsMax =  -1.39528388842791E-11  3.53839483744627E-01
 cg2d: Sum(rhs),rhsMax =  -1.38273836824965E-11  3.57796422736620E-01
 cg2d: Sum(rhs),rhsMax =  -1.36913813619799E-11  3.61541578090539E-01
 cg2d: Sum(rhs),rhsMax =  -1.35546018853461E-11  3.65069107262978E-01
 cg2d: Sum(rhs),rhsMax =  -1.34176003641073E-11  3.68373531667635E-01
 cg2d: Sum(rhs),rhsMax =  -1.33081323738793E-11  3.71449753284262E-01
 cg2d: Sum(rhs),rhsMax =  -1.32394095686550E-11  3.74293070223305E-01
 cg2d: Sum(rhs),rhsMax =  -1.31394894964387E-11  3.76899191136751E-01
 cg2d: Sum(rhs),rhsMax =  -1.30636612638568E-11  3.79264248408315E-01
 cg2d: Sum(rhs),rhsMax =  -1.29828370276641E-11  3.81384810105942E-01
 cg2d: Sum(rhs),rhsMax =  -1.29087851519216E-11  3.83257890660964E-01
 cg2d: Sum(rhs),rhsMax =  -1.28681509892203E-11  3.84880960216321E-01
 cg2d: Sum(rhs),rhsMax =  -1.27934329796631E-11  3.86251952708351E-01
 cg2d: Sum(rhs),rhsMax =  -1.27159394125442E-11  3.87369272805797E-01
 cg2d: Sum(rhs),rhsMax =  -1.27136079441925E-11  3.88231801517144E-01
 cg2d: Sum(rhs),rhsMax =  -1.26783028520094E-11  3.88838900651983E-01
 cg2d: Sum(rhs),rhsMax =  -1.26852972570646E-11  3.89190416029422E-01
 cg2d: Sum(rhs),rhsMax =  -1.26622046181524E-11  3.89286679556549E-01
 cg2d: Sum(rhs),rhsMax =  -1.26907373498852E-11  3.89128509972092E-01
 cg2d: Sum(rhs),rhsMax =  -1.27213795053649E-11  3.88717212238276E-01
 cg2d: Sum(rhs),rhsMax =  -1.27773347458060E-11  3.88054575278428E-01
 cg2d: Sum(rhs),rhsMax =  -1.28032029422798E-11  3.87142867749421E-01
 cg2d: Sum(rhs),rhsMax =  -1.28634880525169E-11  3.85984831538667E-01
 cg2d: Sum(rhs),rhsMax =  -1.29516397606722E-11  3.84583672580816E-01
 cg2d: Sum(rhs),rhsMax =  -1.30779831408745E-11  3.82943048750561E-01
 cg2d: Sum(rhs),rhsMax =  -1.31741284548070E-11  3.81067054694120E-01
 cg2d: Sum(rhs),rhsMax =  -1.33049127271079E-11  3.78960202978457E-01
 cg2d: Sum(rhs),rhsMax =  -1.34261490813969E-11  3.76627401762739E-01
 cg2d: Sum(rhs),rhsMax =  -1.35470523687786E-11  3.74073929093494E-01
 cg2d: Sum(rhs),rhsMax =  -1.35393918299087E-11  3.71305403848749E-01
 cg2d: Sum(rhs),rhsMax =  -1.35387256960939E-11  3.68327753717106E-01
 cg2d: Sum(rhs),rhsMax =  -1.36060052113862E-11  3.65147180343512E-01
 cg2d: Sum(rhs),rhsMax =  -1.36849420684371E-11  3.61770122953985E-01
 cg2d: Sum(rhs),rhsMax =  -1.37857503190730E-11  3.58203221375401E-01
 cg2d: Sum(rhs),rhsMax =  -1.39259714870832E-11  3.54453279010001E-01
 cg2d: Sum(rhs),rhsMax =  -1.40791822644815E-11  3.50527226294537E-01
 cg2d: Sum(rhs),rhsMax =  -1.42357237109536E-11  3.46432085901431E-01
 cg2d: Sum(rhs),rhsMax =  -1.43951517372898E-11  3.42174940372567E-01
 cg2d: Sum(rhs),rhsMax =  -1.45971013054691E-11  3.37762902575625E-01
 cg2d: Sum(rhs),rhsMax =  -1.47750700563165E-11  3.33203089383162E-01
 cg2d: Sum(rhs),rhsMax =  -1.50122136943764E-11  3.28502598835480E-01
 cg2d: Sum(rhs),rhsMax =  -1.52629020533368E-11  3.23668490611447E-01
 cg2d: Sum(rhs),rhsMax =  -1.54425361387212E-11  3.18707769651562E-01
 cg2d: Sum(rhs),rhsMax =  -1.56853419142067E-11  3.13627372686406E-01
 cg2d: Sum(rhs),rhsMax =  -1.59200430616124E-11  3.08434157212717E-01
 cg2d: Sum(rhs),rhsMax =  -1.61969326839539E-11  3.03134892406138E-01
 cg2d: Sum(rhs),rhsMax =  -1.64506186450808E-11  2.97736251422425E-01
 cg2d: Sum(rhs),rhsMax =  -1.67234004422312E-11  2.92244804567838E-01
 cg2d: Sum(rhs),rhsMax =  -1.70187197667815E-11  2.86667012759808E-01
 cg2d: Sum(rhs),rhsMax =  -1.73453473806262E-11  2.81009221587188E-01
 cg2d: Sum(rhs),rhsMax =  -1.76461067979972E-11  2.75277655100489E-01
 cg2d: Sum(rhs),rhsMax =  -1.79821713075512E-11  2.69478409219245E-01
 cg2d: Sum(rhs),rhsMax =  -1.83418835675297E-11  2.63617444772046E-01
 cg2d: Sum(rhs),rhsMax =  -1.87214688196491E-11  2.57700579980558E-01
 cg2d: Sum(rhs),rhsMax =  -1.90972793134847E-11  2.51733483106397E-01
 cg2d: Sum(rhs),rhsMax =  -1.94916305318316E-11  2.45721665028519E-01
 cg2d: Sum(rhs),rhsMax =  -1.98852045940612E-11  2.39670471764137E-01
 cg2d: Sum(rhs),rhsMax =  -2.03813632637662E-11  2.33585077098549E-01
 cg2d: Sum(rhs),rhsMax =  -2.08809636248475E-11  2.27470475498541E-01
 cg2d: Sum(rhs),rhsMax =  -2.14189777025808E-11  2.21331475450553E-01
 cg2d: Sum(rhs),rhsMax =  -2.19901874487505E-11  2.15172693309872E-01
 cg2d: Sum(rhs),rhsMax =  -2.25972573986155E-11  2.08998547655191E-01
 cg2d: Sum(rhs),rhsMax =  -2.32446284442744E-11  2.02813254311338E-01
 cg2d: Sum(rhs),rhsMax =  -2.39254172029746E-11  1.96620821863342E-01
 cg2d: Sum(rhs),rhsMax =  -2.46505038603573E-11  1.90425047629969E-01
 cg2d: Sum(rhs),rhsMax =  -2.54214427286570E-11  1.84229514199095E-01
 cg2d: Sum(rhs),rhsMax =  -2.62391219862934E-11  1.78037586505761E-01
 cg2d: Sum(rhs),rhsMax =  -2.71204170232409E-11  1.71852409446678E-01
 cg2d: Sum(rhs),rhsMax =  -2.80129253127370E-11  1.65676906072738E-01
 cg2d: Sum(rhs),rhsMax =  -2.90421020565645E-11  1.59513776408104E-01
 cg2d: Sum(rhs),rhsMax =  -3.00790503615644E-11  1.53365496999954E-01
 cg2d: Sum(rhs),rhsMax =  -3.12581072137164E-11  1.47234321159359E-01
 cg2d: Sum(rhs),rhsMax =  -3.25308668891466E-11  1.41122280233202E-01
 cg2d: Sum(rhs),rhsMax =  -3.38610250949500E-11  1.35031185991446E-01
 cg2d: Sum(rhs),rhsMax =  -3.54253293366469E-11  1.28962634199607E-01
 cg2d: Sum(rhs),rhsMax =  -3.71147557132190E-11  1.22918009497215E-01
 cg2d: Sum(rhs),rhsMax =  -3.89972498737734E-11  1.16898491669077E-01
 cg2d: Sum(rhs),rhsMax =  -4.10427247743428E-11  1.10905063371750E-01
 cg2d: Sum(rhs),rhsMax =  -4.33282298928361E-11  1.04938519359614E-01
 cg2d: Sum(rhs),rhsMax =  -4.53737047934055E-11  1.00028618676481E-01
 cg2d: Sum(rhs),rhsMax =  -4.70730121548968E-11  9.62451665379128E-02
 cg2d: Sum(rhs),rhsMax =  -4.89600582298522E-11  9.24327655062774E-02
 cg2d: Sum(rhs),rhsMax =  -5.10333997283396E-11  8.85899361420259E-02
 cg2d: Sum(rhs),rhsMax =  -5.32887067805632E-11  8.47152049605406E-02
 cg2d: Sum(rhs),rhsMax =  -5.57960344593766E-11  8.08071076940280E-02
 cg2d: Sum(rhs),rhsMax =  -5.85715920209395E-11  7.68641930918829E-02
 cg2d: Sum(rhs),rhsMax =  -6.16953155230249E-11  7.28850275302109E-02
 cg2d: Sum(rhs),rhsMax =  -6.51929621398040E-11  6.88682007494777E-02
 cg2d: Sum(rhs),rhsMax =  -6.92028656601451E-11  6.48123330204088E-02
 cg2d: Sum(rhs),rhsMax =  -7.37616634438609E-11  6.07160839317589E-02
 cg2d: Sum(rhs),rhsMax =  -7.90176812870413E-11  5.65781628986116E-02
 cg2d: Sum(rhs),rhsMax =  -8.52979908927409E-11  5.23973413261332E-02
 cg2d: Sum(rhs),rhsMax =  -9.27216081691995E-11  4.81724662556952E-02
 cg2d: Sum(rhs),rhsMax =  -1.01701314036973E-10  4.39024749420846E-02
 cg2d: Sum(rhs),rhsMax =  -1.12752029934882E-10  3.95864100417277E-02
 cg2d: Sum(rhs),rhsMax =  -1.26680221868014E-10  3.52234348758703E-02
 cg2d: Sum(rhs),rhsMax =  -1.44744216612480E-10  3.08128482718478E-02
 cg2d: Sum(rhs),rhsMax =  -1.69171010533375E-10  2.63540985245860E-02
 cg2d: Sum(rhs),rhsMax =  -2.04004813042502E-10  2.18467960199650E-02
 cg2d: Sum(rhs),rhsMax =  -2.37989516982395E-10  1.87217756492199E-02
 cg2d: Sum(rhs),rhsMax =  -1.91898830159687E-10  2.32143283742492E-02
 cg2d: Sum(rhs),rhsMax =  -1.59058877180485E-10  2.79932871614174E-02
 cg2d: Sum(rhs),rhsMax =  -1.35905717235651E-10  3.27441451161061E-02
 cg2d: Sum(rhs),rhsMax =  -1.18441950691661E-10  3.75591125022553E-02
 cg2d: Sum(rhs),rhsMax =  -1.04939085199263E-10  4.23651901063147E-02
 cg2d: Sum(rhs),rhsMax =  -9.41046685021263E-11  4.71804213376642E-02
 cg2d: Sum(rhs),rhsMax =  -8.52364845371767E-11  5.20433693633031E-02
 cg2d: Sum(rhs),rhsMax =  -7.78901387832320E-11  5.68810889608064E-02
 cg2d: Sum(rhs),rhsMax =  -7.16254833221797E-11  6.18007887623515E-02
 cg2d: Sum(rhs),rhsMax =  -6.62586097099904E-11  6.67128789993175E-02
 cg2d: Sum(rhs),rhsMax =  -6.16086071048016E-11  7.16866010930064E-02
 cg2d: Sum(rhs),rhsMax =  -5.74122971386259E-11  7.67324370649652E-02
 cg2d: Sum(rhs),rhsMax =  -5.37865307848051E-11  8.17542817539244E-02
 cg2d: Sum(rhs),rhsMax =  -5.06469310934676E-11  8.67387205283961E-02
 cg2d: Sum(rhs),rhsMax =  -4.78241890533582E-11  9.16840925026525E-02
 cg2d: Sum(rhs),rhsMax =  -4.53675985667701E-11  9.65886347313338E-02
 cg2d: Sum(rhs),rhsMax =  -4.31454871829828E-11  1.01450483340435E-01
 cg2d: Sum(rhs),rhsMax =  -4.12010425776543E-11  1.06267675334762E-01
 cg2d: Sum(rhs),rhsMax =  -3.94027033223665E-11  1.11038151222564E-01
 cg2d: Sum(rhs),rhsMax =  -3.78254094712815E-11  1.15759758550062E-01
 cg2d: Sum(rhs),rhsMax =  -3.63835628292009E-11  1.20430256381630E-01
 cg2d: Sum(rhs),rhsMax =  -3.50689477457422E-11  1.25047320701982E-01
 cg2d: Sum(rhs),rhsMax =  -3.38419292589265E-11  1.29608550661353E-01
 cg2d: Sum(rhs),rhsMax =  -3.27105009745310E-11  1.34111475544144E-01
 cg2d: Sum(rhs),rhsMax =  -3.16940917954867E-11  1.38553562305131E-01
 cg2d: Sum(rhs),rhsMax =  -3.07170955338165E-11  1.42932223512032E-01
 cg2d: Sum(rhs),rhsMax =  -2.98612246041330E-11  1.47244825534238E-01
 cg2d: Sum(rhs),rhsMax =  -2.90578672235142E-11  1.51488696833750E-01
 cg2d: Sum(rhs),rhsMax =  -2.83298939862675E-11  1.55661136234831E-01
 cg2d: Sum(rhs),rhsMax =  -2.76119127562424E-11  1.59759421105041E-01
 cg2d: Sum(rhs),rhsMax =  -2.70099498322907E-11  1.63780815379309E-01
 cg2d: Sum(rhs),rhsMax =  -2.64758215351435E-11  1.67722577385686E-01
 cg2d: Sum(rhs),rhsMax =  -2.59682275682849E-11  1.71581967444552E-01
 cg2d: Sum(rhs),rhsMax =  -2.54736232108144E-11  1.75356255243658E-01
 cg2d: Sum(rhs),rhsMax =  -2.50103271426383E-11  1.79042726943737E-01
 cg2d: Sum(rhs),rhsMax =  -2.45721221148187E-11  1.82638691969746E-01
 cg2d: Sum(rhs),rhsMax =  -2.41574538151212E-11  1.86141489435229E-01
 cg2d: Sum(rhs),rhsMax =  -2.38045139155929E-11  1.89548494137843E-01
 cg2d: Sum(rhs),rhsMax =  -2.34549046851384E-11  1.92857122071431E-01
 cg2d: Sum(rhs),rhsMax =  -2.31349384094415E-11  1.96064835408521E-01
 cg2d: Sum(rhs),rhsMax =  -2.28020935466589E-11  1.99169146938412E-01
 cg2d: Sum(rhs),rhsMax =  -2.25061080882938E-11  2.02167623996766E-01
 cg2d: Sum(rhs),rhsMax =  -2.22556417739384E-11  2.05057891980517E-01
 cg2d: Sum(rhs),rhsMax =  -2.20028439912312E-11  2.07837637600427E-01
 cg2d: Sum(rhs),rhsMax =  -2.17936779733918E-11  2.10504612089400E-01
 cg2d: Sum(rhs),rhsMax =  -2.15293338712286E-11  2.13056634593900E-01
 cg2d: Sum(rhs),rhsMax =  -2.13216111433212E-11  2.15491596039514E-01
 cg2d: Sum(rhs),rhsMax =  -2.11534123550905E-11  2.17807463737937E-01
 cg2d: Sum(rhs),rhsMax =  -2.09738892920086E-11  2.20002286959629E-01
 cg2d: Sum(rhs),rhsMax =  -2.08144612656724E-11  2.22074203626368E-01
 cg2d: Sum(rhs),rhsMax =  -2.06483719011885E-11  2.24021448187212E-01
 cg2d: Sum(rhs),rhsMax =  -2.05224726101960E-11  2.25842360658410E-01
 cg2d: Sum(rhs),rhsMax =  -2.03503880413791E-11  2.28075581380603E-01
 cg2d: Sum(rhs),rhsMax =  -2.02000638438449E-11  2.30509995671180E-01
 cg2d: Sum(rhs),rhsMax =  -2.00247596282566E-11  2.32773120372547E-01
 cg2d: Sum(rhs),rhsMax =  -1.99137373257940E-11  2.34862075503580E-01
 cg2d: Sum(rhs),rhsMax =  -1.97923899492025E-11  2.36774245323384E-01
 cg2d: Sum(rhs),rhsMax =  -1.96905824978444E-11  2.38507281489059E-01
 cg2d: Sum(rhs),rhsMax =  -1.95961025184488E-11  2.40059107232994E-01
 cg2d: Sum(rhs),rhsMax =  -1.95164995275832E-11  2.41427922789818E-01
 cg2d: Sum(rhs),rhsMax =  -1.94844140821715E-11  2.42612212094992E-01
 cg2d: Sum(rhs),rhsMax =  -1.94463334324269E-11  2.43610750528523E-01
 cg2d: Sum(rhs),rhsMax =  -1.94184668345088E-11  2.44422613233638E-01
 cg2d: Sum(rhs),rhsMax =  -1.93726146235917E-11  2.45047183389421E-01
 cg2d: Sum(rhs),rhsMax =  -1.94750882087646E-11  2.45484159638609E-01
 cg2d: Sum(rhs),rhsMax =  -1.95028437843803E-11  2.45733561839653E-01
 cg2d: Sum(rhs),rhsMax =  -1.95666816082962E-11  2.45795734332403E-01
 cg2d: Sum(rhs),rhsMax =  -1.96124227969108E-11  2.45671346338303E-01
 cg2d: Sum(rhs),rhsMax =  -1.97174498950403E-11  2.45361388967228E-01
 cg2d: Sum(rhs),rhsMax =  -1.98659977357352E-11  2.44867168978557E-01
 cg2d: Sum(rhs),rhsMax =  -1.99528171762609E-11  2.44190299382547E-01
 cg2d: Sum(rhs),rhsMax =  -1.99742444806361E-11  2.43332687431879E-01
 cg2d: Sum(rhs),rhsMax =  -2.00137684203128E-11  2.42296520692066E-01
 cg2d: Sum(rhs),rhsMax =  -2.00911509651291E-11  2.41084251898341E-01
 cg2d: Sum(rhs),rhsMax =  -2.01538785660205E-11  2.39698583455817E-01
(PID.TID 0000.0001)      cg2d_init_res =   2.84655996582477E-02
(PID.TID 0000.0001)      cg2d_iters(min,last) =      -1      35
(PID.TID 0000.0001)      cg2d_last_res =   7.57555857681920E-14
(PID.TID 0000.0001) // =======================================================
(PID.TID 0000.0001) // Begin MONITOR dynamic field statistics
(PID.TID 0000.0001) // =======================================================
(PID.TID 0000.0001) %MON time_tsnumber                =                  1440
(PID.TID 0000.0001) %MON time_secondsf                =   2.1600000000000E+04
(PID.TID 0000.0001) %MON dynstat_eta_max              =   4.8442363763693E-02
(PID.TID 0000.0001) %MON dynstat_eta_min              =  -3.9095671353668E-02
(PID.TID 0000.0001) %MON dynstat_eta_mean             =   1.0334133660508E-14
(PID.TID 0000.0001) %MON dynstat_eta_sd               =   2.9931693353813E-02
(PID.TID 0000.0001) %MON dynstat_eta_del2             =   1.8225453615800E-05
(PID.TID 0000.0001) %MON dynstat_uvel_max             =   1.1688375752586E+00
(PID.TID 0000.0001) %MON dynstat_uvel_min             =  -6.0588367859466E-01
(PID.TID 0000.0001) %MON dynstat_uvel_mean            =   3.3920728893569E-01
(PID.TID 0000.0001) %MON dynstat_uvel_sd              =   8.5428249477780E-02
(PID.TID 0000.0001) %MON dynstat_uvel_del2            =   5.0545080955889E-04
(PID.TID 0000.0001) %MON dynstat_vvel_max             =   0.0000000000000E+00
(PID.TID 0000.0001) %MON dynstat_vvel_min             =   0.0000000000000E+00
(PID.TID 0000.0001) %MON dynstat_vvel_mean            =   0.0000000000000E+00
(PID.TID 0000.0001) %MON dynstat_vvel_sd              =   0.0000000000000E+00
(PID.TID 0000.0001) %MON dynstat_vvel_del2            =   0.0000000000000E+00
(PID.TID 0000.0001) %MON dynstat_wvel_max             =   1.3926605922419E-02
(PID.TID 0000.0001) %MON dynstat_wvel_min             =  -2.5705747743051E-02
(PID.TID 0000.0001) %MON dynstat_wvel_mean            =   1.1272462948360E-20
(PID.TID 0000.0001) %MON dynstat_wvel_sd              =   1.6509282842803E-03
(PID.TID 0000.0001) %MON dynstat_wvel_del2            =   3.2055353823401E-05
(PID.TID 0000.0001) %MON dynstat_theta_max            =   1.5000000000005E+01
(PID.TID 0000.0001) %MON dynstat_theta_min            =   9.9999999999974E+00
(PID.TID 0000.0001) %MON dynstat_theta_mean           =   1.3335039434518E+01
(PID.TID 0000.0001) %MON dynstat_theta_sd             =   2.3012321865977E+00
(PID.TID 0000.0001) %MON dynstat_theta_del2           =   8.5788698935764E-04
(PID.TID 0000.0001) %MON dynstat_salt_max             =   3.5000000000000E+01
(PID.TID 0000.0001) %MON dynstat_salt_min             =   3.5000000000000E+01
(PID.TID 0000.0001) %MON dynstat_salt_mean            =   3.5000000000000E+01
(PID.TID 0000.0001) %MON dynstat_salt_sd              =   2.1316282072803E-14
(PID.TID 0000.0001) %MON dynstat_salt_del2            =   0.0000000000000E+00
(PID.TID 0000.0001) %MON dynstat_sst_max              =   1.5000000000000E+01
(PID.TID 0000.0001) %MON dynstat_sst_min              =   1.4999999999997E+01
(PID.TID 0000.0001) %MON dynstat_sst_mean             =   1.4999999999998E+01
(PID.TID 0000.0001) %MON dynstat_sst_sd               =   8.7258993188797E-13
(PID.TID 0000.0001) %MON dynstat_sst_del2             =   6.5939969760594E-15
(PID.TID 0000.0001) %MON dynstat_sss_max              =   3.5000000000000E+01
(PID.TID 0000.0001) %MON dynstat_sss_min              =   3.5000000000000E+01
(PID.TID 0000.0001) %MON dynstat_sss_mean             =   3.5000000000000E+01
(PID.TID 0000.0001) %MON dynstat_sss_sd               =   7.8159700933611E-14
(PID.TID 0000.0001) %MON dynstat_sss_del2             =   0.0000000000000E+00
(PID.TID 0000.0001) %MON forcing_qnet_max             =   0.0000000000000E+00
(PID.TID 0000.0001) %MON forcing_qnet_min             =   0.0000000000000E+00
(PID.TID 0000.0001) %MON forcing_qnet_mean            =   0.0000000000000E+00
(PID.TID 0000.0001) %MON forcing_qnet_sd              =   0.0000000000000E+00
(PID.TID 0000.0001) %MON forcing_qnet_del2            =   0.0000000000000E+00
(PID.TID 0000.0001) %MON forcing_qsw_max              =   0.0000000000000E+00
(PID.TID 0000.0001) %MON forcing_qsw_min              =   0.0000000000000E+00
(PID.TID 0000.0001) %MON forcing_qsw_mean             =   0.0000000000000E+00
(PID.TID 0000.0001) %MON forcing_qsw_sd               =   0.0000000000000E+00
(PID.TID 0000.0001) %MON forcing_qsw_del2             =   0.0000000000000E+00
(PID.TID 0000.0001) %MON forcing_empmr_max            =   0.0000000000000E+00
(PID.TID 0000.0001) %MON forcing_empmr_min            =   0.0000000000000E+00
(PID.TID 0000.0001) %MON forcing_empmr_mean           =   0.0000000000000E+00
(PID.TID 0000.0001) %MON forcing_empmr_sd             =   0.0000000000000E+00
(PID.TID 0000.0001) %MON forcing_empmr_del2           =   0.0000000000000E+00
(PID.TID 0000.0001) %MON forcing_fu_max               =   0.0000000000000E+00
(PID.TID 0000.0001) %MON forcing_fu_min               =   0.0000000000000E+00
(PID.TID 0000.0001) %MON forcing_fu_mean              =   0.0000000000000E+00
(PID.TID 0000.0001) %MON forcing_fu_sd                =   0.0000000000000E+00
(PID.TID 0000.0001) %MON forcing_fu_del2              =   0.0000000000000E+00
(PID.TID 0000.0001) %MON forcing_fv_max               =   0.0000000000000E+00
(PID.TID 0000.0001) %MON forcing_fv_min               =   0.0000000000000E+00
(PID.TID 0000.0001) %MON forcing_fv_mean              =   0.0000000000000E+00
(PID.TID 0000.0001) %MON forcing_fv_sd                =   0.0000000000000E+00
(PID.TID 0000.0001) %MON forcing_fv_del2              =   0.0000000000000E+00
(PID.TID 0000.0001) %MON advcfl_uvel_max              =   8.7662818144397E-02
(PID.TID 0000.0001) %MON advcfl_vvel_max              =   0.0000000000000E+00
(PID.TID 0000.0001) %MON advcfl_wvel_max              =   2.5312700030481E-01
(PID.TID 0000.0001) %MON advcfl_W_hf_max              =   2.5312700030481E-01
(PID.TID 0000.0001) %MON pe_b_mean                    =   2.2382534524590E-05
(PID.TID 0000.0001) %MON ke_max                       =   5.9821563280078E-01
(PID.TID 0000.0001) %MON ke_mean                      =   6.1204635795514E-02
(PID.TID 0000.0001) %MON ke_vol                       =   9.5889217545975E+10
(PID.TID 0000.0001) %MON vort_r_min                   =   0.0000000000000E+00
(PID.TID 0000.0001) %MON vort_r_max                   =   0.0000000000000E+00
(PID.TID 0000.0001) %MON vort_a_mean                  =   0.0000000000000E+00
(PID.TID 0000.0001) %MON vort_a_sd                    =   0.0000000000000E+00
(PID.TID 0000.0001) %MON vort_p_mean                  =   0.0000000000000E+00
(PID.TID 0000.0001) %MON vort_p_sd                    =   0.0000000000000E+00
(PID.TID 0000.0001) %MON surfExpan_theta_mean         =   1.2257829877988E-18
(PID.TID 0000.0001) %MON surfExpan_salt_mean          =   5.8379486012144E-19
(PID.TID 0000.0001) // =======================================================
(PID.TID 0000.0001) // End MONITOR dynamic field statistics
(PID.TID 0000.0001) // =======================================================
(PID.TID 0000.0001) // =======================================================
(PID.TID 0000.0001) // Begin OBCS MONITOR field statistics
(PID.TID 0000.0001) // =======================================================
(PID.TID 0000.0001) %MON obc_E_uVel_max               =   3.3404902334837E-01
(PID.TID 0000.0001) %MON obc_E_uVel_min               =   3.3404902334837E-01
(PID.TID 0000.0001) %MON obc_E_uVel_mean              =   3.3404902334837E-01
(PID.TID 0000.0001) %MON obc_E_uVel_sd                =   8.3300023432813E-09
(PID.TID 0000.0001) %MON obc_E_uVel_Int               =   3.3404902334837E+05
(PID.TID 0000.0001) %MON obc_W_uVel_max               =   3.3404902334837E-01
(PID.TID 0000.0001) %MON obc_W_uVel_min               =   3.3404902334837E-01
(PID.TID 0000.0001) %MON obc_W_uVel_mean              =   3.3404902334837E-01
(PID.TID 0000.0001) %MON obc_W_uVel_sd                =   8.3300023432813E-09
(PID.TID 0000.0001) %MON obc_W_uVel_Int               =   3.3404902334837E+05
(PID.TID 0000.0001) // =======================================================
(PID.TID 0000.0001) // End OBCS MONITOR field statistics
(PID.TID 0000.0001) // =======================================================
(PID.TID 0000.0001) %CHECKPOINT      1440 0000001440
 cg2d: Sum(rhs),rhsMax =  -2.02220462597325E-11  2.38142452017239E-01
 cg2d: Sum(rhs),rhsMax =  -2.03249639341152E-11  2.36419013360466E-01
 cg2d: Sum(rhs),rhsMax =  -2.05153671828384E-11  2.34531628106794E-01
 cg2d: Sum(rhs),rhsMax =  -2.06583639084101E-11  2.32483848482537E-01
 cg2d: Sum(rhs),rhsMax =  -2.08461026218743E-11  2.30279405541820E-01
 cg2d: Sum(rhs),rhsMax =  -2.10564898850407E-11  2.27922196837716E-01
 cg2d: Sum(rhs),rhsMax =  -2.12443396208073E-11  2.25416274541093E-01
 cg2d: Sum(rhs),rhsMax =  -2.14936957121381E-11  2.22765833661073E-01
 cg2d: Sum(rhs),rhsMax =  -2.17542650560176E-11  2.19975199802500E-01
 cg2d: Sum(rhs),rhsMax =  -2.19887441588185E-11  2.17048816259043E-01
 cg2d: Sum(rhs),rhsMax =  -2.23062679438613E-11  2.13991229994976E-01
 cg2d: Sum(rhs),rhsMax =  -2.25445218049458E-11  2.10807077155489E-01
 cg2d: Sum(rhs),rhsMax =  -2.28993490836160E-11  2.07501067552019E-01
 cg2d: Sum(rhs),rhsMax =  -2.32286412327198E-11  2.04077968267342E-01
 cg2d: Sum(rhs),rhsMax =  -2.35877983811861E-11  2.00638494677870E-01
 cg2d: Sum(rhs),rhsMax =  -2.39005482072230E-11  1.97847087704215E-01
 cg2d: Sum(rhs),rhsMax =  -2.42159625685190E-11  1.94977707923667E-01
 cg2d: Sum(rhs),rhsMax =  -2.45050646441314E-11  1.92033099963353E-01
 cg2d: Sum(rhs),rhsMax =  -2.48737697106094E-11  1.89015979716406E-01
 cg2d: Sum(rhs),rhsMax =  -2.52301513015141E-11  1.85929023738629E-01
 cg2d: Sum(rhs),rhsMax =  -2.56249466090708E-11  1.82774858999463E-01
 cg2d: Sum(rhs),rhsMax =  -2.60331756152254E-11  1.79556053102750E-01
 cg2d: Sum(rhs),rhsMax =  -2.64485100487377E-11  1.76275105459671E-01
 cg2d: Sum(rhs),rhsMax =  -2.68908229017484E-11  1.72934439002416E-01
 cg2d: Sum(rhs),rhsMax =  -2.73784328541637E-11  1.69536392551013E-01
 cg2d: Sum(rhs),rhsMax =  -2.78420619892472E-11  1.66083213803469E-01
 cg2d: Sum(rhs),rhsMax =  -2.83523204913649E-11  1.62577052877341E-01
 cg2d: Sum(rhs),rhsMax =  -2.89380741591572E-11  1.59019956304162E-01
 cg2d: Sum(rhs),rhsMax =  -2.95066193700677E-11  1.55413861379046E-01
 cg2d: Sum(rhs),rhsMax =  -3.01110247846736E-11  1.51760590719202E-01
 cg2d: Sum(rhs),rhsMax =  -3.07618375217089E-11  1.48061847201853E-01
 cg2d: Sum(rhs),rhsMax =  -3.15055759259053E-11  1.44319209293750E-01
 cg2d: Sum(rhs),rhsMax =  -3.23354676368126E-11  1.40534126747270E-01
 cg2d: Sum(rhs),rhsMax =  -3.31028537914335E-11  1.36707916872422E-01
 cg2d: Sum(rhs),rhsMax =  -3.40670824883205E-11  1.32841761634454E-01
 cg2d: Sum(rhs),rhsMax =  -3.49132944776898E-11  1.28936705825097E-01
 cg2d: Sum(rhs),rhsMax =  -3.60163010526549E-11  1.24993656527684E-01
 cg2d: Sum(rhs),rhsMax =  -3.71659369946542E-11  1.21013384085065E-01
 cg2d: Sum(rhs),rhsMax =  -3.83485465604849E-11  1.16996524574601E-01
 cg2d: Sum(rhs),rhsMax =  -3.97528676643333E-11  1.12943583840512E-01
 cg2d: Sum(rhs),rhsMax =  -4.12655465353851E-11  1.08854943026824E-01
 cg2d: Sum(rhs),rhsMax =  -4.29366542320508E-11  1.04730865384329E-01
 cg2d: Sum(rhs),rhsMax =  -4.47635262190715E-11  1.00571504030556E-01
 cg2d: Sum(rhs),rhsMax =  -4.67706984252914E-11  9.63769102808036E-02
 cg2d: Sum(rhs),rhsMax =  -4.89843721140915E-11  9.21470421556045E-02
 cg2d: Sum(rhs),rhsMax =  -5.14521758532283E-11  8.78817726141895E-02
 cg2d: Sum(rhs),rhsMax =  -5.41686695498811E-11  8.35808972089586E-02
 cg2d: Sum(rhs),rhsMax =  -5.72167868639895E-11  7.92441409190336E-02
 cg2d: Sum(rhs),rhsMax =  -6.06903416411342E-11  7.48711640093701E-02
 cg2d: Sum(rhs),rhsMax =  -6.45488107409165E-11  7.04615667824995E-02
 cg2d: Sum(rhs),rhsMax =  -6.89649448659679E-11  6.60148934959956E-02
 cg2d: Sum(rhs),rhsMax =  -7.40388306219586E-11  6.15306357378887E-02
 cg2d: Sum(rhs),rhsMax =  -8.00067789796799E-11  5.70082356428983E-02
 cg2d: Sum(rhs),rhsMax =  -8.70469807345842E-11  5.24470894048084E-02
 cg2d: Sum(rhs),rhsMax =  -9.55325818452479E-11  4.78465516643209E-02
 cg2d: Sum(rhs),rhsMax =  -1.05928321669779E-10  4.32059411957333E-02
 cg2d: Sum(rhs),rhsMax =  -1.18969473161812E-10  3.85245481896972E-02
 cg2d: Sum(rhs),rhsMax =  -1.35634503628523E-10  3.38016434872656E-02
 cg2d: Sum(rhs),rhsMax =  -1.57954802015858E-10  2.90364898844151E-02
 cg2d: Sum(rhs),rhsMax =  -1.89396387462182E-10  2.42283554167948E-02
 cg2d: Sum(rhs),rhsMax =  -2.36936026354329E-10  1.93765283517470E-02
 cg2d: Sum(rhs),rhsMax =  -2.45587217229115E-10  1.86985812426432E-02
 cg2d: Sum(rhs),rhsMax =  -2.00023775320801E-10  2.29592132748971E-02
 cg2d: Sum(rhs),rhsMax =  -1.68720148963075E-10  2.72297392773824E-02
 cg2d: Sum(rhs),rhsMax =  -1.45655598693395E-10  3.15489553854377E-02
 cg2d: Sum(rhs),rhsMax =  -1.28010602118422E-10  3.59114675331859E-02
 cg2d: Sum(rhs),rhsMax =  -1.14084741653642E-10  4.03157158229459E-02
 cg2d: Sum(rhs),rhsMax =  -1.02729380557776E-10  4.47953984890758E-02
 cg2d: Sum(rhs),rhsMax =  -9.33463306651561E-11  4.93191935580287E-02
 cg2d: Sum(rhs),rhsMax =  -8.56146264993640E-11  5.38204968912573E-02
 cg2d: Sum(rhs),rhsMax =  -7.91300358571334E-11  5.82992993253246E-02
 cg2d: Sum(rhs),rhsMax =  -7.36020133729198E-11  6.27556101303731E-02
 cg2d: Sum(rhs),rhsMax =  -6.88396006864878E-11  6.71894403154328E-02
 cg2d: Sum(rhs),rhsMax =  -6.46487308131327E-11  7.16007847347019E-02
 cg2d: Sum(rhs),rhsMax =  -6.09592376576984E-11  7.59896037996948E-02
 cg2d: Sum(rhs),rhsMax =  -5.77486947150874E-11  8.03558057761175E-02
 cg2d: Sum(rhs),rhsMax =  -5.48641132525063E-11  8.46992305210548E-02
 cg2d: Sum(rhs),rhsMax =  -5.22457632712303E-11  8.90196354273854E-02
 cg2d: Sum(rhs),rhsMax =  -4.98918684144201E-11  9.33166840566620E-02
 cg2d: Sum(rhs),rhsMax =  -4.77462513970295E-11  9.75899379101452E-02
 cg2d: Sum(rhs),rhsMax =  -4.58064697284044E-11  1.01838851476507E-01
 cg2d: Sum(rhs),rhsMax =  -4.40334435580780E-11  1.06062770560351E-01
 cg2d: Sum(rhs),rhsMax =  -4.24327240011735E-11  1.10260933587849E-01
 cg2d: Sum(rhs),rhsMax =  -4.09112743682272E-11  1.14432475498503E-01
 cg2d: Sum(rhs),rhsMax =  -3.95110610895699E-11  1.18576433719246E-01
 cg2d: Sum(rhs),rhsMax =  -3.82880394056428E-11  1.22691755637434E-01
 cg2d: Sum(rhs),rhsMax =  -3.71407349319952E-11  1.26777306986331E-01
 cg2d: Sum(rhs),rhsMax =  -3.61182195263154E-11  1.30831880433747E-01
 cg2d: Sum(rhs),rhsMax =  -3.51068063508819E-11  1.34854203930679E-01
 cg2d: Sum(rhs),rhsMax =  -3.39355210599024E-11  1.39855305276116E-01
 cg2d: Sum(rhs),rhsMax =  -3.26133564598763E-11  1.45799432460494E-01
 cg2d: Sum(rhs),rhsMax =  -3.14080983443432E-11  1.51749573060370E-01
 cg2d: Sum(rhs),rhsMax =  -3.02787794836945E-11  1.57702141011682E-01
 cg2d: Sum(rhs),rhsMax =  -2.92608159924157E-11  1.63653368442999E-01
 cg2d: Sum(rhs),rhsMax =  -2.82953660502017E-11  1.69599303553927E-01
 cg2d: Sum(rhs),rhsMax =  -2.73564504382762E-11  1.75535810228316E-01
 cg2d: Sum(rhs),rhsMax =  -2.65280020173009E-11  1.81458569635087E-01
 cg2d: Sum(rhs),rhsMax =  -2.57829313454749E-11  1.87363084006303E-01
 cg2d: Sum(rhs),rhsMax =  -2.49951170872009E-11  1.93244682706563E-01
 cg2d: Sum(rhs),rhsMax =  -2.43073339234456E-11  1.99098530624166E-01
 cg2d: Sum(rhs),rhsMax =  -2.36527464281266E-11  2.04919638826629E-01
 cg2d: Sum(rhs),rhsMax =  -2.30589991545571E-11  2.10702877335451E-01
 cg2d: Sum(rhs),rhsMax =  -2.24728013975550E-11  2.16442989791739E-01
 cg2d: Sum(rhs),rhsMax =  -2.19583240479437E-11  2.22134609710669E-01
 cg2d: Sum(rhs),rhsMax =  -2.14596118652821E-11  2.27772277963442E-01
 cg2d: Sum(rhs),rhsMax =  -2.09772199610825E-11  2.33350461085469E-01
 cg2d: Sum(rhs),rhsMax =  -2.05619965498727E-11  2.38863569989556E-01
 cg2d: Sum(rhs),rhsMax =  -2.01317851278304E-11  2.44305978669829E-01
 cg2d: Sum(rhs),rhsMax =  -1.97771798937652E-11  2.49672042511917E-01
 cg2d: Sum(rhs),rhsMax =  -1.93990379315778E-11  2.54956115879764E-01
 cg2d: Sum(rhs),rhsMax =  -1.90366611363402E-11  2.60152568720444E-01
 cg2d: Sum(rhs),rhsMax =  -1.87166948606432E-11  2.65255802012862E-01
 cg2d: Sum(rhs),rhsMax =  -1.83962844957364E-11  2.70260261975978E-01
 cg2d: Sum(rhs),rhsMax =  -1.80848669373290E-11  2.75160453042001E-01
 cg2d: Sum(rhs),rhsMax =  -1.77863279660073E-11  2.79950949683821E-01
 cg2d: Sum(rhs),rhsMax =  -1.75280900904795E-11  2.84626407257133E-01
 cg2d: Sum(rhs),rhsMax =  -1.72702963041615E-11  2.89181572073152E-01
 cg2d: Sum(rhs),rhsMax =  -1.70218283912504E-11  2.93611290956972E-01
 cg2d: Sum(rhs),rhsMax =  -1.68073333028929E-11  2.97910520548307E-01
 cg2d: Sum(rhs),rhsMax =  -1.65991664857756E-11  3.02074336599441E-01
 cg2d: Sum(rhs),rhsMax =  -1.63972169175963E-11  3.06097943498647E-01
 cg2d: Sum(rhs),rhsMax =  -1.62265756387114E-11  3.09976684204596E-01
 cg2d: Sum(rhs),rhsMax =  -1.60520485792404E-11  3.13706050722817E-01
 cg2d: Sum(rhs),rhsMax =  -1.58689728024797E-11  3.17281695191094E-01
 cg2d: Sum(rhs),rhsMax =  -1.57157620250814E-11  3.20699441576687E-01
 cg2d: Sum(rhs),rhsMax =  -1.55609969354487E-11  3.23955297940889E-01
 cg2d: Sum(rhs),rhsMax =  -1.54221080350680E-11  3.27045469119264E-01
 cg2d: Sum(rhs),rhsMax =  -1.52974299894026E-11  3.29966369625774E-01
 cg2d: Sum(rhs),rhsMax =  -1.51856305308229E-11  3.32714636570231E-01
 cg2d: Sum(rhs),rhsMax =  -1.50871537485386E-11  3.35287142294212E-01
 cg2d: Sum(rhs),rhsMax =  -1.50012224864327E-11  3.37681006412763E-01
 cg2d: Sum(rhs),rhsMax =  -1.49482648481580E-11  3.39893606958826E-01
 cg2d: Sum(rhs),rhsMax =  -1.48345780104364E-11  3.41922590275154E-01
 cg2d: Sum(rhs),rhsMax =  -1.47942769146425E-11  3.43765879406868E-01
 cg2d: Sum(rhs),rhsMax =  -1.47507561720772E-11  3.45421680742223E-01
 cg2d: Sum(rhs),rhsMax =  -1.46618273078047E-11  3.46888488755763E-01
 cg2d: Sum(rhs),rhsMax =  -1.46039846882218E-11  3.48165088630504E-01
 cg2d: Sum(rhs),rhsMax =  -1.45931045025804E-11  3.49250556799199E-01
 cg2d: Sum(rhs),rhsMax =  -1.45440326448920E-11  3.50144259450863E-01
 cg2d: Sum(rhs),rhsMax =  -1.45151668462518E-11  3.50845849083186E-01
 cg2d: Sum(rhs),rhsMax =  -1.44829703785376E-11  3.51355259372745E-01
 cg2d: Sum(rhs),rhsMax =  -1.44858569584017E-11  3.51672698655221E-01
 cg2d: Sum(rhs),rhsMax =  -1.44907419397100E-11  3.51798642306019E-01
 cg2d: Sum(rhs),rhsMax =  -1.45136125340173E-11  3.51733824285519E-01
 cg2d: Sum(rhs),rhsMax =  -1.45766732018160E-11  3.51479228184275E-01
 cg2d: Sum(rhs),rhsMax =  -1.46119782939991E-11  3.51036078073773E-01
 cg2d: Sum(rhs),rhsMax =  -1.45990997069134E-11  3.50405829453209E-01
 cg2d: Sum(rhs),rhsMax =  -1.46307410631152E-11  3.49590160297143E-01
 cg2d: Sum(rhs),rhsMax =  -1.46542777912373E-11  3.48590962416790E-01
 cg2d: Sum(rhs),rhsMax =  -1.46785916754766E-11  3.47410333470595E-01
 cg2d: Sum(rhs),rhsMax =  -1.47429846109048E-11  3.46050569235788E-01
 cg2d: Sum(rhs),rhsMax =  -1.47712952980328E-11  3.44514155976327E-01
 cg2d: Sum(rhs),rhsMax =  -1.48198120442089E-11  3.42803762819864E-01
 cg2d: Sum(rhs),rhsMax =  -1.48697720803170E-11  3.40922234211084E-01
 cg2d: Sum(rhs),rhsMax =  -1.49364964840970E-11  3.38872582001414E-01
 cg2d: Sum(rhs),rhsMax =  -1.50347512217763E-11  3.36657976910140E-01
 cg2d: Sum(rhs),rhsMax =  -1.51163526140863E-11  3.34281738945080E-01
 cg2d: Sum(rhs),rhsMax =  -1.52102774819696E-11  3.31747327096616E-01
 cg2d: Sum(rhs),rhsMax =  -1.53203005837099E-11  3.29058328229082E-01
 cg2d: Sum(rhs),rhsMax =  -1.54286583509133E-11  3.26218445293629E-01
 cg2d: Sum(rhs),rhsMax =  -1.55603308016339E-11  3.23231484917052E-01
 cg2d: Sum(rhs),rhsMax =  -1.56649138105536E-11  3.20101344260088E-01
 cg2d: Sum(rhs),rhsMax =  -1.58054680454711E-11  3.16831997806455E-01
 cg2d: Sum(rhs),rhsMax =  -1.59432467228271E-11  3.13427484386981E-01
 cg2d: Sum(rhs),rhsMax =  -1.60730317944058E-11  3.09891895009585E-01
 cg2d: Sum(rhs),rhsMax =  -1.62201363451686E-11  3.06229361793411E-01
 cg2d: Sum(rhs),rhsMax =  -1.63971058952939E-11  3.02444048295953E-01
 cg2d: Sum(rhs),rhsMax =  -1.65683022856911E-11  2.98540141524567E-01
 cg2d: Sum(rhs),rhsMax =  -1.67597047351364E-11  2.94521845984600E-01
 cg2d: Sum(rhs),rhsMax =  -1.69472214039956E-11  2.90393379655361E-01
 cg2d: Sum(rhs),rhsMax =  -1.71866965104073E-11  2.86158971963188E-01
 cg2d: Sum(rhs),rhsMax =  -1.73943082160122E-11  2.81822863505427E-01
 cg2d: Sum(rhs),rhsMax =  -1.76477721325341E-11  2.77389307139883E-01
 cg2d: Sum(rhs),rhsMax =  -1.78866921274334E-11  2.72862569719040E-01
 cg2d: Sum(rhs),rhsMax =  -1.81428205792145E-11  2.68246934282212E-01
 cg2d: Sum(rhs),rhsMax =  -1.84156023763649E-11  2.63546701787468E-01
 cg2d: Sum(rhs),rhsMax =  -1.86886062181202E-11  2.58766191536343E-01
 cg2d: Sum(rhs),rhsMax =  -1.89941395944970E-11  2.53909739703931E-01
 cg2d: Sum(rhs),rhsMax =  -1.93244309443230E-11  2.48981695467107E-01
 cg2d: Sum(rhs),rhsMax =  -1.96223037818299E-11  2.43986414278504E-01
 cg2d: Sum(rhs),rhsMax =  -1.99584793136864E-11  2.38928248207998E-01
 cg2d: Sum(rhs),rhsMax =  -2.03097538786778E-11  2.33811533553873E-01
 cg2d: Sum(rhs),rhsMax =  -2.07101003013577E-11  2.28640575631321E-01
 cg2d: Sum(rhs),rhsMax =  -2.11574091579791E-11  2.23419631215083E-01
 cg2d: Sum(rhs),rhsMax =  -2.16473505787462E-11  2.18152889336589E-01
 cg2d: Sum(rhs),rhsMax =  -2.21377360887232E-11  2.12844451268633E-01
 cg2d: Sum(rhs),rhsMax =  -2.26630936239758E-11  2.07498310590455E-01
 cg2d: Sum(rhs),rhsMax =  -2.32341923478430E-11  2.02118334218383E-01
 cg2d: Sum(rhs),rhsMax =  -2.38308262012765E-11  1.96708245290293E-01
 cg2d: Sum(rhs),rhsMax =  -2.44377851288391E-11  1.91271608448959E-01
 cg2d: Sum(rhs),rhsMax =  -2.50888199104793E-11  1.85811818249036E-01
 cg2d: Sum(rhs),rhsMax =  -2.57779353418641E-11  1.80332091186364E-01
 cg2d: Sum(rhs),rhsMax =  -2.65334421101215E-11  1.74835461389979E-01
 cg2d: Sum(rhs),rhsMax =  -2.73383538029748E-11  1.69324779947186E-01
 cg2d: Sum(rhs),rhsMax =  -2.81867862383933E-11  1.63802717664990E-01
 cg2d: Sum(rhs),rhsMax =  -2.90963919624687E-11  1.58271770925348E-01
 cg2d: Sum(rhs),rhsMax =  -3.00593994140286E-11  1.52734270202904E-01
 cg2d: Sum(rhs),rhsMax =  -3.11204395586628E-11  1.47192390655321E-01
 cg2d: Sum(rhs),rhsMax =  -3.22040172306970E-11  1.41648164207123E-01
 cg2d: Sum(rhs),rhsMax =  -3.34179350858221E-11  1.36103492651360E-01
 cg2d: Sum(rhs),rhsMax =  -3.47314399462562E-11  1.30560161260532E-01
 cg2d: Sum(rhs),rhsMax =  -3.61427554551597E-11  1.25019852448368E-01
 cg2d: Sum(rhs),rhsMax =  -3.77216036184791E-11  1.19484159112822E-01
 cg2d: Sum(rhs),rhsMax =  -3.94244636936492E-11  1.13954597376618E-01
 cg2d: Sum(rhs),rhsMax =  -4.12941902894204E-11  1.08432618544602E-01
 cg2d: Sum(rhs),rhsMax =  -4.34564606521803E-11  1.02919620201445E-01
 cg2d: Sum(rhs),rhsMax =  -4.58408866421678E-11  9.74169562200904E-02
 cg2d: Sum(rhs),rhsMax =  -4.85388396143094E-11  9.19259455909509E-02
 cg2d: Sum(rhs),rhsMax =  -5.14532860762529E-11  8.65462416759860E-02
 cg2d: Sum(rhs),rhsMax =  -5.39723821191274E-11  8.24065888220630E-02
 cg2d: Sum(rhs),rhsMax =  -5.67723645872320E-11  7.82347522010687E-02
 cg2d: Sum(rhs),rhsMax =  -5.99200689066492E-11  7.40309170726868E-02
 cg2d: Sum(rhs),rhsMax =  -6.34821084588566E-11  6.97952748206821E-02
 cg2d: Sum(rhs),rhsMax =  -6.75073330569376E-11  6.55280288806205E-02
 cg2d: Sum(rhs),rhsMax =  -7.21239734602364E-11  6.12294010771717E-02
 cg2d: Sum(rhs),rhsMax =  -7.75359776383766E-11  5.68996386149710E-02
 cg2d: Sum(rhs),rhsMax =  -8.38524805146790E-11  5.25390218987550E-02
 cg2d: Sum(rhs),rhsMax =  -9.14206488289437E-11  4.81478732288959E-02
 cg2d: Sum(rhs),rhsMax =  -1.00593311458397E-10  4.37265662482008E-02
 cg2d: Sum(rhs),rhsMax =  -1.11986642181705E-10  3.92755358626025E-02
 cg2d: Sum(rhs),rhsMax =  -1.26347377005231E-10  3.47952882815509E-02
 cg2d: Sum(rhs),rhsMax =  -1.45109257942977E-10  3.02864105499439E-02
 cg2d: Sum(rhs),rhsMax =  -1.70584879555236E-10  2.57495791168695E-02
 cg2d: Sum(rhs),rhsMax =  -2.07259209794586E-10  2.11855671108546E-02
 cg2d: Sum(rhs),rhsMax =  -2.64482213907513E-10  1.65952498386392E-02
 cg2d: Sum(rhs),rhsMax =  -2.93503110704307E-10  1.49527087140746E-02
 cg2d: Sum(rhs),rhsMax =  -2.77227518719059E-10  1.58264061833123E-02
 cg2d: Sum(rhs),rhsMax =  -2.54390480902700E-10  1.72462287391576E-02
 cg2d: Sum(rhs),rhsMax =  -2.03701791545718E-10  2.15355501582748E-02
 cg2d: Sum(rhs),rhsMax =  -1.69036284969337E-10  2.59444702612347E-02
 cg2d: Sum(rhs),rhsMax =  -1.44193657014569E-10  3.03933551621780E-02
 cg2d: Sum(rhs),rhsMax =  -1.25861210342748E-10  3.48075035887924E-02
 cg2d: Sum(rhs),rhsMax =  -1.11441189609707E-10  3.92706962721732E-02
 cg2d: Sum(rhs),rhsMax =  -1.00010222325864E-10  4.37221659507903E-02
 cg2d: Sum(rhs),rhsMax =  -9.06745789563956E-11  4.81692244777296E-02
 cg2d: Sum(rhs),rhsMax =  -8.28680457587438E-11  5.26541566982078E-02
 cg2d: Sum(rhs),rhsMax =  -7.63106244860978E-11  5.71222212596200E-02
 cg2d: Sum(rhs),rhsMax =  -7.06569247554967E-11  6.16364413787011E-02
 cg2d: Sum(rhs),rhsMax =  -6.56782406238676E-11  6.61740912588158E-02
 cg2d: Sum(rhs),rhsMax =  -6.13742390243033E-11  7.07124274836127E-02
 cg2d: Sum(rhs),rhsMax =  -5.76403369478840E-11  7.52064342325963E-02
 cg2d: Sum(rhs),rhsMax =  -5.43743938763441E-11  7.96551377795744E-02
 cg2d: Sum(rhs),rhsMax =  -5.14333020618096E-11  8.40575135712563E-02
 cg2d: Sum(rhs),rhsMax =  -4.89024376548741E-11  8.84124868165737E-02
 cg2d: Sum(rhs),rhsMax =  -4.66161553802635E-11  9.27189346100505E-02
 cg2d: Sum(rhs),rhsMax =  -4.45131709270186E-11  9.69756893275257E-02
 cg2d: Sum(rhs),rhsMax =  -4.26063628822249E-11  1.01181542908986E-01
 cg2d: Sum(rhs),rhsMax =  -4.08340028457133E-11  1.05335251538240E-01
 cg2d: Sum(rhs),rhsMax =  -3.92377241809072E-11  1.09435540156039E-01
 cg2d: Sum(rhs),rhsMax =  -3.77696762754454E-11  1.13481106212114E-01
 cg2d: Sum(rhs),rhsMax =  -3.64838159683245E-11  1.17470622094374E-01
 cg2d: Sum(rhs),rhsMax =  -3.52781137635816E-11  1.21402735741224E-01
 cg2d: Sum(rhs),rhsMax =  -3.42469386183097E-11  1.25276069090086E-01
 cg2d: Sum(rhs),rhsMax =  -3.32645022638189E-11  1.29089214199635E-01
 cg2d: Sum(rhs),rhsMax =  -3.23963078585621E-11  1.32840727112278E-01
 cg2d: Sum(rhs),rhsMax =  -3.16386916665579E-11  1.36529119763213E-01
 cg2d: Sum(rhs),rhsMax =  -3.09353653804578E-11  1.40152850506149E-01
 cg2d: Sum(rhs),rhsMax =  -3.02583513800414E-11  1.43710314013747E-01
 cg2d: Sum(rhs),rhsMax =  -2.96529467647133E-11  1.47199831474274E-01
 cg2d: Sum(rhs),rhsMax =  -2.90464319263606E-11  1.50619642096799E-01
 cg2d: Sum(rhs),rhsMax =  -2.85026446888992E-11  1.53967896972863E-01
 cg2d: Sum(rhs),rhsMax =  -2.78514988849565E-11  1.57242656209977E-01
 cg2d: Sum(rhs),rhsMax =  -2.73912004189469E-11  1.60441890094303E-01
 cg2d: Sum(rhs),rhsMax =  -2.69561040155963E-11  1.63563484793906E-01
 cg2d: Sum(rhs),rhsMax =  -2.65365507345905E-11  1.66605252808113E-01
 cg2d: Sum(rhs),rhsMax =  -2.60919064132281E-11  1.69564948040332E-01
 cg2d: Sum(rhs),rhsMax =  -2.57319721086446E-11  1.72440285038247E-01
 cg2d: Sum(rhs),rhsMax =  -2.53678189565676E-11  1.75228961645518E-01
 cg2d: Sum(rhs),rhsMax =  -2.50348630714825E-11  1.77928684080689E-01
 cg2d: Sum(rhs),rhsMax =  -2.47437625944258E-11  1.80563741123989E-01
 cg2d: Sum(rhs),rhsMax =  -2.43755016171576E-11  1.83521245382419E-01
 cg2d: Sum(rhs),rhsMax =  -2.40347741709002E-11  1.86363335456827E-01
 cg2d: Sum(rhs),rhsMax =  -2.37487807197567E-11  1.89087565010419E-01
 cg2d: Sum(rhs),rhsMax =  -2.34339214699730E-11  1.91691555372397E-01
 cg2d: Sum(rhs),rhsMax =  -2.31513697102059E-11  1.94172985787042E-01
 cg2d: Sum(rhs),rhsMax =  -2.29322116851449E-11  1.96529586465439E-01
 cg2d: Sum(rhs),rhsMax =  -2.26859642182831E-11  1.98759135265175E-01
 cg2d: Sum(rhs),rhsMax =  -2.25048868429667E-11  2.00859458548414E-01
 cg2d: Sum(rhs),rhsMax =  -2.23816520872333E-11  2.02828436473891E-01
 cg2d: Sum(rhs),rhsMax =  -2.22479812350684E-11  2.04664012680826E-01
 cg2d: Sum(rhs),rhsMax =  -2.21900275931830E-11  2.06364208073349E-01
 cg2d: Sum(rhs),rhsMax =  -2.20861107180781E-11  2.07927138208552E-01
 cg2d: Sum(rhs),rhsMax =  -2.19990692329475E-11  2.09351033630822E-01
 cg2d: Sum(rhs),rhsMax =  -2.19243512233902E-11  2.10634262381963E-01
 cg2d: Sum(rhs),rhsMax =  -2.18803863916150E-11  2.11775353827554E-01
 cg2d: Sum(rhs),rhsMax =  -2.17981188654903E-11  2.12773022913613E-01
 cg2d: Sum(rhs),rhsMax =  -2.17115214695696E-11  2.13626193842400E-01
 cg2d: Sum(rhs),rhsMax =  -2.17023066184652E-11  2.14334022186361E-01
 cg2d: Sum(rhs),rhsMax =  -2.16000550778972E-11  2.14895914429145E-01
 cg2d: Sum(rhs),rhsMax =  -2.14903650430642E-11  2.15311543934934E-01
 cg2d: Sum(rhs),rhsMax =  -2.14320783342714E-11  2.15580862461744E-01
 cg2d: Sum(rhs),rhsMax =  -2.14331885572960E-11  2.15704106369405E-01
 cg2d: Sum(rhs),rhsMax =  -2.13715711794293E-11  2.15681796723955E-01
 cg2d: Sum(rhs),rhsMax =  -2.13590256592511E-11  2.15514733121854E-01
 cg2d: Sum(rhs),rhsMax =  -2.13062900655814E-11  2.15203981015523E-01
 cg2d: Sum(rhs),rhsMax =  -2.13369322210610E-11  2.14750852829394E-01
 cg2d: Sum(rhs),rhsMax =  -2.13851159003298E-11  2.14156883508368E-01
 cg2d: Sum(rhs),rhsMax =  -2.14008810672794E-11  2.13423801707150E-01
 cg2d: Sum(rhs),rhsMax =  -2.14798179243303E-11  2.12553498009709E-01
 cg2d: Sum(rhs),rhsMax =  -2.16049400592055E-11  2.11547991979915E-01
 cg2d: Sum(rhs),rhsMax =  -2.16867634961204E-11  2.10409399765504E-01
 cg2d: Sum(rhs),rhsMax =  -2.17945661518115E-11  2.09139904256793E-01
 cg2d: Sum(rhs),rhsMax =  -2.18615126001964E-11  2.07876737097024E-01
 cg2d: Sum(rhs),rhsMax =  -2.19999574113672E-11  2.06881889061984E-01
 cg2d: Sum(rhs),rhsMax =  -2.20734541755974E-11  2.05783181872214E-01
 cg2d: Sum(rhs),rhsMax =  -2.21156426505331E-11  2.04581384385464E-01
 cg2d: Sum(rhs),rhsMax =  -2.22434293206675E-11  2.03277381455696E-01
 cg2d: Sum(rhs),rhsMax =  -2.23024931855775E-11  2.01872182330341E-01
 cg2d: Sum(rhs),rhsMax =  -2.24642526802654E-11  2.00366925952583E-01
 cg2d: Sum(rhs),rhsMax =  -2.26122454094480E-11  1.98762882656179E-01
 cg2d: Sum(rhs),rhsMax =  -2.28012053682392E-11  1.97061451875223E-01
 cg2d: Sum(rhs),rhsMax =  -2.29527508111005E-11  1.95264155643056E-01
 cg2d: Sum(rhs),rhsMax =  -2.31407115691695E-11  1.93372627877333E-01
 cg2d: Sum(rhs),rhsMax =  -2.33512098546385E-11  1.91388599688789E-01
 cg2d: Sum(rhs),rhsMax =  -2.35655939206936E-11  1.89313880803098E-01
 cg2d: Sum(rhs),rhsMax =  -2.37712072248542E-11  1.87150338001865E-01
 cg2d: Sum(rhs),rhsMax =  -2.40270026097278E-11  1.84899871347239E-01
 cg2d: Sum(rhs),rhsMax =  -2.42681430506764E-11  1.82564389085924E-01
 cg2d: Sum(rhs),rhsMax =  -2.45561349032641E-11  1.80145782387651E-01
 cg2d: Sum(rhs),rhsMax =  -2.48630005472705E-11  1.77645900981229E-01
 cg2d: Sum(rhs),rhsMax =  -2.51637599646415E-11  1.75066530788140E-01
 cg2d: Sum(rhs),rhsMax =  -2.55971910334551E-11  1.72409374568629E-01
 cg2d: Sum(rhs),rhsMax =  -2.59167132199423E-11  1.69676036438630E-01
 cg2d: Sum(rhs),rhsMax =  -2.63187249771590E-11  1.66868010863711E-01
 cg2d: Sum(rhs),rhsMax =  -2.67278421617334E-11  1.63986676337918E-01
 cg2d: Sum(rhs),rhsMax =  -2.71610511859421E-11  1.61033294172248E-01
 cg2d: Sum(rhs),rhsMax =  -2.76653144837269E-11  1.58009011816363E-01
 cg2d: Sum(rhs),rhsMax =  -2.82118772787499E-11  1.54914870136251E-01
 cg2d: Sum(rhs),rhsMax =  -2.87848633817589E-11  1.51751813923923E-01
 cg2d: Sum(rhs),rhsMax =  -2.93711721610634E-11  1.48520704690879E-01
 cg2d: Sum(rhs),rhsMax =  -3.00425240240543E-11  1.45222334819108E-01
 cg2d: Sum(rhs),rhsMax =  -3.06554781559498E-11  1.41857442144521E-01
 cg2d: Sum(rhs),rhsMax =  -3.13687964492715E-11  1.38426724111456E-01
 cg2d: Sum(rhs),rhsMax =  -3.22388782336702E-11  1.34930850754476E-01
 cg2d: Sum(rhs),rhsMax =  -3.31161764677290E-11  1.31370476110113E-01
 cg2d: Sum(rhs),rhsMax =  -3.41003891790592E-11  1.27746247906309E-01
 cg2d: Sum(rhs),rhsMax =  -3.51351170380099E-11  1.24058815321559E-01
 cg2d: Sum(rhs),rhsMax =  -3.62692098576645E-11  1.20308835007042E-01
 cg2d: Sum(rhs),rhsMax =  -3.74871245156783E-11  1.16496975722799E-01
 cg2d: Sum(rhs),rhsMax =  -3.87944121271744E-11  1.12623921970098E-01
 cg2d: Sum(rhs),rhsMax =  -4.02884392514125E-11  1.08690377049939E-01
 cg2d: Sum(rhs),rhsMax =  -4.18708401284107E-11  1.04697065744582E-01
 cg2d: Sum(rhs),rhsMax =  -4.36172209461461E-11  1.00644736988908E-01
 cg2d: Sum(rhs),rhsMax =  -4.55210313887733E-11  9.65341666498401E-02
 cg2d: Sum(rhs),rhsMax =  -4.76871875321194E-11  9.23661603784699E-02
 cg2d: Sum(rhs),rhsMax =  -5.00676167192182E-11  8.81415563836435E-02
 cg2d: Sum(rhs),rhsMax =  -5.27187182797206E-11  8.38612278936686E-02
 cg2d: Sum(rhs),rhsMax =  -5.56966694986727E-11  7.95260850295114E-02
 cg2d: Sum(rhs),rhsMax =  -5.90375526243747E-11  7.51370758098841E-02
 cg2d: Sum(rhs),rhsMax =  -6.29183372069519E-11  7.06951860268254E-02
 cg2d: Sum(rhs),rhsMax =  -6.72467637130580E-11  6.62014378098840E-02
 cg2d: Sum(rhs),rhsMax =  -7.22949478060286E-11  6.16568868551176E-02
 cg2d: Sum(rhs),rhsMax =  -7.81666953386662E-11  5.70626183586167E-02
 cg2d: Sum(rhs),rhsMax =  -8.51833048542971E-11  5.24197418128363E-02
 cg2d: Sum(rhs),rhsMax =  -9.36500321735423E-11  4.77293850431190E-02
 cg2d: Sum(rhs),rhsMax =  -1.04076303131251E-10  4.29926878694479E-02
 cg2d: Sum(rhs),rhsMax =  -1.17255871678879E-10  3.82107959049056E-02
 cg2d: Sum(rhs),rhsMax =  -1.34261768369726E-10  3.33848549677234E-02
 cg2d: Sum(rhs),rhsMax =  -1.57247798115989E-10  2.85160065523693E-02
 cg2d: Sum(rhs),rhsMax =  -1.90011804901413E-10  2.36053847964905E-02
 cg2d: Sum(rhs),rhsMax =  -2.40502284754029E-10  1.86541152781521E-02
 cg2d: Sum(rhs),rhsMax =  -2.64472721500653E-10  1.69676032028875E-02
 cg2d: Sum(rhs),rhsMax =  -2.47761922089751E-10  1.81173040336448E-02
 cg2d: Sum(rhs),rhsMax =  -2.30867658324030E-10  1.94458140142905E-02
 cg2d: Sum(rhs),rhsMax =  -2.00037875153214E-10  2.24536060366575E-02
 cg2d: Sum(rhs),rhsMax =  -1.70111591479838E-10  2.64144557290651E-02
 cg2d: Sum(rhs),rhsMax =  -1.47691636698255E-10  3.04300035600234E-02
 cg2d: Sum(rhs),rhsMax =  -1.30344957049999E-10  3.44930884537711E-02
 cg2d: Sum(rhs),rhsMax =  -1.16533782623662E-10  3.86048756063396E-02
 cg2d: Sum(rhs),rhsMax =  -1.05135011807533E-10  4.27954018131313E-02
 cg2d: Sum(rhs),rhsMax =  -9.57297574544214E-11  4.70126739546428E-02
 cg2d: Sum(rhs),rhsMax =  -8.80109318757150E-11  5.12103272368228E-02
 cg2d: Sum(rhs),rhsMax =  -8.14415201944030E-11  5.53878853063346E-02
 cg2d: Sum(rhs),rhsMax =  -7.58668683431551E-11  5.95448413825715E-02
 cg2d: Sum(rhs),rhsMax =  -7.10222991529008E-11  6.36806493820757E-02
 cg2d: Sum(rhs),rhsMax =  -6.67437216606004E-11  6.77947183614281E-02
 cg2d: Sum(rhs),rhsMax =  -6.30553387281907E-11  7.18864101150175E-02
 cg2d: Sum(rhs),rhsMax =  -5.97295546356236E-11  7.59550394477867E-02
 cg2d: Sum(rhs),rhsMax =  -5.67541569296282E-11  7.99998764664328E-02
 cg2d: Sum(rhs),rhsMax =  -5.40718581021338E-11  8.40201502204392E-02
 cg2d: Sum(rhs),rhsMax =  -5.16853226883995E-11  8.80150530229400E-02
 cg2d: Sum(rhs),rhsMax =  -4.92148544140036E-11  9.25337355509407E-02
 cg2d: Sum(rhs),rhsMax =  -4.64817073719814E-11  9.80432040655679E-02
 cg2d: Sum(rhs),rhsMax =  -4.40586456207370E-11  1.03557505857616E-01
 cg2d: Sum(rhs),rhsMax =  -4.18577394967201E-11  1.09074325359023E-01
 cg2d: Sum(rhs),rhsMax =  -3.99519306526486E-11  1.14591273459730E-01
 cg2d: Sum(rhs),rhsMax =  -3.81892295564512E-11  1.20105880403290E-01
 cg2d: Sum(rhs),rhsMax =  -3.66365826565129E-11  1.25615587516699E-01
 cg2d: Sum(rhs),rhsMax =  -3.51683127064462E-11  1.31117738299808E-01
 cg2d: Sum(rhs),rhsMax =  -3.38203909322488E-11  1.36609569523545E-01
 cg2d: Sum(rhs),rhsMax =  -3.25913740439887E-11  1.42088203036753E-01
 cg2d: Sum(rhs),rhsMax =  -3.14348547192367E-11  1.47550638971438E-01
 cg2d: Sum(rhs),rhsMax =  -3.04167802056554E-11  1.52993750976962E-01
 cg2d: Sum(rhs),rhsMax =  -2.94478885720650E-11  1.58414284006211E-01
 cg2d: Sum(rhs),rhsMax =  -2.85363954688478E-11  1.63808855030550E-01
 cg2d: Sum(rhs),rhsMax =  -2.76830780521209E-11  1.69173956889915E-01
 cg2d: Sum(rhs),rhsMax =  -2.68878252995819E-11  1.74505965298188E-01
 cg2d: Sum(rhs),rhsMax =  -2.61499710774160E-11  1.79801148837775E-01
 cg2d: Sum(rhs),rhsMax =  -2.54586351999819E-11  1.85055681608866E-01
 cg2d: Sum(rhs),rhsMax =  -2.48185916262855E-11  1.90265658058735E-01
 cg2d: Sum(rhs),rhsMax =  -2.41807684986384E-11  1.95427109413698E-01
 cg2d: Sum(rhs),rhsMax =  -2.36201058712027E-11  2.00536021076282E-01
 cg2d: Sum(rhs),rhsMax =  -2.30508945264774E-11  2.05588350334238E-01
 cg2d: Sum(rhs),rhsMax =  -2.25822693877831E-11  2.10580043753761E-01
 cg2d: Sum(rhs),rhsMax =  -2.21223039886809E-11  2.15507053691231E-01
 cg2d: Sum(rhs),rhsMax =  -2.17220685883035E-11  2.20365353448433E-01
 cg2d: Sum(rhs),rhsMax =  -2.13074002886060E-11  2.25150950706733E-01
 cg2d: Sum(rhs),rhsMax =  -2.09425810027142E-11  2.29859898997830E-01
 cg2d: Sum(rhs),rhsMax =  -2.05754302484706E-11  2.34488307091263E-01
 cg2d: Sum(rhs),rhsMax =  -2.02219352374300E-11  2.39032346297798E-01
 cg2d: Sum(rhs),rhsMax =  -1.99272820466945E-11  2.43488255796156E-01
 cg2d: Sum(rhs),rhsMax =  -1.96361815696378E-11  2.47852346185882E-01
 cg2d: Sum(rhs),rhsMax =  -1.93740579135238E-11  2.52121001545505E-01
 cg2d: Sum(rhs),rhsMax =  -1.90958360235527E-11  2.56290680327188E-01
 cg2d: Sum(rhs),rhsMax =  -1.88471460660367E-11  2.60357915459563E-01
 cg2d: Sum(rhs),rhsMax =  -1.86437532079253E-11  2.64319314050516E-01
 cg2d: Sum(rhs),rhsMax =  -1.84177118001116E-11  2.68171557072954E-01
 cg2d: Sum(rhs),rhsMax =  -1.81810122512616E-11  2.71911399403606E-01
 cg2d: Sum(rhs),rhsMax =  -1.79961601176615E-11  2.75535670550337E-01
 cg2d: Sum(rhs),rhsMax =  -1.77831083192359E-11  2.79041276352749E-01
 cg2d: Sum(rhs),rhsMax =  -1.76092473935796E-11  2.82425201875215E-01
 cg2d: Sum(rhs),rhsMax =  -1.74508185679656E-11  2.85684515626193E-01
 cg2d: Sum(rhs),rhsMax =  -1.72905023632097E-11  2.88816375188209E-01
 cg2d: Sum(rhs),rhsMax =  -1.72043490564988E-11  2.91818034195375E-01
 cg2d: Sum(rhs),rhsMax =  -1.70802261223457E-11  2.94686850530640E-01
 cg2d: Sum(rhs),rhsMax =  -1.69778635594753E-11  2.97420295548923E-01
 cg2d: Sum(rhs),rhsMax =  -1.68619562757044E-11  3.00015964045252E-01
 cg2d: Sum(rhs),rhsMax =  -1.67688085639384E-11  3.02471584620819E-01
 cg2d: Sum(rhs),rhsMax =  -1.66844316140669E-11  3.04785030089499E-01
 cg2d: Sum(rhs),rhsMax =  -1.65832902965235E-11  3.06954327513368E-01
 cg2d: Sum(rhs),rhsMax =  -1.65109037553179E-11  3.08977667531331E-01
 cg2d: Sum(rhs),rhsMax =  -1.64630531429566E-11  3.10853412654296E-01
 cg2d: Sum(rhs),rhsMax =  -1.64033231442318E-11  3.12580104253184E-01
 cg2d: Sum(rhs),rhsMax =  -1.63383750972912E-11  3.14156468074056E-01
 cg2d: Sum(rhs),rhsMax =  -1.62900803957200E-11  3.15581418094044E-01
 cg2d: Sum(rhs),rhsMax =  -1.62754254517949E-11  3.16854058701850E-01
 cg2d: Sum(rhs),rhsMax =  -1.62563296157714E-11  3.17973685330472E-01
 cg2d: Sum(rhs),rhsMax =  -1.63216107296194E-11  3.18939783529743E-01
 cg2d: Sum(rhs),rhsMax =  -1.63153934806815E-11  3.19752026663794E-01
 cg2d: Sum(rhs),rhsMax =  -1.63608016023886E-11  3.20410272476302E-01
 cg2d: Sum(rhs),rhsMax =  -1.63805635722269E-11  3.20914558704495E-01
 cg2d: Sum(rhs),rhsMax =  -1.63976610068062E-11  3.21265097899363E-01
 cg2d: Sum(rhs),rhsMax =  -1.63875579772821E-11  3.21462271601904E-01
 cg2d: Sum(rhs),rhsMax =  -1.63504765282596E-11  3.21506624061233E-01
 cg2d: Sum(rhs),rhsMax =  -1.63148383691691E-11  3.21398855677777E-01
 cg2d: Sum(rhs),rhsMax =  -1.62909685741397E-11  3.21139816231909E-01
 cg2d: Sum(rhs),rhsMax =  -1.62353464006060E-11  3.20730498030540E-01
 cg2d: Sum(rhs),rhsMax =  -1.63061786295771E-11  3.20172029020686E-01
 cg2d: Sum(rhs),rhsMax =  -1.63157265475888E-11  3.19465666161822E-01
 cg2d: Sum(rhs),rhsMax =  -1.62940771986086E-11  3.18612789122873E-01
 cg2d: Sum(rhs),rhsMax =  -1.62921898194668E-11  3.17614894255814E-01
 cg2d: Sum(rhs),rhsMax =  -1.63241642425760E-11  3.16473588964793E-01
 cg2d: Sum(rhs),rhsMax =  -1.63878910441895E-11  3.15190586483610E-01
 cg2d: Sum(rhs),rhsMax =  -1.64425140170010E-11  3.13767701420267E-01
 cg2d: Sum(rhs),rhsMax =  -1.64950275660658E-11  3.12206846036558E-01
 cg2d: Sum(rhs),rhsMax =  -1.65596425460990E-11  3.10510027294680E-01
 cg2d: Sum(rhs),rhsMax =  -1.66227032138977E-11  3.08679344201884E-01
 cg2d: Sum(rhs),rhsMax =  -1.66974212234550E-11  3.06716985834498E-01
 cg2d: Sum(rhs),rhsMax =  -1.67732494560369E-11  3.04625229917065E-01
 cg2d: Sum(rhs),rhsMax =  -1.68284275403607E-11  3.02406441767275E-01
 cg2d: Sum(rhs),rhsMax =  -1.68810521117280E-11  3.00063073376176E-01
 cg2d: Sum(rhs),rhsMax =  -1.69975145070111E-11  2.97597662509854E-01
 cg2d: Sum(rhs),rhsMax =  -1.70767844309694E-11  2.95012831026571E-01
 cg2d: Sum(rhs),rhsMax =  -1.71997971420979E-11  2.92311282645866E-01
 cg2d: Sum(rhs),rhsMax =  -1.72760694638896E-11  2.89495799819278E-01
 cg2d: Sum(rhs),rhsMax =  -1.73963066174565E-11  2.86569239419809E-01
 cg2d: Sum(rhs),rhsMax =  -1.75757186582359E-11  2.83534527052432E-01
 cg2d: Sum(rhs),rhsMax =  -1.77150516478264E-11  2.80394649690963E-01
 cg2d: Sum(rhs),rhsMax =  -1.78794756777734E-11  2.77152646683693E-01
 cg2d: Sum(rhs),rhsMax =  -1.80796488891133E-11  2.73811599141436E-01
 cg2d: Sum(rhs),rhsMax =  -1.82635018219912E-11  2.70374617819881E-01
 cg2d: Sum(rhs),rhsMax =  -1.84849913154039E-11  2.66844829752276E-01
 cg2d: Sum(rhs),rhsMax =  -1.86732851403804E-11  2.63225363902487E-01
 cg2d: Sum(rhs),rhsMax =  -1.89035453956876E-11  2.59519336277119E-01
 cg2d: Sum(rhs),rhsMax =  -1.91340276955998E-11  2.55729835058427E-01
 cg2d: Sum(rhs),rhsMax =  -1.93773885825976E-11  2.51859906654308E-01
 cg2d: Sum(rhs),rhsMax =  -1.96326288559590E-11  2.47912542996111E-01
 cg2d: Sum(rhs),rhsMax =  -1.98837613041292E-11  2.43890670769835E-01
 cg2d: Sum(rhs),rhsMax =  -2.01461070048481E-11  2.39797143224105E-01
 cg2d: Sum(rhs),rhsMax =  -2.04449790430772E-11  2.35634735115285E-01
(PID.TID 0000.0001)      cg2d_init_res =   8.35382678094456E-02
(PID.TID 0000.0001)      cg2d_iters(min,last) =      -1      37
(PID.TID 0000.0001)      cg2d_last_res =   7.99334017829981E-14
(PID.TID 0000.0001) // =======================================================
(PID.TID 0000.0001) // Begin MONITOR dynamic field statistics
(PID.TID 0000.0001) // =======================================================
(PID.TID 0000.0001) %MON time_tsnumber                =                  1920
(PID.TID 0000.0001) %MON time_secondsf                =   2.8800000000000E+04
(PID.TID 0000.0001) %MON dynstat_eta_max              =   3.9797693581582E-02
(PID.TID 0000.0001) %MON dynstat_eta_min              =  -3.8063307183234E-02
(PID.TID 0000.0001) %MON dynstat_eta_mean             =   1.0290021117363E-14
(PID.TID 0000.0001) %MON dynstat_eta_sd               =   2.8394269114595E-02
(PID.TID 0000.0001) %MON dynstat_eta_del2             =   1.6114379142472E-05
(PID.TID 0000.0001) %MON dynstat_uvel_max             =   1.1893428174046E+00
(PID.TID 0000.0001) %MON dynstat_uvel_min             =  -4.2013073572046E-01
(PID.TID 0000.0001) %MON dynstat_uvel_mean            =   3.4464028106157E-01
(PID.TID 0000.0001) %MON dynstat_uvel_sd              =   9.7422016874601E-02
(PID.TID 0000.0001) %MON dynstat_uvel_del2            =   5.4176724420475E-04
(PID.TID 0000.0001) %MON dynstat_vvel_max             =   0.0000000000000E+00
(PID.TID 0000.0001) %MON dynstat_vvel_min             =   0.0000000000000E+00
(PID.TID 0000.0001) %MON dynstat_vvel_mean            =   0.0000000000000E+00
(PID.TID 0000.0001) %MON dynstat_vvel_sd              =   0.0000000000000E+00
(PID.TID 0000.0001) %MON dynstat_vvel_del2            =   0.0000000000000E+00
(PID.TID 0000.0001) %MON dynstat_wvel_max             =   1.4112066327663E-02
(PID.TID 0000.0001) %MON dynstat_wvel_min             =  -2.4612888672544E-02
(PID.TID 0000.0001) %MON dynstat_wvel_mean            =  -2.9825270147180E-20
(PID.TID 0000.0001) %MON dynstat_wvel_sd              =   1.7630340043642E-03
(PID.TID 0000.0001) %MON dynstat_wvel_del2            =   4.1816481352111E-05
(PID.TID 0000.0001) %MON dynstat_theta_max            =   1.5000000000006E+01
(PID.TID 0000.0001) %MON dynstat_theta_min            =   9.9999999999966E+00
(PID.TID 0000.0001) %MON dynstat_theta_mean           =   1.3335043578125E+01
(PID.TID 0000.0001) %MON dynstat_theta_sd             =   2.2925932647497E+00
(PID.TID 0000.0001) %MON dynstat_theta_del2           =   9.2284579911187E-04
(PID.TID 0000.0001) %MON dynstat_salt_max             =   3.5000000000000E+01
(PID.TID 0000.0001) %MON dynstat_salt_min             =   3.5000000000000E+01
(PID.TID 0000.0001) %MON dynstat_salt_mean            =   3.5000000000000E+01
(PID.TID 0000.0001) %MON dynstat_salt_sd              =   2.1316282072803E-14
(PID.TID 0000.0001) %MON dynstat_salt_del2            =   0.0000000000000E+00
(PID.TID 0000.0001) %MON dynstat_sst_max              =   1.5000000000000E+01
(PID.TID 0000.0001) %MON dynstat_sst_min              =   1.4999999999997E+01
(PID.TID 0000.0001) %MON dynstat_sst_mean             =   1.4999999999998E+01
(PID.TID 0000.0001) %MON dynstat_sst_sd               =   1.1997464617134E-12
(PID.TID 0000.0001) %MON dynstat_sst_del2             =   8.9843282316077E-15
(PID.TID 0000.0001) %MON dynstat_sss_max              =   3.5000000000000E+01
(PID.TID 0000.0001) %MON dynstat_sss_min              =   3.5000000000000E+01
(PID.TID 0000.0001) %MON dynstat_sss_mean             =   3.5000000000000E+01
(PID.TID 0000.0001) %MON dynstat_sss_sd               =   7.8159700933611E-14
(PID.TID 0000.0001) %MON dynstat_sss_del2             =   0.0000000000000E+00
(PID.TID 0000.0001) %MON forcing_qnet_max             =   0.0000000000000E+00
(PID.TID 0000.0001) %MON forcing_qnet_min             =   0.0000000000000E+00
(PID.TID 0000.0001) %MON forcing_qnet_mean            =   0.0000000000000E+00
(PID.TID 0000.0001) %MON forcing_qnet_sd              =   0.0000000000000E+00
(PID.TID 0000.0001) %MON forcing_qnet_del2            =   0.0000000000000E+00
(PID.TID 0000.0001) %MON forcing_qsw_max              =   0.0000000000000E+00
(PID.TID 0000.0001) %MON forcing_qsw_min              =   0.0000000000000E+00
(PID.TID 0000.0001) %MON forcing_qsw_mean             =   0.0000000000000E+00
(PID.TID 0000.0001) %MON forcing_qsw_sd               =   0.0000000000000E+00
(PID.TID 0000.0001) %MON forcing_qsw_del2             =   0.0000000000000E+00
(PID.TID 0000.0001) %MON forcing_empmr_max            =   0.0000000000000E+00
(PID.TID 0000.0001) %MON forcing_empmr_min            =   0.0000000000000E+00
(PID.TID 0000.0001) %MON forcing_empmr_mean           =   0.0000000000000E+00
(PID.TID 0000.0001) %MON forcing_empmr_sd             =   0.0000000000000E+00
(PID.TID 0000.0001) %MON forcing_empmr_del2           =   0.0000000000000E+00
(PID.TID 0000.0001) %MON forcing_fu_max               =   0.0000000000000E+00
(PID.TID 0000.0001) %MON forcing_fu_min               =   0.0000000000000E+00
(PID.TID 0000.0001) %MON forcing_fu_mean              =   0.0000000000000E+00
(PID.TID 0000.0001) %MON forcing_fu_sd                =   0.0000000000000E+00
(PID.TID 0000.0001) %MON forcing_fu_del2              =   0.0000000000000E+00
(PID.TID 0000.0001) %MON forcing_fv_max               =   0.0000000000000E+00
(PID.TID 0000.0001) %MON forcing_fv_min               =   0.0000000000000E+00
(PID.TID 0000.0001) %MON forcing_fv_mean              =   0.0000000000000E+00
(PID.TID 0000.0001) %MON forcing_fv_sd                =   0.0000000000000E+00
(PID.TID 0000.0001) %MON forcing_fv_del2              =   0.0000000000000E+00
(PID.TID 0000.0001) %MON advcfl_uvel_max              =   8.5312419312020E-02
(PID.TID 0000.0001) %MON advcfl_vvel_max              =   0.0000000000000E+00
(PID.TID 0000.0001) %MON advcfl_wvel_max              =   2.0513773944965E-01
(PID.TID 0000.0001) %MON advcfl_W_hf_max              =   2.0513773944965E-01
(PID.TID 0000.0001) %MON pe_b_mean                    =   2.0142254397100E-05
(PID.TID 0000.0001) %MON ke_max                       =   5.8574245688748E-01
(PID.TID 0000.0001) %MON ke_mean                      =   6.4192290337349E-02
(PID.TID 0000.0001) %MON ke_vol                       =   9.5889217545975E+10
(PID.TID 0000.0001) %MON vort_r_min                   =   0.0000000000000E+00
(PID.TID 0000.0001) %MON vort_r_max                   =   0.0000000000000E+00
(PID.TID 0000.0001) %MON vort_a_mean                  =   0.0000000000000E+00
(PID.TID 0000.0001) %MON vort_a_sd                    =   0.0000000000000E+00
(PID.TID 0000.0001) %MON vort_p_mean                  =   0.0000000000000E+00
(PID.TID 0000.0001) %MON vort_p_sd                    =   0.0000000000000E+00
(PID.TID 0000.0001) %MON surfExpan_theta_mean         =  -1.6682380396803E-17
(PID.TID 0000.0001) %MON surfExpan_salt_mean          =  -1.6741039210500E-18
(PID.TID 0000.0001) // =======================================================
(PID.TID 0000.0001) // End MONITOR dynamic field statistics
(PID.TID 0000.0001) // =======================================================
(PID.TID 0000.0001) // =======================================================
(PID.TID 0000.0001) // Begin OBCS MONITOR field statistics
(PID.TID 0000.0001) // =======================================================
(PID.TID 0000.0001) %MON obc_E_uVel_max               =   3.3404902334837E-01
(PID.TID 0000.0001) %MON obc_E_uVel_min               =   3.3404902334837E-01
(PID.TID 0000.0001) %MON obc_E_uVel_mean              =   3.3404902334837E-01
(PID.TID 0000.0001) %MON obc_E_uVel_sd                =   8.3300023432813E-09
(PID.TID 0000.0001) %MON obc_E_uVel_Int               =   3.3404902334837E+05
(PID.TID 0000.0001) %MON obc_W_uVel_max               =   3.3404902334837E-01
(PID.TID 0000.0001) %MON obc_W_uVel_min               =   3.3404902334837E-01
(PID.TID 0000.0001) %MON obc_W_uVel_mean              =   3.3404902334837E-01
(PID.TID 0000.0001) %MON obc_W_uVel_sd                =   8.3300023432813E-09
(PID.TID 0000.0001) %MON obc_W_uVel_Int               =   3.3404902334837E+05
(PID.TID 0000.0001) // =======================================================
(PID.TID 0000.0001) // End OBCS MONITOR field statistics
(PID.TID 0000.0001) // =======================================================
 cg2d: Sum(rhs),rhsMax =  -2.07492911741269E-11  2.31406141226424E-01
 cg2d: Sum(rhs),rhsMax =  -2.10714778958732E-11  2.27113978593706E-01
 cg2d: Sum(rhs),rhsMax =  -2.14042117363533E-11  2.22760792841248E-01
 cg2d: Sum(rhs),rhsMax =  -2.17241780120503E-11  2.18349068279280E-01
 cg2d: Sum(rhs),rhsMax =  -2.20915508108988E-11  2.13881241260929E-01
 cg2d: Sum(rhs),rhsMax =  -2.24940066573254E-11  2.09359716239086E-01
 cg2d: Sum(rhs),rhsMax =  -2.29412044916444E-11  2.04786883777278E-01
 cg2d: Sum(rhs),rhsMax =  -2.34450237002193E-11  2.00165139589867E-01
 cg2d: Sum(rhs),rhsMax =  -2.39375186339430E-11  1.95496903546366E-01
 cg2d: Sum(rhs),rhsMax =  -2.44763098677936E-11  1.90784637564344E-01
 cg2d: Sum(rhs),rhsMax =  -2.50898191112015E-11  1.86030861085351E-01
 cg2d: Sum(rhs),rhsMax =  -2.56823451394439E-11  1.81238163259387E-01
 cg2d: Sum(rhs),rhsMax =  -2.63368216124604E-11  1.76409210921675E-01
 cg2d: Sum(rhs),rhsMax =  -2.70304889582462E-11  1.71546751625891E-01
 cg2d: Sum(rhs),rhsMax =  -2.77405876047965E-11  1.66653611316978E-01
 cg2d: Sum(rhs),rhsMax =  -2.85427237400881E-11  1.61732686519677E-01
 cg2d: Sum(rhs),rhsMax =  -2.93935986661609E-11  1.56786931149148E-01
 cg2d: Sum(rhs),rhsMax =  -3.02514679972887E-11  1.51819338426766E-01
 cg2d: Sum(rhs),rhsMax =  -3.12262438129096E-11  1.46832918694024E-01
 cg2d: Sum(rhs),rhsMax =  -3.22259996465846E-11  1.41830674052006E-01
 cg2d: Sum(rhs),rhsMax =  -3.33074678948719E-11  1.36815570974203E-01
 cg2d: Sum(rhs),rhsMax =  -3.44994033341095E-11  1.31790512279064E-01
 cg2d: Sum(rhs),rhsMax =  -3.57730511879595E-11  1.26758309737996E-01
 cg2d: Sum(rhs),rhsMax =  -3.71748187788512E-11  1.21721658546009E-01
 cg2d: Sum(rhs),rhsMax =  -3.87072596197413E-11  1.16683114756868E-01
 cg2d: Sum(rhs),rhsMax =  -4.03271860349719E-11  1.11645076654060E-01
 cg2d: Sum(rhs),rhsMax =  -4.21175316844824E-11  1.06609770756065E-01
 cg2d: Sum(rhs),rhsMax =  -4.40644187804651E-11  1.01579242870812E-01
 cg2d: Sum(rhs),rhsMax =  -4.62333504813728E-11  9.65553543496925E-02
 cg2d: Sum(rhs),rhsMax =  -4.86499729390744E-11  9.15397833494236E-02
 cg2d: Sum(rhs),rhsMax =  -5.13445952421421E-11  8.65340308420578E-02
 cg2d: Sum(rhs),rhsMax =  -5.44122524814838E-11  8.15394308105183E-02
 cg2d: Sum(rhs),rhsMax =  -5.78566083930809E-11  7.65571639326576E-02
 cg2d: Sum(rhs),rhsMax =  -6.18272100183503E-11  7.15882740204448E-02
 cg2d: Sum(rhs),rhsMax =  -6.63716859250485E-11  6.66336862694445E-02
 cg2d: Sum(rhs),rhsMax =  -7.16003922818231E-11  6.16942266690329E-02
 cg2d: Sum(rhs),rhsMax =  -7.77077291402861E-11  5.67706419549905E-02
 cg2d: Sum(rhs),rhsMax =  -8.49667003421928E-11  5.18636194321344E-02
 cg2d: Sum(rhs),rhsMax =  -9.37231403597139E-11  4.69738061642550E-02
 cg2d: Sum(rhs),rhsMax =  -1.04429687119989E-10  4.21018271395437E-02
 cg2d: Sum(rhs),rhsMax =  -1.17904241925260E-10  3.72483021362047E-02
 cg2d: Sum(rhs),rhsMax =  -1.35299327297389E-10  3.24138610796946E-02
 cg2d: Sum(rhs),rhsMax =  -1.58871804600835E-10  2.75991577507528E-02
 cg2d: Sum(rhs),rhsMax =  -1.92193927439632E-10  2.28048816853216E-02
 cg2d: Sum(rhs),rhsMax =  -2.40603093004665E-10  1.82076445064625E-02
 cg2d: Sum(rhs),rhsMax =  -2.52614706930387E-10  1.73384080609999E-02
 cg2d: Sum(rhs),rhsMax =  -2.50386822386872E-10  1.74891557483137E-02
 cg2d: Sum(rhs),rhsMax =  -2.48141562853021E-10  1.76434228797301E-02
 cg2d: Sum(rhs),rhsMax =  -2.45834685941304E-10  1.78011927550082E-02
 cg2d: Sum(rhs),rhsMax =  -2.43540965172429E-10  1.79624095641981E-02
 cg2d: Sum(rhs),rhsMax =  -2.23516816166835E-10  1.95627906889913E-02
 cg2d: Sum(rhs),rhsMax =  -2.03455363667615E-10  2.14852865875510E-02
 cg2d: Sum(rhs),rhsMax =  -1.86808790658688E-10  2.33929323765099E-02
 cg2d: Sum(rhs),rhsMax =  -1.68200453565248E-10  2.59691616161180E-02
 cg2d: Sum(rhs),rhsMax =  -1.45350287361623E-10  3.00463484876741E-02
 cg2d: Sum(rhs),rhsMax =  -1.28009047806188E-10  3.41073159110479E-02
 cg2d: Sum(rhs),rhsMax =  -1.14146248009206E-10  3.82256100471291E-02
 cg2d: Sum(rhs),rhsMax =  -1.03022923525486E-10  4.23086371153229E-02
 cg2d: Sum(rhs),rhsMax =  -9.37655508792545E-11  4.64426750602140E-02
 cg2d: Sum(rhs),rhsMax =  -8.60801430135893E-11  5.05589263727572E-02
 cg2d: Sum(rhs),rhsMax =  -7.94934118530932E-11  5.47194252088265E-02
 cg2d: Sum(rhs),rhsMax =  -7.38129557475986E-11  5.88789695503385E-02
 cg2d: Sum(rhs),rhsMax =  -6.88072931964712E-11  6.30825020055716E-02
 cg2d: Sum(rhs),rhsMax =  -6.45480335847992E-11  6.72417293427611E-02
 cg2d: Sum(rhs),rhsMax =  -6.07597305801733E-11  7.13552711419630E-02
 cg2d: Sum(rhs),rhsMax =  -5.74184033652614E-11  7.54217531963108E-02
 cg2d: Sum(rhs),rhsMax =  -5.44821965320352E-11  7.94398070024508E-02
 cg2d: Sum(rhs),rhsMax =  -5.18213250089161E-11  8.34080693847323E-02
 cg2d: Sum(rhs),rhsMax =  -4.94024821051653E-11  8.73484390846700E-02
 cg2d: Sum(rhs),rhsMax =  -4.71409578040038E-11  9.14437353975622E-02
 cg2d: Sum(rhs),rhsMax =  -4.51123582934088E-11  9.54933736278249E-02
 cg2d: Sum(rhs),rhsMax =  -4.32681668272039E-11  9.94944102900027E-02
 cg2d: Sum(rhs),rhsMax =  -4.15827372535205E-11  1.03443827670403E-01
 cg2d: Sum(rhs),rhsMax =  -4.00062205585527E-11  1.07338547481303E-01
 cg2d: Sum(rhs),rhsMax =  -3.86186638223762E-11  1.11175447904287E-01
 cg2d: Sum(rhs),rhsMax =  -3.73068242964791E-11  1.14951383216947E-01
 cg2d: Sum(rhs),rhsMax =  -3.60901308837924E-11  1.18663205019874E-01
 cg2d: Sum(rhs),rhsMax =  -3.49881235095495E-11  1.22307784010179E-01
 cg2d: Sum(rhs),rhsMax =  -3.39210881605823E-11  1.25882031266712E-01
 cg2d: Sum(rhs),rhsMax =  -3.29497540363377E-11  1.29382918079977E-01
 cg2d: Sum(rhs),rhsMax =  -3.20272697251767E-11  1.32807493529150E-01
 cg2d: Sum(rhs),rhsMax =  -3.11655146134626E-11  1.36152899308488E-01
 cg2d: Sum(rhs),rhsMax =  -3.04056779754092E-11  1.39416381532402E-01
 cg2d: Sum(rhs),rhsMax =  -2.97000202209574E-11  1.42595299495132E-01
 cg2d: Sum(rhs),rhsMax =  -2.89958057564377E-11  1.45687131664730E-01
 cg2d: Sum(rhs),rhsMax =  -2.83604251194447E-11  1.48689479379796E-01
 cg2d: Sum(rhs),rhsMax =  -2.77605716192397E-11  1.51600068817554E-01
 cg2d: Sum(rhs),rhsMax =  -2.71651590111333E-11  1.54416751816429E-01
 cg2d: Sum(rhs),rhsMax =  -2.66606736687436E-11  1.57137505978649E-01
 cg2d: Sum(rhs),rhsMax =  -2.61536348133973E-11  1.59760434418573E-01
 cg2d: Sum(rhs),rhsMax =  -2.56611398796736E-11  1.62283765254204E-01
 cg2d: Sum(rhs),rhsMax =  -2.52808884937394E-11  1.64705850731425E-01
 cg2d: Sum(rhs),rhsMax =  -2.48474574249258E-11  1.67025165704810E-01
 cg2d: Sum(rhs),rhsMax =  -2.44975151275639E-11  1.69240305110906E-01
 cg2d: Sum(rhs),rhsMax =  -2.41657804878059E-11  1.71349980087763E-01
 cg2d: Sum(rhs),rhsMax =  -2.38482567027631E-11  1.73353012513774E-01
 cg2d: Sum(rhs),rhsMax =  -2.35551578242621E-11  1.75248327941306E-01
 cg2d: Sum(rhs),rhsMax =  -2.32782682019206E-11  1.77034947151013E-01
 cg2d: Sum(rhs),rhsMax =  -2.30374608278794E-11  1.78711976804686E-01
 cg2d: Sum(rhs),rhsMax =  -2.28380647726567E-11  1.80278599878510E-01
 cg2d: Sum(rhs),rhsMax =  -2.26008101122943E-11  1.81734066665534E-01
 cg2d: Sum(rhs),rhsMax =  -2.23953078304362E-11  1.83077687124657E-01
 cg2d: Sum(rhs),rhsMax =  -2.21825890989180E-11  1.84308825247872E-01
 cg2d: Sum(rhs),rhsMax =  -2.19987361660401E-11  1.85426895873680E-01
 cg2d: Sum(rhs),rhsMax =  -2.18161044784893E-11  1.86431364088913E-01
 cg2d: Sum(rhs),rhsMax =  -2.16627826787885E-11  1.87321747092091E-01
 cg2d: Sum(rhs),rhsMax =  -2.14577244861403E-11  1.88097618144844E-01
 cg2d: Sum(rhs),rhsMax =  -2.13897788370332E-11  1.88758612073140E-01
 cg2d: Sum(rhs),rhsMax =  -2.12806439137125E-11  1.89304431766549E-01
 cg2d: Sum(rhs),rhsMax =  -2.11912709602302E-11  1.89734855250871E-01
 cg2d: Sum(rhs),rhsMax =  -2.11503037306215E-11  1.90049742803409E-01
 cg2d: Sum(rhs),rhsMax =  -2.10710338066633E-11  1.90249043865381E-01
 cg2d: Sum(rhs),rhsMax =  -2.10532702382693E-11  1.90332803732375E-01
 cg2d: Sum(rhs),rhsMax =  -2.10268469302832E-11  1.90301170018852E-01
 cg2d: Sum(rhs),rhsMax =  -2.10611528217441E-11  1.90205788205242E-01
 cg2d: Sum(rhs),rhsMax =  -2.10222950158823E-11  1.90355740327745E-01
 cg2d: Sum(rhs),rhsMax =  -2.10125250532656E-11  1.90408975352812E-01
 cg2d: Sum(rhs),rhsMax =  -2.10031991798587E-11  1.90365686076525E-01
 cg2d: Sum(rhs),rhsMax =  -2.09535722106580E-11  1.90226078794630E-01
 cg2d: Sum(rhs),rhsMax =  -2.09255945904374E-11  1.89990370326714E-01
 cg2d: Sum(rhs),rhsMax =  -2.09168238285429E-11  1.89658785976984E-01
 cg2d: Sum(rhs),rhsMax =  -2.09434691811339E-11  1.89231558217592E-01
 cg2d: Sum(rhs),rhsMax =  -2.09330330847024E-11  1.88708925978999E-01
 cg2d: Sum(rhs),rhsMax =  -2.09448014487634E-11  1.88091134431517E-01
 cg2d: Sum(rhs),rhsMax =  -2.09471329171151E-11  1.87378435152325E-01
 cg2d: Sum(rhs),rhsMax =  -2.09664507977436E-11  1.86571086593768E-01
 cg2d: Sum(rhs),rhsMax =  -2.10242934173266E-11  1.85669354750178E-01
 cg2d: Sum(rhs),rhsMax =  -2.10937933786681E-11  1.84673514259788E-01
 cg2d: Sum(rhs),rhsMax =  -2.12188044912409E-11  1.83583849641680E-01
 cg2d: Sum(rhs),rhsMax =  -2.13257189685123E-11  1.82400656883537E-01
 cg2d: Sum(rhs),rhsMax =  -2.14684936494791E-11  1.81124245577332E-01
 cg2d: Sum(rhs),rhsMax =  -2.16248130513463E-11  1.79754941770915E-01
 cg2d: Sum(rhs),rhsMax =  -2.17693640891525E-11  1.78293091554758E-01
 cg2d: Sum(rhs),rhsMax =  -2.18896012427194E-11  1.76739065474556E-01
 cg2d: Sum(rhs),rhsMax =  -2.19758655717328E-11  1.75093263815847E-01
 cg2d: Sum(rhs),rhsMax =  -2.21438423153586E-11  1.73356122684327E-01
 cg2d: Sum(rhs),rhsMax =  -2.23492335749143E-11  1.71528120811317E-01
 cg2d: Sum(rhs),rhsMax =  -2.25857110791594E-11  1.69609786525981E-01
 cg2d: Sum(rhs),rhsMax =  -2.27928786955545E-11  1.67601704725369E-01
 cg2d: Sum(rhs),rhsMax =  -2.30310215343366E-11  1.65504523469732E-01
 cg2d: Sum(rhs),rhsMax =  -2.33111308034495E-11  1.63318959672216E-01
 cg2d: Sum(rhs),rhsMax =  -2.36130004438451E-11  1.61045803454663E-01
 cg2d: Sum(rhs),rhsMax =  -2.39356312548011E-11  1.58685920749695E-01
 cg2d: Sum(rhs),rhsMax =  -2.42548203743809E-11  1.56240253797994E-01
 cg2d: Sum(rhs),rhsMax =  -2.46136444559397E-11  1.53709819260725E-01
 cg2d: Sum(rhs),rhsMax =  -2.50170995030885E-11  1.51095703883180E-01
 cg2d: Sum(rhs),rhsMax =  -2.55162557749600E-11  1.48399057688062E-01
 cg2d: Sum(rhs),rhsMax =  -2.60844679189631E-11  1.45621085085820E-01
 cg2d: Sum(rhs),rhsMax =  -2.66839883522607E-11  1.42763034201613E-01
 cg2d: Sum(rhs),rhsMax =  -2.73189249000438E-11  1.39826184749880E-01
 cg2d: Sum(rhs),rhsMax =  -2.80268031005448E-11  1.36811835018000E-01
 cg2d: Sum(rhs),rhsMax =  -2.87114776398312E-11  1.33721288590400E-01
 cg2d: Sum(rhs),rhsMax =  -2.94587687577064E-11  1.30555841469111E-01
 cg2d: Sum(rhs),rhsMax =  -3.02288194475864E-11  1.27316770154570E-01
 cg2d: Sum(rhs),rhsMax =  -3.10707015671596E-11  1.24005321217891E-01
 cg2d: Sum(rhs),rhsMax =  -3.20389270669352E-11  1.20622702854702E-01
 cg2d: Sum(rhs),rhsMax =  -3.29943850019276E-11  1.17170078710886E-01
 cg2d: Sum(rhs),rhsMax =  -3.40832917444800E-11  1.13648564316860E-01
 cg2d: Sum(rhs),rhsMax =  -3.52756712729274E-11  1.10059226285790E-01
 cg2d: Sum(rhs),rhsMax =  -3.65517616174316E-11  1.06403084096869E-01
 cg2d: Sum(rhs),rhsMax =  -3.79254405658003E-11  1.02681114355206E-01
 cg2d: Sum(rhs),rhsMax =  -3.94342336562659E-11  9.88942573188341E-02
 cg2d: Sum(rhs),rhsMax =  -4.11288780810537E-11  9.50434254264734E-02
 cg2d: Sum(rhs),rhsMax =  -4.29586366479384E-11  9.11295132800026E-02
 cg2d: Sum(rhs),rhsMax =  -4.50283144104446E-11  8.71534087765333E-02
 cg2d: Sum(rhs),rhsMax =  -4.73212580232030E-11  8.31160048913726E-02
 cg2d: Sum(rhs),rhsMax =  -4.98824315187107E-11  7.90182116109834E-02
 cg2d: Sum(rhs),rhsMax =  -5.28026511403823E-11  7.48609675445797E-02
 cg2d: Sum(rhs),rhsMax =  -5.60694823903418E-11  7.06452508036729E-02
 cg2d: Sum(rhs),rhsMax =  -5.98380234251294E-11  6.63720888142178E-02
 cg2d: Sum(rhs),rhsMax =  -6.41359187980584E-11  6.20425668086414E-02
 cg2d: Sum(rhs),rhsMax =  -6.90743018338935E-11  5.76578348341037E-02
 cg2d: Sum(rhs),rhsMax =  -7.49438289204818E-11  5.32191131768725E-02
 cg2d: Sum(rhs),rhsMax =  -8.19403433993671E-11  4.87276962171050E-02
 cg2d: Sum(rhs),rhsMax =  -9.04613051133651E-11  4.41849547810669E-02
 cg2d: Sum(rhs),rhsMax =  -1.01070596336683E-10  3.95923371089050E-02
 cg2d: Sum(rhs),rhsMax =  -1.14611098389616E-10  3.49513686741037E-02
 cg2d: Sum(rhs),rhsMax =  -1.32391042573232E-10  3.02636510121854E-02
 cg2d: Sum(rhs),rhsMax =  -1.57018065216619E-10  2.55308598205441E-02
 cg2d: Sum(rhs),rhsMax =  -1.93236537882058E-10  2.07547424476184E-02
 cg2d: Sum(rhs),rhsMax =  -2.27593527357683E-10  1.76292870964866E-02
 cg2d: Sum(rhs),rhsMax =  -2.29030919229878E-10  1.75234685604107E-02
 cg2d: Sum(rhs),rhsMax =  -2.30452379401669E-10  1.74206839357903E-02
 cg2d: Sum(rhs),rhsMax =  -2.18741136315259E-10  1.83592373137537E-02
 cg2d: Sum(rhs),rhsMax =  -2.03364547424201E-10  1.97526948930198E-02
 cg2d: Sum(rhs),rhsMax =  -1.87286852693092E-10  2.14446605911542E-02
 cg2d: Sum(rhs),rhsMax =  -1.70803149401877E-10  2.35212868297447E-02
 cg2d: Sum(rhs),rhsMax =  -1.53669410529744E-10  2.61580538097921E-02
 cg2d: Sum(rhs),rhsMax =  -1.33370758881313E-10  3.01498171281052E-02
 cg2d: Sum(rhs),rhsMax =  -1.17350573702879E-10  3.42760291961497E-02
 cg2d: Sum(rhs),rhsMax =  -1.04513953047558E-10  3.85033548633363E-02
 cg2d: Sum(rhs),rhsMax =  -9.40091338108573E-11  4.28123213253002E-02
 cg2d: Sum(rhs),rhsMax =  -8.51717585348410E-11  4.72568773708021E-02
 cg2d: Sum(rhs),rhsMax =  -7.78317410521367E-11  5.17719351404307E-02
 cg2d: Sum(rhs),rhsMax =  -7.15932868544655E-11  5.63581907371988E-02
 cg2d: Sum(rhs),rhsMax =  -6.61356525100132E-11  6.10631308427202E-02
 cg2d: Sum(rhs),rhsMax =  -6.14216455474548E-11  6.58208957776430E-02
 cg2d: Sum(rhs),rhsMax =  -5.72494274209134E-11  7.06676042669765E-02
 cg2d: Sum(rhs),rhsMax =  -5.35848032612307E-11  7.56131117832750E-02
 cg2d: Sum(rhs),rhsMax =  -5.02717867334468E-11  8.06992964175688E-02
 cg2d: Sum(rhs),rhsMax =  -4.73121541944010E-11  8.58958924886916E-02
 cg2d: Sum(rhs),rhsMax =  -4.46371828388692E-11  9.10873198277018E-02
 cg2d: Sum(rhs),rhsMax =  -4.22795132237752E-11  9.62712519287453E-02
 cg2d: Sum(rhs),rhsMax =  -4.02370359253723E-11  1.01445352006547E-01
 cg2d: Sum(rhs),rhsMax =  -3.83931775260749E-11  1.06607267082506E-01
 cg2d: Sum(rhs),rhsMax =  -3.67160746250761E-11  1.11754621447285E-01
 cg2d: Sum(rhs),rhsMax =  -3.52018414417898E-11  1.16885009740307E-01
 cg2d: Sum(rhs),rhsMax =  -3.38331584970319E-11  1.21995989910245E-01
 cg2d: Sum(rhs),rhsMax =  -3.25381943611092E-11  1.27085076382835E-01
 cg2d: Sum(rhs),rhsMax =  -3.13779002780734E-11  1.32149733738418E-01
 cg2d: Sum(rhs),rhsMax =  -3.03032043902363E-11  1.37187371254413E-01
 cg2d: Sum(rhs),rhsMax =  -2.93163271436470E-11  1.42195338665717E-01
 cg2d: Sum(rhs),rhsMax =  -2.83977286130721E-11  1.47170923487528E-01
 cg2d: Sum(rhs),rhsMax =  -2.75457434639748E-11  1.52111350220928E-01
 cg2d: Sum(rhs),rhsMax =  -2.67422750610535E-11  1.57013781693996E-01
 cg2d: Sum(rhs),rhsMax =  -2.60030885712581E-11  1.61875322709591E-01
 cg2d: Sum(rhs),rhsMax =  -2.52861065419552E-11  1.66693026069027E-01
 cg2d: Sum(rhs),rhsMax =  -2.46377362955741E-11  1.71463900921369E-01
 cg2d: Sum(rhs),rhsMax =  -2.40568676090902E-11  1.76184923257411E-01
 cg2d: Sum(rhs),rhsMax =  -2.34775532348408E-11  1.80853048235651E-01
 cg2d: Sum(rhs),rhsMax =  -2.29287699937686E-11  1.85465223899689E-01
 cg2d: Sum(rhs),rhsMax =  -2.24446017327296E-11  1.90018405743249E-01
 cg2d: Sum(rhs),rhsMax =  -2.19518847544009E-11  1.94509571510232E-01
 cg2d: Sum(rhs),rhsMax =  -2.15669704317634E-11  1.98935735586297E-01
 cg2d: Sum(rhs),rhsMax =  -2.11761719270953E-11  2.03293962354482E-01
 cg2d: Sum(rhs),rhsMax =  -2.08196793138882E-11  2.07581377949804E-01
 cg2d: Sum(rhs),rhsMax =  -2.04900540978770E-11  2.11795179952891E-01
 cg2d: Sum(rhs),rhsMax =  -2.01800798294016E-11  2.15932644703322E-01
 cg2d: Sum(rhs),rhsMax =  -1.98674410256672E-11  2.19991132078300E-01
 cg2d: Sum(rhs),rhsMax =  -1.96093141724418E-11  2.23968087758246E-01
 cg2d: Sum(rhs),rhsMax =  -1.93346449961496E-11  2.27861043169924E-01
 cg2d: Sum(rhs),rhsMax =  -1.91096027890580E-11  2.31667613449324E-01
 cg2d: Sum(rhs),rhsMax =  -1.88493665120859E-11  2.35385493883528E-01
 cg2d: Sum(rhs),rhsMax =  -1.85995663315452E-11  2.39012455369808E-01
 cg2d: Sum(rhs),rhsMax =  -1.83870696446320E-11  2.42546339454027E-01
 cg2d: Sum(rhs),rhsMax =  -1.82067694254329E-11  2.45985053479028E-01
 cg2d: Sum(rhs),rhsMax =  -1.80058190579757E-11  2.49326566304153E-01
 cg2d: Sum(rhs),rhsMax =  -1.78246306603569E-11  2.52568904941160E-01
 cg2d: Sum(rhs),rhsMax =  -1.76394454598494E-11  2.55710152315896E-01
 cg2d: Sum(rhs),rhsMax =  -1.74699144039892E-11  2.58748446210657E-01
 cg2d: Sum(rhs),rhsMax =  -1.73524528079838E-11  2.61681979317494E-01
 cg2d: Sum(rhs),rhsMax =  -1.71868075327097E-11  2.64509000194542E-01
 cg2d: Sum(rhs),rhsMax =  -1.70438108071380E-11  2.67227814821609E-01
 cg2d: Sum(rhs),rhsMax =  -1.68977054570973E-11  2.69836788416215E-01
 cg2d: Sum(rhs),rhsMax =  -1.67721392330122E-11  2.72334347209361E-01
 cg2d: Sum(rhs),rhsMax =  -1.67349467616873E-11  2.74718979887343E-01
 cg2d: Sum(rhs),rhsMax =  -1.66695546255369E-11  2.76989238496341E-01
 cg2d: Sum(rhs),rhsMax =  -1.66260338829716E-11  2.79143738759014E-01
 cg2d: Sum(rhs),rhsMax =  -1.65609748137285E-11  2.81181159875077E-01
 cg2d: Sum(rhs),rhsMax =  -1.65069069524293E-11  2.83100244003493E-01
 cg2d: Sum(rhs),rhsMax =  -1.64702695926167E-11  2.84899795724774E-01
 cg2d: Sum(rhs),rhsMax =  -1.64410707270690E-11  2.86578681860310E-01
 cg2d: Sum(rhs),rhsMax =  -1.64004365643677E-11  2.88135832088138E-01
 cg2d: Sum(rhs),rhsMax =  -1.63511426620744E-11  2.89570240631430E-01
 cg2d: Sum(rhs),rhsMax =  -1.63550284426606E-11  2.90880969426984E-01
 cg2d: Sum(rhs),rhsMax =  -1.63291602461868E-11  2.92067152986827E-01
 cg2d: Sum(rhs),rhsMax =  -1.63332680713779E-11  2.93128004942815E-01
 cg2d: Sum(rhs),rhsMax =  -1.62581059726108E-11  2.94062826149261E-01
 cg2d: Sum(rhs),rhsMax =  -1.62563296157714E-11  2.94871014121325E-01
 cg2d: Sum(rhs),rhsMax =  -1.63007385367564E-11  2.95552073316878E-01
 cg2d: Sum(rhs),rhsMax =  -1.61795021824673E-11  2.96105625688623E-01
 cg2d: Sum(rhs),rhsMax =  -1.60786939318314E-11  2.96531420858696E-01
 cg2d: Sum(rhs),rhsMax =  -1.60235158475075E-11  2.96829345258535E-01
 cg2d: Sum(rhs),rhsMax =  -1.59467994365059E-11  2.96999429576135E-01
 cg2d: Sum(rhs),rhsMax =  -1.59003921140766E-11  2.97041853902358E-01
 cg2d: Sum(rhs),rhsMax =  -1.58526525240177E-11  2.96956950224514E-01
 cg2d: Sum(rhs),rhsMax =  -1.58425494944936E-11  2.96745201998280E-01
 cg2d: Sum(rhs),rhsMax =  -1.58733026722757E-11  2.96407240663597E-01
 cg2d: Sum(rhs),rhsMax =  -1.58844049025220E-11  2.95943839308560E-01
 cg2d: Sum(rhs),rhsMax =  -1.58855151255466E-11  2.95355903830355E-01
 cg2d: Sum(rhs),rhsMax =  -1.59096069651810E-11  2.94644461882536E-01
 cg2d: Sum(rhs),rhsMax =  -1.59267043997602E-11  2.93810650195230E-01
 cg2d: Sum(rhs),rhsMax =  -1.59311452918587E-11  2.92855700906434E-01
 cg2d: Sum(rhs),rhsMax =  -1.59602331351039E-11  2.91780927532366E-01
 cg2d: Sum(rhs),rhsMax =  -1.59903201790712E-11  2.90587711381835E-01
 cg2d: Sum(rhs),rhsMax =  -1.60336188770316E-11  2.89277489120566E-01
 cg2d: Sum(rhs),rhsMax =  -1.60751412181526E-11  2.87851741614240E-01
 cg2d: Sum(rhs),rhsMax =  -1.61206603621622E-11  2.86311984529588E-01
 cg2d: Sum(rhs),rhsMax =  -1.61631819040053E-11  2.84659761156817E-01
 cg2d: Sum(rhs),rhsMax =  -1.62075908249903E-11  2.82896637622480E-01
 cg2d: Sum(rhs),rhsMax =  -1.62585500618206E-11  2.81024200502083E-01
 cg2d: Sum(rhs),rhsMax =  -1.63089541871386E-11  2.79044056881852E-01
 cg2d: Sum(rhs),rhsMax =  -1.63512536843768E-11  2.76957836643955E-01
 cg2d: Sum(rhs),rhsMax =  -1.64235292032799E-11  2.74767196630013E-01
 cg2d: Sum(rhs),rhsMax =  -1.64881441833131E-11  2.72473826299899E-01
 cg2d: Sum(rhs),rhsMax =  -1.66149316527253E-11  2.70079454780954E-01
 cg2d: Sum(rhs),rhsMax =  -1.67256208882804E-11  2.67585858808998E-01
 cg2d: Sum(rhs),rhsMax =  -1.68768332642344E-11  2.64994871056388E-01
 cg2d: Sum(rhs),rhsMax =  -1.70214953243431E-11  2.62308388219348E-01
 cg2d: Sum(rhs),rhsMax =  -1.71498371059897E-11  2.59528378455813E-01
 cg2d: Sum(rhs),rhsMax =  -1.73129288683072E-11  2.56656887681963E-01
 cg2d: Sum(rhs),rhsMax =  -1.74879000169881E-11  2.53696044282683E-01
 cg2d: Sum(rhs),rhsMax =  -1.76343384339361E-11  2.50648061875379E-01
 cg2d: Sum(rhs),rhsMax =  -1.78109749171540E-11  2.47515239835101E-01
 cg2d: Sum(rhs),rhsMax =  -1.79830594859709E-11  2.44299961374225E-01
 cg2d: Sum(rhs),rhsMax =  -1.81935577714398E-11  2.41004689394319E-01
 cg2d: Sum(rhs),rhsMax =  -1.83809634179966E-11  2.37631960091847E-01
 cg2d: Sum(rhs),rhsMax =  -1.85960136178664E-11  2.34184374505694E-01
 cg2d: Sum(rhs),rhsMax =  -1.88183912896989E-11  2.30664588367492E-01
 cg2d: Sum(rhs),rhsMax =  -1.90640836450484E-11  2.27075300727736E-01
 cg2d: Sum(rhs),rhsMax =  -1.92799110010355E-11  2.23419241854493E-01
 cg2d: Sum(rhs),rhsMax =  -1.95377047873535E-11  2.19699160896270E-01
 cg2d: Sum(rhs),rhsMax =  -1.97825089642834E-11  2.15917813756688E-01
 cg2d: Sum(rhs),rhsMax =  -2.00787164672533E-11  2.12077951427785E-01
 cg2d: Sum(rhs),rhsMax =  -2.03405070564600E-11  2.08182309528365E-01
 cg2d: Sum(rhs),rhsMax =  -2.06659134249776E-11  2.04233598846951E-01
 cg2d: Sum(rhs),rhsMax =  -2.09806616524588E-11  2.00234497008776E-01
 cg2d: Sum(rhs),rhsMax =  -2.13258299908148E-11  1.96187641307666E-01
 cg2d: Sum(rhs),rhsMax =  -2.16635598349058E-11  1.92095622663656E-01
 cg2d: Sum(rhs),rhsMax =  -2.20330420575010E-11  1.87960980573210E-01
 cg2d: Sum(rhs),rhsMax =  -2.24467111564763E-11  1.83786198868578E-01
 cg2d: Sum(rhs),rhsMax =  -2.28910224109313E-11  1.79573702000222E-01
 cg2d: Sum(rhs),rhsMax =  -2.33931762849693E-11  1.75325851776452E-01
 cg2d: Sum(rhs),rhsMax =  -2.39196440432465E-11  1.71044944388960E-01
 cg2d: Sum(rhs),rhsMax =  -2.44966269491442E-11  1.66733207606178E-01
 cg2d: Sum(rhs),rhsMax =  -2.50854892414054E-11  1.62392798082043E-01
 cg2d: Sum(rhs),rhsMax =  -2.57018850646773E-11  1.58025798796544E-01
 cg2d: Sum(rhs),rhsMax =  -2.63757904406248E-11  1.53634216692982E-01
 cg2d: Sum(rhs),rhsMax =  -2.70961031390016E-11  1.49219980727612E-01
 cg2d: Sum(rhs),rhsMax =  -2.78552736432403E-11  1.44784940463358E-01
 cg2d: Sum(rhs),rhsMax =  -2.86728418785742E-11  1.40330865428069E-01
 cg2d: Sum(rhs),rhsMax =  -2.95526936255897E-11  1.35859445409935E-01
 cg2d: Sum(rhs),rhsMax =  -3.05144798318224E-11  1.31372291914415E-01
 cg2d: Sum(rhs),rhsMax =  -3.15144577101023E-11  1.26870941041452E-01
 cg2d: Sum(rhs),rhsMax =  -3.25518501043121E-11  1.22356857897955E-01
 cg2d: Sum(rhs),rhsMax =  -3.37649908033200E-11  1.17831442576141E-01
 cg2d: Sum(rhs),rhsMax =  -3.49812401267968E-11  1.13296037732468E-01
 cg2d: Sum(rhs),rhsMax =  -3.63546970305606E-11  1.08751937608424E-01
 cg2d: Sum(rhs),rhsMax =  -3.78425069058608E-11  1.04200398282626E-01
 cg2d: Sum(rhs),rhsMax =  -3.94666521685849E-11  9.96426489008480E-02
 cg2d: Sum(rhs),rhsMax =  -4.12759826318165E-11  9.50799033541287E-02
 cg2d: Sum(rhs),rhsMax =  -4.32239799508238E-11  9.05133720563692E-02
 cg2d: Sum(rhs),rhsMax =  -4.54232207403038E-11  8.59442733024892E-02
 cg2d: Sum(rhs),rhsMax =  -4.78268535886173E-11  8.13738436776284E-02
 cg2d: Sum(rhs),rhsMax =  -5.05573360953804E-11  7.68033470157867E-02
 cg2d: Sum(rhs),rhsMax =  -5.35971267368041E-11  7.22340815147437E-02
 cg2d: Sum(rhs),rhsMax =  -5.71503955271169E-11  6.76673845242658E-02
 cg2d: Sum(rhs),rhsMax =  -6.11937167604992E-11  6.31046348956180E-02
 cg2d: Sum(rhs),rhsMax =  -6.58638699135849E-11  5.85472528148028E-02
 cg2d: Sum(rhs),rhsMax =  -7.13469283653012E-11  5.39966970775169E-02
 cg2d: Sum(rhs),rhsMax =  -7.78087594355270E-11  4.94544599843889E-02
 cg2d: Sum(rhs),rhsMax =  -8.55948645295257E-11  4.49220601426101E-02
 cg2d: Sum(rhs),rhsMax =  -9.50977074865023E-11  4.04010335653718E-02
 cg2d: Sum(rhs),rhsMax =  -1.06861186566221E-10  3.58929235409068E-02
 cg2d: Sum(rhs),rhsMax =  -1.22011400982558E-10  3.13992697951674E-02
 cg2d: Sum(rhs),rhsMax =  -1.42237666089784E-10  2.69215974969494E-02
 cg2d: Sum(rhs),rhsMax =  -1.70491842865772E-10  2.24614066599060E-02
 cg2d: Sum(rhs),rhsMax =  -1.89266435857149E-10  2.02260729870148E-02
 cg2d: Sum(rhs),rhsMax =  -1.87045601229840E-10  2.04567331792538E-02
 cg2d: Sum(rhs),rhsMax =  -1.84881616960286E-10  2.06876566328061E-02
 cg2d: Sum(rhs),rhsMax =  -1.82790116376452E-10  2.09187637364309E-02
 cg2d: Sum(rhs),rhsMax =  -1.80681747341538E-10  2.11499940466118E-02
 cg2d: Sum(rhs),rhsMax =  -1.65730651424667E-10  2.30505739638966E-02
 cg2d: Sum(rhs),rhsMax =  -1.49558365691860E-10  2.55400290306482E-02
 cg2d: Sum(rhs),rhsMax =  -1.35034983195226E-10  2.82700934440572E-02
 cg2d: Sum(rhs),rhsMax =  -1.22768906152260E-10  3.10612792557937E-02
 cg2d: Sum(rhs),rhsMax =  -1.12208242697420E-10  3.39481447164195E-02
 cg2d: Sum(rhs),rhsMax =  -1.03382191696255E-10  3.68163796428312E-02
 cg2d: Sum(rhs),rhsMax =  -9.58670920425675E-11  3.96648116152714E-02
 cg2d: Sum(rhs),rhsMax =  -8.85960194096924E-11  4.28680626417482E-02
 cg2d: Sum(rhs),rhsMax =  -8.08794142770353E-11  4.69139918225730E-02
 cg2d: Sum(rhs),rhsMax =  -7.43920480772431E-11  5.09287629276390E-02
 cg2d: Sum(rhs),rhsMax =  -6.89174273205140E-11  5.49100080782065E-02
 cg2d: Sum(rhs),rhsMax =  -6.42416120300027E-11  5.88554023632297E-02
 cg2d: Sum(rhs),rhsMax =  -6.01372285302659E-11  6.27626729016417E-02
 cg2d: Sum(rhs),rhsMax =  -5.65342217484499E-11  6.66296066290290E-02
 cg2d: Sum(rhs),rhsMax =  -5.33476596231708E-11  7.04540565708610E-02
 cg2d: Sum(rhs),rhsMax =  -5.05701036601636E-11  7.42339462902397E-02
 cg2d: Sum(rhs),rhsMax =  -4.80484541043324E-11  7.79672723372996E-02
 cg2d: Sum(rhs),rhsMax =  -4.57672788556351E-11  8.16521044992049E-02
 cg2d: Sum(rhs),rhsMax =  -4.37703207012419E-11  8.52865837085310E-02
 cg2d: Sum(rhs),rhsMax =  -4.19011492169830E-11  8.88689175481501E-02
 cg2d: Sum(rhs),rhsMax =  -4.02595734527722E-11  9.23973733797043E-02
 cg2d: Sum(rhs),rhsMax =  -3.87418985781096E-11  9.58702692565247E-02
 cg2d: Sum(rhs),rhsMax =  -3.73356900951194E-11  9.92859629285210E-02
 cg2d: Sum(rhs),rhsMax =  -3.60627083750842E-11  1.02642839428542E-01
 cg2d: Sum(rhs),rhsMax =  -3.48677753336801E-11  1.05939297928605E-01
 cg2d: Sum(rhs),rhsMax =  -3.37804229033623E-11  1.09173738708306E-01
 cg2d: Sum(rhs),rhsMax =  -3.27702309732558E-11  1.12344551184640E-01
 cg2d: Sum(rhs),rhsMax =  -3.18375326102682E-11  1.15450103965775E-01
 cg2d: Sum(rhs),rhsMax =  -3.09708925172458E-11  1.18488737796973E-01
 cg2d: Sum(rhs),rhsMax =  -3.02258218454199E-11  1.21458762069848E-01
 cg2d: Sum(rhs),rhsMax =  -2.94665403188787E-11  1.24358455282832E-01
 cg2d: Sum(rhs),rhsMax =  -2.87662116349452E-11  1.27186069514167E-01
 cg2d: Sum(rhs),rhsMax =  -2.80776513150727E-11  1.29939838656407E-01
 cg2d: Sum(rhs),rhsMax =  -2.74060774074769E-11  1.32617989898033E-01
 cg2d: Sum(rhs),rhsMax =  -2.68381983303811E-11  1.35218757726988E-01
 cg2d: Sum(rhs),rhsMax =  -2.62354582503121E-11  1.37740399568226E-01
 cg2d: Sum(rhs),rhsMax =  -2.57542875914396E-11  1.40181212062017E-01
 cg2d: Sum(rhs),rhsMax =  -2.52629028807405E-11  1.42539546963435E-01
 cg2d: Sum(rhs),rhsMax =  -2.47807330211458E-11  1.44813825709244E-01
 cg2d: Sum(rhs),rhsMax =  -2.43863818027990E-11  1.47002551846644E-01
 cg2d: Sum(rhs),rhsMax =  -2.39740449714532E-11  1.49104320720607E-01
 cg2d: Sum(rhs),rhsMax =  -2.35798047754088E-11  1.51117826027835E-01
 cg2d: Sum(rhs),rhsMax =  -2.32108776643258E-11  1.53041863055171E-01
 cg2d: Sum(rhs),rhsMax =  -2.29215535441085E-11  1.54875328618204E-01
 cg2d: Sum(rhs),rhsMax =  -2.26132446101701E-11  1.56617217885612E-01
 cg2d: Sum(rhs),rhsMax =  -2.23275842259341E-11  1.58266618439346E-01
 cg2d: Sum(rhs),rhsMax =  -2.20697904396161E-11  1.59822702067051E-01
 cg2d: Sum(rhs),rhsMax =  -2.18227658166370E-11  1.61284714911108E-01
 cg2d: Sum(rhs),rhsMax =  -2.16826556709293E-11  1.62651966695442E-01
 cg2d: Sum(rhs),rhsMax =  -2.14647188911954E-11  1.63923819836690E-01
 cg2d: Sum(rhs),rhsMax =  -2.12695416834663E-11  1.65099679246003E-01
 cg2d: Sum(rhs),rhsMax =  -2.11142214823212E-11  1.66178983583343E-01
 cg2d: Sum(rhs),rhsMax =  -2.09272599249744E-11  1.67161198630614E-01
 cg2d: Sum(rhs),rhsMax =  -2.07575068245092E-11  1.68045813285136E-01
 cg2d: Sum(rhs),rhsMax =  -2.06312744666093E-11  1.68832338464705E-01
 cg2d: Sum(rhs),rhsMax =  -2.05071515324562E-11  1.69520308966225E-01
 cg2d: Sum(rhs),rhsMax =  -2.03783656615997E-11  1.70109288090768E-01
 cg2d: Sum(rhs),rhsMax =  -2.02884375966050E-11  1.70598874813488E-01
 cg2d: Sum(rhs),rhsMax =  -2.02038386021286E-11  1.70988712736614E-01
 cg2d: Sum(rhs),rhsMax =  -2.00951477680178E-11  1.71278500285441E-01
 cg2d: Sum(rhs),rhsMax =  -2.00520711146623E-11  1.71468001575033E-01
 cg2d: Sum(rhs),rhsMax =  -1.99660288302539E-11  1.71679893062981E-01
 cg2d: Sum(rhs),rhsMax =  -1.98853156163636E-11  1.72125909654944E-01
 cg2d: Sum(rhs),rhsMax =  -1.97991623096527E-11  1.72480694034496E-01
 cg2d: Sum(rhs),rhsMax =  -1.97653005074017E-11  1.72743925890986E-01
 cg2d: Sum(rhs),rhsMax =  -1.97200034079970E-11  1.72915328824151E-01
 cg2d: Sum(rhs),rhsMax =  -1.97352134634343E-11  1.72994664416134E-01
 cg2d: Sum(rhs),rhsMax =  -1.96918037431715E-11  1.72981726039780E-01
 cg2d: Sum(rhs),rhsMax =  -1.96883620517951E-11  1.72876332857661E-01
 cg2d: Sum(rhs),rhsMax =  -1.96639371452534E-11  1.72678324543715E-01
 cg2d: Sum(rhs),rhsMax =  -1.96802574237154E-11  1.72387557213372E-01
 cg2d: Sum(rhs),rhsMax =  -1.96702654164937E-11  1.72003900775102E-01
 cg2d: Sum(rhs),rhsMax =  -1.96686000819568E-11  1.71527237947313E-01
 cg2d: Sum(rhs),rhsMax =  -1.97261096346324E-11  1.70957465073882E-01
 cg2d: Sum(rhs),rhsMax =  -1.97684091318706E-11  1.70294494751560E-01
 cg2d: Sum(rhs),rhsMax =  -1.98507876802978E-11  1.69538260162754E-01
 cg2d: Sum(rhs),rhsMax =  -1.98507876802978E-11  1.68688720897678E-01
 cg2d: Sum(rhs),rhsMax =  -1.99817939972036E-11  1.67745870015850E-01
 cg2d: Sum(rhs),rhsMax =  -2.00791605564632E-11  1.66709741846237E-01
 cg2d: Sum(rhs),rhsMax =  -2.01960670409562E-11  1.65580420303858E-01
 cg2d: Sum(rhs),rhsMax =  -2.03169703283379E-11  1.64358047264445E-01
 cg2d: Sum(rhs),rhsMax =  -2.04530836711569E-11  1.63042830634386E-01
 cg2d: Sum(rhs),rhsMax =  -2.05941930175868E-11  1.61635051740266E-01
 cg2d: Sum(rhs),rhsMax =  -2.07440731259112E-11  1.60135071759602E-01
 cg2d: Sum(rhs),rhsMax =  -2.09229300551783E-11  1.58543336989492E-01
 cg2d: Sum(rhs),rhsMax =  -2.10934603117607E-11  1.56860382769640E-01
 cg2d: Sum(rhs),rhsMax =  -2.13744577592934E-11  1.55086835997732E-01
 cg2d: Sum(rhs),rhsMax =  -2.16610063219491E-11  1.53223416003894E-01
 cg2d: Sum(rhs),rhsMax =  -2.19668727652333E-11  1.51270933767459E-01
 cg2d: Sum(rhs),rhsMax =  -2.23076002114908E-11  1.49230289624230E-01
 cg2d: Sum(rhs),rhsMax =  -2.26599849995068E-11  1.47102469428819E-01
 cg2d: Sum(rhs),rhsMax =  -2.30573338200202E-11  1.44888539250923E-01
 cg2d: Sum(rhs),rhsMax =  -2.35147457061657E-11  1.42589638671128E-01
 cg2d: Sum(rhs),rhsMax =  -2.39578357152936E-11  1.40206972836047E-01
 cg2d: Sum(rhs),rhsMax =  -2.43897124718728E-11  1.37741803414706E-01
 cg2d: Sum(rhs),rhsMax =  -2.48824294502015E-11  1.35195438637501E-01
 cg2d: Sum(rhs),rhsMax =  -2.53996823573743E-11  1.32569222548436E-01
 cg2d: Sum(rhs),rhsMax =  -2.59676724567726E-11  1.29864524156089E-01
 cg2d: Sum(rhs),rhsMax =  -2.65741872951253E-11  1.27082726496861E-01
 cg2d: Sum(rhs),rhsMax =  -2.72213362961793E-11  1.24225215998055E-01
 cg2d: Sum(rhs),rhsMax =  -2.78922440699603E-11  1.21293372542942E-01
 cg2d: Sum(rhs),rhsMax =  -2.86370926971813E-11  1.18288560635367E-01
 cg2d: Sum(rhs),rhsMax =  -2.94498869735094E-11  1.15212122010996E-01
 cg2d: Sum(rhs),rhsMax =  -3.03116420852234E-11  1.12065370000329E-01
 cg2d: Sum(rhs),rhsMax =  -3.12707637561971E-11  1.08849585753588E-01
 cg2d: Sum(rhs),rhsMax =  -3.22636362071194E-11  1.05566016462427E-01
 cg2d: Sum(rhs),rhsMax =  -3.34207106433837E-11  1.02215875534432E-01
 cg2d: Sum(rhs),rhsMax =  -3.45975470494864E-11  9.88003446953997E-02
 cg2d: Sum(rhs),rhsMax =  -3.59358098833695E-11  9.53205778169414E-02
 cg2d: Sum(rhs),rhsMax =  -3.73935327147024E-11  9.17777060384704E-02
 cg2d: Sum(rhs),rhsMax =  -3.89860366212247E-11  8.81728438768708E-02
 cg2d: Sum(rhs),rhsMax =  -4.07022193726903E-11  8.45070960360797E-02
 cg2d: Sum(rhs),rhsMax =  -4.26446655765744E-11  8.07815645201444E-02
 cg2d: Sum(rhs),rhsMax =  -4.48023840249334E-11  7.69973558448912E-02
 cg2d: Sum(rhs),rhsMax =  -4.71780392530263E-11  7.31555881726639E-02
 cg2d: Sum(rhs),rhsMax =  -4.98803220949640E-11  6.92573982236251E-02
 cg2d: Sum(rhs),rhsMax =  -5.29538635163362E-11  6.53039478993410E-02
 cg2d: Sum(rhs),rhsMax =  -5.64963631433102E-11  6.12964306287211E-02
 cg2d: Sum(rhs),rhsMax =  -6.05645533724442E-11  5.72360774938320E-02
 cg2d: Sum(rhs),rhsMax =  -6.53094245350871E-11  5.31241632022244E-02
 cg2d: Sum(rhs),rhsMax =  -7.09293734857397E-11  4.89620119486521E-02
 cg2d: Sum(rhs),rhsMax =  -7.77486963698948E-11  4.47510031280149E-02
 cg2d: Sum(rhs),rhsMax =  -8.60308491112960E-11  4.04925767903854E-02
 cg2d: Sum(rhs),rhsMax =  -9.63629176453651E-11  3.61882386694568E-02
 cg2d: Sum(rhs),rhsMax =  -1.09612763310452E-10  3.18395644764547E-02
 cg2d: Sum(rhs),rhsMax =  -1.27222121726334E-10  2.74482030840261E-02
 cg2d: Sum(rhs),rhsMax =  -1.51777812540388E-10  2.30158783620751E-02
 cg2d: Sum(rhs),rhsMax =  -1.69920966186510E-10  2.05673577824780E-02
(PID.TID 0000.0001)      cg2d_init_res =   1.16003385564563E+00
(PID.TID 0000.0001)      cg2d_iters(min,last) =      -1      40
(PID.TID 0000.0001)      cg2d_last_res =   6.90359804697409E-14
(PID.TID 0000.0001) // =======================================================
(PID.TID 0000.0001) // Begin MONITOR dynamic field statistics
(PID.TID 0000.0001) // =======================================================
(PID.TID 0000.0001) %MON time_tsnumber                =                  2400
(PID.TID 0000.0001) %MON time_secondsf                =   3.6000000000000E+04
(PID.TID 0000.0001) %MON dynstat_eta_max              =   5.4885659780525E-03
(PID.TID 0000.0001) %MON dynstat_eta_min              =  -1.3747544715794E-02
(PID.TID 0000.0001) %MON dynstat_eta_mean             =   7.4915821340068E-15
(PID.TID 0000.0001) %MON dynstat_eta_sd               =   5.1910473691197E-03
(PID.TID 0000.0001) %MON dynstat_eta_del2             =   2.3416436257502E-05
(PID.TID 0000.0001) %MON dynstat_uvel_max             =   1.1934717333861E+00
(PID.TID 0000.0001) %MON dynstat_uvel_min             =  -8.4804326312298E-01
(PID.TID 0000.0001) %MON dynstat_uvel_mean            =   3.3532587726933E-01
(PID.TID 0000.0001) %MON dynstat_uvel_sd              =   1.1055258068651E-01
(PID.TID 0000.0001) %MON dynstat_uvel_del2            =   6.2131828177172E-04
(PID.TID 0000.0001) %MON dynstat_vvel_max             =   0.0000000000000E+00
(PID.TID 0000.0001) %MON dynstat_vvel_min             =   0.0000000000000E+00
(PID.TID 0000.0001) %MON dynstat_vvel_mean            =   0.0000000000000E+00
(PID.TID 0000.0001) %MON dynstat_vvel_sd              =   0.0000000000000E+00
(PID.TID 0000.0001) %MON dynstat_vvel_del2            =   0.0000000000000E+00
(PID.TID 0000.0001) %MON dynstat_wvel_max             =   2.8035963956889E-02
(PID.TID 0000.0001) %MON dynstat_wvel_min             =  -2.4004785543408E-02
(PID.TID 0000.0001) %MON dynstat_wvel_mean            =   7.0864959453252E-20
(PID.TID 0000.0001) %MON dynstat_wvel_sd              =   1.8503896420004E-03
(PID.TID 0000.0001) %MON dynstat_wvel_del2            =   4.8195626606445E-05
(PID.TID 0000.0001) %MON dynstat_theta_max            =   1.5000000000007E+01
(PID.TID 0000.0001) %MON dynstat_theta_min            =   9.9999999999957E+00
(PID.TID 0000.0001) %MON dynstat_theta_mean           =   1.3334321197516E+01
(PID.TID 0000.0001) %MON dynstat_theta_sd             =   2.2832853103547E+00
(PID.TID 0000.0001) %MON dynstat_theta_del2           =   9.9869070479455E-04
(PID.TID 0000.0001) %MON dynstat_salt_max             =   3.5000000000000E+01
(PID.TID 0000.0001) %MON dynstat_salt_min             =   3.5000000000000E+01
(PID.TID 0000.0001) %MON dynstat_salt_mean            =   3.5000000000000E+01
(PID.TID 0000.0001) %MON dynstat_salt_sd              =   2.1316282072803E-14
(PID.TID 0000.0001) %MON dynstat_salt_del2            =   0.0000000000000E+00
(PID.TID 0000.0001) %MON dynstat_sst_max              =   1.5000000000000E+01
(PID.TID 0000.0001) %MON dynstat_sst_min              =   1.4999999999996E+01
(PID.TID 0000.0001) %MON dynstat_sst_mean             =   1.4999999999997E+01
(PID.TID 0000.0001) %MON dynstat_sst_sd               =   1.5714112653566E-12
(PID.TID 0000.0001) %MON dynstat_sst_del2             =   9.3297294049617E-15
(PID.TID 0000.0001) %MON dynstat_sss_max              =   3.5000000000000E+01
(PID.TID 0000.0001) %MON dynstat_sss_min              =   3.5000000000000E+01
(PID.TID 0000.0001) %MON dynstat_sss_mean             =   3.5000000000000E+01
(PID.TID 0000.0001) %MON dynstat_sss_sd               =   7.8159700933611E-14
(PID.TID 0000.0001) %MON dynstat_sss_del2             =   0.0000000000000E+00
(PID.TID 0000.0001) %MON forcing_qnet_max             =   0.0000000000000E+00
(PID.TID 0000.0001) %MON forcing_qnet_min             =   0.0000000000000E+00
(PID.TID 0000.0001) %MON forcing_qnet_mean            =   0.0000000000000E+00
(PID.TID 0000.0001) %MON forcing_qnet_sd              =   0.0000000000000E+00
(PID.TID 0000.0001) %MON forcing_qnet_del2            =   0.0000000000000E+00
(PID.TID 0000.0001) %MON forcing_qsw_max              =   0.0000000000000E+00
(PID.TID 0000.0001) %MON forcing_qsw_min              =   0.0000000000000E+00
(PID.TID 0000.0001) %MON forcing_qsw_mean             =   0.0000000000000E+00
(PID.TID 0000.0001) %MON forcing_qsw_sd               =   0.0000000000000E+00
(PID.TID 0000.0001) %MON forcing_qsw_del2             =   0.0000000000000E+00
(PID.TID 0000.0001) %MON forcing_empmr_max            =   0.0000000000000E+00
(PID.TID 0000.0001) %MON forcing_empmr_min            =   0.0000000000000E+00
(PID.TID 0000.0001) %MON forcing_empmr_mean           =   0.0000000000000E+00
(PID.TID 0000.0001) %MON forcing_empmr_sd             =   0.0000000000000E+00
(PID.TID 0000.0001) %MON forcing_empmr_del2           =   0.0000000000000E+00
(PID.TID 0000.0001) %MON forcing_fu_max               =   0.0000000000000E+00
(PID.TID 0000.0001) %MON forcing_fu_min               =   0.0000000000000E+00
(PID.TID 0000.0001) %MON forcing_fu_mean              =   0.0000000000000E+00
(PID.TID 0000.0001) %MON forcing_fu_sd                =   0.0000000000000E+00
(PID.TID 0000.0001) %MON forcing_fu_del2              =   0.0000000000000E+00
(PID.TID 0000.0001) %MON forcing_fv_max               =   0.0000000000000E+00
(PID.TID 0000.0001) %MON forcing_fv_min               =   0.0000000000000E+00
(PID.TID 0000.0001) %MON forcing_fv_mean              =   0.0000000000000E+00
(PID.TID 0000.0001) %MON forcing_fv_sd                =   0.0000000000000E+00
(PID.TID 0000.0001) %MON forcing_fv_del2              =   0.0000000000000E+00
(PID.TID 0000.0001) %MON advcfl_uvel_max              =   8.9510380003958E-02
(PID.TID 0000.0001) %MON advcfl_vvel_max              =   0.0000000000000E+00
(PID.TID 0000.0001) %MON advcfl_wvel_max              =   2.5941550156032E-01
(PID.TID 0000.0001) %MON advcfl_W_hf_max              =   2.6273440655999E-01
(PID.TID 0000.0001) %MON pe_b_mean                    =   6.7321947726994E-07
(PID.TID 0000.0001) %MON ke_max                       =   5.5122491978350E-01
(PID.TID 0000.0001) %MON ke_mean                      =   6.2370564186099E-02
(PID.TID 0000.0001) %MON ke_vol                       =   9.5889217545975E+10
(PID.TID 0000.0001) %MON vort_r_min                   =   0.0000000000000E+00
(PID.TID 0000.0001) %MON vort_r_max                   =   0.0000000000000E+00
(PID.TID 0000.0001) %MON vort_a_mean                  =   0.0000000000000E+00
(PID.TID 0000.0001) %MON vort_a_sd                    =   0.0000000000000E+00
(PID.TID 0000.0001) %MON vort_p_mean                  =   0.0000000000000E+00
(PID.TID 0000.0001) %MON vort_p_sd                    =   0.0000000000000E+00
(PID.TID 0000.0001) %MON surfExpan_theta_mean         =   2.9032388410601E-17
(PID.TID 0000.0001) %MON surfExpan_salt_mean          =   3.6498817411101E-18
(PID.TID 0000.0001) // =======================================================
(PID.TID 0000.0001) // End MONITOR dynamic field statistics
(PID.TID 0000.0001) // =======================================================
(PID.TID 0000.0001) // =======================================================
(PID.TID 0000.0001) // Begin OBCS MONITOR field statistics
(PID.TID 0000.0001) // =======================================================
(PID.TID 0000.0001) %MON obc_E_uVel_max               =   3.3404902334837E-01
(PID.TID 0000.0001) %MON obc_E_uVel_min               =   3.3404902334837E-01
(PID.TID 0000.0001) %MON obc_E_uVel_mean              =   3.3404902334837E-01
(PID.TID 0000.0001) %MON obc_E_uVel_sd                =   8.3300023432813E-09
(PID.TID 0000.0001) %MON obc_E_uVel_Int               =   3.3404902334837E+05
(PID.TID 0000.0001) %MON obc_W_uVel_max               =   3.3404902334837E-01
(PID.TID 0000.0001) %MON obc_W_uVel_min               =   3.3404902334837E-01
(PID.TID 0000.0001) %MON obc_W_uVel_mean              =   3.3404902334837E-01
(PID.TID 0000.0001) %MON obc_W_uVel_sd                =   8.3300023432813E-09
(PID.TID 0000.0001) %MON obc_W_uVel_Int               =   3.3404902334837E+05
(PID.TID 0000.0001) // =======================================================
(PID.TID 0000.0001) // End OBCS MONITOR field statistics
(PID.TID 0000.0001) // =======================================================
 cg2d: Sum(rhs),rhsMax =  -1.71219038946901E-10  2.04229441963184E-02
 cg2d: Sum(rhs),rhsMax =  -1.72464209580170E-10  2.02816996458610E-02
 cg2d: Sum(rhs),rhsMax =  -1.73701358852085E-10  2.01434133263747E-02
 cg2d: Sum(rhs),rhsMax =  -1.74960455845419E-10  2.00077661030575E-02
 cg2d: Sum(rhs),rhsMax =  -1.76180514621649E-10  1.98743969469116E-02
 cg2d: Sum(rhs),rhsMax =  -1.77411307866748E-10  1.97429536776576E-02
 cg2d: Sum(rhs),rhsMax =  -1.60844559893292E-10  2.17832379124420E-02
 cg2d: Sum(rhs),rhsMax =  -1.40964351302841E-10  2.48605275150507E-02
 cg2d: Sum(rhs),rhsMax =  -1.22565624316451E-10  2.86196340194146E-02
 cg2d: Sum(rhs),rhsMax =  -1.07987507824703E-10  3.24866563791777E-02
 cg2d: Sum(rhs),rhsMax =  -9.62132595816456E-11  3.64699898985449E-02
 cg2d: Sum(rhs),rhsMax =  -8.66462457338457E-11  4.05283601541813E-02
 cg2d: Sum(rhs),rhsMax =  -7.85915776901902E-11  4.46589669849157E-02
 cg2d: Sum(rhs),rhsMax =  -7.18253234666122E-11  4.89056983167060E-02
 cg2d: Sum(rhs),rhsMax =  -6.60654864148569E-11  5.32032011311665E-02
 cg2d: Sum(rhs),rhsMax =  -6.11284356466513E-11  5.75821950418448E-02
 cg2d: Sum(rhs),rhsMax =  -5.67855762412250E-11  6.20431995711325E-02
 cg2d: Sum(rhs),rhsMax =  -5.29708499286130E-11  6.65586966643687E-02
 cg2d: Sum(rhs),rhsMax =  -4.95935514877033E-11  7.11730153727951E-02
 cg2d: Sum(rhs),rhsMax =  -4.65611993405446E-11  7.59456902572309E-02
 cg2d: Sum(rhs),rhsMax =  -4.38059588603323E-11  8.07598420953737E-02
 cg2d: Sum(rhs),rhsMax =  -4.14045464580681E-11  8.55667271790680E-02
 cg2d: Sum(rhs),rhsMax =  -3.92305077312471E-11  9.03640087281296E-02
 cg2d: Sum(rhs),rhsMax =  -3.72998298914240E-11  9.51492869798312E-02
 cg2d: Sum(rhs),rhsMax =  -3.56156215630676E-11  9.99200995711565E-02
 cg2d: Sum(rhs),rhsMax =  -3.40907302387450E-11  1.04673924732455E-01
 cg2d: Sum(rhs),rhsMax =  -3.27190496918206E-11  1.09408187120837E-01
 cg2d: Sum(rhs),rhsMax =  -3.14380743660081E-11  1.14120265989162E-01
 cg2d: Sum(rhs),rhsMax =  -3.02856628664472E-11  1.18807505278445E-01
 cg2d: Sum(rhs),rhsMax =  -2.92081914210485E-11  1.23467225169986E-01
 cg2d: Sum(rhs),rhsMax =  -2.82207590629469E-11  1.28096734577812E-01
 cg2d: Sum(rhs),rhsMax =  -2.73513434123629E-11  1.32693344044441E-01
 cg2d: Sum(rhs),rhsMax =  -2.64911426128833E-11  1.37254378534108E-01
 cg2d: Sum(rhs),rhsMax =  -2.56970000833689E-11  1.41777189650839E-01
 cg2d: Sum(rhs),rhsMax =  -2.49686937792148E-11  1.46259166855065E-01
 cg2d: Sum(rhs),rhsMax =  -2.42937892025452E-11  1.50697747303448E-01
 cg2d: Sum(rhs),rhsMax =  -2.36445307777444E-11  1.55090424025583E-01
 cg2d: Sum(rhs),rhsMax =  -2.30538921286438E-11  1.59434752213936E-01
 cg2d: Sum(rhs),rhsMax =  -2.25162111178179E-11  1.63728353481764E-01
 cg2d: Sum(rhs),rhsMax =  -2.19644302745792E-11  1.67968918026502E-01
 cg2d: Sum(rhs),rhsMax =  -2.15106821244149E-11  1.72154204719847E-01
 cg2d: Sum(rhs),rhsMax =  -2.10408357403935E-11  1.76282039226506E-01
 cg2d: Sum(rhs),rhsMax =  -2.06310524220044E-11  1.80350310329418E-01
 cg2d: Sum(rhs),rhsMax =  -2.02596828202672E-11  1.84356964711251E-01
 cg2d: Sum(rhs),rhsMax =  -1.99320560057004E-11  1.88300000499769E-01
 cg2d: Sum(rhs),rhsMax =  -1.96265226293235E-11  1.92177459935775E-01
 cg2d: Sum(rhs),rhsMax =  -1.93040028406699E-11  1.95987421560831E-01
 cg2d: Sum(rhs),rhsMax =  -1.90356619356180E-11  1.99727992344992E-01
 cg2d: Sum(rhs),rhsMax =  -1.87526660866411E-11  2.03397300180410E-01
 cg2d: Sum(rhs),rhsMax =  -1.85140791586491E-11  2.06993487154273E-01
 cg2d: Sum(rhs),rhsMax =  -1.82579507068681E-11  2.10514703986054E-01
 cg2d: Sum(rhs),rhsMax =  -1.80363501911529E-11  2.13959105968248E-01
 cg2d: Sum(rhs),rhsMax =  -1.78307368869923E-11  2.17324850685539E-01
 cg2d: Sum(rhs),rhsMax =  -1.76184622446840E-11  2.20610097723477E-01
 cg2d: Sum(rhs),rhsMax =  -1.74253944607017E-11  2.23813010479417E-01
 cg2d: Sum(rhs),rhsMax =  -1.72573066947734E-11  2.26931760103787E-01
 cg2d: Sum(rhs),rhsMax =  -1.70676806021675E-11  2.29964531501290E-01
 cg2d: Sum(rhs),rhsMax =  -1.69040337283377E-11  2.32909531220218E-01
 cg2d: Sum(rhs),rhsMax =  -1.67766911474132E-11  2.35764996958482E-01
 cg2d: Sum(rhs),rhsMax =  -1.66274771729036E-11  2.38529208315252E-01
 cg2d: Sum(rhs),rhsMax =  -1.65024660603308E-11  2.41200498374821E-01
 cg2d: Sum(rhs),rhsMax =  -1.63857816204427E-11  2.43777265602255E-01
 cg2d: Sum(rhs),rhsMax =  -1.62551083704443E-11  2.46257985517718E-01
 cg2d: Sum(rhs),rhsMax =  -1.61187729830203E-11  2.48641221618401E-01
 cg2d: Sum(rhs),rhsMax =  -1.59949831157746E-11  2.50925635065580E-01
 cg2d: Sum(rhs),rhsMax =  -1.59710022984427E-11  2.53109992647345E-01
 cg2d: Sum(rhs),rhsMax =  -1.59275925781799E-11  2.55193172675695E-01
 cg2d: Sum(rhs),rhsMax =  -1.58765223190471E-11  2.57174168570931E-01
 cg2d: Sum(rhs),rhsMax =  -1.58533186578325E-11  2.59052090014620E-01
 cg2d: Sum(rhs),rhsMax =  -1.58331125987843E-11  2.60826161690075E-01
 cg2d: Sum(rhs),rhsMax =  -1.57474033812832E-11  2.62495719762850E-01
 cg2d: Sum(rhs),rhsMax =  -1.57408530654379E-11  2.64060206385956E-01
 cg2d: Sum(rhs),rhsMax =  -1.57348578611050E-11  2.65519162582835E-01
 cg2d: Sum(rhs),rhsMax =  -1.57054369509524E-11  2.66872219915489E-01
 cg2d: Sum(rhs),rhsMax =  -1.56790136429663E-11  2.68119091455689E-01
 cg2d: Sum(rhs),rhsMax =  -1.56598067846403E-11  2.69259562503547E-01
 cg2d: Sum(rhs),rhsMax =  -1.56461510414374E-11  2.70293481517136E-01
 cg2d: Sum(rhs),rhsMax =  -1.56270552054139E-11  2.71220751500932E-01
 cg2d: Sum(rhs),rhsMax =  -1.56307189413951E-11  2.72041322173056E-01
 cg2d: Sum(rhs),rhsMax =  -1.56379353910552E-11  2.72755183075311E-01
 cg2d: Sum(rhs),rhsMax =  -1.56221702241055E-11  2.73362357698828E-01
 cg2d: Sum(rhs),rhsMax =  -1.55152557468341E-11  2.73862898636794E-01
 cg2d: Sum(rhs),rhsMax =  -1.54009027752977E-11  2.74256883670389E-01
 cg2d: Sum(rhs),rhsMax =  -1.52967638555879E-11  2.74544412698548E-01
 cg2d: Sum(rhs),rhsMax =  -1.52646784101762E-11  2.74725605444572E-01
 cg2d: Sum(rhs),rhsMax =  -1.52456935964551E-11  2.74800599878382E-01
 cg2d: Sum(rhs),rhsMax =  -1.52027279654021E-11  2.74769551340188E-01
 cg2d: Sum(rhs),rhsMax =  -1.52100554373646E-11  2.74632632403559E-01
 cg2d: Sum(rhs),rhsMax =  -1.51928469804830E-11  2.74390033481699E-01
 cg2d: Sum(rhs),rhsMax =  -1.52288182064808E-11  2.74041964637593E-01
 cg2d: Sum(rhs),rhsMax =  -1.51765267020210E-11  2.73588658547431E-01
 cg2d: Sum(rhs),rhsMax =  -1.51835211070761E-11  2.73030374813444E-01
 cg2d: Sum(rhs),rhsMax =  -1.51658685609846E-11  2.72367405837368E-01
 cg2d: Sum(rhs),rhsMax =  -1.51523238400841E-11  2.71600084387482E-01
 cg2d: Sum(rhs),rhsMax =  -1.51619827803984E-11  2.70728792888166E-01
 cg2d: Sum(rhs),rhsMax =  -1.51832990624712E-11  2.69753974225669E-01
 cg2d: Sum(rhs),rhsMax =  -1.52391432806098E-11  2.68676144234685E-01
 cg2d: Sum(rhs),rhsMax =  -1.52221568683331E-11  2.67495904954813E-01
 cg2d: Sum(rhs),rhsMax =  -1.52650114770836E-11  2.66213958278272E-01
 cg2d: Sum(rhs),rhsMax =  -1.52734491720707E-11  2.64831119442464E-01
 cg2d: Sum(rhs),rhsMax =  -1.53316248585611E-11  2.63348329700797E-01
 cg2d: Sum(rhs),rhsMax =  -1.53410617542704E-11  2.61766667367499E-01
 cg2d: Sum(rhs),rhsMax =  -1.53804746716446E-11  2.60087356518616E-01
 cg2d: Sum(rhs),rhsMax =  -1.54337653768266E-11  2.58311772653329E-01
 cg2d: Sum(rhs),rhsMax =  -1.54674051344728E-11  2.56441444957243E-01
 cg2d: Sum(rhs),rhsMax =  -1.55260249101730E-11  2.54478054676605E-01
 cg2d: Sum(rhs),rhsMax =  -1.55768731247008E-11  2.52423429432473E-01
 cg2d: Sum(rhs),rhsMax =  -1.56988866351071E-11  2.50279533714309E-01
 cg2d: Sum(rhs),rhsMax =  -1.57883706108919E-11  2.48048455824465E-01
 cg2d: Sum(rhs),rhsMax =  -1.59180446601681E-11  2.45732391734870E-01
 cg2d: Sum(rhs),rhsMax =  -1.60295110518405E-11  2.43333626429457E-01
 cg2d: Sum(rhs),rhsMax =  -1.61147761801317E-11  2.40854513483374E-01
 cg2d: Sum(rhs),rhsMax =  -1.62715396712088E-11  2.38297453642608E-01
 cg2d: Sum(rhs),rhsMax =  -1.63907776240535E-11  2.35664873201838E-01
 cg2d: Sum(rhs),rhsMax =  -1.65534252971611E-11  2.32959202908511E-01
 cg2d: Sum(rhs),rhsMax =  -1.67128533234973E-11  2.30182857956527E-01
 cg2d: Sum(rhs),rhsMax =  -1.68239866482622E-11  2.27338219784901E-01
 cg2d: Sum(rhs),rhsMax =  -1.70032876667392E-11  2.24427620033579E-01
 cg2d: Sum(rhs),rhsMax =  -1.71833658413334E-11  2.21453326806047E-01
 cg2d: Sum(rhs),rhsMax =  -1.73400183101080E-11  2.18417533461065E-01
 cg2d: Sum(rhs),rhsMax =  -1.75164327487209E-11  2.15322349913796E-01
 cg2d: Sum(rhs),rhsMax =  -1.77152736924313E-11  2.12169796516293E-01
 cg2d: Sum(rhs),rhsMax =  -1.79202208627771E-11  2.08961800489857E-01
 cg2d: Sum(rhs),rhsMax =  -1.81118453568274E-11  2.05700194814871E-01
 cg2d: Sum(rhs),rhsMax =  -1.83603132697385E-11  2.02386719465371E-01
 cg2d: Sum(rhs),rhsMax =  -1.85806925401266E-11  1.99023024742613E-01
 cg2d: Sum(rhs),rhsMax =  -1.88020710112369E-11  1.95610676984575E-01
 cg2d: Sum(rhs),rhsMax =  -1.90778504105538E-11  1.92151166190926E-01
 cg2d: Sum(rhs),rhsMax =  -1.93213223198541E-11  1.88645915403513E-01
 cg2d: Sum(rhs),rhsMax =  -1.96159755105896E-11  1.85096291668692E-01
 cg2d: Sum(rhs),rhsMax =  -1.98792093897282E-11  1.81503618340964E-01
 cg2d: Sum(rhs),rhsMax =  -2.02258210180162E-11  1.77869188402360E-01
 cg2d: Sum(rhs),rhsMax =  -2.05476746728550E-11  1.74194278261295E-01
 cg2d: Sum(rhs),rhsMax =  -2.08963957248898E-11  1.70480161637319E-01
 cg2d: Sum(rhs),rhsMax =  -2.13105089130750E-11  1.66728122947499E-01
 cg2d: Sum(rhs),rhsMax =  -2.17394990897901E-11  1.62939469587173E-01
 cg2d: Sum(rhs),rhsMax =  -2.22217799716873E-11  1.59115542519100E-01
 cg2d: Sum(rhs),rhsMax =  -2.28436158877798E-11  1.55257724649781E-01
 cg2d: Sum(rhs),rhsMax =  -2.33668639992857E-11  1.51367446570559E-01
 cg2d: Sum(rhs),rhsMax =  -2.39193109763391E-11  1.47446189346264E-01
 cg2d: Sum(rhs),rhsMax =  -2.45027331757797E-11  1.43495484229327E-01
 cg2d: Sum(rhs),rhsMax =  -2.51155762853728E-11  1.39516909326384E-01
 cg2d: Sum(rhs),rhsMax =  -2.57930343749990E-11  1.35512083409192E-01
 cg2d: Sum(rhs),rhsMax =  -2.65406585597816E-11  1.31482657339577E-01
 cg2d: Sum(rhs),rhsMax =  -2.73243649928645E-11  1.27430303465868E-01
 cg2d: Sum(rhs),rhsMax =  -2.81467071872044E-11  1.23356703762085E-01
 cg2d: Sum(rhs),rhsMax =  -2.90234503097508E-11  1.19263537403541E-01
 cg2d: Sum(rhs),rhsMax =  -2.99882341181501E-11  1.15152468565378E-01
 cg2d: Sum(rhs),rhsMax =  -3.10070857878486E-11  1.11025135115862E-01
 cg2d: Sum(rhs),rhsMax =  -3.21305204664668E-11  1.06883138849989E-01
 cg2d: Sum(rhs),rhsMax =  -3.33374439165368E-11  1.02728037823726E-01
 cg2d: Sum(rhs),rhsMax =  -3.46518369553905E-11  9.85613411975187E-02
 cg2d: Sum(rhs),rhsMax =  -3.61053409392298E-11  9.43845067337910E-02
 cg2d: Sum(rhs),rhsMax =  -3.76623177089641E-11  9.01989410726449E-02
 cg2d: Sum(rhs),rhsMax =  -3.93891586014661E-11  8.60060026502704E-02
 cg2d: Sum(rhs),rhsMax =  -4.13040712743395E-11  8.18070069695065E-02
 cg2d: Sum(rhs),rhsMax =  -4.34866587184501E-11  7.76032338060374E-02
 cg2d: Sum(rhs),rhsMax =  -4.59254856366442E-11  7.33959358438137E-02
 cg2d: Sum(rhs),rhsMax =  -4.86625184592526E-11  6.91863482141351E-02
 cg2d: Sum(rhs),rhsMax =  -5.17638154562405E-11  6.49756982547798E-02
 cg2d: Sum(rhs),rhsMax =  -5.52867751579811E-11  6.07652150762430E-02
 cg2d: Sum(rhs),rhsMax =  -5.93246562985428E-11  5.65561383966674E-02
 cg2d: Sum(rhs),rhsMax =  -6.40235642279663E-11  5.23497262468527E-02
 cg2d: Sum(rhs),rhsMax =  -6.95462576416617E-11  4.81472612474857E-02
 cg2d: Sum(rhs),rhsMax =  -7.60870255689383E-11  4.39500552704933E-02
 cg2d: Sum(rhs),rhsMax =  -8.40941760671399E-11  3.97594524260732E-02
 cg2d: Sum(rhs),rhsMax =  -9.39560096391290E-11  3.55768304306117E-02
 cg2d: Sum(rhs),rhsMax =  -1.06385178444413E-10  3.14036004719695E-02
 cg2d: Sum(rhs),rhsMax =  -1.22566068405661E-10  2.72412057517204E-02
 cg2d: Sum(rhs),rhsMax =  -1.44529971324303E-10  2.30911189287183E-02
 cg2d: Sum(rhs),rhsMax =  -1.45232277592999E-10  2.29773568322278E-02
 cg2d: Sum(rhs),rhsMax =  -1.43368594773818E-10  2.32534470825302E-02
 cg2d: Sum(rhs),rhsMax =  -1.41482048299224E-10  2.35572005572440E-02
 cg2d: Sum(rhs),rhsMax =  -1.25086774271921E-10  2.66294109436003E-02
 cg2d: Sum(rhs),rhsMax =  -1.12140963182128E-10  2.96856472232213E-02
 cg2d: Sum(rhs),rhsMax =  -1.01638919502989E-10  3.27244080359214E-02
 cg2d: Sum(rhs),rhsMax =  -9.29690768813884E-11  3.57442363456698E-02
 cg2d: Sum(rhs),rhsMax =  -8.56821280592612E-11  3.87437193011284E-02
 cg2d: Sum(rhs),rhsMax =  -7.94659893443850E-11  4.17214815529083E-02
 cg2d: Sum(rhs),rhsMax =  -7.41290362427094E-11  4.46761792200499E-02
 cg2d: Sum(rhs),rhsMax =  -6.94839741299802E-11  4.76064932498790E-02
 cg2d: Sum(rhs),rhsMax =  -6.53841425446444E-11  5.05111226826965E-02
 cg2d: Sum(rhs),rhsMax =  -6.17915718592599E-11  5.33887521533600E-02
 cg2d: Sum(rhs),rhsMax =  -5.85135273567516E-11  5.62380781103001E-02
 cg2d: Sum(rhs),rhsMax =  -5.55954171588269E-11  5.90578095264605E-02
 cg2d: Sum(rhs),rhsMax =  -5.30315791280600E-11  6.18466557308145E-02
 cg2d: Sum(rhs),rhsMax =  -5.06775732489473E-11  6.46033139664025E-02
 cg2d: Sum(rhs),rhsMax =  -4.86428675117168E-11  6.73264618475655E-02
 cg2d: Sum(rhs),rhsMax =  -4.66773286689204E-11  7.00147602714707E-02
 cg2d: Sum(rhs),rhsMax =  -4.49803527757808E-11  7.26668563925503E-02
 cg2d: Sum(rhs),rhsMax =  -4.34130509319175E-11  7.52813818391135E-02
 cg2d: Sum(rhs),rhsMax =  -4.19293488818084E-11  7.78569555429556E-02
 cg2d: Sum(rhs),rhsMax =  -4.03730382458889E-11  8.07117896583682E-02
 cg2d: Sum(rhs),rhsMax =  -3.87803122947616E-11  8.38850578429359E-02
 cg2d: Sum(rhs),rhsMax =  -3.73997499636403E-11  8.70053461127019E-02
 cg2d: Sum(rhs),rhsMax =  -3.60503848995108E-11  9.00712516230608E-02
 cg2d: Sum(rhs),rhsMax =  -3.48688855567048E-11  9.30814008830793E-02
 cg2d: Sum(rhs),rhsMax =  -3.37309069564640E-11  9.60344411979368E-02
 cg2d: Sum(rhs),rhsMax =  -3.26613180945401E-11  9.89290329528815E-02
 cg2d: Sum(rhs),rhsMax =  -3.16858761451044E-11  1.01763843308553E-01
 cg2d: Sum(rhs),rhsMax =  -3.08321146391677E-11  1.04537541840624E-01
 cg2d: Sum(rhs),rhsMax =  -2.99906766088043E-11  1.07248798547913E-01
 cg2d: Sum(rhs),rhsMax =  -2.92492696729596E-11  1.09896284476133E-01
 cg2d: Sum(rhs),rhsMax =  -2.85168555436144E-11  1.12478674986310E-01
 cg2d: Sum(rhs),rhsMax =  -2.78350675841921E-11  1.14994655440802E-01
 cg2d: Sum(rhs),rhsMax =  -2.72217803853891E-11  1.17442928897940E-01
 cg2d: Sum(rhs),rhsMax =  -2.66373589852265E-11  1.19822225435023E-01
 cg2d: Sum(rhs),rhsMax =  -2.61221044794979E-11  1.22131312450410E-01
 cg2d: Sum(rhs),rhsMax =  -2.56052956615349E-11  1.24369005076365E-01
 cg2d: Sum(rhs),rhsMax =  -2.50771625687207E-11  1.26534175831763E-01
 cg2d: Sum(rhs),rhsMax =  -2.46106468537732E-11  1.28625762792809E-01
 cg2d: Sum(rhs),rhsMax =  -2.41361375330484E-11  1.30642775730970E-01
 cg2d: Sum(rhs),rhsMax =  -2.37314612405726E-11  1.32584299793200E-01
 cg2d: Sum(rhs),rhsMax =  -2.32930341681481E-11  1.34449496397096E-01
 cg2d: Sum(rhs),rhsMax =  -2.29954943975486E-11  1.36237601124928E-01
 cg2d: Sum(rhs),rhsMax =  -2.26424434757178E-11  1.37947918557724E-01
 cg2d: Sum(rhs),rhsMax =  -2.23453477943281E-11  1.39579814195815E-01
 cg2d: Sum(rhs),rhsMax =  -2.20260476524459E-11  1.41132703844932E-01
 cg2d: Sum(rhs),rhsMax =  -2.17554863013447E-11  1.42606041065995E-01
 cg2d: Sum(rhs),rhsMax =  -2.14844808610337E-11  1.43999303535618E-01
 cg2d: Sum(rhs),rhsMax =  -2.12568851409856E-11  1.45311979280371E-01
 cg2d: Sum(rhs),rhsMax =  -2.09962047748036E-11  1.46543553814054E-01
 cg2d: Sum(rhs),rhsMax =  -2.07922568051799E-11  1.47693499225107E-01
 cg2d: Sum(rhs),rhsMax =  -2.05955252852164E-11  1.48761266153098E-01
 cg2d: Sum(rhs),rhsMax =  -2.04241068502142E-11  1.49746279389037E-01
 cg2d: Sum(rhs),rhsMax =  -2.02856620390435E-11  1.50647937526956E-01
 cg2d: Sum(rhs),rhsMax =  -2.01286765033615E-11  1.51465616776129E-01
 cg2d: Sum(rhs),rhsMax =  -1.99339433848422E-11  1.52198678779743E-01
 cg2d: Sum(rhs),rhsMax =  -1.97857286110548E-11  1.52846482039944E-01
 cg2d: Sum(rhs),rhsMax =  -1.96470617552791E-11  1.53408396278936E-01
 cg2d: Sum(rhs),rhsMax =  -1.95198301966570E-11  1.53883818830258E-01
 cg2d: Sum(rhs),rhsMax =  -1.94365634698102E-11  1.54272192018340E-01
 cg2d: Sum(rhs),rhsMax =  -1.93272065018846E-11  1.54573020419555E-01
 cg2d: Sum(rhs),rhsMax =  -1.93183247176876E-11  1.54785887182027E-01
 cg2d: Sum(rhs),rhsMax =  -1.92865723391833E-11  1.54910468728212E-01
 cg2d: Sum(rhs),rhsMax =  -1.92462712433894E-11  1.54946547440416E-01
 cg2d: Sum(rhs),rhsMax =  -1.91903160029483E-11  1.55120342546270E-01
 cg2d: Sum(rhs),rhsMax =  -1.91172633279280E-11  1.55431949297123E-01
 cg2d: Sum(rhs),rhsMax =  -1.90351068241057E-11  1.55657443497337E-01
 cg2d: Sum(rhs),rhsMax =  -1.90012450218546E-11  1.55796636100426E-01
 cg2d: Sum(rhs),rhsMax =  -1.90193416571560E-11  1.55849335844540E-01
 cg2d: Sum(rhs),rhsMax =  -1.89427362684569E-11  1.55815340116159E-01
 cg2d: Sum(rhs),rhsMax =  -1.88907778309044E-11  1.55694427773613E-01
 cg2d: Sum(rhs),rhsMax =  -1.88477011775490E-11  1.55486354633621E-01
 cg2d: Sum(rhs),rhsMax =  -1.88450366422899E-11  1.55190851794508E-01
 cg2d: Sum(rhs),rhsMax =  -1.87986293198605E-11  1.54807626932103E-01
 cg2d: Sum(rhs),rhsMax =  -1.87978521637433E-11  1.54336368562425E-01
 cg2d: Sum(rhs),rhsMax =  -1.87756477032508E-11  1.53776753098253E-01
 cg2d: Sum(rhs),rhsMax =  -1.87639903614922E-11  1.53128454370531E-01
 cg2d: Sum(rhs),rhsMax =  -1.87662108075415E-11  1.52391155155483E-01
 cg2d: Sum(rhs),rhsMax =  -1.87420079456047E-11  1.51564560187002E-01
 cg2d: Sum(rhs),rhsMax =  -1.88168369774644E-11  1.50648409945099E-01
 cg2d: Sum(rhs),rhsMax =  -1.89384063986608E-11  1.49642494736662E-01
 cg2d: Sum(rhs),rhsMax =  -1.90469862104692E-11  1.48546668453435E-01
 cg2d: Sum(rhs),rhsMax =  -1.91157090156935E-11  1.47360861495478E-01
 cg2d: Sum(rhs),rhsMax =  -1.93107752011201E-11  1.46085092464688E-01
 cg2d: Sum(rhs),rhsMax =  -1.95424787463594E-11  1.44719478250984E-01
 cg2d: Sum(rhs),rhsMax =  -1.97357685749466E-11  1.43264242360780E-01
 cg2d: Sum(rhs),rhsMax =  -1.99700256331425E-11  1.41719721379705E-01
 cg2d: Sum(rhs),rhsMax =  -2.02338146237935E-11  1.40086369528502E-01
 cg2d: Sum(rhs),rhsMax =  -2.05214734094739E-11  1.38364761402269E-01
 cg2d: Sum(rhs),rhsMax =  -2.08455475103619E-11  1.36555592782093E-01
 cg2d: Sum(rhs),rhsMax =  -2.11591855148185E-11  1.34659679629959E-01
 cg2d: Sum(rhs),rhsMax =  -2.15059081654090E-11  1.32677955426214E-01
 cg2d: Sum(rhs),rhsMax =  -2.19234630449705E-11  1.30611466856124E-01
 cg2d: Sum(rhs),rhsMax =  -2.23291385381685E-11  1.28461367880593E-01
 cg2d: Sum(rhs),rhsMax =  -2.27906582495052E-11  1.26228912213302E-01
 cg2d: Sum(rhs),rhsMax =  -2.33044694653017E-11  1.23915444202286E-01
 cg2d: Sum(rhs),rhsMax =  -2.38334907365356E-11  1.21522388228602E-01
 cg2d: Sum(rhs),rhsMax =  -2.44010367467240E-11  1.19051236633278E-01
 cg2d: Sum(rhs),rhsMax =  -2.49882337044482E-11  1.16503536585097E-01
 cg2d: Sum(rhs),rhsMax =  -2.55717669261912E-11  1.13880876117600E-01
 cg2d: Sum(rhs),rhsMax =  -2.62352362057072E-11  1.11184869653776E-01
 cg2d: Sum(rhs),rhsMax =  -2.69614330861145E-11  1.08417143532206E-01
 cg2d: Sum(rhs),rhsMax =  -2.77446954299876E-11  1.05579322123169E-01
 cg2d: Sum(rhs),rhsMax =  -2.85678147804447E-11  1.02673015144951E-01
 cg2d: Sum(rhs),rhsMax =  -2.94405611001025E-11  9.96998067567628E-02
 cg2d: Sum(rhs),rhsMax =  -3.04477554280425E-11  9.66612469473110E-02
 cg2d: Sum(rhs),rhsMax =  -3.15184545129910E-11  9.35588456077967E-02
 cg2d: Sum(rhs),rhsMax =  -3.27186056026108E-11  9.03940694550575E-02
 cg2d: Sum(rhs),rhsMax =  -3.39853700737081E-11  8.71683418414408E-02
 cg2d: Sum(rhs),rhsMax =  -3.53849172185505E-11  8.38830454916469E-02
 cg2d: Sum(rhs),rhsMax =  -3.69531072408336E-11  8.05395277367566E-02
 cg2d: Sum(rhs),rhsMax =  -3.86662923901326E-11  7.71391076509247E-02
 cg2d: Sum(rhs),rhsMax =  -4.05926403601597E-11  7.36830845079940E-02
 cg2d: Sum(rhs),rhsMax =  -4.27115010026569E-11  7.01727468224750E-02
 cg2d: Sum(rhs),rhsMax =  -4.51636505971464E-11  6.66093813124762E-02
 cg2d: Sum(rhs),rhsMax =  -4.78572736994920E-11  6.29942811952323E-02
 cg2d: Sum(rhs),rhsMax =  -5.08680875199730E-11  5.93287532656044E-02
 cg2d: Sum(rhs),rhsMax =  -5.43181055689956E-11  5.56141233639609E-02
 cg2d: Sum(rhs),rhsMax =  -5.75632874699750E-11  5.24859247952429E-02
 cg2d: Sum(rhs),rhsMax =  -6.06146244308547E-11  4.99163665587486E-02
 cg2d: Sum(rhs),rhsMax =  -6.39688302328523E-11  4.73292765630399E-02
 cg2d: Sum(rhs),rhsMax =  -6.77812250771126E-11  4.47256079955449E-02
 cg2d: Sum(rhs),rhsMax =  -7.20947745946887E-11  4.21063073049941E-02
 cg2d: Sum(rhs),rhsMax =  -7.69476704576277E-11  3.94723140440536E-02
 cg2d: Sum(rhs),rhsMax =  -8.25821633299029E-11  3.68245642559716E-02
 cg2d: Sum(rhs),rhsMax =  -8.91651197321153E-11  3.41639904581855E-02
 cg2d: Sum(rhs),rhsMax =  -9.68507496423854E-11  3.14915310903264E-02
 cg2d: Sum(rhs),rhsMax =  -1.05915165526937E-10  2.88081373185762E-02
 cg2d: Sum(rhs),rhsMax =  -1.16825216167626E-10  2.61147793188850E-02
 cg2d: Sum(rhs),rhsMax =  -1.30434663070389E-10  2.34124510734500E-02
 cg2d: Sum(rhs),rhsMax =  -1.33935862400847E-10  2.28024014145980E-02
 cg2d: Sum(rhs),rhsMax =  -1.35033595416445E-10  2.26210492931378E-02
 cg2d: Sum(rhs),rhsMax =  -1.36198691214062E-10  2.24401514901325E-02
 cg2d: Sum(rhs),rhsMax =  -1.37299577956940E-10  2.22598483038899E-02
 cg2d: Sum(rhs),rhsMax =  -1.38498518209573E-10  2.20802880899607E-02
 cg2d: Sum(rhs),rhsMax =  -1.28514976438510E-10  2.38006048034482E-02
 cg2d: Sum(rhs),rhsMax =  -1.12092557458254E-10  2.72983597813132E-02
 cg2d: Sum(rhs),rhsMax =  -9.91205451050803E-11  3.08814720192620E-02
 cg2d: Sum(rhs),rhsMax =  -8.85581608045527E-11  3.45689113380418E-02
 cg2d: Sum(rhs),rhsMax =  -7.98430210835477E-11  3.83361253502108E-02
 cg2d: Sum(rhs),rhsMax =  -7.27310434101014E-11  4.21596981794183E-02
 cg2d: Sum(rhs),rhsMax =  -6.66008359573311E-11  4.60843606315019E-02
 cg2d: Sum(rhs),rhsMax =  -6.13613604372176E-11  5.00687636762547E-02
 cg2d: Sum(rhs),rhsMax =  -5.68562974478937E-11  5.41078011447744E-02
 cg2d: Sum(rhs),rhsMax =  -5.28768140384273E-11  5.82455305733260E-02
 cg2d: Sum(rhs),rhsMax =  -4.93992624583939E-11  6.24357902932660E-02
 cg2d: Sum(rhs),rhsMax =  -4.62451188454338E-11  6.67193056868332E-02
 cg2d: Sum(rhs),rhsMax =  -4.34219327161145E-11  7.11493792057315E-02
 cg2d: Sum(rhs),rhsMax =  -4.08986178257464E-11  7.55938686696447E-02
 cg2d: Sum(rhs),rhsMax =  -3.86792819995208E-11  8.00300555729898E-02
 cg2d: Sum(rhs),rhsMax =  -3.66769947746093E-11  8.44555494654596E-02
 cg2d: Sum(rhs),rhsMax =  -3.48778783632042E-11  8.88679523126825E-02
 cg2d: Sum(rhs),rhsMax =  -3.33478800129683E-11  9.32648630172542E-02
 cg2d: Sum(rhs),rhsMax =  -3.19244630730964E-11  9.76438816495466E-02
 cg2d: Sum(rhs),rhsMax =  -3.06731307020414E-11  1.02002613454483E-01
 cg2d: Sum(rhs),rhsMax =  -2.94783086829398E-11  1.06338672723614E-01
 cg2d: Sum(rhs),rhsMax =  -2.84284817908542E-11  1.10649686629612E-01
 cg2d: Sum(rhs),rhsMax =  -2.74273936895497E-11  1.14933299114412E-01
 cg2d: Sum(rhs),rhsMax =  -2.65228949913876E-11  1.19187174895670E-01
 cg2d: Sum(rhs),rhsMax =  -2.56915599905483E-11  1.23409003644580E-01
 cg2d: Sum(rhs),rhsMax =  -2.48835396732261E-11  1.27596504315863E-01
 cg2d: Sum(rhs),rhsMax =  -2.41976438886127E-11  1.31747429559736E-01
 cg2d: Sum(rhs),rhsMax =  -2.35129693493263E-11  1.35859570107433E-01
 cg2d: Sum(rhs),rhsMax =  -2.28917995670486E-11  1.39930758974914E-01
 cg2d: Sum(rhs),rhsMax =  -2.22954987805224E-11  1.43958875293236E-01
 cg2d: Sum(rhs),rhsMax =  -2.17645901301466E-11  1.47941847559192E-01
 cg2d: Sum(rhs),rhsMax =  -2.12325712567463E-11  1.51877656094494E-01
 cg2d: Sum(rhs),rhsMax =  -2.07559525122747E-11  1.55764334532026E-01
 cg2d: Sum(rhs),rhsMax =  -2.03327354952876E-11  1.59599970202195E-01
 cg2d: Sum(rhs),rhsMax =  -1.98986382926591E-11  1.63382703352764E-01
 cg2d: Sum(rhs),rhsMax =  -1.94730898073203E-11  1.67110725217378E-01
 cg2d: Sum(rhs),rhsMax =  -1.91652249625918E-11  1.70782275037190E-01
 cg2d: Sum(rhs),rhsMax =  -1.88656867905479E-11  1.74395636228324E-01
 cg2d: Sum(rhs),rhsMax =  -1.85502724292519E-11  1.77949131967088E-01
 cg2d: Sum(rhs),rhsMax =  -1.82797110781507E-11  1.81441120526754E-01
 cg2d: Sum(rhs),rhsMax =  -1.80495618451459E-11  1.84869990737854E-01
 cg2d: Sum(rhs),rhsMax =  -1.77969861070437E-11  1.88234157953337E-01
 cg2d: Sum(rhs),rhsMax =  -1.75658376733168E-11  1.91532060873253E-01
 cg2d: Sum(rhs),rhsMax =  -1.73266956338125E-11  1.94762159525881E-01
 cg2d: Sum(rhs),rhsMax =  -1.71384018088361E-11  1.97922934614212E-01
 cg2d: Sum(rhs),rhsMax =  -1.69285696571819E-11  2.01012888325888E-01
 cg2d: Sum(rhs),rhsMax =  -1.67311720034036E-11  2.04030546584211E-01
 cg2d: Sum(rhs),rhsMax =  -1.65611968583335E-11  2.06974462578782E-01
 cg2d: Sum(rhs),rhsMax =  -1.63843383305107E-11  2.09843221299974E-01
 cg2d: Sum(rhs),rhsMax =  -1.62462265862473E-11  2.12635444703843E-01
 cg2d: Sum(rhs),rhsMax =  -1.60698121476344E-11  2.15349797068316E-01
 cg2d: Sum(rhs),rhsMax =  -1.59471325034133E-11  2.17984990074712E-01
 cg2d: Sum(rhs),rhsMax =  -1.57805990497195E-11  2.20539787158381E-01
 cg2d: Sum(rhs),rhsMax =  -1.56644697213437E-11  2.23013006757972E-01
 cg2d: Sum(rhs),rhsMax =  -1.55561119541403E-11  2.25403524158293E-01
 cg2d: Sum(rhs),rhsMax =  -1.54254387041419E-11  2.27710271762837E-01
 cg2d: Sum(rhs),rhsMax =  -1.51528789515964E-11  2.29932237791141E-01
 cg2d: Sum(rhs),rhsMax =  -1.50592871506205E-11  2.32068463550367E-01
 cg2d: Sum(rhs),rhsMax =  -1.49700252194407E-11  2.34118039582756E-01
 cg2d: Sum(rhs),rhsMax =  -1.49249501646409E-11  2.36080101109649E-01
 cg2d: Sum(rhs),rhsMax =  -1.49033008156607E-11  2.37953823286448E-01
 cg2d: Sum(rhs),rhsMax =  -1.48944190314637E-11  2.39738416828731E-01
 cg2d: Sum(rhs),rhsMax =  -1.48673295896629E-11  2.41433124561338E-01
 cg2d: Sum(rhs),rhsMax =  -1.48520085119230E-11  2.43037219388713E-01
 cg2d: Sum(rhs),rhsMax =  -1.48633327867742E-11  2.44550004082237E-01
 cg2d: Sum(rhs),rhsMax =  -1.48091539031725E-11  2.45970813138519E-01
 cg2d: Sum(rhs),rhsMax =  -1.48341339212266E-11  2.47299016721527E-01
 cg2d: Sum(rhs),rhsMax =  -1.48314693859675E-11  2.48534026617557E-01
 cg2d: Sum(rhs),rhsMax =  -1.47948320261548E-11  2.49675303954473E-01
 cg2d: Sum(rhs),rhsMax =  -1.47843959297234E-11  2.50722368191017E-01
 cg2d: Sum(rhs),rhsMax =  -1.47831746843963E-11  2.51674806753077E-01
 cg2d: Sum(rhs),rhsMax =  -1.47818424167667E-11  2.52532284608309E-01
 cg2d: Sum(rhs),rhsMax =  -1.47655221383047E-11  2.53294553122211E-01
 cg2d: Sum(rhs),rhsMax =  -1.48745460393229E-11  2.53961457529912E-01
 cg2d: Sum(rhs),rhsMax =  -1.48749901285328E-11  2.54532942378616E-01
 cg2d: Sum(rhs),rhsMax =  -1.47944989592474E-11  2.55009054489821E-01
 cg2d: Sum(rhs),rhsMax =  -1.47257761540232E-11  2.55389943173210E-01
 cg2d: Sum(rhs),rhsMax =  -1.46491707653240E-11  2.55675857593949E-01
 cg2d: Sum(rhs),rhsMax =  -1.46050949112464E-11  2.55867141399218E-01
 cg2d: Sum(rhs),rhsMax =  -1.45358169945098E-11  2.55964224886880E-01
 cg2d: Sum(rhs),rhsMax =  -1.44687595238224E-11  2.55967615165755E-01
 cg2d: Sum(rhs),rhsMax =  -1.44003697855055E-11  2.55877884864822E-01
 cg2d: Sum(rhs),rhsMax =  -1.43760559012662E-11  2.55695660043716E-01
 cg2d: Sum(rhs),rhsMax =  -1.43736134106121E-11  2.55421608092158E-01
 cg2d: Sum(rhs),rhsMax =  -1.43758338566613E-11  2.55056426089874E-01
 cg2d: Sum(rhs),rhsMax =  -1.43943745811725E-11  2.54600830198364E-01
 cg2d: Sum(rhs),rhsMax =  -1.43891565329568E-11  2.54055546546718E-01
 cg2d: Sum(rhs),rhsMax =  -1.43829392840189E-11  2.53421303947541E-01
 cg2d: Sum(rhs),rhsMax =  -1.43959288934070E-11  2.52698828642477E-01
 cg2d: Sum(rhs),rhsMax =  -1.43933753804504E-11  2.51888841123809E-01
 cg2d: Sum(rhs),rhsMax =  -1.44090295250976E-11  2.50992055086490E-01
 cg2d: Sum(rhs),rhsMax =  -1.44397827028797E-11  2.50009178259411E-01
 cg2d: Sum(rhs),rhsMax =  -1.44505518662186E-11  2.48940914981232E-01
 cg2d: Sum(rhs),rhsMax =  -1.44495526654964E-11  2.47787970306493E-01
 cg2d: Sum(rhs),rhsMax =  -1.44431133719536E-11  2.46551055407074E-01
 cg2d: Sum(rhs),rhsMax =  -1.44886325159632E-11  2.45230894038828E-01
 cg2d: Sum(rhs),rhsMax =  -1.44887435382657E-11  2.43828229809664E-01
 cg2d: Sum(rhs),rhsMax =  -1.45122802663877E-11  2.42343833997517E-01
 cg2d: Sum(rhs),rhsMax =  -1.45099487980360E-11  2.40778513708659E-01
 cg2d: Sum(rhs),rhsMax =  -1.45586875888171E-11  2.39133120156438E-01
 cg2d: Sum(rhs),rhsMax =  -1.45481404700831E-11  2.37408556691410E-01
 cg2d: Sum(rhs),rhsMax =  -1.46440637394107E-11  2.35605786166128E-01
 cg2d: Sum(rhs),rhsMax =  -1.46800349654086E-11  2.33725837491485E-01
 cg2d: Sum(rhs),rhsMax =  -1.47765133462485E-11  2.31769811024486E-01
 cg2d: Sum(rhs),rhsMax =  -1.48584478054659E-11  2.29738882368185E-01
 cg2d: Sum(rhs),rhsMax =  -1.49584788999846E-11  2.27634304314780E-01
 cg2d: Sum(rhs),rhsMax =  -1.50706114254717E-11  2.25457406725173E-01
 cg2d: Sum(rhs),rhsMax =  -1.51682000293363E-11  2.23209594109453E-01
 cg2d: Sum(rhs),rhsMax =  -1.52836632238973E-11  2.20892340849442E-01
 cg2d: Sum(rhs),rhsMax =  -1.54330992430118E-11  2.18507184081105E-01
 cg2d: Sum(rhs),rhsMax =  -1.55541135526960E-11  2.16055714583226E-01
 cg2d: Sum(rhs),rhsMax =  -1.56923363192618E-11  2.13539566024600E-01
 cg2d: Sum(rhs),rhsMax =  -1.58122404059213E-11  2.10960402899147E-01
 cg2d: Sum(rhs),rhsMax =  -1.59472435257157E-11  2.08319907726930E-01
 cg2d: Sum(rhs),rhsMax =  -1.61034519052805E-11  2.05619768143009E-01
 cg2d: Sum(rhs),rhsMax =  -1.62669877568078E-11  2.02861664518289E-01
 cg2d: Sum(rhs),rhsMax =  -1.64368518795754E-11  2.00047258725574E-01
 cg2d: Sum(rhs),rhsMax =  -1.66089364483923E-11  1.97178184588441E-01
 cg2d: Sum(rhs),rhsMax =  -1.67772462589255E-11  1.94256040371358E-01
 cg2d: Sum(rhs),rhsMax =  -1.69718683551423E-11  1.91282383672578E-01
 cg2d: Sum(rhs),rhsMax =  -1.71770375700930E-11  1.88258728796015E-01
 cg2d: Sum(rhs),rhsMax =  -1.73581149454094E-11  1.85186546773623E-01
 cg2d: Sum(rhs),rhsMax =  -1.75774950150753E-11  1.82067267830526E-01
 cg2d: Sum(rhs),rhsMax =  -1.78205228351658E-11  1.78902285904638E-01
 cg2d: Sum(rhs),rhsMax =  -1.81004100596738E-11  1.75692964861278E-01
 cg2d: Sum(rhs),rhsMax =  -1.83733028791266E-11  1.72440645998134E-01
 cg2d: Sum(rhs),rhsMax =  -1.86186621675688E-11  1.69146656210332E-01
 cg2d: Sum(rhs),rhsMax =  -1.88894455632749E-11  1.65812316407178E-01
 cg2d: Sum(rhs),rhsMax =  -1.92131865972556E-11  1.62438949636280E-01
 cg2d: Sum(rhs),rhsMax =  -1.94941840447882E-11  1.59027888406274E-01
 cg2d: Sum(rhs),rhsMax =  -1.98773220105863E-11  1.55580480775099E-01
 cg2d: Sum(rhs),rhsMax =  -2.03017602729005E-11  1.52098094868768E-01
 cg2d: Sum(rhs),rhsMax =  -2.07293071596837E-11  1.48582121581880E-01
 cg2d: Sum(rhs),rhsMax =  -2.11827222429406E-11  1.45033975356399E-01
 cg2d: Sum(rhs),rhsMax =  -2.16689999277264E-11  1.41455093022509E-01
 cg2d: Sum(rhs),rhsMax =  -2.22004636896145E-11  1.37846930787675E-01
 cg2d: Sum(rhs),rhsMax =  -2.27382557227429E-11  1.34210959551671E-01
 cg2d: Sum(rhs),rhsMax =  -2.33080221789805E-11  1.30548658813622E-01
 cg2d: Sum(rhs),rhsMax =  -2.39537278901025E-11  1.26861509536993E-01
 cg2d: Sum(rhs),rhsMax =  -2.45987674674097E-11  1.23150986279313E-01
 cg2d: Sum(rhs),rhsMax =  -2.52871057426773E-11  1.19418549062866E-01
 cg2d: Sum(rhs),rhsMax =  -2.60788057815375E-11  1.15665635537651E-01
 cg2d: Sum(rhs),rhsMax =  -2.69018141096922E-11  1.11893653790290E-01
 cg2d: Sum(rhs),rhsMax =  -2.77501355228083E-11  1.08103976200964E-01
 cg2d: Sum(rhs),rhsMax =  -2.86920487369002E-11  1.04297934744639E-01
 cg2d: Sum(rhs),rhsMax =  -2.96882518568964E-11  1.00476818081461E-01
 cg2d: Sum(rhs),rhsMax =  -3.07928127440960E-11  9.66418707088126E-02
 cg2d: Sum(rhs),rhsMax =  -3.19766435552538E-11  9.27942942562159E-02
 cg2d: Sum(rhs),rhsMax =  -3.32526228774555E-11  8.89352510549269E-02
 cg2d: Sum(rhs),rhsMax =  -3.46893624936229E-11  8.50658699213718E-02
 cg2d: Sum(rhs),rhsMax =  -3.62415653043513E-11  8.11872539787007E-02
 cg2d: Sum(rhs),rhsMax =  -3.79359876845342E-11  7.73004902293128E-02
 cg2d: Sum(rhs),rhsMax =  -3.98494570674757E-11  7.34066604895044E-02
 cg2d: Sum(rhs),rhsMax =  -4.19790868733116E-11  6.95068532094544E-02
 cg2d: Sum(rhs),rhsMax =  -4.43240999459249E-11  6.56021756487618E-02
 cg2d: Sum(rhs),rhsMax =  -4.69928540525189E-11  6.16937657802307E-02
 cg2d: Sum(rhs),rhsMax =  -5.00993135865713E-11  5.77828033680384E-02
 cg2d: Sum(rhs),rhsMax =  -5.36822808427928E-11  5.38705196353582E-02
 cg2d: Sum(rhs),rhsMax =  -5.78018188868157E-11  4.99582050156495E-02
 cg2d: Sum(rhs),rhsMax =  -6.26269591741391E-11  4.60472145593329E-02
 cg2d: Sum(rhs),rhsMax =  -6.83810230661663E-11  4.21389707040500E-02
 cg2d: Sum(rhs),rhsMax =  -7.52732320918881E-11  3.82349632539588E-02
 cg2d: Sum(rhs),rhsMax =  -8.38066560593376E-11  3.43367465486293E-02
 cg2d: Sum(rhs),rhsMax =  -9.44771066935246E-11  3.04459339472767E-02
 cg2d: Sum(rhs),rhsMax =  -1.08230643197649E-10  2.65641899200443E-02
 cg2d: Sum(rhs),rhsMax =  -1.11184228490657E-10  2.58466385035258E-02
 cg2d: Sum(rhs),rhsMax =  -1.00186359208720E-10  2.86695935180405E-02
 cg2d: Sum(rhs),rhsMax =  -9.11960507110621E-11  3.14781171867795E-02
 cg2d: Sum(rhs),rhsMax =  -8.36579139296134E-11  3.42707600293555E-02
 cg2d: Sum(rhs),rhsMax =  -7.73059949388255E-11  3.70461203173377E-02
 cg2d: Sum(rhs),rhsMax =  -7.19405646165683E-11  3.98028430002155E-02
 cg2d: Sum(rhs),rhsMax =  -6.72049083050297E-11  4.25396131147164E-02
 cg2d: Sum(rhs),rhsMax =  -6.30716590066527E-11  4.52551403696028E-02
(PID.TID 0000.0001)      cg2d_init_res =   4.51422921644097E-01
(PID.TID 0000.0001)      cg2d_iters(min,last) =      -1      39
(PID.TID 0000.0001)      cg2d_last_res =   6.97048312058232E-14
(PID.TID 0000.0001) // =======================================================
(PID.TID 0000.0001) // Begin MONITOR dynamic field statistics
(PID.TID 0000.0001) // =======================================================
(PID.TID 0000.0001) %MON time_tsnumber                =                  2880
(PID.TID 0000.0001) %MON time_secondsf                =   4.3200000000000E+04
(PID.TID 0000.0001) %MON dynstat_eta_max              =   1.0622178456507E-02
(PID.TID 0000.0001) %MON dynstat_eta_min              =  -1.5997443105112E-02
(PID.TID 0000.0001) %MON dynstat_eta_mean             =   6.1106218012806E-15
(PID.TID 0000.0001) %MON dynstat_eta_sd               =   7.1733409406070E-03
(PID.TID 0000.0001) %MON dynstat_eta_del2             =   2.0377970798351E-05
(PID.TID 0000.0001) %MON dynstat_uvel_max             =   1.1962328341889E+00
(PID.TID 0000.0001) %MON dynstat_uvel_min             =  -3.9383264095356E-01
(PID.TID 0000.0001) %MON dynstat_uvel_mean            =   3.4488771712206E-01
(PID.TID 0000.0001) %MON dynstat_uvel_sd              =   1.2097155766940E-01
(PID.TID 0000.0001) %MON dynstat_uvel_del2            =   6.9221663511210E-04
(PID.TID 0000.0001) %MON dynstat_vvel_max             =   0.0000000000000E+00
(PID.TID 0000.0001) %MON dynstat_vvel_min             =   0.0000000000000E+00
(PID.TID 0000.0001) %MON dynstat_vvel_mean            =   0.0000000000000E+00
(PID.TID 0000.0001) %MON dynstat_vvel_sd              =   0.0000000000000E+00
(PID.TID 0000.0001) %MON dynstat_vvel_del2            =   0.0000000000000E+00
(PID.TID 0000.0001) %MON dynstat_wvel_max             =   1.9676870757224E-02
(PID.TID 0000.0001) %MON dynstat_wvel_min             =  -2.5957441932569E-02
(PID.TID 0000.0001) %MON dynstat_wvel_mean            =   2.9238997954078E-20
(PID.TID 0000.0001) %MON dynstat_wvel_sd              =   2.0777391691618E-03
(PID.TID 0000.0001) %MON dynstat_wvel_del2            =   5.3180022875262E-05
(PID.TID 0000.0001) %MON dynstat_theta_max            =   1.5000000000008E+01
(PID.TID 0000.0001) %MON dynstat_theta_min            =   9.9999999999949E+00
(PID.TID 0000.0001) %MON dynstat_theta_mean           =   1.3322858918255E+01
(PID.TID 0000.0001) %MON dynstat_theta_sd             =   2.2749119581775E+00
(PID.TID 0000.0001) %MON dynstat_theta_del2           =   1.0175226901094E-03
(PID.TID 0000.0001) %MON dynstat_salt_max             =   3.5000000000000E+01
(PID.TID 0000.0001) %MON dynstat_salt_min             =   3.5000000000000E+01
(PID.TID 0000.0001) %MON dynstat_salt_mean            =   3.5000000000000E+01
(PID.TID 0000.0001) %MON dynstat_salt_sd              =   2.1316282072803E-14
(PID.TID 0000.0001) %MON dynstat_salt_del2            =   0.0000000000000E+00
(PID.TID 0000.0001) %MON dynstat_sst_max              =   1.5000000000000E+01
(PID.TID 0000.0001) %MON dynstat_sst_min              =   1.4999999999993E+01
(PID.TID 0000.0001) %MON dynstat_sst_mean             =   1.4999999999997E+01
(PID.TID 0000.0001) %MON dynstat_sst_sd               =   1.9675614629284E-12
(PID.TID 0000.0001) %MON dynstat_sst_del2             =   1.3377266432392E-14
(PID.TID 0000.0001) %MON dynstat_sss_max              =   3.5000000000000E+01
(PID.TID 0000.0001) %MON dynstat_sss_min              =   3.5000000000000E+01
(PID.TID 0000.0001) %MON dynstat_sss_mean             =   3.5000000000000E+01
(PID.TID 0000.0001) %MON dynstat_sss_sd               =   7.8159700933611E-14
(PID.TID 0000.0001) %MON dynstat_sss_del2             =   0.0000000000000E+00
(PID.TID 0000.0001) %MON forcing_qnet_max             =   0.0000000000000E+00
(PID.TID 0000.0001) %MON forcing_qnet_min             =   0.0000000000000E+00
(PID.TID 0000.0001) %MON forcing_qnet_mean            =   0.0000000000000E+00
(PID.TID 0000.0001) %MON forcing_qnet_sd              =   0.0000000000000E+00
(PID.TID 0000.0001) %MON forcing_qnet_del2            =   0.0000000000000E+00
(PID.TID 0000.0001) %MON forcing_qsw_max              =   0.0000000000000E+00
(PID.TID 0000.0001) %MON forcing_qsw_min              =   0.0000000000000E+00
(PID.TID 0000.0001) %MON forcing_qsw_mean             =   0.0000000000000E+00
(PID.TID 0000.0001) %MON forcing_qsw_sd               =   0.0000000000000E+00
(PID.TID 0000.0001) %MON forcing_qsw_del2             =   0.0000000000000E+00
(PID.TID 0000.0001) %MON forcing_empmr_max            =   0.0000000000000E+00
(PID.TID 0000.0001) %MON forcing_empmr_min            =   0.0000000000000E+00
(PID.TID 0000.0001) %MON forcing_empmr_mean           =   0.0000000000000E+00
(PID.TID 0000.0001) %MON forcing_empmr_sd             =   0.0000000000000E+00
(PID.TID 0000.0001) %MON forcing_empmr_del2           =   0.0000000000000E+00
(PID.TID 0000.0001) %MON forcing_fu_max               =   0.0000000000000E+00
(PID.TID 0000.0001) %MON forcing_fu_min               =   0.0000000000000E+00
(PID.TID 0000.0001) %MON forcing_fu_mean              =   0.0000000000000E+00
(PID.TID 0000.0001) %MON forcing_fu_sd                =   0.0000000000000E+00
(PID.TID 0000.0001) %MON forcing_fu_del2              =   0.0000000000000E+00
(PID.TID 0000.0001) %MON forcing_fv_max               =   0.0000000000000E+00
(PID.TID 0000.0001) %MON forcing_fv_min               =   0.0000000000000E+00
(PID.TID 0000.0001) %MON forcing_fv_mean              =   0.0000000000000E+00
(PID.TID 0000.0001) %MON forcing_fv_sd                =   0.0000000000000E+00
(PID.TID 0000.0001) %MON forcing_fv_del2              =   0.0000000000000E+00
(PID.TID 0000.0001) %MON advcfl_uvel_max              =   8.9717462564168E-02
(PID.TID 0000.0001) %MON advcfl_vvel_max              =   0.0000000000000E+00
(PID.TID 0000.0001) %MON advcfl_wvel_max              =   3.0815126188976E-01
(PID.TID 0000.0001) %MON advcfl_W_hf_max              =   3.1209368151230E-01
(PID.TID 0000.0001) %MON pe_b_mean                    =   1.2855519580166E-06
(PID.TID 0000.0001) %MON ke_max                       =   5.5171449604865E-01
(PID.TID 0000.0001) %MON ke_mean                      =   6.6879217790553E-02
(PID.TID 0000.0001) %MON ke_vol                       =   9.5889217545975E+10
(PID.TID 0000.0001) %MON vort_r_min                   =   0.0000000000000E+00
(PID.TID 0000.0001) %MON vort_r_max                   =   0.0000000000000E+00
(PID.TID 0000.0001) %MON vort_a_mean                  =   0.0000000000000E+00
(PID.TID 0000.0001) %MON vort_a_sd                    =   0.0000000000000E+00
(PID.TID 0000.0001) %MON vort_p_mean                  =   0.0000000000000E+00
(PID.TID 0000.0001) %MON vort_p_sd                    =   0.0000000000000E+00
(PID.TID 0000.0001) %MON surfExpan_theta_mean         =  -3.1335910713536E-17
(PID.TID 0000.0001) %MON surfExpan_salt_mean          =   1.4748501729384E-18
(PID.TID 0000.0001) // =======================================================
(PID.TID 0000.0001) // End MONITOR dynamic field statistics
(PID.TID 0000.0001) // =======================================================
(PID.TID 0000.0001) // =======================================================
(PID.TID 0000.0001) // Begin OBCS MONITOR field statistics
(PID.TID 0000.0001) // =======================================================
(PID.TID 0000.0001) %MON obc_E_uVel_max               =   3.3404902334837E-01
(PID.TID 0000.0001) %MON obc_E_uVel_min               =   3.3404902334837E-01
(PID.TID 0000.0001) %MON obc_E_uVel_mean              =   3.3404902334837E-01
(PID.TID 0000.0001) %MON obc_E_uVel_sd                =   8.3300023432813E-09
(PID.TID 0000.0001) %MON obc_E_uVel_Int               =   3.3404902334837E+05
(PID.TID 0000.0001) %MON obc_W_uVel_max               =   3.3404902334837E-01
(PID.TID 0000.0001) %MON obc_W_uVel_min               =   3.3404902334837E-01
(PID.TID 0000.0001) %MON obc_W_uVel_mean              =   3.3404902334837E-01
(PID.TID 0000.0001) %MON obc_W_uVel_sd                =   8.3300023432813E-09
(PID.TID 0000.0001) %MON obc_W_uVel_Int               =   3.3404902334837E+05
(PID.TID 0000.0001) // =======================================================
(PID.TID 0000.0001) // End OBCS MONITOR field statistics
(PID.TID 0000.0001) // =======================================================
(PID.TID 0000.0001) %CHECKPOINT      2880 0000002880
 cg2d: Sum(rhs),rhsMax =  -5.94445603852023E-11  4.79481593564264E-02
 cg2d: Sum(rhs),rhsMax =  -5.62379032231775E-11  5.06174324914624E-02
 cg2d: Sum(rhs),rhsMax =  -5.34121635809015E-11  5.32617468213287E-02
 cg2d: Sum(rhs),rhsMax =  -5.08335595839071E-11  5.58799060056402E-02
 cg2d: Sum(rhs),rhsMax =  -4.85236295588720E-11  5.84707211357811E-02
 cg2d: Sum(rhs),rhsMax =  -4.63714622256362E-11  6.10330022004837E-02
 cg2d: Sum(rhs),rhsMax =  -4.43862724353039E-11  6.35655538090880E-02
 cg2d: Sum(rhs),rhsMax =  -4.25917079382998E-11  6.60671908273094E-02
 cg2d: Sum(rhs),rhsMax =  -4.09641209841993E-11  6.85367517755084E-02
 cg2d: Sum(rhs),rhsMax =  -3.94670962577948E-11  7.09730667060863E-02
 cg2d: Sum(rhs),rhsMax =  -3.80524500798174E-11  7.33749481003700E-02
 cg2d: Sum(rhs),rhsMax =  -3.67655905719744E-11  7.57412115125168E-02
 cg2d: Sum(rhs),rhsMax =  -3.55997453738155E-11  7.80706998290929E-02
 cg2d: Sum(rhs),rhsMax =  -3.45210526830897E-11  8.03623239237644E-02
 cg2d: Sum(rhs),rhsMax =  -3.34823280212504E-11  8.26150383702031E-02
 cg2d: Sum(rhs),rhsMax =  -3.25433013870224E-11  8.48277959331449E-02
 cg2d: Sum(rhs),rhsMax =  -3.16607851047479E-11  8.69995579925337E-02
 cg2d: Sum(rhs),rhsMax =  -3.08202352528042E-11  8.91293161007881E-02
 cg2d: Sum(rhs),rhsMax =  -3.00345304182770E-11  9.12161008679621E-02
 cg2d: Sum(rhs),rhsMax =  -2.93185475896962E-11  9.32589802519888E-02
 cg2d: Sum(rhs),rhsMax =  -2.86222157086513E-11  9.52570571506860E-02
 cg2d: Sum(rhs),rhsMax =  -2.79887224508002E-11  9.72095210748860E-02
 cg2d: Sum(rhs),rhsMax =  -2.73662204008929E-11  9.91155692228392E-02
 cg2d: Sum(rhs),rhsMax =  -2.67856847813164E-11  1.01022488274546E-01
 cg2d: Sum(rhs),rhsMax =  -2.62508903503544E-11  1.02892875560902E-01
 cg2d: Sum(rhs),rhsMax =  -2.57374122014653E-11  1.04712958942563E-01
 cg2d: Sum(rhs),rhsMax =  -2.52251552979033E-11  1.06653726881744E-01
 cg2d: Sum(rhs),rhsMax =  -2.46694886740784E-11  1.08803919261944E-01
 cg2d: Sum(rhs),rhsMax =  -2.41683340007626E-11  1.10890207986221E-01
 cg2d: Sum(rhs),rhsMax =  -2.36884956095196E-11  1.12911645822162E-01
 cg2d: Sum(rhs),rhsMax =  -2.32350805262627E-11  1.14867340567886E-01
 cg2d: Sum(rhs),rhsMax =  -2.27922125617397E-11  1.16756455111410E-01
 cg2d: Sum(rhs),rhsMax =  -2.23699947454747E-11  1.18578206413285E-01
 cg2d: Sum(rhs),rhsMax =  -2.19737561479860E-11  1.20331863726122E-01
 cg2d: Sum(rhs),rhsMax =  -2.15845119555524E-11  1.22016746399203E-01
 cg2d: Sum(rhs),rhsMax =  -2.12998507720386E-11  1.23632221592900E-01
 cg2d: Sum(rhs),rhsMax =  -2.09301465048384E-11  1.25177702144743E-01
 cg2d: Sum(rhs),rhsMax =  -2.06327177565413E-11  1.26652644707840E-01
 cg2d: Sum(rhs),rhsMax =  -2.03599359593909E-11  1.28056548169172E-01
 cg2d: Sum(rhs),rhsMax =  -2.01128003141093E-11  1.29388952277626E-01
 cg2d: Sum(rhs),rhsMax =  -1.97819538527710E-11  1.30649436397328E-01
 cg2d: Sum(rhs),rhsMax =  -1.95761185040055E-11  1.31837618335115E-01
 cg2d: Sum(rhs),rhsMax =  -1.93449700702786E-11  1.32953153232690E-01
 cg2d: Sum(rhs),rhsMax =  -1.91566762453022E-11  1.33995732526166E-01
 cg2d: Sum(rhs),rhsMax =  -1.89661619742765E-11  1.34965082937946E-01
 cg2d: Sum(rhs),rhsMax =  -1.87689863651030E-11  1.35860965389579E-01
 cg2d: Sum(rhs),rhsMax =  -1.85906845473482E-11  1.36683173646959E-01
 cg2d: Sum(rhs),rhsMax =  -1.84586790297203E-11  1.37431532489773E-01
 cg2d: Sum(rhs),rhsMax =  -1.83487669502824E-11  1.38105895186974E-01
 cg2d: Sum(rhs),rhsMax =  -1.82294179751352E-11  1.38706140226983E-01
 cg2d: Sum(rhs),rhsMax =  -1.81110682007102E-11  1.39232167410446E-01
 cg2d: Sum(rhs),rhsMax =  -1.80053749687659E-11  1.39683893574415E-01
 cg2d: Sum(rhs),rhsMax =  -1.78921322202541E-11  1.40061248373304E-01
 cg2d: Sum(rhs),rhsMax =  -1.78181913668141E-11  1.40364170650550E-01
 cg2d: Sum(rhs),rhsMax =  -1.77411418889051E-11  1.40592605974739E-01
 cg2d: Sum(rhs),rhsMax =  -1.76720860167734E-11  1.40746505871435E-01
 cg2d: Sum(rhs),rhsMax =  -1.76371139914977E-11  1.40825829153854E-01
 cg2d: Sum(rhs),rhsMax =  -1.76187953115914E-11  1.40830545554851E-01
 cg2d: Sum(rhs),rhsMax =  -1.76069159252279E-11  1.40760641601059E-01
 cg2d: Sum(rhs),rhsMax =  -1.76086922820673E-11  1.40616128439726E-01
 cg2d: Sum(rhs),rhsMax =  -1.76344494562386E-11  1.40397051105622E-01
 cg2d: Sum(rhs),rhsMax =  -1.76348935454484E-11  1.40103498575641E-01
 cg2d: Sum(rhs),rhsMax =  -1.76617609426444E-11  1.39735613906096E-01
 cg2d: Sum(rhs),rhsMax =  -1.76338943447263E-11  1.39407887134796E-01
 cg2d: Sum(rhs),rhsMax =  -1.76081371705550E-11  1.39220262977107E-01
 cg2d: Sum(rhs),rhsMax =  -1.75680581193660E-11  1.38948783608957E-01
 cg2d: Sum(rhs),rhsMax =  -1.75612857589158E-11  1.38593423731539E-01
 cg2d: Sum(rhs),rhsMax =  -1.75308656480411E-11  1.38154181850843E-01
 cg2d: Sum(rhs),rhsMax =  -1.75438552574292E-11  1.37631077483953E-01
 cg2d: Sum(rhs),rhsMax =  -1.76028081000368E-11  1.37024148813567E-01
 cg2d: Sum(rhs),rhsMax =  -1.77046155513949E-11  1.36333450998833E-01
 cg2d: Sum(rhs),rhsMax =  -1.77944325940871E-11  1.35559055431499E-01
 cg2d: Sum(rhs),rhsMax =  -1.78850267928965E-11  1.34701049893586E-01
 cg2d: Sum(rhs),rhsMax =  -1.80766512869468E-11  1.33759539845043E-01
 cg2d: Sum(rhs),rhsMax =  -1.83070225645565E-11  1.32734651061899E-01
 cg2d: Sum(rhs),rhsMax =  -1.86111126510013E-11  1.31626533532460E-01
 cg2d: Sum(rhs),rhsMax =  -1.87787563277197E-11  1.30435366546886E-01
 cg2d: Sum(rhs),rhsMax =  -1.90264470845136E-11  1.29161364775135E-01
 cg2d: Sum(rhs),rhsMax =  -1.92357241246555E-11  1.27804785133914E-01
 cg2d: Sum(rhs),rhsMax =  -1.94778637663262E-11  1.26365934173199E-01
 cg2d: Sum(rhs),rhsMax =  -1.97500904519643E-11  1.24845175656513E-01
 cg2d: Sum(rhs),rhsMax =  -2.00505168024279E-11  1.23242938023279E-01
 cg2d: Sum(rhs),rhsMax =  -2.03808081522538E-11  1.21559721443042E-01
 cg2d: Sum(rhs),rhsMax =  -2.06883399300750E-11  1.19796103966035E-01
 cg2d: Sum(rhs),rhsMax =  -2.10937933786681E-11  1.17952746793618E-01
 cg2d: Sum(rhs),rhsMax =  -2.15102380352050E-11  1.16030398517964E-01
 cg2d: Sum(rhs),rhsMax =  -2.19496643083517E-11  1.14029898172076E-01
 cg2d: Sum(rhs),rhsMax =  -2.24121832204105E-11  1.11952177111885E-01
 cg2d: Sum(rhs),rhsMax =  -2.29503083204463E-11  1.09798259736804E-01
 cg2d: Sum(rhs),rhsMax =  -2.35181873975421E-11  1.07569263076484E-01
 cg2d: Sum(rhs),rhsMax =  -2.40778508242556E-11  1.05266395208220E-01
 cg2d: Sum(rhs),rhsMax =  -2.46747067222941E-11  1.02890952787592E-01
 cg2d: Sum(rhs),rhsMax =  -2.53385090687175E-11  1.00444317513547E-01
 cg2d: Sum(rhs),rhsMax =  -2.59996468798818E-11  9.79279514354783E-02
 cg2d: Sum(rhs),rhsMax =  -2.67481592430840E-11  9.53433910406491E-02
 cg2d: Sum(rhs),rhsMax =  -2.75872658050957E-11  9.26922400354861E-02
 cg2d: Sum(rhs),rhsMax =  -2.84703371988826E-11  8.99761607403983E-02
 cg2d: Sum(rhs),rhsMax =  -2.93016721997219E-11  8.77449754822782E-02
 cg2d: Sum(rhs),rhsMax =  -3.00334201952523E-11  8.57636259802093E-02
 cg2d: Sum(rhs),rhsMax =  -3.08127967585392E-11  8.37517563259204E-02
 cg2d: Sum(rhs),rhsMax =  -3.16980885983753E-11  8.17103390922466E-02
 cg2d: Sum(rhs),rhsMax =  -3.25846016835385E-11  7.96403003123499E-02
 cg2d: Sum(rhs),rhsMax =  -3.35079741731192E-11  7.75425239881306E-02
 cg2d: Sum(rhs),rhsMax =  -3.45559136860629E-11  7.54178923223342E-02
 cg2d: Sum(rhs),rhsMax =  -3.56618068408920E-11  7.32671317493153E-02
 cg2d: Sum(rhs),rhsMax =  -3.68555186369690E-11  7.10909969111778E-02
 cg2d: Sum(rhs),rhsMax =  -3.81310538699609E-11  6.88902359758082E-02
 cg2d: Sum(rhs),rhsMax =  -3.95142807363413E-11  6.66655311397509E-02
 cg2d: Sum(rhs),rhsMax =  -4.09934308720494E-11  6.44177330845627E-02
 cg2d: Sum(rhs),rhsMax =  -4.26587654089872E-11  6.21476003675341E-02
 cg2d: Sum(rhs),rhsMax =  -4.43186598531042E-11  5.98559107733583E-02
 cg2d: Sum(rhs),rhsMax =  -4.61479743307791E-11  5.75433698445400E-02
 cg2d: Sum(rhs),rhsMax =  -4.81689133025043E-11  5.52106465133478E-02
 cg2d: Sum(rhs),rhsMax =  -5.03345143343381E-11  5.28584661030412E-02
 cg2d: Sum(rhs),rhsMax =  -5.27853316611981E-11  5.04874133384183E-02
 cg2d: Sum(rhs),rhsMax =  -5.54609691505448E-11  4.80982226767786E-02
 cg2d: Sum(rhs),rhsMax =  -5.84228221356398E-11  4.56917497250495E-02
 cg2d: Sum(rhs),rhsMax =  -6.18316509104488E-11  4.32688897811072E-02
 cg2d: Sum(rhs),rhsMax =  -6.55631104962140E-11  4.08306445922431E-02
 cg2d: Sum(rhs),rhsMax =  -6.98293645129411E-11  3.83778675743280E-02
 cg2d: Sum(rhs),rhsMax =  -7.47126804867548E-11  3.59112268487276E-02
 cg2d: Sum(rhs),rhsMax =  -8.03538346971777E-11  3.34314413876262E-02
 cg2d: Sum(rhs),rhsMax =  -8.68780603013874E-11  3.09394265415837E-02
 cg2d: Sum(rhs),rhsMax =  -9.45799549789683E-11  2.84362711290503E-02
 cg2d: Sum(rhs),rhsMax =  -1.03765385173205E-10  2.59230105219354E-02
 cg2d: Sum(rhs),rhsMax =  -1.08386910557812E-10  2.48307988662261E-02
 cg2d: Sum(rhs),rhsMax =  -1.09474790344066E-10  2.46006432688719E-02
 cg2d: Sum(rhs),rhsMax =  -1.10510836592859E-10  2.43712670346399E-02
 cg2d: Sum(rhs),rhsMax =  -1.02249764211138E-10  2.63433997164111E-02
 cg2d: Sum(rhs),rhsMax =  -9.08761677020919E-11  2.96558352687051E-02
 cg2d: Sum(rhs),rhsMax =  -8.15557066324857E-11  3.30385707234481E-02
 cg2d: Sum(rhs),rhsMax =  -7.38450967041615E-11  3.65231756110075E-02
 cg2d: Sum(rhs),rhsMax =  -6.74407196754601E-11  4.00635646367576E-02
 cg2d: Sum(rhs),rhsMax =  -6.19430617909700E-11  4.36675472164032E-02
 cg2d: Sum(rhs),rhsMax =  -5.71768743462542E-11  4.73610802357987E-02
 cg2d: Sum(rhs),rhsMax =  -5.30445687374481E-11  5.10981118177793E-02
 cg2d: Sum(rhs),rhsMax =  -4.94237983872381E-11  5.49093391229648E-02
 cg2d: Sum(rhs),rhsMax =  -4.62286875446694E-11  5.87953464002971E-02
 cg2d: Sum(rhs),rhsMax =  -4.33635349850192E-11  6.27806867280022E-02
 cg2d: Sum(rhs),rhsMax =  -4.07476274943974E-11  6.68669510969231E-02
 cg2d: Sum(rhs),rhsMax =  -3.84527965024972E-11  7.09473607370274E-02
 cg2d: Sum(rhs),rhsMax =  -3.64790420093186E-11  7.50200295020416E-02
 cg2d: Sum(rhs),rhsMax =  -3.46881412482958E-11  7.90830855968323E-02
 cg2d: Sum(rhs),rhsMax =  -3.31221716720620E-11  8.31346655165725E-02
 cg2d: Sum(rhs),rhsMax =  -3.16755510709754E-11  8.71729080591436E-02
 cg2d: Sum(rhs),rhsMax =  -3.03871372508979E-11  9.11959487383631E-02
 cg2d: Sum(rhs),rhsMax =  -2.91786594885934E-11  9.52019148371029E-02
 cg2d: Sum(rhs),rhsMax =  -2.80866441215721E-11  9.91889212820405E-02
 cg2d: Sum(rhs),rhsMax =  -2.70757860576509E-11  1.03155067466060E-01
 cg2d: Sum(rhs),rhsMax =  -2.61339838658614E-11  1.07098435088128E-01
 cg2d: Sum(rhs),rhsMax =  -2.52822207613690E-11  1.11017087033288E-01
 cg2d: Sum(rhs),rhsMax =  -2.45318210190248E-11  1.14909067279398E-01
 cg2d: Sum(rhs),rhsMax =  -2.37636577082867E-11  1.18772401788559E-01
 cg2d: Sum(rhs),rhsMax =  -2.31011876294929E-11  1.22605100345139E-01
 cg2d: Sum(rhs),rhsMax =  -2.25043317314544E-11  1.26405159282251E-01
 cg2d: Sum(rhs),rhsMax =  -2.18901563542317E-11  1.30170565038427E-01
 cg2d: Sum(rhs),rhsMax =  -2.13377093771783E-11  1.33899298507262E-01
 cg2d: Sum(rhs),rhsMax =  -2.08315587002517E-11  1.37589340147033E-01
 cg2d: Sum(rhs),rhsMax =  -2.03305150492383E-11  1.41238675814184E-01
 cg2d: Sum(rhs),rhsMax =  -1.98717708954632E-11  1.44845303274126E-01
 cg2d: Sum(rhs),rhsMax =  -1.94416704957234E-11  1.48407239318605E-01
 cg2d: Sum(rhs),rhsMax =  -1.90127913413107E-11  1.51922527383307E-01
 cg2d: Sum(rhs),rhsMax =  -1.87362347858766E-11  1.55389245506502E-01
 cg2d: Sum(rhs),rhsMax =  -1.84109394396614E-11  1.58805514415518E-01
 cg2d: Sum(rhs),rhsMax =  -1.81381576425110E-11  1.62169505481166E-01
 cg2d: Sum(rhs),rhsMax =  -1.78578263287932E-11  1.65479448222841E-01
 cg2d: Sum(rhs),rhsMax =  -1.76018088993146E-11  1.68733637012320E-01
 cg2d: Sum(rhs),rhsMax =  -1.73833170080684E-11  1.71930436613230E-01
 cg2d: Sum(rhs),rhsMax =  -1.71395120318607E-11  1.75068286213316E-01
 cg2d: Sum(rhs),rhsMax =  -1.69376734859839E-11  1.78145701658943E-01
 cg2d: Sum(rhs),rhsMax =  -1.66558988823340E-11  1.81161275687003E-01
 cg2d: Sum(rhs),rhsMax =  -1.64995794804668E-11  1.84113676063657E-01
 cg2d: Sum(rhs),rhsMax =  -1.63155045029839E-11  1.87001641673888E-01
 cg2d: Sum(rhs),rhsMax =  -1.61429758449572E-11  1.89823976756295E-01
 cg2d: Sum(rhs),rhsMax =  -1.59572355329374E-11  1.92579543609538E-01
 cg2d: Sum(rhs),rhsMax =  -1.57941437706199E-11  1.95267254225985E-01
 cg2d: Sum(rhs),rhsMax =  -1.56668011896954E-11  1.97886061405010E-01
 cg2d: Sum(rhs),rhsMax =  -1.55235824195188E-11  2.00434949955296E-01
 cg2d: Sum(rhs),rhsMax =  -1.53961288162918E-11  2.02912928607999E-01
 cg2d: Sum(rhs),rhsMax =  -1.52734491720707E-11  2.05319023226124E-01
 cg2d: Sum(rhs),rhsMax =  -1.51665346947993E-11  2.07652271814284E-01
 cg2d: Sum(rhs),rhsMax =  -1.50427448275536E-11  2.09911721729546E-01
 cg2d: Sum(rhs),rhsMax =  -1.49101841984134E-11  2.12096429308861E-01
 cg2d: Sum(rhs),rhsMax =  -1.47989398513459E-11  2.14205461977839E-01
 cg2d: Sum(rhs),rhsMax =  -1.47454271015590E-11  2.16237902714549E-01
 cg2d: Sum(rhs),rhsMax =  -1.46256340372020E-11  2.18192856625536E-01
 cg2d: Sum(rhs),rhsMax =  -1.45617962132860E-11  2.20069459196812E-01
 cg2d: Sum(rhs),rhsMax =  -1.44506628885210E-11  2.21866885686049E-01
 cg2d: Sum(rhs),rhsMax =  -1.44485534647742E-11  2.23584361054758E-01
 cg2d: Sum(rhs),rhsMax =  -1.44374512345280E-11  2.25221169810847E-01
 cg2d: Sum(rhs),rhsMax =  -1.44271261603990E-11  2.26776665146123E-01
 cg2d: Sum(rhs),rhsMax =  -1.44214640229734E-11  2.28250276810484E-01
 cg2d: Sum(rhs),rhsMax =  -1.44076972574680E-11  2.29641517278769E-01
 cg2d: Sum(rhs),rhsMax =  -1.44101397481222E-11  2.30949985821265E-01
 cg2d: Sum(rhs),rhsMax =  -1.44204648222512E-11  2.32175370312014E-01
 cg2d: Sum(rhs),rhsMax =  -1.44235734467202E-11  2.33317446728582E-01
 cg2d: Sum(rhs),rhsMax =  -1.44397827028797E-11  2.34376076415611E-01
 cg2d: Sum(rhs),rhsMax =  -1.44168010862700E-11  2.35351201330236E-01
 cg2d: Sum(rhs),rhsMax =  -1.44421141712314E-11  2.36242837593647E-01
 cg2d: Sum(rhs),rhsMax =  -1.44201317553438E-11  2.37051067708605E-01
 cg2d: Sum(rhs),rhsMax =  -1.44136924618010E-11  2.37776031899181E-01
 cg2d: Sum(rhs),rhsMax =  -1.44284584280285E-11  2.38417919056509E-01
 cg2d: Sum(rhs),rhsMax =  -1.44546596914097E-11  2.38976957748410E-01
 cg2d: Sum(rhs),rhsMax =  -1.44390055467625E-11  2.39453407695513E-01
 cg2d: Sum(rhs),rhsMax =  -1.43428602328299E-11  2.39847552060481E-01
 cg2d: Sum(rhs),rhsMax =  -1.43011158471040E-11  2.40159690827149E-01
 cg2d: Sum(rhs),rhsMax =  -1.42675871117603E-11  2.40390135466391E-01
 cg2d: Sum(rhs),rhsMax =  -1.41948675036474E-11  2.40539205000291E-01
 cg2d: Sum(rhs),rhsMax =  -1.41857636748455E-11  2.40607223499648E-01
 cg2d: Sum(rhs),rhsMax =  -1.41598954783717E-11  2.40594518912875E-01
 cg2d: Sum(rhs),rhsMax =  -1.41913147899686E-11  2.40501423133823E-01
 cg2d: Sum(rhs),rhsMax =  -1.41475720027984E-11  2.40328273237652E-01
 cg2d: Sum(rhs),rhsMax =  -1.41986422619311E-11  2.40075413524316E-01
 cg2d: Sum(rhs),rhsMax =  -1.41512357387796E-11  2.39743198129367E-01
 cg2d: Sum(rhs),rhsMax =  -1.41680001064515E-11  2.39331993958175E-01
 cg2d: Sum(rhs),rhsMax =  -1.41280320775650E-11  2.38842183709204E-01
 cg2d: Sum(rhs),rhsMax =  -1.41290312782871E-11  2.38274168756334E-01
 cg2d: Sum(rhs),rhsMax =  -1.41036071710232E-11  2.37628371768916E-01
 cg2d: Sum(rhs),rhsMax =  -1.41170408696212E-11  2.36905238981071E-01
 cg2d: Sum(rhs),rhsMax =  -1.41131550890350E-11  2.36105241798041E-01
 cg2d: Sum(rhs),rhsMax =  -1.41170408696212E-11  2.35228878048824E-01
 cg2d: Sum(rhs),rhsMax =  -1.41185951818557E-11  2.34276672845828E-01
 cg2d: Sum(rhs),rhsMax =  -1.41316958135462E-11  2.33249179171653E-01
 cg2d: Sum(rhs),rhsMax =  -1.41230360739542E-11  2.32146978357671E-01
 cg2d: Sum(rhs),rhsMax =  -1.41352485272250E-11  2.30970680613929E-01
 cg2d: Sum(rhs),rhsMax =  -1.41578970769274E-11  2.29720925764027E-01
 cg2d: Sum(rhs),rhsMax =  -1.41420208876752E-11  2.28398384359723E-01
 cg2d: Sum(rhs),rhsMax =  -1.41872069647775E-11  2.27003759255896E-01
 cg2d: Sum(rhs),rhsMax =  -1.41939793252277E-11  2.25537787632670E-01
 cg2d: Sum(rhs),rhsMax =  -1.41874290093824E-11  2.24001243513314E-01
 cg2d: Sum(rhs),rhsMax =  -1.42603706621003E-11  2.22394940315135E-01
 cg2d: Sum(rhs),rhsMax =  -1.43521861062368E-11  2.20719733456558E-01
 cg2d: Sum(rhs),rhsMax =  -1.43982603617587E-11  2.18976522764008E-01
 cg2d: Sum(rhs),rhsMax =  -1.45092826642212E-11  2.17166254278620E-01
 cg2d: Sum(rhs),rhsMax =  -1.45558010089530E-11  2.15289921201086E-01
 cg2d: Sum(rhs),rhsMax =  -1.46683776236500E-11  2.13348563685936E-01
 cg2d: Sum(rhs),rhsMax =  -1.47722944987549E-11  2.11343267251424E-01
 cg2d: Sum(rhs),rhsMax =  -1.48790979537239E-11  2.09275159673921E-01
 cg2d: Sum(rhs),rhsMax =  -1.49774637137057E-11  2.07145406358997E-01
 cg2d: Sum(rhs),rhsMax =  -1.50525147901703E-11  2.04955204436993E-01
 cg2d: Sum(rhs),rhsMax =  -1.51878509768721E-11  2.02705775608944E-01
 cg2d: Sum(rhs),rhsMax =  -1.53109747103031E-11  2.00398358084499E-01
 cg2d: Sum(rhs),rhsMax =  -1.56621382529920E-11  1.98034198036343E-01
 cg2d: Sum(rhs),rhsMax =  -1.57676094403314E-11  1.95614541026913E-01
 cg2d: Sum(rhs),rhsMax =  -1.59436908120369E-11  1.93140623873004E-01
 cg2d: Sum(rhs),rhsMax =  -1.60572666274561E-11  1.90613667386790E-01
 cg2d: Sum(rhs),rhsMax =  -1.62011515314475E-11  1.88034870376127E-01
 cg2d: Sum(rhs),rhsMax =  -1.63639102268576E-11  1.85405405212525E-01
 cg2d: Sum(rhs),rhsMax =  -1.65527591633463E-11  1.82726415193953E-01
 cg2d: Sum(rhs),rhsMax =  -1.67228453307189E-11  1.79999013793887E-01
 cg2d: Sum(rhs),rhsMax =  -1.68884906059930E-11  1.77224285729740E-01
 cg2d: Sum(rhs),rhsMax =  -1.70787828324137E-11  1.74403290082752E-01
 cg2d: Sum(rhs),rhsMax =  -1.72656333674581E-11  1.71537065043835E-01
 cg2d: Sum(rhs),rhsMax =  -1.74893433069201E-11  1.68626634086339E-01
 cg2d: Sum(rhs),rhsMax =  -1.77216019636717E-11  1.65673013216195E-01
 cg2d: Sum(rhs),rhsMax =  -1.79303238923012E-11  1.62677219022661E-01
 cg2d: Sum(rhs),rhsMax =  -1.82267534398761E-11  1.59640277183442E-01
 cg2d: Sum(rhs),rhsMax =  -1.84620096987942E-11  1.56563231011368E-01
 cg2d: Sum(rhs),rhsMax =  -1.87079240987487E-11  1.53447149617201E-01
 cg2d: Sum(rhs),rhsMax =  -1.89893656354911E-11  1.50293135268460E-01
 cg2d: Sum(rhs),rhsMax =  -1.92981186586394E-11  1.47102329575996E-01
 cg2d: Sum(rhs),rhsMax =  -1.96306304545146E-11  1.43875918172065E-01
 cg2d: Sum(rhs),rhsMax =  -2.00222061152999E-11  1.40615133603405E-01
 cg2d: Sum(rhs),rhsMax =  -2.04607442100269E-11  1.37321256241580E-01
 cg2d: Sum(rhs),rhsMax =  -2.08967287917972E-11  1.33995613111210E-01
 cg2d: Sum(rhs),rhsMax =  -2.13855599895396E-11  1.30639574652276E-01
 cg2d: Sum(rhs),rhsMax =  -2.18736140311648E-11  1.27254549559802E-01
 cg2d: Sum(rhs),rhsMax =  -2.24268381643355E-11  1.23841977973927E-01
 cg2d: Sum(rhs),rhsMax =  -2.29745111823831E-11  1.20403323417156E-01
 cg2d: Sum(rhs),rhsMax =  -2.36081154625367E-11  1.16940063896614E-01
 cg2d: Sum(rhs),rhsMax =  -2.42567077535227E-11  1.13453682825893E-01
 cg2d: Sum(rhs),rhsMax =  -2.49578135935735E-11  1.09945660296441E-01
 cg2d: Sum(rhs),rhsMax =  -2.57306398410151E-11  1.06417465249373E-01
 cg2d: Sum(rhs),rhsMax =  -2.65393262921521E-11  1.02870549075126E-01
 cg2d: Sum(rhs),rhsMax =  -2.74076317197114E-11  9.93063409833205E-02
 cg2d: Sum(rhs),rhsMax =  -2.83814083346101E-11  9.57262454269929E-02
 cg2d: Sum(rhs),rhsMax =  -2.93480795221512E-11  9.21316416041398E-02
 cg2d: Sum(rhs),rhsMax =  -3.04795078065467E-11  8.85238850224579E-02
 cg2d: Sum(rhs),rhsMax =  -3.16859871674069E-11  8.49043109129972E-02
 cg2d: Sum(rhs),rhsMax =  -3.30179217300497E-11  8.12742391303529E-02
 cg2d: Sum(rhs),rhsMax =  -3.44557715692417E-11  7.76349800798505E-02
 cg2d: Sum(rhs),rhsMax =  -3.60442786728754E-11  7.39878411612110E-02
 cg2d: Sum(rhs),rhsMax =  -3.77979314514221E-11  7.03341332114715E-02
 cg2d: Sum(rhs),rhsMax =  -3.97267774232546E-11  6.66751764746145E-02
 cg2d: Sum(rhs),rhsMax =  -4.19086432223992E-11  6.30123056982772E-02
 cg2d: Sum(rhs),rhsMax =  -4.43312053732825E-11  5.93468740808944E-02
 cg2d: Sum(rhs),rhsMax =  -4.71001571078489E-11  5.56802558270818E-02
 cg2d: Sum(rhs),rhsMax =  -5.03592723077873E-11  5.20138473008558E-02
 cg2d: Sum(rhs),rhsMax =  -5.41039990586967E-11  4.83490668373702E-02
 cg2d: Sum(rhs),rhsMax =  -5.84366999234476E-11  4.46873533657610E-02
 cg2d: Sum(rhs),rhsMax =  -6.35546892890915E-11  4.10301640765075E-02
 cg2d: Sum(rhs),rhsMax =  -6.96530749744184E-11  3.73789714087409E-02
 cg2d: Sum(rhs),rhsMax =  -7.70720787537926E-11  3.37352596464520E-02
 cg2d: Sum(rhs),rhsMax =  -8.62370036491811E-11  3.01005214023732E-02
 cg2d: Sum(rhs),rhsMax =  -9.38087385549125E-11  2.76452628047667E-02
 cg2d: Sum(rhs),rhsMax =  -9.24936793822440E-11  2.80001229274672E-02
 cg2d: Sum(rhs),rhsMax =  -8.87337425758972E-11  2.91484117048881E-02
 cg2d: Sum(rhs),rhsMax =  -8.11565259439817E-11  3.18144244726859E-02
 cg2d: Sum(rhs),rhsMax =  -7.48442419151729E-11  3.44614943340435E-02
 cg2d: Sum(rhs),rhsMax =  -6.94378998744583E-11  3.70882239395344E-02
 cg2d: Sum(rhs),rhsMax =  -6.48464615338185E-11  3.96932876043324E-02
 cg2d: Sum(rhs),rhsMax =  -6.08250116940212E-11  4.22754290373696E-02
 cg2d: Sum(rhs),rhsMax =  -5.73042724383299E-11  4.48334250784217E-02
 cg2d: Sum(rhs),rhsMax =  -5.41694467059983E-11  4.73661041755663E-02
 cg2d: Sum(rhs),rhsMax =  -5.13656894796100E-11  4.98723654143556E-02
 cg2d: Sum(rhs),rhsMax =  -4.88590279346113E-11  5.23510951122418E-02
 cg2d: Sum(rhs),rhsMax =  -4.65315563857871E-11  5.48011884721497E-02
 cg2d: Sum(rhs),rhsMax =  -4.44353442929923E-11  5.72215821934709E-02
 cg2d: Sum(rhs),rhsMax =  -4.25076640553357E-11  5.96112722422146E-02
 cg2d: Sum(rhs),rhsMax =  -4.07721634232416E-11  6.19692908873493E-02
 cg2d: Sum(rhs),rhsMax =  -3.91572330116219E-11  6.42946772886937E-02
 cg2d: Sum(rhs),rhsMax =  -3.76905173737896E-11  6.65864633386868E-02
 cg2d: Sum(rhs),rhsMax =  -3.63519214729990E-11  6.88436881318373E-02
 cg2d: Sum(rhs),rhsMax =  -3.51385587293862E-11  7.10653959715747E-02
 cg2d: Sum(rhs),rhsMax =  -3.39904770996213E-11  7.32506582945655E-02
 cg2d: Sum(rhs),rhsMax =  -3.29415383859555E-11  7.53985506650295E-02
 cg2d: Sum(rhs),rhsMax =  -3.19657633696124E-11  7.75081506037347E-02
 cg2d: Sum(rhs),rhsMax =  -3.10567127570494E-11  7.95785351929473E-02
 cg2d: Sum(rhs),rhsMax =  -3.02120550799145E-11  8.16087906804994E-02
 cg2d: Sum(rhs),rhsMax =  -2.94193558403322E-11  8.35980091910253E-02
 cg2d: Sum(rhs),rhsMax =  -2.86710655217348E-11  8.55453845919137E-02
 cg2d: Sum(rhs),rhsMax =  -2.79780643097638E-11  8.74501822572219E-02
 cg2d: Sum(rhs),rhsMax =  -2.74511524622767E-11  8.93116144861918E-02
 cg2d: Sum(rhs),rhsMax =  -2.68175481821231E-11  9.11288331748938E-02
 cg2d: Sum(rhs),rhsMax =  -2.62795341043898E-11  9.29009742112839E-02
 cg2d: Sum(rhs),rhsMax =  -2.57441845619155E-11  9.46271067180643E-02
 cg2d: Sum(rhs),rhsMax =  -2.52139420453545E-11  9.63062368596834E-02
 cg2d: Sum(rhs),rhsMax =  -2.47699638578069E-11  9.79375303625619E-02
 cg2d: Sum(rhs),rhsMax =  -2.42960096485945E-11  9.95202739490208E-02
 cg2d: Sum(rhs),rhsMax =  -2.38689068510212E-11  1.01053818299848E-01
 cg2d: Sum(rhs),rhsMax =  -2.34682273614339E-11  1.02573280330839E-01
 cg2d: Sum(rhs),rhsMax =  -2.30279129098676E-11  1.04386436740014E-01
 cg2d: Sum(rhs),rhsMax =  -2.25786056518018E-11  1.06142641410569E-01
 cg2d: Sum(rhs),rhsMax =  -2.21439533376611E-11  1.07841163512338E-01
 cg2d: Sum(rhs),rhsMax =  -2.17248441458651E-11  1.09481259645992E-01
 cg2d: Sum(rhs),rhsMax =  -2.13269402138394E-11  1.11062175558104E-01
 cg2d: Sum(rhs),rhsMax =  -2.09594563926885E-11  1.12583149895083E-01
 cg2d: Sum(rhs),rhsMax =  -2.06236139277394E-11  1.14043419956105E-01
 cg2d: Sum(rhs),rhsMax =  -2.02975414254070E-11  1.15442228897410E-01
 cg2d: Sum(rhs),rhsMax =  -2.00339744793609E-11  1.16778833709778E-01
 cg2d: Sum(rhs),rhsMax =  -1.97366567533663E-11  1.18052513424926E-01
 cg2d: Sum(rhs),rhsMax =  -1.94948501786030E-11  1.19262577158762E-01
 cg2d: Sum(rhs),rhsMax =  -1.92951210564729E-11  1.20408371689700E-01
 cg2d: Sum(rhs),rhsMax =  -1.90522042586849E-11  1.21489288218433E-01
 cg2d: Sum(rhs),rhsMax =  -1.88496995789933E-11  1.22504768208482E-01
 cg2d: Sum(rhs),rhsMax =  -1.86640702892760E-11  1.23454308213412E-01
 cg2d: Sum(rhs),rhsMax =  -1.84890991405950E-11  1.24337463750253E-01
 cg2d: Sum(rhs),rhsMax =  -1.83085768767910E-11  1.25153852250728E-01
 cg2d: Sum(rhs),rhsMax =  -1.81464843151957E-11  1.25903155162687E-01
 cg2d: Sum(rhs),rhsMax =  -1.80375714364800E-11  1.26585119174620E-01
 cg2d: Sum(rhs),rhsMax =  -1.78849157705940E-11  1.27199556563108E-01
 cg2d: Sum(rhs),rhsMax =  -1.77925452149452E-11  1.27746344429379E-01
 cg2d: Sum(rhs),rhsMax =  -1.76446635080652E-11  1.28225422592879E-01
 cg2d: Sum(rhs),rhsMax =  -1.75405245883553E-11  1.28636789885167E-01
 cg2d: Sum(rhs),rhsMax =  -1.74580350176257E-11  1.28980498959193E-01
 cg2d: Sum(rhs),rhsMax =  -1.73699943317729E-11  1.29256650011984E-01
 cg2d: Sum(rhs),rhsMax =  -1.73261405223002E-11  1.29465383894688E-01
 cg2d: Sum(rhs),rhsMax =  -1.72704073264640E-11  1.29606875219399E-01
 cg2d: Sum(rhs),rhsMax =  -1.72953873445181E-11  1.29681326021593E-01
 cg2d: Sum(rhs),rhsMax =  -1.72672987019951E-11  1.29688960340101E-01
 cg2d: Sum(rhs),rhsMax =  -1.72829528466423E-11  1.29630020237787E-01
 cg2d: Sum(rhs),rhsMax =  -1.73374647971514E-11  1.29504763616489E-01
 cg2d: Sum(rhs),rhsMax =  -1.73668857073039E-11  1.29313463959444E-01
 cg2d: Sum(rhs),rhsMax =  -1.73554504101503E-11  1.29056411926303E-01
 cg2d: Sum(rhs),rhsMax =  -1.73500103173296E-11  1.28733918403144E-01
 cg2d: Sum(rhs),rhsMax =  -1.73404623993179E-11  1.28346318468488E-01
 cg2d: Sum(rhs),rhsMax =  -1.74320557988494E-11  1.27893975354244E-01
 cg2d: Sum(rhs),rhsMax =  -1.74694703147793E-11  1.27377283943253E-01
 cg2d: Sum(rhs),rhsMax =  -1.74756875637172E-11  1.26796672350180E-01
 cg2d: Sum(rhs),rhsMax =  -1.74856795709388E-11  1.26152602355065E-01
 cg2d: Sum(rhs),rhsMax =  -1.74795733443034E-11  1.25445567840409E-01
 cg2d: Sum(rhs),rhsMax =  -1.76423320397134E-11  1.24676091233791E-01
 cg2d: Sum(rhs),rhsMax =  -1.78183023891165E-11  1.23844718179653E-01
 cg2d: Sum(rhs),rhsMax =  -1.80150339090801E-11  1.22952010777962E-01
 cg2d: Sum(rhs),rhsMax =  -1.82863724162985E-11  1.21998539796779E-01
 cg2d: Sum(rhs),rhsMax =  -1.84521287138750E-11  1.20984876331194E-01
 cg2d: Sum(rhs),rhsMax =  -1.86346493791234E-11  1.19911583596282E-01
 cg2d: Sum(rhs),rhsMax =  -1.88739024409301E-11  1.18779209371689E-01
 cg2d: Sum(rhs),rhsMax =  -1.91215931977240E-11  1.17588280142184E-01
 cg2d: Sum(rhs),rhsMax =  -1.93446370033712E-11  1.16339297682206E-01
 cg2d: Sum(rhs),rhsMax =  -1.96199723134782E-11  1.15032738617406E-01
 cg2d: Sum(rhs),rhsMax =  -1.98921989991163E-11  1.13669057261867E-01
 cg2d: Sum(rhs),rhsMax =  -2.02332595122812E-11  1.12248691834529E-01
 cg2d: Sum(rhs),rhsMax =  -2.05371275541211E-11  1.10772074042147E-01
 cg2d: Sum(rhs),rhsMax =  -2.09087192004631E-11  1.09239641902354E-01
 cg2d: Sum(rhs),rhsMax =  -2.12782014230584E-11  1.07651855515622E-01
 cg2d: Sum(rhs),rhsMax =  -2.16803242025776E-11  1.06009215154388E-01
 cg2d: Sum(rhs),rhsMax =  -2.20800044914427E-11  1.04312280721842E-01
 cg2d: Sum(rhs),rhsMax =  -2.25031104861273E-11  1.02561691393310E-01
 cg2d: Sum(rhs),rhsMax =  -2.29826158104629E-11  1.00758184100068E-01
 cg2d: Sum(rhs),rhsMax =  -2.34986474723087E-11  9.89026094330250E-02
 cg2d: Sum(rhs),rhsMax =  -2.40245601190736E-11  9.69959435057524E-02
 cg2d: Sum(rhs),rhsMax =  -2.45410358701292E-11  9.50392943388700E-02
 cg2d: Sum(rhs),rhsMax =  -2.51153542407678E-11  9.30339015107403E-02
 cg2d: Sum(rhs),rhsMax =  -2.57728283159508E-11  9.09811281905853E-02
 cg2d: Sum(rhs),rhsMax =  -2.64083199752463E-11  8.88824452944214E-02
 cg2d: Sum(rhs),rhsMax =  -2.71024314102419E-11  8.67394082250041E-02
 cg2d: Sum(rhs),rhsMax =  -2.78429501676669E-11  8.45536274954787E-02
 cg2d: Sum(rhs),rhsMax =  -2.86699552987102E-11  8.23267352625958E-02
 cg2d: Sum(rhs),rhsMax =  -2.95506952241453E-11  8.00603502025340E-02
 cg2d: Sum(rhs),rhsMax =  -3.05526715038695E-11  7.77560432446455E-02
 cg2d: Sum(rhs),rhsMax =  -3.15394377281564E-11  7.54153066932648E-02
 cg2d: Sum(rhs),rhsMax =  -3.26447757714732E-11  7.30395289354537E-02
 cg2d: Sum(rhs),rhsMax =  -3.37609940004313E-11  7.06299763537354E-02
 cg2d: Sum(rhs),rhsMax =  -3.50645068536437E-11  6.81877834265187E-02
 cg2d: Sum(rhs),rhsMax =  -3.65104613209155E-11  6.57139513639427E-02
 cg2d: Sum(rhs),rhsMax =  -3.80475650985090E-11  6.32093550051936E-02
 cg2d: Sum(rhs),rhsMax =  -3.97760713255479E-11  6.06747570723561E-02
 cg2d: Sum(rhs),rhsMax =  -4.15482093174546E-11  5.81108283769745E-02
 cg2d: Sum(rhs),rhsMax =  -4.34187130693431E-11  5.56162131885549E-02
 cg2d: Sum(rhs),rhsMax =  -4.52328174915806E-11  5.35239653303016E-02
 cg2d: Sum(rhs),rhsMax =  -4.70961047938090E-11  5.14089481507606E-02
 cg2d: Sum(rhs),rhsMax =  -4.92235141535957E-11  4.92722798376578E-02
 cg2d: Sum(rhs),rhsMax =  -5.15030240677561E-11  4.71151073865951E-02
 cg2d: Sum(rhs),rhsMax =  -5.40857358899416E-11  4.49386001577689E-02
 cg2d: Sum(rhs),rhsMax =  -5.69148062012914E-11  4.27438994463380E-02
 cg2d: Sum(rhs),rhsMax =  -6.00711702603007E-11  4.05320837182587E-02
 cg2d: Sum(rhs),rhsMax =  -6.36165564671387E-11  3.83042086591877E-02
 cg2d: Sum(rhs),rhsMax =  -6.76334543925350E-11  3.60613497372259E-02
 cg2d: Sum(rhs),rhsMax =  -7.22343296288841E-11  3.38046026259395E-02
 cg2d: Sum(rhs),rhsMax =  -7.74906805389719E-11  3.15350626644940E-02
 cg2d: Sum(rhs),rhsMax =  -8.36160030104338E-11  2.92538094851327E-02
 cg2d: Sum(rhs),rhsMax =  -8.73553451796738E-11  2.80490629344885E-02
 cg2d: Sum(rhs),rhsMax =  -8.82310891014981E-11  2.77795396134529E-02
 cg2d: Sum(rhs),rhsMax =  -8.91208773445840E-11  2.75098819105259E-02
 cg2d: Sum(rhs),rhsMax =  -9.00529650849080E-11  2.72399776425970E-02
 cg2d: Sum(rhs),rhsMax =  -9.09446962182869E-11  2.69696409695585E-02
 cg2d: Sum(rhs),rhsMax =  -9.18895515233942E-11  2.66986217692425E-02
 cg2d: Sum(rhs),rhsMax =  -9.28958715507022E-11  2.64266365676089E-02
 cg2d: Sum(rhs),rhsMax =  -8.44031372571052E-11  2.90896249949168E-02
 cg2d: Sum(rhs),rhsMax =  -7.61139762328611E-11  3.22661220450413E-02
 cg2d: Sum(rhs),rhsMax =  -6.92000345914323E-11  3.55169919584362E-02
 cg2d: Sum(rhs),rhsMax =  -6.33436081365346E-11  3.88506453341263E-02
 cg2d: Sum(rhs),rhsMax =  -5.83184056601738E-11  4.22296707474174E-02
 cg2d: Sum(rhs),rhsMax =  -5.39812639033244E-11  4.56829147417181E-02
 cg2d: Sum(rhs),rhsMax =  -5.01652608342340E-11  4.91995391206020E-02
 cg2d: Sum(rhs),rhsMax =  -4.68450278567900E-11  5.27645095124798E-02
 cg2d: Sum(rhs),rhsMax =  -4.38498126698050E-11  5.64117153247722E-02
 cg2d: Sum(rhs),rhsMax =  -4.11354839080502E-11  6.01863133894567E-02
 cg2d: Sum(rhs),rhsMax =  -3.87483933828037E-11  6.39902020862711E-02
 cg2d: Sum(rhs),rhsMax =  -3.66373598126302E-11  6.77879144258808E-02
 cg2d: Sum(rhs),rhsMax =  -3.47937234579376E-11  7.15775607436108E-02
 cg2d: Sum(rhs),rhsMax =  -3.31503713368875E-11  7.53572670443399E-02
 cg2d: Sum(rhs),rhsMax =  -3.16742188033459E-11  7.91251742835577E-02
 cg2d: Sum(rhs),rhsMax =  -3.03451708205671E-11  8.28794367340211E-02
 cg2d: Sum(rhs),rhsMax =  -2.91247026495967E-11  8.66182196070910E-02
 cg2d: Sum(rhs),rhsMax =  -2.79938294767135E-11  9.03396961669827E-02
 cg2d: Sum(rhs),rhsMax =  -2.69696487364968E-11  9.40420446394456E-02
 cg2d: Sum(rhs),rhsMax =  -2.60190757828127E-11  9.77234452653807E-02
 cg2d: Sum(rhs),rhsMax =  -2.51784149085665E-11  1.01382077896535E-01
 cg2d: Sum(rhs),rhsMax =  -2.43700615243370E-11  1.05016120532248E-01
 cg2d: Sum(rhs),rhsMax =  -2.36154429344992E-11  1.08623749172709E-01
 cg2d: Sum(rhs),rhsMax =  -2.29301022613981E-11  1.12203139319447E-01
 cg2d: Sum(rhs),rhsMax =  -2.22867280186279E-11  1.15752469359865E-01
 cg2d: Sum(rhs),rhsMax =  -2.17125206702917E-11  1.19269925939234E-01
 cg2d: Sum(rhs),rhsMax =  -2.11629602731023E-11  1.22753711269122E-01
 cg2d: Sum(rhs),rhsMax =  -2.06503703026328E-11  1.26202052148750E-01
 cg2d: Sum(rhs),rhsMax =  -2.01534344768106E-11  1.29613210273221E-01
 cg2d: Sum(rhs),rhsMax =  -1.96881400071902E-11  1.32985493257858E-01
 cg2d: Sum(rhs),rhsMax =  -1.92601490311972E-11  1.36317265675721E-01
 cg2d: Sum(rhs),rhsMax =  -1.88690174596218E-11  1.39606959321142E-01
 cg2d: Sum(rhs),rhsMax =  -1.84682269477321E-11  1.42853081894296E-01
 cg2d: Sum(rhs),rhsMax =  -1.81354931072519E-11  1.46054223354958E-01
 cg2d: Sum(rhs),rhsMax =  -1.77733383566192E-11  1.49209059319916E-01
 cg2d: Sum(rhs),rhsMax =  -1.75145453695791E-11  1.52316351072462E-01
 cg2d: Sum(rhs),rhsMax =  -1.72604153192424E-11  1.55374942000105E-01
 cg2d: Sum(rhs),rhsMax =  -1.69942948602397E-11  1.58383750558900E-01
 cg2d: Sum(rhs),rhsMax =  -1.67876823553570E-11  1.61341760135444E-01
 cg2d: Sum(rhs),rhsMax =  -1.65625291259630E-11  1.64248006462721E-01
 cg2d: Sum(rhs),rhsMax =  -1.63226099303415E-11  1.67101563451561E-01
 cg2d: Sum(rhs),rhsMax =  -1.60219615352730E-11  1.69901528447652E-01
 cg2d: Sum(rhs),rhsMax =  -1.58246749037971E-11  1.72647007988416E-01
 cg2d: Sum(rhs),rhsMax =  -1.56300528075803E-11  1.75337105107159E-01
 cg2d: Sum(rhs),rhsMax =  -1.54192214552040E-11  1.77970909120742E-01
 cg2d: Sum(rhs),rhsMax =  -1.52547974252570E-11  1.80547488631133E-01
 cg2d: Sum(rhs),rhsMax =  -1.51496593048250E-11  1.83065888218647E-01
 cg2d: Sum(rhs),rhsMax =  -1.50058854231361E-11  1.85525129009100E-01
 cg2d: Sum(rhs),rhsMax =  -1.48527856680403E-11  1.87924212990704E-01
 cg2d: Sum(rhs),rhsMax =  -1.47176715259434E-11  1.90262130667366E-01
 cg2d: Sum(rhs),rhsMax =  -1.46058720673636E-11  1.92537871386299E-01
(PID.TID 0000.0001)      cg2d_init_res =   6.17104121953055E-02
(PID.TID 0000.0001)      cg2d_iters(min,last) =      -1      37
(PID.TID 0000.0001)      cg2d_last_res =   5.24442845214169E-14
(PID.TID 0000.0001) // =======================================================
(PID.TID 0000.0001) // Begin MONITOR dynamic field statistics
(PID.TID 0000.0001) // =======================================================
(PID.TID 0000.0001) %MON time_tsnumber                =                  3360
(PID.TID 0000.0001) %MON time_secondsf                =   5.0400000000000E+04
(PID.TID 0000.0001) %MON dynstat_eta_max              =   3.2705572712047E-02
(PID.TID 0000.0001) %MON dynstat_eta_min              =  -2.7190360202538E-02
(PID.TID 0000.0001) %MON dynstat_eta_mean             =   6.0550849019012E-15
(PID.TID 0000.0001) %MON dynstat_eta_sd               =   2.1941250392346E-02
(PID.TID 0000.0001) %MON dynstat_eta_del2             =   2.0897360990452E-05
(PID.TID 0000.0001) %MON dynstat_uvel_max             =   1.2503059575633E+00
(PID.TID 0000.0001) %MON dynstat_uvel_min             =  -6.1344100677231E-01
(PID.TID 0000.0001) %MON dynstat_uvel_mean            =   3.3796352460137E-01
(PID.TID 0000.0001) %MON dynstat_uvel_sd              =   1.2777288325744E-01
(PID.TID 0000.0001) %MON dynstat_uvel_del2            =   6.8420088277059E-04
(PID.TID 0000.0001) %MON dynstat_vvel_max             =   0.0000000000000E+00
(PID.TID 0000.0001) %MON dynstat_vvel_min             =   0.0000000000000E+00
(PID.TID 0000.0001) %MON dynstat_vvel_mean            =   0.0000000000000E+00
(PID.TID 0000.0001) %MON dynstat_vvel_sd              =   0.0000000000000E+00
(PID.TID 0000.0001) %MON dynstat_vvel_del2            =   0.0000000000000E+00
(PID.TID 0000.0001) %MON dynstat_wvel_max             =   2.3666371504480E-02
(PID.TID 0000.0001) %MON dynstat_wvel_min             =  -2.3168838832944E-02
(PID.TID 0000.0001) %MON dynstat_wvel_mean            =   7.0143077221097E-20
(PID.TID 0000.0001) %MON dynstat_wvel_sd              =   1.8887229419792E-03
(PID.TID 0000.0001) %MON dynstat_wvel_del2            =   4.5924898670759E-05
(PID.TID 0000.0001) %MON dynstat_theta_max            =   1.5000000000008E+01
(PID.TID 0000.0001) %MON dynstat_theta_min            =   9.9999999999940E+00
(PID.TID 0000.0001) %MON dynstat_theta_mean           =   1.3300724037374E+01
(PID.TID 0000.0001) %MON dynstat_theta_sd             =   2.2722283234090E+00
(PID.TID 0000.0001) %MON dynstat_theta_del2           =   9.8683224348424E-04
(PID.TID 0000.0001) %MON dynstat_salt_max             =   3.5000000000000E+01
(PID.TID 0000.0001) %MON dynstat_salt_min             =   3.5000000000000E+01
(PID.TID 0000.0001) %MON dynstat_salt_mean            =   3.5000000000000E+01
(PID.TID 0000.0001) %MON dynstat_salt_sd              =   2.1316282072803E-14
(PID.TID 0000.0001) %MON dynstat_salt_del2            =   0.0000000000000E+00
(PID.TID 0000.0001) %MON dynstat_sst_max              =   1.5000000000000E+01
(PID.TID 0000.0001) %MON dynstat_sst_min              =   1.4999999999991E+01
(PID.TID 0000.0001) %MON dynstat_sst_mean             =   1.4999999999996E+01
(PID.TID 0000.0001) %MON dynstat_sst_sd               =   2.3423732493395E-12
(PID.TID 0000.0001) %MON dynstat_sst_del2             =   1.5117793396129E-14
(PID.TID 0000.0001) %MON dynstat_sss_max              =   3.5000000000000E+01
(PID.TID 0000.0001) %MON dynstat_sss_min              =   3.5000000000000E+01
(PID.TID 0000.0001) %MON dynstat_sss_mean             =   3.5000000000000E+01
(PID.TID 0000.0001) %MON dynstat_sss_sd               =   7.8159700933611E-14
(PID.TID 0000.0001) %MON dynstat_sss_del2             =   0.0000000000000E+00
(PID.TID 0000.0001) %MON forcing_qnet_max             =   0.0000000000000E+00
(PID.TID 0000.0001) %MON forcing_qnet_min             =   0.0000000000000E+00
(PID.TID 0000.0001) %MON forcing_qnet_mean            =   0.0000000000000E+00
(PID.TID 0000.0001) %MON forcing_qnet_sd              =   0.0000000000000E+00
(PID.TID 0000.0001) %MON forcing_qnet_del2            =   0.0000000000000E+00
(PID.TID 0000.0001) %MON forcing_qsw_max              =   0.0000000000000E+00
(PID.TID 0000.0001) %MON forcing_qsw_min              =   0.0000000000000E+00
(PID.TID 0000.0001) %MON forcing_qsw_mean             =   0.0000000000000E+00
(PID.TID 0000.0001) %MON forcing_qsw_sd               =   0.0000000000000E+00
(PID.TID 0000.0001) %MON forcing_qsw_del2             =   0.0000000000000E+00
(PID.TID 0000.0001) %MON forcing_empmr_max            =   0.0000000000000E+00
(PID.TID 0000.0001) %MON forcing_empmr_min            =   0.0000000000000E+00
(PID.TID 0000.0001) %MON forcing_empmr_mean           =   0.0000000000000E+00
(PID.TID 0000.0001) %MON forcing_empmr_sd             =   0.0000000000000E+00
(PID.TID 0000.0001) %MON forcing_empmr_del2           =   0.0000000000000E+00
(PID.TID 0000.0001) %MON forcing_fu_max               =   0.0000000000000E+00
(PID.TID 0000.0001) %MON forcing_fu_min               =   0.0000000000000E+00
(PID.TID 0000.0001) %MON forcing_fu_mean              =   0.0000000000000E+00
(PID.TID 0000.0001) %MON forcing_fu_sd                =   0.0000000000000E+00
(PID.TID 0000.0001) %MON forcing_fu_del2              =   0.0000000000000E+00
(PID.TID 0000.0001) %MON forcing_fv_max               =   0.0000000000000E+00
(PID.TID 0000.0001) %MON forcing_fv_min               =   0.0000000000000E+00
(PID.TID 0000.0001) %MON forcing_fv_mean              =   0.0000000000000E+00
(PID.TID 0000.0001) %MON forcing_fv_sd                =   0.0000000000000E+00
(PID.TID 0000.0001) %MON forcing_fv_del2              =   0.0000000000000E+00
(PID.TID 0000.0001) %MON advcfl_uvel_max              =   9.3772946817247E-02
(PID.TID 0000.0001) %MON advcfl_vvel_max              =   0.0000000000000E+00
(PID.TID 0000.0001) %MON advcfl_wvel_max              =   2.1332759468772E-01
(PID.TID 0000.0001) %MON advcfl_W_hf_max              =   2.1721438565824E-01
(PID.TID 0000.0001) %MON pe_b_mean                    =   1.2027335776985E-05
(PID.TID 0000.0001) %MON ke_max                       =   4.9854931066755E-01
(PID.TID 0000.0001) %MON ke_mean                      =   6.5343824839818E-02
(PID.TID 0000.0001) %MON ke_vol                       =   9.5889217545975E+10
(PID.TID 0000.0001) %MON vort_r_min                   =   0.0000000000000E+00
(PID.TID 0000.0001) %MON vort_r_max                   =   0.0000000000000E+00
(PID.TID 0000.0001) %MON vort_a_mean                  =   0.0000000000000E+00
(PID.TID 0000.0001) %MON vort_a_sd                    =   0.0000000000000E+00
(PID.TID 0000.0001) %MON vort_p_mean                  =   0.0000000000000E+00
(PID.TID 0000.0001) %MON vort_p_sd                    =   0.0000000000000E+00
(PID.TID 0000.0001) %MON surfExpan_theta_mean         =   2.6299167020032E-17
(PID.TID 0000.0001) %MON surfExpan_salt_mean          =   2.9943927753597E-18
(PID.TID 0000.0001) // =======================================================
(PID.TID 0000.0001) // End MONITOR dynamic field statistics
(PID.TID 0000.0001) // =======================================================
(PID.TID 0000.0001) // =======================================================
(PID.TID 0000.0001) // Begin OBCS MONITOR field statistics
(PID.TID 0000.0001) // =======================================================
(PID.TID 0000.0001) %MON obc_E_uVel_max               =   3.3404902334837E-01
(PID.TID 0000.0001) %MON obc_E_uVel_min               =   3.3404902334837E-01
(PID.TID 0000.0001) %MON obc_E_uVel_mean              =   3.3404902334837E-01
(PID.TID 0000.0001) %MON obc_E_uVel_sd                =   8.3300023432813E-09
(PID.TID 0000.0001) %MON obc_E_uVel_Int               =   3.3404902334837E+05
(PID.TID 0000.0001) %MON obc_W_uVel_max               =   3.3404902334837E-01
(PID.TID 0000.0001) %MON obc_W_uVel_min               =   3.3404902334837E-01
(PID.TID 0000.0001) %MON obc_W_uVel_mean              =   3.3404902334837E-01
(PID.TID 0000.0001) %MON obc_W_uVel_sd                =   8.3300023432813E-09
(PID.TID 0000.0001) %MON obc_W_uVel_Int               =   3.3404902334837E+05
(PID.TID 0000.0001) // =======================================================
(PID.TID 0000.0001) // End OBCS MONITOR field statistics
(PID.TID 0000.0001) // =======================================================
 cg2d: Sum(rhs),rhsMax =  -1.45057299505424E-11  1.94750435487957E-01
 cg2d: Sum(rhs),rhsMax =  -1.43973721833390E-11  1.96898847340874E-01
 cg2d: Sum(rhs),rhsMax =  -1.42958977988883E-11  1.98982168272333E-01
 cg2d: Sum(rhs),rhsMax =  -1.42060807561961E-11  2.00999508451407E-01
 cg2d: Sum(rhs),rhsMax =  -1.40828460004627E-11  2.02950036937228E-01
 cg2d: Sum(rhs),rhsMax =  -1.40142342175409E-11  2.04832989279817E-01
 cg2d: Sum(rhs),rhsMax =  -1.38900002610853E-11  2.06647672293257E-01
 cg2d: Sum(rhs),rhsMax =  -1.38178357644847E-11  2.08393465831974E-01
 cg2d: Sum(rhs),rhsMax =  -1.37378997067117E-11  2.10069821653438E-01
 cg2d: Sum(rhs),rhsMax =  -1.36973765663129E-11  2.11676259667668E-01
 cg2d: Sum(rhs),rhsMax =  -1.36897160274430E-11  2.13212362043236E-01
 cg2d: Sum(rhs),rhsMax =  -1.36910482950725E-11  2.14677765759602E-01
 cg2d: Sum(rhs),rhsMax =  -1.36967104324981E-11  2.16072154246451E-01
 cg2d: Sum(rhs),rhsMax =  -1.37201361383177E-11  2.17395248813474E-01
 cg2d: Sum(rhs),rhsMax =  -1.37116984433305E-11  2.18646800426910E-01
 cg2d: Sum(rhs),rhsMax =  -1.37060363059049E-11  2.19826582352389E-01
 cg2d: Sum(rhs),rhsMax =  -1.37454492232791E-11  2.20934384073719E-01
 cg2d: Sum(rhs),rhsMax =  -1.37913014341962E-11  2.21970006733075E-01
 cg2d: Sum(rhs),rhsMax =  -1.37567734981303E-11  2.22933260204508E-01
 cg2d: Sum(rhs),rhsMax =  -1.38244971026324E-11  2.23823961726065E-01
 cg2d: Sum(rhs),rhsMax =  -1.38193900767192E-11  2.24641935927508E-01
 cg2d: Sum(rhs),rhsMax =  -1.39150913014419E-11  2.25387016000816E-01
 cg2d: Sum(rhs),rhsMax =  -1.39409594979156E-11  2.26059045729781E-01
 cg2d: Sum(rhs),rhsMax =  -1.39321887360211E-11  2.26657882032240E-01
 cg2d: Sum(rhs),rhsMax =  -1.37837519176287E-11  2.27183397675358E-01
 cg2d: Sum(rhs),rhsMax =  -1.37595490556919E-11  2.27635483861211E-01
 cg2d: Sum(rhs),rhsMax =  -1.37313493908664E-11  2.28014052438623E-01
 cg2d: Sum(rhs),rhsMax =  -1.36796129979189E-11  2.28319037567740E-01
 cg2d: Sum(rhs),rhsMax =  -1.36338718093043E-11  2.28550396744346E-01
 cg2d: Sum(rhs),rhsMax =  -1.36218814006384E-11  2.28708111147471E-01
 cg2d: Sum(rhs),rhsMax =  -1.36131106387438E-11  2.28792185366171E-01
 cg2d: Sum(rhs),rhsMax =  -1.36169964193300E-11  2.28802646552308E-01
 cg2d: Sum(rhs),rhsMax =  -1.36489708424392E-11  2.28739543279206E-01
 cg2d: Sum(rhs),rhsMax =  -1.36345379431191E-11  2.28602944192172E-01
 cg2d: Sum(rhs),rhsMax =  -1.36206601553113E-11  2.28392936615248E-01
 cg2d: Sum(rhs),rhsMax =  -1.36306521625329E-11  2.28109625299847E-01
 cg2d: Sum(rhs),rhsMax =  -1.36138877948611E-11  2.27753131568143E-01
 cg2d: Sum(rhs),rhsMax =  -1.35719213645302E-11  2.27323592978540E-01
 cg2d: Sum(rhs),rhsMax =  -1.35619293573086E-11  2.26821163659165E-01
 cg2d: Sum(rhs),rhsMax =  -1.35939037804178E-11  2.26246015426753E-01
 cg2d: Sum(rhs),rhsMax =  -1.35752520336041E-11  2.25598339808308E-01
 cg2d: Sum(rhs),rhsMax =  -1.35691458069687E-11  2.24878350702398E-01
 cg2d: Sum(rhs),rhsMax =  -1.35912392451587E-11  2.24086287885740E-01
 cg2d: Sum(rhs),rhsMax =  -1.35881306206898E-11  2.23222421285559E-01
 cg2d: Sum(rhs),rhsMax =  -1.36040068099419E-11  2.22287055706805E-01
 cg2d: Sum(rhs),rhsMax =  -1.36067823675035E-11  2.21280535782631E-01
 cg2d: Sum(rhs),rhsMax =  -1.35951250257449E-11  2.20203250775763E-01
 cg2d: Sum(rhs),rhsMax =  -1.36207711776137E-11  2.19055638974082E-01
 cg2d: Sum(rhs),rhsMax =  -1.36249900251073E-11  2.17838191348298E-01
 cg2d: Sum(rhs),rhsMax =  -1.36128885941389E-11  2.16551454147290E-01
 cg2d: Sum(rhs),rhsMax =  -1.36249900251073E-11  2.15196030162464E-01
 cg2d: Sum(rhs),rhsMax =  -1.36690658791849E-11  2.13772578527564E-01
 cg2d: Sum(rhs),rhsMax =  -1.37344580153353E-11  2.12281812927698E-01
 cg2d: Sum(rhs),rhsMax =  -1.38085098910778E-11  2.10724498224818E-01
 cg2d: Sum(rhs),rhsMax =  -1.38815625660982E-11  2.09101445879699E-01
 cg2d: Sum(rhs),rhsMax =  -1.39400713194959E-11  2.07413508475746E-01
 cg2d: Sum(rhs),rhsMax =  -1.40083500355104E-11  2.05661573809728E-01
 cg2d: Sum(rhs),rhsMax =  -1.40967237882705E-11  2.03846559095135E-01
 cg2d: Sum(rhs),rhsMax =  -1.41655576157973E-11  2.01969405825727E-01
 cg2d: Sum(rhs),rhsMax =  -1.42887923715307E-11  2.00031075733459E-01
 cg2d: Sum(rhs),rhsMax =  -1.43691725185136E-11  1.98032548522681E-01
 cg2d: Sum(rhs),rhsMax =  -1.44732004159209E-11  1.95974821495035E-01
 cg2d: Sum(rhs),rhsMax =  -1.45797818262849E-11  1.93858911173099E-01
 cg2d: Sum(rhs),rhsMax =  -1.46683776236500E-11  1.91685856824942E-01
 cg2d: Sum(rhs),rhsMax =  -1.47728496102673E-11  1.89456725602140E-01
 cg2d: Sum(rhs),rhsMax =  -1.49156242912341E-11  1.87172618809509E-01
 cg2d: Sum(rhs),rhsMax =  -1.50135459620060E-11  1.84834678661904E-01
 cg2d: Sum(rhs),rhsMax =  -1.51327839148507E-11  1.82444094780689E-01
 cg2d: Sum(rhs),rhsMax =  -1.52940993203288E-11  1.80002109654005E-01
 cg2d: Sum(rhs),rhsMax =  -1.54460888524000E-11  1.77510022334431E-01
 cg2d: Sum(rhs),rhsMax =  -1.55838675297559E-11  1.74969189769515E-01
 cg2d: Sum(rhs),rhsMax =  -1.57560631208753E-11  1.72381025345050E-01
 cg2d: Sum(rhs),rhsMax =  -1.58904001068549E-11  1.69746994372261E-01
 cg2d: Sum(rhs),rhsMax =  -1.60802482440658E-11  1.67068606763082E-01
 cg2d: Sum(rhs),rhsMax =  -1.62740931841654E-11  1.64347407049863E-01
 cg2d: Sum(rhs),rhsMax =  -1.64498414889636E-11  1.61584962212000E-01
 cg2d: Sum(rhs),rhsMax =  -1.66645586219261E-11  1.58782848043794E-01
 cg2d: Sum(rhs),rhsMax =  -1.68810521117280E-11  1.55942634932052E-01
 cg2d: Sum(rhs),rhsMax =  -1.71295200246391E-11  1.53065873910698E-01
 cg2d: Sum(rhs),rhsMax =  -1.73564496108725E-11  1.50154083815197E-01
 cg2d: Sum(rhs),rhsMax =  -1.75872649776920E-11  1.47208740299424E-01
 cg2d: Sum(rhs),rhsMax =  -1.78567161057686E-11  1.44231267332601E-01
 cg2d: Sum(rhs),rhsMax =  -1.81571424562321E-11  1.41223031605561E-01
 cg2d: Sum(rhs),rhsMax =  -1.84562365390661E-11  1.38185340061472E-01
 cg2d: Sum(rhs),rhsMax =  -1.88333793005313E-11  1.35119440542483E-01
 cg2d: Sum(rhs),rhsMax =  -1.92473814664140E-11  1.32026525330086E-01
 cg2d: Sum(rhs),rhsMax =  -1.96168636890093E-11  1.28907737171156E-01
 cg2d: Sum(rhs),rhsMax =  -2.00616190326741E-11  1.25764177237184E-01
 cg2d: Sum(rhs),rhsMax =  -2.05273575915044E-11  1.22596914370276E-01
 cg2d: Sum(rhs),rhsMax =  -2.10148565216173E-11  1.19406994925471E-01
 cg2d: Sum(rhs),rhsMax =  -2.15255591129448E-11  1.16195452576654E-01
 cg2d: Sum(rhs),rhsMax =  -2.20949925022751E-11  1.12963317388233E-01
 cg2d: Sum(rhs),rhsMax =  -2.26869634190052E-11  1.09711623728618E-01
 cg2d: Sum(rhs),rhsMax =  -2.33252306358622E-11  1.06441416661582E-01
 cg2d: Sum(rhs),rhsMax =  -2.40166775355988E-11  1.03153756599319E-01
 cg2d: Sum(rhs),rhsMax =  -2.47005749187679E-11  9.98497221594094E-02
 cg2d: Sum(rhs),rhsMax =  -2.55087062583925E-11  9.65304113446797E-02
 cg2d: Sum(rhs),rhsMax =  -2.63528088240150E-11  9.31969413023275E-02
 cg2d: Sum(rhs),rhsMax =  -2.72284417235369E-11  8.98504469481275E-02
 cg2d: Sum(rhs),rhsMax =  -2.81950018887756E-11  8.64920789130030E-02
 cg2d: Sum(rhs),rhsMax =  -2.92370572196887E-11  8.31230012438206E-02
 cg2d: Sum(rhs),rhsMax =  -3.03775893328861E-11  7.97443892663050E-02
 cg2d: Sum(rhs),rhsMax =  -3.16494608298967E-11  7.63574279562681E-02
 cg2d: Sum(rhs),rhsMax =  -3.30417915250791E-11  7.29633110695892E-02
 cg2d: Sum(rhs),rhsMax =  -3.45397599410546E-11  6.95632411776641E-02
 cg2d: Sum(rhs),rhsMax =  -3.62144758625504E-11  6.61584306213138E-02
 cg2d: Sum(rhs),rhsMax =  -3.80368514463214E-11  6.27501032782938E-02
 cg2d: Sum(rhs),rhsMax =  -4.01902400248844E-11  5.93394969367344E-02
 cg2d: Sum(rhs),rhsMax =  -4.25609547605177E-11  5.59278659545098E-02
 cg2d: Sum(rhs),rhsMax =  -4.52670123607390E-11  5.25164838937582E-02
 cg2d: Sum(rhs),rhsMax =  -4.83257878158838E-11  4.91066457951038E-02
 cg2d: Sum(rhs),rhsMax =  -5.18637355284568E-11  4.56996697856129E-02
 cg2d: Sum(rhs),rhsMax =  -5.59529228505440E-11  4.22968978020311E-02
 cg2d: Sum(rhs),rhsMax =  -6.07416564962771E-11  3.88996953140328E-02
 cg2d: Sum(rhs),rhsMax =  -6.64868854416412E-11  3.55094500507297E-02
 cg2d: Sum(rhs),rhsMax =  -7.33978711142669E-11  3.21275698550957E-02
 cg2d: Sum(rhs),rhsMax =  -8.09523559297531E-11  2.90821489671050E-02
 cg2d: Sum(rhs),rhsMax =  -7.98567878490530E-11  2.94652157542764E-02
 cg2d: Sum(rhs),rhsMax =  -7.87236942301206E-11  2.98468846146865E-02
 cg2d: Sum(rhs),rhsMax =  -7.76353425990806E-11  3.02267885363549E-02
 cg2d: Sum(rhs),rhsMax =  -7.34883265351982E-11  3.19012101880112E-02
 cg2d: Sum(rhs),rhsMax =  -6.83698653247689E-11  3.42240125022436E-02
 cg2d: Sum(rhs),rhsMax =  -6.39893693588078E-11  3.65277059602895E-02
 cg2d: Sum(rhs),rhsMax =  -6.01220184748286E-11  3.88113370672512E-02
 cg2d: Sum(rhs),rhsMax =  -5.67276225993396E-11  4.10739042468394E-02
 cg2d: Sum(rhs),rhsMax =  -5.37544453393934E-11  4.33143584937707E-02
 cg2d: Sum(rhs),rhsMax =  -5.10816944299108E-11  4.55316087795186E-02
 cg2d: Sum(rhs),rhsMax =  -4.86648499276043E-11  4.77245315578015E-02
 cg2d: Sum(rhs),rhsMax =  -4.64898120000612E-11  4.98919836443436E-02
 cg2d: Sum(rhs),rhsMax =  -4.45325998299495E-11  5.20328168814021E-02
 cg2d: Sum(rhs),rhsMax =  -4.27633484179069E-11  5.41458940272198E-02
 cg2d: Sum(rhs),rhsMax =  -4.10363965031024E-11  5.62301051915166E-02
 cg2d: Sum(rhs),rhsMax =  -3.94774213319238E-11  5.82843805629412E-02
 cg2d: Sum(rhs),rhsMax =  -3.80713238712360E-11  6.03077059499374E-02
 cg2d: Sum(rhs),rhsMax =  -3.67277319668347E-11  6.22991419262517E-02
 cg2d: Sum(rhs),rhsMax =  -3.55520057837566E-11  6.42578328936214E-02
 cg2d: Sum(rhs),rhsMax =  -3.43964856597267E-11  6.61830094353972E-02
 cg2d: Sum(rhs),rhsMax =  -3.33774119454233E-11  6.80739835320811E-02
 cg2d: Sum(rhs),rhsMax =  -3.23707727289957E-11  6.99301465615956E-02
 cg2d: Sum(rhs),rhsMax =  -3.14615000718277E-11  7.17509643715471E-02
 cg2d: Sum(rhs),rhsMax =  -3.06281666695440E-11  7.35359544917319E-02
 cg2d: Sum(rhs),rhsMax =  -2.97748492528171E-11  7.52846796856142E-02
 cg2d: Sum(rhs),rhsMax =  -2.90565349558847E-11  7.69967365828744E-02
 cg2d: Sum(rhs),rhsMax =  -2.83759682417895E-11  7.86717396132169E-02
 cg2d: Sum(rhs),rhsMax =  -2.76226819195813E-11  8.05852535409023E-02
 cg2d: Sum(rhs),rhsMax =  -2.68577382556145E-11  8.26016511413789E-02
 cg2d: Sum(rhs),rhsMax =  -2.62241339754610E-11  8.45714662528238E-02
 cg2d: Sum(rhs),rhsMax =  -2.55022669648497E-11  8.64939212976597E-02
 cg2d: Sum(rhs),rhsMax =  -2.49521514561479E-11  8.83683015825996E-02
 cg2d: Sum(rhs),rhsMax =  -2.43788322862315E-11  9.01939582496116E-02
 cg2d: Sum(rhs),rhsMax =  -2.38300490451593E-11  9.19703126669769E-02
 cg2d: Sum(rhs),rhsMax =  -2.33530972337803E-11  9.36968449172688E-02
 cg2d: Sum(rhs),rhsMax =  -2.28659313705748E-11  9.53730822838875E-02
 cg2d: Sum(rhs),rhsMax =  -2.24285034988725E-11  9.69985919014200E-02
 cg2d: Sum(rhs),rhsMax =  -2.20775620007885E-11  9.85729751724649E-02
 cg2d: Sum(rhs),rhsMax =  -2.16791029572505E-11  1.00095859392413E-01
 cg2d: Sum(rhs),rhsMax =  -2.13059569986740E-11  1.01566886087319E-01
 cg2d: Sum(rhs),rhsMax =  -2.09433581588314E-11  1.02985698278246E-01
 cg2d: Sum(rhs),rhsMax =  -2.06457073659294E-11  1.04351928012667E-01
 cg2d: Sum(rhs),rhsMax =  -2.03034256074375E-11  1.05665186896575E-01
 cg2d: Sum(rhs),rhsMax =  -1.99879002238390E-11  1.06925059051869E-01
 cg2d: Sum(rhs),rhsMax =  -1.97418748015821E-11  1.08131096366400E-01
 cg2d: Sum(rhs),rhsMax =  -1.94704252720612E-11  1.09282814967223E-01
 cg2d: Sum(rhs),rhsMax =  -1.92168503332368E-11  1.10379692752891E-01
 cg2d: Sum(rhs),rhsMax =  -1.89934734606823E-11  1.11421167612954E-01
 cg2d: Sum(rhs),rhsMax =  -1.87865278888921E-11  1.12406637268277E-01
 cg2d: Sum(rhs),rhsMax =  -1.85245152550806E-11  1.13335459816257E-01
 cg2d: Sum(rhs),rhsMax =  -1.83427717459494E-11  1.14206955892688E-01
 cg2d: Sum(rhs),rhsMax =  -1.82037718232664E-11  1.15020412583794E-01
 cg2d: Sum(rhs),rhsMax =  -1.80261361393264E-11  1.15775089601237E-01
 cg2d: Sum(rhs),rhsMax =  -1.78483894330839E-11  1.16470228056090E-01
 cg2d: Sum(rhs),rhsMax =  -1.77344805507573E-11  1.17105061914233E-01
 cg2d: Sum(rhs),rhsMax =  -1.76325620770967E-11  1.17678832086035E-01
 cg2d: Sum(rhs),rhsMax =  -1.74784631212788E-11  1.18190802866547E-01
 cg2d: Sum(rhs),rhsMax =  -1.73766556699206E-11  1.18640279576387E-01
 cg2d: Sum(rhs),rhsMax =  -1.72523106911626E-11  1.19026627319428E-01
 cg2d: Sum(rhs),rhsMax =  -1.71543890203907E-11  1.19349289522929E-01
 cg2d: Sum(rhs),rhsMax =  -1.70570224611311E-11  1.19607805279028E-01
 cg2d: Sum(rhs),rhsMax =  -1.69563252327976E-11  1.19801824718510E-01
 cg2d: Sum(rhs),rhsMax =  -1.68860481153388E-11  1.19931121751553E-01
 cg2d: Sum(rhs),rhsMax =  -1.68489666663163E-11  1.19995603463468E-01
 cg2d: Sum(rhs),rhsMax =  -1.68367542130454E-11  1.19995315709631E-01
 cg2d: Sum(rhs),rhsMax =  -1.68168812209046E-11  1.19930444161536E-01
 cg2d: Sum(rhs),rhsMax =  -1.67861280431225E-11  1.19801311591969E-01
 cg2d: Sum(rhs),rhsMax =  -1.67499347725197E-11  1.19608371200930E-01
 cg2d: Sum(rhs),rhsMax =  -1.67913460913383E-11  1.19352196326201E-01
 cg2d: Sum(rhs),rhsMax =  -1.67501568171247E-11  1.19033466979296E-01
 cg2d: Sum(rhs),rhsMax =  -1.67877933776595E-11  1.18652953455923E-01
 cg2d: Sum(rhs),rhsMax =  -1.67655889171670E-11  1.18211497690993E-01
 cg2d: Sum(rhs),rhsMax =  -1.67946767604121E-11  1.17709992331074E-01
 cg2d: Sum(rhs),rhsMax =  -1.69108060887879E-11  1.17149358811068E-01
 cg2d: Sum(rhs),rhsMax =  -1.70029545998318E-11  1.16530524682545E-01
 cg2d: Sum(rhs),rhsMax =  -1.71367364742991E-11  1.15854400992942E-01
 cg2d: Sum(rhs),rhsMax =  -1.72317715652071E-11  1.15121860697021E-01
 cg2d: Sum(rhs),rhsMax =  -1.74160685872948E-11  1.14333719289332E-01
 cg2d: Sum(rhs),rhsMax =  -1.75678360747611E-11  1.13490718299989E-01
 cg2d: Sum(rhs),rhsMax =  -1.77475811824479E-11  1.12593513417767E-01
 cg2d: Sum(rhs),rhsMax =  -1.79425363455721E-11  1.11642667691066E-01
 cg2d: Sum(rhs),rhsMax =  -1.81227255424687E-11  1.10638652908472E-01
 cg2d: Sum(rhs),rhsMax =  -1.83556503330351E-11  1.09581851154678E-01
 cg2d: Sum(rhs),rhsMax =  -1.85859105883424E-11  1.08472563555089E-01
 cg2d: Sum(rhs),rhsMax =  -1.88008497659098E-11  1.07311027503740E-01
 cg2d: Sum(rhs),rhsMax =  -1.90888416184976E-11  1.06097440473797E-01
 cg2d: Sum(rhs),rhsMax =  -1.93454141594884E-11  1.04831986713549E-01
 cg2d: Sum(rhs),rhsMax =  -1.96580529632229E-11  1.03514863973540E-01
 cg2d: Sum(rhs),rhsMax =  -1.99453786819959E-11  1.02146309003828E-01
 cg2d: Sum(rhs),rhsMax =  -2.03210781535290E-11  1.00726621319268E-01
 cg2d: Sum(rhs),rhsMax =  -2.07310835165231E-11  9.92561839961353E-02
 cg2d: Sum(rhs),rhsMax =  -2.10820250146071E-11  9.77354810232973E-02
 cg2d: Sum(rhs),rhsMax =  -2.14438466983324E-11  9.61651095389378E-02
 cg2d: Sum(rhs),rhsMax =  -2.18292051101798E-11  9.45457860238724E-02
 cg2d: Sum(rhs),rhsMax =  -2.22387663839640E-11  9.28783462362979E-02
 cg2d: Sum(rhs),rhsMax =  -2.27087237902879E-11  9.11637387152365E-02
 cg2d: Sum(rhs),rhsMax =  -2.32043273484805E-11  8.94030152331617E-02
 cg2d: Sum(rhs),rhsMax =  -2.37215802556534E-11  8.75973144083791E-02
 cg2d: Sum(rhs),rhsMax =  -2.42695863406084E-11  8.57478390436470E-02
 cg2d: Sum(rhs),rhsMax =  -2.49060772006260E-11  8.38558319964228E-02
 cg2d: Sum(rhs),rhsMax =  -2.55357957001934E-11  8.19225545860552E-02
 cg2d: Sum(rhs),rhsMax =  -2.62001531581291E-11  7.99492676559109E-02
 cg2d: Sum(rhs),rhsMax =  -2.69140265629630E-11  7.79372144996128E-02
 cg2d: Sum(rhs),rhsMax =  -2.76750844463436E-11  7.58876041886831E-02
 cg2d: Sum(rhs),rhsMax =  -2.85439449854152E-11  7.38015958047773E-02
 cg2d: Sum(rhs),rhsMax =  -2.94325674943252E-11  7.16802854351877E-02
 cg2d: Sum(rhs),rhsMax =  -3.04694047770226E-11  6.95246972800539E-02
 cg2d: Sum(rhs),rhsMax =  -3.14939185841467E-11  6.73357810419968E-02
 cg2d: Sum(rhs),rhsMax =  -3.26594307153982E-11  6.51144120571526E-02
 cg2d: Sum(rhs),rhsMax =  -3.39406280858157E-11  6.28614000101731E-02
 cg2d: Sum(rhs),rhsMax =  -3.53039819600554E-11  6.05774988249510E-02
 cg2d: Sum(rhs),rhsMax =  -3.68007846418550E-11  5.82634185668203E-02
 cg2d: Sum(rhs),rhsMax =  -3.84723364277306E-11  5.59198393631366E-02
 cg2d: Sum(rhs),rhsMax =  -4.01704225438948E-11  5.37042662354355E-02
 cg2d: Sum(rhs),rhsMax =  -4.18013401670692E-11  5.17487400972558E-02
 cg2d: Sum(rhs),rhsMax =  -4.36133351655599E-11  4.97717041545282E-02
 cg2d: Sum(rhs),rhsMax =  -4.54490889367776E-11  4.77740879192843E-02
 cg2d: Sum(rhs),rhsMax =  -4.75117722942286E-11  4.57567968933706E-02
 cg2d: Sum(rhs),rhsMax =  -4.97808461119575E-11  4.37207096926576E-02
 cg2d: Sum(rhs),rhsMax =  -5.23692200715686E-11  4.16666769745008E-02
 cg2d: Sum(rhs),rhsMax =  -5.51459988784586E-11  3.95955212212158E-02
 cg2d: Sum(rhs),rhsMax =  -5.82913717295241E-11  3.75080379914914E-02
 cg2d: Sum(rhs),rhsMax =  -6.18682882702615E-11  3.54049991148116E-02
 cg2d: Sum(rhs),rhsMax =  -6.58404442077654E-11  3.32871569866929E-02
 cg2d: Sum(rhs),rhsMax =  -7.04369895743184E-11  3.11552494040077E-02
 cg2d: Sum(rhs),rhsMax =  -7.29719618064451E-11  3.01030423607923E-02
 cg2d: Sum(rhs),rhsMax =  -7.37530037042688E-11  2.97933669450482E-02
 cg2d: Sum(rhs),rhsMax =  -7.45962180914717E-11  2.94807167783582E-02
 cg2d: Sum(rhs),rhsMax =  -7.53885842641466E-11  2.91649664871061E-02
 cg2d: Sum(rhs),rhsMax =  -7.62541141341444E-11  2.88461026724066E-02
 cg2d: Sum(rhs),rhsMax =  -7.71558372747450E-11  2.85241998635114E-02
 cg2d: Sum(rhs),rhsMax =  -7.80993603122226E-11  2.81993981668894E-02
 cg2d: Sum(rhs),rhsMax =  -7.74485753307630E-11  2.84360324614953E-02
 cg2d: Sum(rhs),rhsMax =  -7.02344363223695E-11  3.13568183558944E-02
 cg2d: Sum(rhs),rhsMax =  -6.42251460347687E-11  3.43276154387891E-02
 cg2d: Sum(rhs),rhsMax =  -5.90335141881226E-11  3.73886882185253E-02
 cg2d: Sum(rhs),rhsMax =  -5.46008238622164E-11  4.04894775050824E-02
 cg2d: Sum(rhs),rhsMax =  -5.07068831367974E-11  4.36427444279464E-02
 cg2d: Sum(rhs),rhsMax =  -4.72906713788745E-11  4.68681577243209E-02
 cg2d: Sum(rhs),rhsMax =  -4.42536562950124E-11  5.01409245076317E-02
 cg2d: Sum(rhs),rhsMax =  -4.15070200432410E-11  5.34964249999884E-02
 cg2d: Sum(rhs),rhsMax =  -3.90384391479870E-11  5.69759654733429E-02
 cg2d: Sum(rhs),rhsMax =  -3.68477470757966E-11  6.04545441660277E-02
 cg2d: Sum(rhs),rhsMax =  -3.48862050358889E-11  6.39303280424977E-02
 cg2d: Sum(rhs),rhsMax =  -3.31947247467212E-11  6.74014611200432E-02
 cg2d: Sum(rhs),rhsMax =  -3.16693893331887E-11  7.08660772433472E-02
 cg2d: Sum(rhs),rhsMax =  -3.02880498459501E-11  7.43223130997877E-02
 cg2d: Sum(rhs),rhsMax =  -2.90432677907404E-11  7.77683209413670E-02
 cg2d: Sum(rhs),rhsMax =  -2.79213319132054E-11  8.12022805196075E-02
 cg2d: Sum(rhs),rhsMax =  -2.68564059879850E-11  8.46224097978825E-02
 cg2d: Sum(rhs),rhsMax =  -2.58917332018882E-11  8.80269740723984E-02
 cg2d: Sum(rhs),rhsMax =  -2.50134357671072E-11  9.14142932040552E-02
 cg2d: Sum(rhs),rhsMax =  -2.41977549109151E-11  9.47827467371324E-02
 cg2d: Sum(rhs),rhsMax =  -2.34248176411711E-11  9.81307767590189E-02
 cg2d: Sum(rhs),rhsMax =  -2.27257102025646E-11  1.01456888436789E-01
 cg2d: Sum(rhs),rhsMax =  -2.20743423540171E-11  1.04759648249518E-01
 cg2d: Sum(rhs),rhsMax =  -2.14255280184261E-11  1.08037680017101E-01
 cg2d: Sum(rhs),rhsMax =  -2.08608685881018E-11  1.11289658911416E-01
 cg2d: Sum(rhs),rhsMax =  -2.03325134506827E-11  1.14514303722833E-01
 cg2d: Sum(rhs),rhsMax =  -1.98356886471629E-11  1.17710367715792E-01
 cg2d: Sum(rhs),rhsMax =  -1.93527416314510E-11  1.20876628493049E-01
 cg2d: Sum(rhs),rhsMax =  -1.89461779598332E-11  1.24011877357027E-01
 cg2d: Sum(rhs),rhsMax =  -1.85311765932283E-11  1.27114908709545E-01
 cg2d: Sum(rhs),rhsMax =  -1.81543668986706E-11  1.30184510051079E-01
 cg2d: Sum(rhs),rhsMax =  -1.77871051221246E-11  1.33219453159017E-01
 cg2d: Sum(rhs),rhsMax =  -1.74629199989340E-11  1.36218486999134E-01
 cg2d: Sum(rhs),rhsMax =  -1.71498371059897E-11  1.39180332865777E-01
 cg2d: Sum(rhs),rhsMax =  -1.68075553474978E-11  1.42103682152091E-01
 cg2d: Sum(rhs),rhsMax =  -1.66081592922751E-11  1.44987197021978E-01
 cg2d: Sum(rhs),rhsMax =  -1.63856705981402E-11  1.47829514095424E-01
 cg2d: Sum(rhs),rhsMax =  -1.61755053795787E-11  1.50629251077394E-01
 cg2d: Sum(rhs),rhsMax =  -1.59426916113148E-11  1.53385016069723E-01
 cg2d: Sum(rhs),rhsMax =  -1.57258650546055E-11  1.56095419118618E-01
 cg2d: Sum(rhs),rhsMax =  -1.55679913405038E-11  1.58759085382576E-01
 cg2d: Sum(rhs),rhsMax =  -1.53714818651451E-11  1.61374669173683E-01
 cg2d: Sum(rhs),rhsMax =  -1.52138301956484E-11  1.63940868033454E-01
 cg2d: Sum(rhs),rhsMax =  -1.50530699016826E-11  1.66456435988420E-01
 cg2d: Sum(rhs),rhsMax =  -1.48934198307415E-11  1.68920195161507E-01
 cg2d: Sum(rhs),rhsMax =  -1.47493128821452E-11  1.71331045014958E-01
 cg2d: Sum(rhs),rhsMax =  -1.46211931451035E-11  1.73687968656293E-01
 cg2d: Sum(rhs),rhsMax =  -1.44947387425987E-11  1.75990035838035E-01
 cg2d: Sum(rhs),rhsMax =  -1.43621781134584E-11  1.78236402508211E-01
 cg2d: Sum(rhs),rhsMax =  -1.42358347332561E-11  1.80426307003201E-01
 cg2d: Sum(rhs),rhsMax =  -1.41536782294338E-11  1.82559063197884E-01
 cg2d: Sum(rhs),rhsMax =  -1.40204514664788E-11  1.84634051117953E-01
 cg2d: Sum(rhs),rhsMax =  -1.39420697209403E-11  1.86650705687286E-01
 cg2d: Sum(rhs),rhsMax =  -1.38168365637625E-11  1.88608504353152E-01
 cg2d: Sum(rhs),rhsMax =  -1.37357902829649E-11  1.90506954369437E-01
 cg2d: Sum(rhs),rhsMax =  -1.36640698755741E-11  1.92345580513193E-01
 cg2d: Sum(rhs),rhsMax =  -1.35834676839863E-11  1.94123913920313E-01
 cg2d: Sum(rhs),rhsMax =  -1.35021993585838E-11  1.95841482617093E-01
 cg2d: Sum(rhs),rhsMax =  -1.34242617022551E-11  1.97497804157588E-01
 cg2d: Sum(rhs),rhsMax =  -1.33532074286791E-11  1.99092380607648E-01
 cg2d: Sum(rhs),rhsMax =  -1.32831523558252E-11  2.00624695958310E-01
 cg2d: Sum(rhs),rhsMax =  -1.32234223571004E-11  2.02094215892094E-01
 cg2d: Sum(rhs),rhsMax =  -1.31261668201432E-11  2.03500389691777E-01
 cg2d: Sum(rhs),rhsMax =  -1.30989663560399E-11  2.04842654011240E-01
 cg2d: Sum(rhs),rhsMax =  -1.30216948335260E-11  2.06120438106496E-01
 cg2d: Sum(rhs),rhsMax =  -1.29801724924050E-11  2.07333170133327E-01
 cg2d: Sum(rhs),rhsMax =  -1.29940502802128E-11  2.08480284058168E-01
 cg2d: Sum(rhs),rhsMax =  -1.29622979017086E-11  2.09561226860108E-01
 cg2d: Sum(rhs),rhsMax =  -1.29537491844189E-11  2.10575465661476E-01
 cg2d: Sum(rhs),rhsMax =  -1.29201094267728E-11  2.11522494523637E-01
 cg2d: Sum(rhs),rhsMax =  -1.29635191470356E-11  2.12401840716099E-01
 cg2d: Sum(rhs),rhsMax =  -1.29596333664495E-11  2.13213070320703E-01
 cg2d: Sum(rhs),rhsMax =  -1.29444233110121E-11  2.13955793090797E-01
 cg2d: Sum(rhs),rhsMax =  -1.29130039994152E-11  2.14629666489088E-01
 cg2d: Sum(rhs),rhsMax =  -1.29261046311058E-11  2.15234398952170E-01
 cg2d: Sum(rhs),rhsMax =  -1.29580790542150E-11  2.15769752403783E-01
 cg2d: Sum(rhs),rhsMax =  -1.29835031614789E-11  2.16235544048730E-01
 cg2d: Sum(rhs),rhsMax =  -1.29791732916829E-11  2.16631647482660E-01
 cg2d: Sum(rhs),rhsMax =  -1.29368737944446E-11  2.16957993145842E-01
 cg2d: Sum(rhs),rhsMax =  -1.29428689987776E-11  2.17214568143913E-01
 cg2d: Sum(rhs),rhsMax =  -1.28388411013702E-11  2.17401415461931E-01
 cg2d: Sum(rhs),rhsMax =  -1.27803323479725E-11  2.17518632587261E-01
 cg2d: Sum(rhs),rhsMax =  -1.27277077766053E-11  2.17566369530226E-01
 cg2d: Sum(rhs),rhsMax =  -1.27462485011165E-11  2.17544826301782E-01
 cg2d: Sum(rhs),rhsMax =  -1.27478028133510E-11  2.17454249947774E-01
 cg2d: Sum(rhs),rhsMax =  -1.27196031485255E-11  2.17294931116880E-01
 cg2d: Sum(rhs),rhsMax =  -1.26981758441502E-11  2.17067200205826E-01
 cg2d: Sum(rhs),rhsMax =  -1.26398891353574E-11  2.16771423207322E-01
 cg2d: Sum(rhs),rhsMax =  -1.26051391546866E-11  2.16407997389480E-01
 cg2d: Sum(rhs),rhsMax =  -1.25561783193007E-11  2.15977346944449E-01
 cg2d: Sum(rhs),rhsMax =  -1.25248700300062E-11  2.15479918749249E-01
 cg2d: Sum(rhs),rhsMax =  -1.25112142868034E-11  2.14916178471683E-01
 cg2d: Sum(rhs),rhsMax =  -1.24963372982734E-11  2.14286606890361E-01
 cg2d: Sum(rhs),rhsMax =  -1.25259802530309E-11  2.13591696747219E-01
 cg2d: Sum(rhs),rhsMax =  -1.25283117213826E-11  2.12831950257338E-01
 cg2d: Sum(rhs),rhsMax =  -1.25073285062172E-11  2.12007877401162E-01
 cg2d: Sum(rhs),rhsMax =  -1.25262022976358E-11  2.11119994935442E-01
 cg2d: Sum(rhs),rhsMax =  -1.25554011631834E-11  2.10168826084675E-01
 cg2d: Sum(rhs),rhsMax =  -1.26076926676433E-11  2.09154900902157E-01
 cg2d: Sum(rhs),rhsMax =  -1.25940369244404E-11  2.08078757240331E-01
 cg2d: Sum(rhs),rhsMax =  -1.26000321287734E-11  2.06940942213231E-01
 cg2d: Sum(rhs),rhsMax =  -1.25792709582129E-11  2.05742014001282E-01
 cg2d: Sum(rhs),rhsMax =  -1.25964794150946E-11  2.04482543830281E-01
 cg2d: Sum(rhs),rhsMax =  -1.26340049533269E-11  2.03163117983204E-01
 cg2d: Sum(rhs),rhsMax =  -1.27076127398595E-11  2.01784339655029E-01
 cg2d: Sum(rhs),rhsMax =  -1.27609034450415E-11  2.00346830395516E-01
 cg2d: Sum(rhs),rhsMax =  -1.28373978114382E-11  1.98851231197835E-01
 cg2d: Sum(rhs),rhsMax =  -1.29035671037059E-11  1.97298203129990E-01
 cg2d: Sum(rhs),rhsMax =  -1.29876109866700E-11  1.95688427489141E-01
 cg2d: Sum(rhs),rhsMax =  -1.30616628624125E-11  1.94022605520002E-01
 cg2d: Sum(rhs),rhsMax =  -1.31067379172123E-11  1.92301457700301E-01
 cg2d: Sum(rhs),rhsMax =  -1.32021060750276E-11  1.90525722900078E-01
 cg2d: Sum(rhs),rhsMax =  -1.32810429320784E-11  1.88696157439027E-01
 cg2d: Sum(rhs),rhsMax =  -1.33517641387471E-11  1.86813534171456E-01
 cg2d: Sum(rhs),rhsMax =  -1.34532385231978E-11  1.84878641775361E-01
 cg2d: Sum(rhs),rhsMax =  -1.35431665881924E-11  1.82892284400734E-01
 cg2d: Sum(rhs),rhsMax =  -1.36213262891260E-11  1.80855281815632E-01
 cg2d: Sum(rhs),rhsMax =  -1.37240219189039E-11  1.78768470082351E-01
 cg2d: Sum(rhs),rhsMax =  -1.38411504480018E-11  1.76632702765487E-01
 cg2d: Sum(rhs),rhsMax =  -1.39795952591726E-11  1.74448852616738E-01
 cg2d: Sum(rhs),rhsMax =  -1.40797373759938E-11  1.72217813630706E-01
 cg2d: Sum(rhs),rhsMax =  -1.42049705331715E-11  1.69940503324494E-01
 cg2d: Sum(rhs),rhsMax =  -1.43263179097630E-11  1.67617865064429E-01
 cg2d: Sum(rhs),rhsMax =  -1.44582124050885E-11  1.65250870247835E-01
 cg2d: Sum(rhs),rhsMax =  -1.46209711004985E-11  1.62840520103401E-01
 cg2d: Sum(rhs),rhsMax =  -1.47535317296388E-11  1.60387847042889E-01
 cg2d: Sum(rhs),rhsMax =  -1.49057433063149E-11  1.57893915379453E-01
 cg2d: Sum(rhs),rhsMax =  -1.50638390650215E-11  1.55359821222620E-01
 cg2d: Sum(rhs),rhsMax =  -1.52204915337961E-11  1.52786691507334E-01
 cg2d: Sum(rhs),rhsMax =  -1.54053436673962E-11  1.50175682170265E-01
 cg2d: Sum(rhs),rhsMax =  -1.55934154477677E-11  1.47527975536448E-01
 cg2d: Sum(rhs),rhsMax =  -1.58039137332366E-11  1.44844777003993E-01
 cg2d: Sum(rhs),rhsMax =  -1.60169655316622E-11  1.42127311161826E-01
 cg2d: Sum(rhs),rhsMax =  -1.62245772372671E-11  1.39376817518286E-01
 cg2d: Sum(rhs),rhsMax =  -1.64749325293201E-11  1.36594546051736E-01
 cg2d: Sum(rhs),rhsMax =  -1.66968661119427E-11  1.33781752814161E-01
 cg2d: Sum(rhs),rhsMax =  -1.69495528723473E-11  1.30939695823822E-01
 cg2d: Sum(rhs),rhsMax =  -1.72190040004239E-11  1.28069631473465E-01
 cg2d: Sum(rhs),rhsMax =  -1.75196523954924E-11  1.25172811656708E-01
 cg2d: Sum(rhs),rhsMax =  -1.78869141720384E-11  1.22250481777711E-01
 cg2d: Sum(rhs),rhsMax =  -1.82555082162139E-11  1.19303879755090E-01
 cg2d: Sum(rhs),rhsMax =  -1.86646254007883E-11  1.16334236080288E-01
 cg2d: Sum(rhs),rhsMax =  -1.91094917667556E-11  1.13342774948952E-01
 cg2d: Sum(rhs),rhsMax =  -1.95724547680243E-11  1.10330716309010E-01
 cg2d: Sum(rhs),rhsMax =  -2.00787164672533E-11  1.07299278691656E-01
 cg2d: Sum(rhs),rhsMax =  -2.06067385377651E-11  1.04249682646135E-01
 cg2d: Sum(rhs),rhsMax =  -2.11426431917516E-11  1.01183154495333E-01
 cg2d: Sum(rhs),rhsMax =  -2.17401652236049E-11  9.81009300919787E-02
 cg2d: Sum(rhs),rhsMax =  -2.23491780637630E-11  9.50042582622232E-02
 cg2d: Sum(rhs),rhsMax =  -2.30506169707212E-11  9.18944035679554E-02
 cg2d: Sum(rhs),rhsMax =  -2.37694863791660E-11  8.87726481075206E-02
 cg2d: Sum(rhs),rhsMax =  -2.45864439918364E-11  8.56402921261531E-02
 cg2d: Sum(rhs),rhsMax =  -2.53978504893837E-11  8.24986532819824E-02
 cg2d: Sum(rhs),rhsMax =  -2.63158939084462E-11  7.93490644184691E-02
 cg2d: Sum(rhs),rhsMax =  -2.73132627626183E-11  7.61928698262877E-02
 cg2d: Sum(rhs),rhsMax =  -2.83831846914495E-11  7.30314200842735E-02
 cg2d: Sum(rhs),rhsMax =  -2.95636293223822E-11  6.98660656612945E-02
 cg2d: Sum(rhs),rhsMax =  -3.08553738115336E-11  6.66981495542060E-02
 cg2d: Sum(rhs),rhsMax =  -3.22519233542096E-11  6.35289993115491E-02
 cg2d: Sum(rhs),rhsMax =  -3.38187811088630E-11  6.03599189173764E-02
 cg2d: Sum(rhs),rhsMax =  -3.55813156716067E-11  5.71921809259438E-02
 cg2d: Sum(rhs),rhsMax =  -3.75104669547710E-11  5.40270193915260E-02
 cg2d: Sum(rhs),rhsMax =  -3.97800403728610E-11  5.08656240934651E-02
 cg2d: Sum(rhs),rhsMax =  -4.23346219191600E-11  4.77091365153740E-02
 cg2d: Sum(rhs),rhsMax =  -4.52734794098575E-11  4.45586479796506E-02
 cg2d: Sum(rhs),rhsMax =  -4.86655993281460E-11  4.14152002509252E-02
 cg2d: Sum(rhs),rhsMax =  -5.25766929992955E-11  3.82797888007773E-02
 cg2d: Sum(rhs),rhsMax =  -5.71586666886503E-11  3.51533687849571E-02
 cg2d: Sum(rhs),rhsMax =  -6.26226848154943E-11  3.20368636306536E-02
 cg2d: Sum(rhs),rhsMax =  -6.54091780738497E-11  3.06322053119478E-02
 cg2d: Sum(rhs),rhsMax =  -6.44828634932537E-11  3.10196807907828E-02
 cg2d: Sum(rhs),rhsMax =  -6.36410923959829E-11  3.14028110587321E-02
 cg2d: Sum(rhs),rhsMax =  -6.23953111400510E-11  3.19698624522105E-02
 cg2d: Sum(rhs),rhsMax =  -5.84705617256986E-11  3.40627834244500E-02
 cg2d: Sum(rhs),rhsMax =  -5.50332002191567E-11  3.61395409360304E-02
 cg2d: Sum(rhs),rhsMax =  -5.19445597646495E-11  3.81992447041732E-02
 cg2d: Sum(rhs),rhsMax =  -4.92270668672745E-11  4.02409600991326E-02
 cg2d: Sum(rhs),rhsMax =  -4.67976768447897E-11  4.22637071837167E-02
 cg2d: Sum(rhs),rhsMax =  -4.46025438805009E-11  4.42664552940782E-02
 cg2d: Sum(rhs),rhsMax =  -4.26290114319272E-11  4.62481416076146E-02
 cg2d: Sum(rhs),rhsMax =  -4.08133526974552E-11  4.82076956748607E-02
 cg2d: Sum(rhs),rhsMax =  -3.91195964510871E-11  5.01440654116714E-02
 cg2d: Sum(rhs),rhsMax =  -3.75800501828394E-11  5.20562246615716E-02
 cg2d: Sum(rhs),rhsMax =  -3.60909080399097E-11  5.39431779216389E-02
 cg2d: Sum(rhs),rhsMax =  -3.48092665802824E-11  5.58039669047244E-02
 cg2d: Sum(rhs),rhsMax =  -3.36013439294902E-11  5.76376758556959E-02
 cg2d: Sum(rhs),rhsMax =  -3.24529292328180E-11  5.94434283017778E-02
 cg2d: Sum(rhs),rhsMax =  -3.14253068012249E-11  6.12203867758439E-02
 cg2d: Sum(rhs),rhsMax =  -3.04464231604129E-11  6.29677481897669E-02
 cg2d: Sum(rhs),rhsMax =  -2.96457303150532E-11  6.46847399992189E-02
 cg2d: Sum(rhs),rhsMax =  -2.88039592177824E-11  6.63706135014943E-02
 cg2d: Sum(rhs),rhsMax =  -2.80303558142236E-11  6.80246409019225E-02
 cg2d: Sum(rhs),rhsMax =  -2.72862843431199E-11  6.96461105376969E-02
 cg2d: Sum(rhs),rhsMax =  -2.65796273879459E-11  7.12343282141685E-02
 cg2d: Sum(rhs),rhsMax =  -2.59645638323036E-11  7.27886227022468E-02
 cg2d: Sum(rhs),rhsMax =  -2.53559395702041E-11  7.43083518002646E-02
 cg2d: Sum(rhs),rhsMax =  -2.47780684858867E-11  7.57929113188540E-02
 cg2d: Sum(rhs),rhsMax =  -2.42349473822401E-11  7.72417422860675E-02
 cg2d: Sum(rhs),rhsMax =  -2.37641017974966E-11  7.86543360502385E-02
 cg2d: Sum(rhs),rhsMax =  -2.31832331110127E-11  8.03677342618567E-02
 cg2d: Sum(rhs),rhsMax =  -2.26449969886744E-11  8.20740459115809E-02
 cg2d: Sum(rhs),rhsMax =  -2.21722640247890E-11  8.37351144458177E-02
 cg2d: Sum(rhs),rhsMax =  -2.16487938686782E-11  8.53502924088510E-02
 cg2d: Sum(rhs),rhsMax =  -2.12253548070862E-11  8.69189332059166E-02
 cg2d: Sum(rhs),rhsMax =  -2.08332240347886E-11  8.84403903453795E-02
 cg2d: Sum(rhs),rhsMax =  -2.04276595638930E-11  8.99140190777433E-02
 cg2d: Sum(rhs),rhsMax =  -2.00879313183577E-11  9.13391806426581E-02
 cg2d: Sum(rhs),rhsMax =  -1.97326599504777E-11  9.27152489075224E-02
 cg2d: Sum(rhs),rhsMax =  -1.93390858882481E-11  9.40416200617273E-02
 cg2d: Sum(rhs),rhsMax =  -1.90474302996790E-11  9.53177211205650E-02
 cg2d: Sum(rhs),rhsMax =  -1.87402315887653E-11  9.65430154668797E-02
 cg2d: Sum(rhs),rhsMax =  -1.84632309441213E-11  9.77170106265267E-02
 cg2d: Sum(rhs),rhsMax =  -1.81910042584832E-11  9.88392652716786E-02
 cg2d: Sum(rhs),rhsMax =  -1.79033454728028E-11  9.99093920988714E-02
 cg2d: Sum(rhs),rhsMax =  -1.76477721325341E-11  1.00927055210831E-01
 cg2d: Sum(rhs),rhsMax =  -1.74569247946010E-11  1.01891962578650E-01
 cg2d: Sum(rhs),rhsMax =  -1.72400982378917E-11  1.02803855117899E-01
 cg2d: Sum(rhs),rhsMax =  -1.70282676847933E-11  1.03662493982234E-01
 cg2d: Sum(rhs),rhsMax =  -1.68921543419742E-11  1.04467647432548E-01
 cg2d: Sum(rhs),rhsMax =  -1.66912039745171E-11  1.05219078468960E-01
 cg2d: Sum(rhs),rhsMax =  -1.65640834381975E-11  1.05916534372567E-01
 cg2d: Sum(rhs),rhsMax =  -1.64191993334839E-11  1.06559739265532E-01
 cg2d: Sum(rhs),rhsMax =  -1.62669877568078E-11  1.07148390632761E-01
 cg2d: Sum(rhs),rhsMax =  -1.61880508997569E-11  1.07682160508990E-01
 cg2d: Sum(rhs),rhsMax =  -1.60321755870996E-11  1.08160701081617E-01
 cg2d: Sum(rhs),rhsMax =  -1.59012802924963E-11  1.08583655048232E-01
 cg2d: Sum(rhs),rhsMax =  -1.58337787325991E-11  1.08950669584832E-01
 cg2d: Sum(rhs),rhsMax =  -1.57603929906713E-11  1.09261412807354E-01
 cg2d: Sum(rhs),rhsMax =  -1.56801238659909E-11  1.09515591447062E-01
 cg2d: Sum(rhs),rhsMax =  -1.55607748908437E-11  1.09712968404848E-01
(PID.TID 0000.0001)      cg2d_init_res =   2.89816578587837E-02
(PID.TID 0000.0001)      cg2d_iters(min,last) =      -1      36
(PID.TID 0000.0001)      cg2d_last_res =   7.73020017850531E-14
(PID.TID 0000.0001) // =======================================================
(PID.TID 0000.0001) // Begin MONITOR dynamic field statistics
(PID.TID 0000.0001) // =======================================================
(PID.TID 0000.0001) %MON time_tsnumber                =                  3840
(PID.TID 0000.0001) %MON time_secondsf                =   5.7600000000000E+04
(PID.TID 0000.0001) %MON dynstat_eta_max              =   2.4718747357226E-02
(PID.TID 0000.0001) %MON dynstat_eta_min              =  -2.0443521908433E-02
(PID.TID 0000.0001) %MON dynstat_eta_mean             =   3.6423665241044E-15
(PID.TID 0000.0001) %MON dynstat_eta_sd               =   1.6330775762856E-02
(PID.TID 0000.0001) %MON dynstat_eta_del2             =   2.1233493831655E-05
(PID.TID 0000.0001) %MON dynstat_uvel_max             =   1.1971671187700E+00
(PID.TID 0000.0001) %MON dynstat_uvel_min             =  -6.9964543102702E-01
(PID.TID 0000.0001) %MON dynstat_uvel_mean            =   3.4075821608258E-01
(PID.TID 0000.0001) %MON dynstat_uvel_sd              =   1.3610619157141E-01
(PID.TID 0000.0001) %MON dynstat_uvel_del2            =   6.7883410451033E-04
(PID.TID 0000.0001) %MON dynstat_vvel_max             =   0.0000000000000E+00
(PID.TID 0000.0001) %MON dynstat_vvel_min             =   0.0000000000000E+00
(PID.TID 0000.0001) %MON dynstat_vvel_mean            =   0.0000000000000E+00
(PID.TID 0000.0001) %MON dynstat_vvel_sd              =   0.0000000000000E+00
(PID.TID 0000.0001) %MON dynstat_vvel_del2            =   0.0000000000000E+00
(PID.TID 0000.0001) %MON dynstat_wvel_max             =   2.5261505882819E-02
(PID.TID 0000.0001) %MON dynstat_wvel_min             =  -2.2263135431839E-02
(PID.TID 0000.0001) %MON dynstat_wvel_mean            =   1.5530543463567E-22
(PID.TID 0000.0001) %MON dynstat_wvel_sd              =   1.8764552287077E-03
(PID.TID 0000.0001) %MON dynstat_wvel_del2            =   4.9875406685985E-05
(PID.TID 0000.0001) %MON dynstat_theta_max            =   1.5000000000009E+01
(PID.TID 0000.0001) %MON dynstat_theta_min            =   9.9999999999932E+00
(PID.TID 0000.0001) %MON dynstat_theta_mean           =   1.3285520417163E+01
(PID.TID 0000.0001) %MON dynstat_theta_sd             =   2.2693652145470E+00
(PID.TID 0000.0001) %MON dynstat_theta_del2           =   1.0425087187713E-03
(PID.TID 0000.0001) %MON dynstat_salt_max             =   3.5000000000000E+01
(PID.TID 0000.0001) %MON dynstat_salt_min             =   3.5000000000000E+01
(PID.TID 0000.0001) %MON dynstat_salt_mean            =   3.5000000000000E+01
(PID.TID 0000.0001) %MON dynstat_salt_sd              =   2.1316282072803E-14
(PID.TID 0000.0001) %MON dynstat_salt_del2            =   0.0000000000000E+00
(PID.TID 0000.0001) %MON dynstat_sst_max              =   1.5000000000000E+01
(PID.TID 0000.0001) %MON dynstat_sst_min              =   1.4999999999990E+01
(PID.TID 0000.0001) %MON dynstat_sst_mean             =   1.4999999999996E+01
(PID.TID 0000.0001) %MON dynstat_sst_sd               =   2.6870750786218E-12
(PID.TID 0000.0001) %MON dynstat_sst_del2             =   1.5683299413449E-14
(PID.TID 0000.0001) %MON dynstat_sss_max              =   3.5000000000000E+01
(PID.TID 0000.0001) %MON dynstat_sss_min              =   3.5000000000000E+01
(PID.TID 0000.0001) %MON dynstat_sss_mean             =   3.5000000000000E+01
(PID.TID 0000.0001) %MON dynstat_sss_sd               =   7.8159700933611E-14
(PID.TID 0000.0001) %MON dynstat_sss_del2             =   0.0000000000000E+00
(PID.TID 0000.0001) %MON forcing_qnet_max             =   0.0000000000000E+00
(PID.TID 0000.0001) %MON forcing_qnet_min             =   0.0000000000000E+00
(PID.TID 0000.0001) %MON forcing_qnet_mean            =   0.0000000000000E+00
(PID.TID 0000.0001) %MON forcing_qnet_sd              =   0.0000000000000E+00
(PID.TID 0000.0001) %MON forcing_qnet_del2            =   0.0000000000000E+00
(PID.TID 0000.0001) %MON forcing_qsw_max              =   0.0000000000000E+00
(PID.TID 0000.0001) %MON forcing_qsw_min              =   0.0000000000000E+00
(PID.TID 0000.0001) %MON forcing_qsw_mean             =   0.0000000000000E+00
(PID.TID 0000.0001) %MON forcing_qsw_sd               =   0.0000000000000E+00
(PID.TID 0000.0001) %MON forcing_qsw_del2             =   0.0000000000000E+00
(PID.TID 0000.0001) %MON forcing_empmr_max            =   0.0000000000000E+00
(PID.TID 0000.0001) %MON forcing_empmr_min            =   0.0000000000000E+00
(PID.TID 0000.0001) %MON forcing_empmr_mean           =   0.0000000000000E+00
(PID.TID 0000.0001) %MON forcing_empmr_sd             =   0.0000000000000E+00
(PID.TID 0000.0001) %MON forcing_empmr_del2           =   0.0000000000000E+00
(PID.TID 0000.0001) %MON forcing_fu_max               =   0.0000000000000E+00
(PID.TID 0000.0001) %MON forcing_fu_min               =   0.0000000000000E+00
(PID.TID 0000.0001) %MON forcing_fu_mean              =   0.0000000000000E+00
(PID.TID 0000.0001) %MON forcing_fu_sd                =   0.0000000000000E+00
(PID.TID 0000.0001) %MON forcing_fu_del2              =   0.0000000000000E+00
(PID.TID 0000.0001) %MON forcing_fv_max               =   0.0000000000000E+00
(PID.TID 0000.0001) %MON forcing_fv_min               =   0.0000000000000E+00
(PID.TID 0000.0001) %MON forcing_fv_mean              =   0.0000000000000E+00
(PID.TID 0000.0001) %MON forcing_fv_sd                =   0.0000000000000E+00
(PID.TID 0000.0001) %MON forcing_fv_del2              =   0.0000000000000E+00
(PID.TID 0000.0001) %MON advcfl_uvel_max              =   8.9787533907749E-02
(PID.TID 0000.0001) %MON advcfl_vvel_max              =   0.0000000000000E+00
(PID.TID 0000.0001) %MON advcfl_wvel_max              =   2.4189149824137E-01
(PID.TID 0000.0001) %MON advcfl_W_hf_max              =   2.4629871847271E-01
(PID.TID 0000.0001) %MON pe_b_mean                    =   6.6628543489780E-06
(PID.TID 0000.0001) %MON ke_max                       =   6.2815406633824E-01
(PID.TID 0000.0001) %MON ke_mean                      =   6.7414917165490E-02
(PID.TID 0000.0001) %MON ke_vol                       =   9.5889217545975E+10
(PID.TID 0000.0001) %MON vort_r_min                   =   0.0000000000000E+00
(PID.TID 0000.0001) %MON vort_r_max                   =   0.0000000000000E+00
(PID.TID 0000.0001) %MON vort_a_mean                  =   0.0000000000000E+00
(PID.TID 0000.0001) %MON vort_a_sd                    =   0.0000000000000E+00
(PID.TID 0000.0001) %MON vort_p_mean                  =   0.0000000000000E+00
(PID.TID 0000.0001) %MON vort_p_sd                    =   0.0000000000000E+00
(PID.TID 0000.0001) %MON surfExpan_theta_mean         =  -4.3411013731398E-18
(PID.TID 0000.0001) %MON surfExpan_salt_mean          =  -3.1657137550445E-19
(PID.TID 0000.0001) // =======================================================
(PID.TID 0000.0001) // End MONITOR dynamic field statistics
(PID.TID 0000.0001) // =======================================================
(PID.TID 0000.0001) // =======================================================
(PID.TID 0000.0001) // Begin OBCS MONITOR field statistics
(PID.TID 0000.0001) // =======================================================
(PID.TID 0000.0001) %MON obc_E_uVel_max               =   3.3404902334837E-01
(PID.TID 0000.0001) %MON obc_E_uVel_min               =   3.3404902334837E-01
(PID.TID 0000.0001) %MON obc_E_uVel_mean              =   3.3404902334837E-01
(PID.TID 0000.0001) %MON obc_E_uVel_sd                =   8.3300023432813E-09
(PID.TID 0000.0001) %MON obc_E_uVel_Int               =   3.3404902334837E+05
(PID.TID 0000.0001) %MON obc_W_uVel_max               =   3.3404902334837E-01
(PID.TID 0000.0001) %MON obc_W_uVel_min               =   3.3404902334837E-01
(PID.TID 0000.0001) %MON obc_W_uVel_mean              =   3.3404902334837E-01
(PID.TID 0000.0001) %MON obc_W_uVel_sd                =   8.3300023432813E-09
(PID.TID 0000.0001) %MON obc_W_uVel_Int               =   3.3404902334837E+05
(PID.TID 0000.0001) // =======================================================
(PID.TID 0000.0001) // End OBCS MONITOR field statistics
(PID.TID 0000.0001) // =======================================================
 cg2d: Sum(rhs),rhsMax =  -1.55375712296291E-11  1.09853378901567E-01
 cg2d: Sum(rhs),rhsMax =  -1.54605217517201E-11  1.09936744129313E-01
 cg2d: Sum(rhs),rhsMax =  -1.54533053020600E-11  1.09963081464975E-01
 cg2d: Sum(rhs),rhsMax =  -1.54370960459005E-11  1.09932510602683E-01
 cg2d: Sum(rhs),rhsMax =  -1.54630752646767E-11  1.09845255426066E-01
 cg2d: Sum(rhs),rhsMax =  -1.54548596142945E-11  1.09701641538589E-01
 cg2d: Sum(rhs),rhsMax =  -1.54357637782709E-11  1.09502089560250E-01
 cg2d: Sum(rhs),rhsMax =  -1.54138923846858E-11  1.09247104656717E-01
 cg2d: Sum(rhs),rhsMax =  -1.54471990754246E-11  1.08937262764944E-01
 cg2d: Sum(rhs),rhsMax =  -1.54832813237249E-11  1.08573194026816E-01
 cg2d: Sum(rhs),rhsMax =  -1.54686263797998E-11  1.08155563964772E-01
 cg2d: Sum(rhs),rhsMax =  -1.56153978636553E-11  1.07685053944245E-01
 cg2d: Sum(rhs),rhsMax =  -1.57652779719797E-11  1.07162341495606E-01
 cg2d: Sum(rhs),rhsMax =  -1.59126045673474E-11  1.06588081466115E-01
 cg2d: Sum(rhs),rhsMax =  -1.61328728154331E-11  1.05962889170530E-01
 cg2d: Sum(rhs),rhsMax =  -1.63360436289395E-11  1.05287326616185E-01
 cg2d: Sum(rhs),rhsMax =  -1.65566449439325E-11  1.04561892774197E-01
 cg2d: Sum(rhs),rhsMax =  -1.67619251811857E-11  1.03787018678506E-01
 cg2d: Sum(rhs),rhsMax =  -1.69405600658479E-11  1.02963067861544E-01
 cg2d: Sum(rhs),rhsMax =  -1.71239689095160E-11  1.02090342286780E-01
 cg2d: Sum(rhs),rhsMax =  -1.73188130503377E-11  1.01169093538810E-01
 cg2d: Sum(rhs),rhsMax =  -1.75567338445148E-11  1.00199538753211E-01
 cg2d: Sum(rhs),rhsMax =  -1.78244086157520E-11  9.91818798493755E-02
 cg2d: Sum(rhs),rhsMax =  -1.80929715654088E-11  9.81163249135931E-02
 cg2d: Sum(rhs),rhsMax =  -1.82830417472246E-11  9.70031100941097E-02
 cg2d: Sum(rhs),rhsMax =  -1.85995663315452E-11  9.58425204279403E-02
 cg2d: Sum(rhs),rhsMax =  -1.88896676078798E-11  9.46349082476703E-02
 cg2d: Sum(rhs),rhsMax =  -1.92096338835768E-11  9.33807072096907E-02
 cg2d: Sum(rhs),rhsMax =  -1.95855553997148E-11  9.20804414615619E-02
 cg2d: Sum(rhs),rhsMax =  -1.99275040912994E-11  9.07347288471437E-02
 cg2d: Sum(rhs),rhsMax =  -2.03315142499605E-11  8.93442777897204E-02
 cg2d: Sum(rhs),rhsMax =  -2.07884820468962E-11  8.79098783102467E-02
 cg2d: Sum(rhs),rhsMax =  -2.12495576690230E-11  8.64323879334676E-02
 cg2d: Sum(rhs),rhsMax =  -2.17323936624325E-11  8.49127133192069E-02
 cg2d: Sum(rhs),rhsMax =  -2.21855867010845E-11  8.33517889277584E-02
 cg2d: Sum(rhs),rhsMax =  -2.27399210572798E-11  8.17505541250173E-02
 cg2d: Sum(rhs),rhsMax =  -2.32843744285560E-11  8.01099301680832E-02
 cg2d: Sum(rhs),rhsMax =  -2.38175035249810E-11  7.84307985844886E-02
 cg2d: Sum(rhs),rhsMax =  -2.44164688467663E-11  7.67139824706574E-02
 cg2d: Sum(rhs),rhsMax =  -2.50924836464606E-11  7.49602320939874E-02
 cg2d: Sum(rhs),rhsMax =  -2.57700527583893E-11  7.31702158801557E-02
 cg2d: Sum(rhs),rhsMax =  -2.64587241005643E-11  7.13445174489773E-02
 cg2d: Sum(rhs),rhsMax =  -2.72349920393822E-11  6.94836390138870E-02
 cg2d: Sum(rhs),rhsMax =  -2.80580003675368E-11  6.75880105206521E-02
 cg2d: Sum(rhs),rhsMax =  -2.88596924136186E-11  6.59235725043241E-02
 cg2d: Sum(rhs),rhsMax =  -2.96727087345516E-11  6.43082997257211E-02
 cg2d: Sum(rhs),rhsMax =  -3.04980485310580E-11  6.26667679441217E-02
 cg2d: Sum(rhs),rhsMax =  -3.14537285106553E-11  6.09999847927240E-02
 cg2d: Sum(rhs),rhsMax =  -3.23563398296756E-11  5.93089519069739E-02
 cg2d: Sum(rhs),rhsMax =  -3.34158256620753E-11  5.75946649570964E-02
 cg2d: Sum(rhs),rhsMax =  -3.46076500790105E-11  5.58580877287520E-02
 cg2d: Sum(rhs),rhsMax =  -3.58543195133620E-11  5.41001271990072E-02
 cg2d: Sum(rhs),rhsMax =  -3.71822572731162E-11  5.23216197867690E-02
 cg2d: Sum(rhs),rhsMax =  -3.86312093425545E-11  5.05233361624877E-02
 cg2d: Sum(rhs),rhsMax =  -4.01864097554494E-11  4.87059667595444E-02
 cg2d: Sum(rhs),rhsMax =  -4.19203560753090E-11  4.68701609575519E-02
 cg2d: Sum(rhs),rhsMax =  -4.36782832125004E-11  4.50165408111604E-02
 cg2d: Sum(rhs),rhsMax =  -4.56350512934023E-11  4.31457044188566E-02
 cg2d: Sum(rhs),rhsMax =  -4.77518025121526E-11  4.12582504035598E-02
 cg2d: Sum(rhs),rhsMax =  -5.01392261043065E-11  3.93547774373615E-02
 cg2d: Sum(rhs),rhsMax =  -5.27861088173154E-11  3.74358752653216E-02
 cg2d: Sum(rhs),rhsMax =  -5.56973356324875E-11  3.55021454233771E-02
 cg2d: Sum(rhs),rhsMax =  -5.89982507293030E-11  3.35542146056822E-02
 cg2d: Sum(rhs),rhsMax =  -6.27621288273872E-11  3.15927451728652E-02
 cg2d: Sum(rhs),rhsMax =  -6.42006448003940E-11  3.09547417983700E-02
 cg2d: Sum(rhs),rhsMax =  -6.50314246897210E-11  3.05918820160505E-02
 cg2d: Sum(rhs),rhsMax =  -6.59025056748419E-11  3.02258219311832E-02
 cg2d: Sum(rhs),rhsMax =  -6.67862432024435E-11  2.98568055492200E-02
 cg2d: Sum(rhs),rhsMax =  -6.77313205521557E-11  2.94851168097603E-02
 cg2d: Sum(rhs),rhsMax =  -6.86853351972161E-11  2.91110689180989E-02
 cg2d: Sum(rhs),rhsMax =  -6.46970810258551E-11  3.09377311392505E-02
 cg2d: Sum(rhs),rhsMax =  -5.95841292971855E-11  3.36402627077086E-02
 cg2d: Sum(rhs),rhsMax =  -5.51561539496870E-11  3.64119363336988E-02
 cg2d: Sum(rhs),rhsMax =  -5.11670497638228E-11  3.92266067236006E-02
 cg2d: Sum(rhs),rhsMax =  -4.77445999402804E-11  4.21029913278737E-02
 cg2d: Sum(rhs),rhsMax =  -4.46790104913219E-11  4.50460448298599E-02
 cg2d: Sum(rhs),rhsMax =  -4.18894918752244E-11  4.80465127398406E-02
 cg2d: Sum(rhs),rhsMax =  -3.93878540894121E-11  5.11697097890131E-02
 cg2d: Sum(rhs),rhsMax =  -3.71513930730316E-11  5.43602209153543E-02
 cg2d: Sum(rhs),rhsMax =  -3.51671469722703E-11  5.75533124271349E-02
 cg2d: Sum(rhs),rhsMax =  -3.34427485704225E-11  6.07470445242552E-02
 cg2d: Sum(rhs),rhsMax =  -3.18203796645378E-11  6.39394754630741E-02
 cg2d: Sum(rhs),rhsMax =  -3.03603253648532E-11  6.71286762709390E-02
 cg2d: Sum(rhs),rhsMax =  -2.92002533264224E-11  7.03127432410431E-02
 cg2d: Sum(rhs),rhsMax =  -2.80678258413047E-11  7.34898078645726E-02
 cg2d: Sum(rhs),rhsMax =  -2.70102828991980E-11  7.66580440955536E-02
 cg2d: Sum(rhs),rhsMax =  -2.60105270655231E-11  7.98156730258018E-02
 cg2d: Sum(rhs),rhsMax =  -2.51286214059121E-11  8.29609651977324E-02
 cg2d: Sum(rhs),rhsMax =  -2.43041697878255E-11  8.60922409041578E-02
 cg2d: Sum(rhs),rhsMax =  -2.35434449713523E-11  8.92078689032903E-02
 cg2d: Sum(rhs),rhsMax =  -2.28397856183449E-11  9.23062640132166E-02
 cg2d: Sum(rhs),rhsMax =  -2.21666018873634E-11  9.53858840453331E-02
 cg2d: Sum(rhs),rhsMax =  -2.15492068633694E-11  9.84452264961689E-02
 cg2d: Sum(rhs),rhsMax =  -2.09683381768855E-11  1.01482825350500E-01
 cg2d: Sum(rhs),rhsMax =  -2.04518624258299E-11  1.04497248265822E-01
 cg2d: Sum(rhs),rhsMax =  -1.99167349279605E-11  1.07487094319295E-01
 cg2d: Sum(rhs),rhsMax =  -1.94384508489520E-11  1.10450992412755E-01
 cg2d: Sum(rhs),rhsMax =  -1.89891435908862E-11  1.13387600357250E-01
 cg2d: Sum(rhs),rhsMax =  -1.85669257746213E-11  1.16295604601313E-01
 cg2d: Sum(rhs),rhsMax =  -1.81819004296813E-11  1.19173720529171E-01
 cg2d: Sum(rhs),rhsMax =  -1.78124182070860E-11  1.22020693235948E-01
 cg2d: Sum(rhs),rhsMax =  -1.74468217650769E-11  1.24835298681404E-01
 cg2d: Sum(rhs),rhsMax =  -1.71347380728548E-11  1.27616345133530E-01
 cg2d: Sum(rhs),rhsMax =  -1.67986735633008E-11  1.30362674828126E-01
 cg2d: Sum(rhs),rhsMax =  -1.65584213007719E-11  1.33073165768422E-01
 cg2d: Sum(rhs),rhsMax =  -1.63252744656006E-11  1.35746733600049E-01
 cg2d: Sum(rhs),rhsMax =  -1.61018975930460E-11  1.38382333490046E-01
 cg2d: Sum(rhs),rhsMax =  -1.58852930809417E-11  1.40978961922456E-01
 cg2d: Sum(rhs),rhsMax =  -1.57202029171799E-11  1.43535658299178E-01
 cg2d: Sum(rhs),rhsMax =  -1.55679913405038E-11  1.46051506209068E-01
 cg2d: Sum(rhs),rhsMax =  -1.53698165306082E-11  1.48525634207418E-01
 cg2d: Sum(rhs),rhsMax =  -1.51774148804407E-11  1.50957215938245E-01
 cg2d: Sum(rhs),rhsMax =  -1.49472656474359E-11  1.53345469437464E-01
 cg2d: Sum(rhs),rhsMax =  -1.47829526397913E-11  1.55689655484932E-01
 cg2d: Sum(rhs),rhsMax =  -1.46427314717812E-11  1.57989074916953E-01
 cg2d: Sum(rhs),rhsMax =  -1.45279344110349E-11  1.60243064876113E-01
 cg2d: Sum(rhs),rhsMax =  -1.43846046185558E-11  1.62450994056714E-01
 cg2d: Sum(rhs),rhsMax =  -1.42165168526276E-11  1.64612257088849E-01
 cg2d: Sum(rhs),rhsMax =  -1.41088252192390E-11  1.66726268285646E-01
 cg2d: Sum(rhs),rhsMax =  -1.39747102778642E-11  1.68792455041788E-01
 cg2d: Sum(rhs),rhsMax =  -1.38595801502106E-11  1.70810251216790E-01
 cg2d: Sum(rhs),rhsMax =  -1.37352351714526E-11  1.72779090857654E-01
 cg2d: Sum(rhs),rhsMax =  -1.36615163626175E-11  1.74698402596938E-01
 cg2d: Sum(rhs),rhsMax =  -1.35359501385324E-11  1.76567605018473E-01
 cg2d: Sum(rhs),rhsMax =  -1.34268152152117E-11  1.78386103217948E-01
 cg2d: Sum(rhs),rhsMax =  -1.33447697336919E-11  1.80153286694150E-01
 cg2d: Sum(rhs),rhsMax =  -1.32530653118579E-11  1.81868528619474E-01
 cg2d: Sum(rhs),rhsMax =  -1.31640254252829E-11  1.83531186447419E-01
 cg2d: Sum(rhs),rhsMax =  -1.30688793120726E-11  1.85140603734858E-01
 cg2d: Sum(rhs),rhsMax =  -1.30059296665763E-11  1.86696113006714E-01
 cg2d: Sum(rhs),rhsMax =  -1.29110055979709E-11  1.88197039421236E-01
 cg2d: Sum(rhs),rhsMax =  -1.28522747999682E-11  1.89642705015304E-01
 cg2d: Sum(rhs),rhsMax =  -1.27727828314050E-11  1.91032433299975E-01
 cg2d: Sum(rhs),rhsMax =  -1.27348132039629E-11  1.92365553990170E-01
 cg2d: Sum(rhs),rhsMax =  -1.26667565325533E-11  1.93641407705230E-01
 cg2d: Sum(rhs),rhsMax =  -1.26247901022225E-11  1.94859350528245E-01
 cg2d: Sum(rhs),rhsMax =  -1.25496280034554E-11  1.96018758352671E-01
 cg2d: Sum(rhs),rhsMax =  -1.25616184121213E-11  1.97119030927416E-01
 cg2d: Sum(rhs),rhsMax =  -1.25790489136079E-11  1.98159595630674E-01
 cg2d: Sum(rhs),rhsMax =  -1.25582877430475E-11  1.99139910984486E-01
 cg2d: Sum(rhs),rhsMax =  -1.25703891740159E-11  2.00059469907034E-01
 cg2d: Sum(rhs),rhsMax =  -1.25440768883323E-11  2.00917802696729E-01
 cg2d: Sum(rhs),rhsMax =  -1.25442989329372E-11  2.01714479731423E-01
 cg2d: Sum(rhs),rhsMax =  -1.25389698624190E-11  2.02449113852318E-01
 cg2d: Sum(rhs),rhsMax =  -1.25633947689607E-11  2.03121362408607E-01
 cg2d: Sum(rhs),rhsMax =  -1.25504051595726E-11  2.03730928848756E-01
 cg2d: Sum(rhs),rhsMax =  -1.25399690631411E-11  2.04277563849662E-01
 cg2d: Sum(rhs),rhsMax =  -1.25370824832771E-11  2.04761065928546E-01
 cg2d: Sum(rhs),rhsMax =  -1.25445209775421E-11  2.05181281484751E-01
 cg2d: Sum(rhs),rhsMax =  -1.25291998998023E-11  2.05538104254527E-01
 cg2d: Sum(rhs),rhsMax =  -1.25693899732937E-11  2.05831474179755E-01
 cg2d: Sum(rhs),rhsMax =  -1.25930377237182E-11  2.06061375708788E-01
 cg2d: Sum(rhs),rhsMax =  -1.26556543023071E-11  2.06227835618361E-01
 cg2d: Sum(rhs),rhsMax =  -1.25914834114838E-11  2.06330920413334E-01
 cg2d: Sum(rhs),rhsMax =  -1.25511823156899E-11  2.06370733351426E-01
 cg2d: Sum(rhs),rhsMax =  -1.25189858479757E-11  2.06347411360824E-01
 cg2d: Sum(rhs),rhsMax =  -1.25108812198960E-11  2.06261121822833E-01
 cg2d: Sum(rhs),rhsMax =  -1.24894539155207E-11  2.06112059330564E-01
 cg2d: Sum(rhs),rhsMax =  -1.24714683025218E-11  2.05900442517806E-01
 cg2d: Sum(rhs),rhsMax =  -1.24075194563034E-11  2.05626511043507E-01
 cg2d: Sum(rhs),rhsMax =  -1.23682175612316E-11  2.05290522763736E-01
 cg2d: Sum(rhs),rhsMax =  -1.23283605546476E-11  2.04892751146997E-01
 cg2d: Sum(rhs),rhsMax =  -1.23409060748259E-11  2.04433483014054E-01
 cg2d: Sum(rhs),rhsMax =  -1.23424603870603E-11  2.03913016466000E-01
 cg2d: Sum(rhs),rhsMax =  -1.23270282870180E-11  2.03331659097632E-01
 cg2d: Sum(rhs),rhsMax =  -1.23121512984881E-11  2.02689726584184E-01
 cg2d: Sum(rhs),rhsMax =  -1.23067112056674E-11  2.01987541623418E-01
 cg2d: Sum(rhs),rhsMax =  -1.23271393093205E-11  2.01225433481678E-01
 cg2d: Sum(rhs),rhsMax =  -1.22937215962793E-11  2.00403738076728E-01
 cg2d: Sum(rhs),rhsMax =  -1.22720722472991E-11  1.99522798692917E-01
 cg2d: Sum(rhs),rhsMax =  -1.22926113732547E-11  1.98582967478670E-01
 cg2d: Sum(rhs),rhsMax =  -1.22756249609779E-11  1.97584607830044E-01
 cg2d: Sum(rhs),rhsMax =  -1.22611920616578E-11  1.96528097726991E-01
 cg2d: Sum(rhs),rhsMax =  -1.22638565969169E-11  1.95413834034999E-01
 cg2d: Sum(rhs),rhsMax =  -1.22519772105534E-11  1.94242237707246E-01
 cg2d: Sum(rhs),rhsMax =  -1.22335475083446E-11  1.93013759746003E-01
 cg2d: Sum(rhs),rhsMax =  -1.22643006861267E-11  1.91728887779023E-01
 cg2d: Sum(rhs),rhsMax =  -1.22915011502300E-11  1.90388152709847E-01
 cg2d: Sum(rhs),rhsMax =  -1.23310250899067E-11  1.88992135252852E-01
 cg2d: Sum(rhs),rhsMax =  -1.23829835274591E-11  1.87541471934043E-01
 cg2d: Sum(rhs),rhsMax =  -1.24398269463200E-11  1.86036860085325E-01
 cg2d: Sum(rhs),rhsMax =  -1.25200960710004E-11  1.84479061388922E-01
 cg2d: Sum(rhs),rhsMax =  -1.25606192113992E-11  1.82868903744333E-01
 cg2d: Sum(rhs),rhsMax =  -1.26461063842953E-11  1.81207281120772E-01
 cg2d: Sum(rhs),rhsMax =  -1.27503563263076E-11  1.79495151196900E-01
 cg2d: Sum(rhs),rhsMax =  -1.28056454329339E-11  1.77733530807908E-01
 cg2d: Sum(rhs),rhsMax =  -1.28663746323809E-11  1.75923489358361E-01
 cg2d: Sum(rhs),rhsMax =  -1.29483090915983E-11  1.74066140496281E-01
 cg2d: Sum(rhs),rhsMax =  -1.30587762825485E-11  1.72162632450703E-01
 cg2d: Sum(rhs),rhsMax =  -1.31608057785115E-11  1.70214137499210E-01
 cg2d: Sum(rhs),rhsMax =  -1.32309718736678E-11  1.68221841128188E-01
 cg2d: Sum(rhs),rhsMax =  -1.33614230790613E-11  1.66186931375820E-01
 cg2d: Sum(rhs),rhsMax =  -1.34712241361967E-11  1.64110588851683E-01
 cg2d: Sum(rhs),rhsMax =  -1.35846889293134E-11  1.61993977859380E-01
 cg2d: Sum(rhs),rhsMax =  -1.36795019756164E-11  1.59838238953996E-01
 cg2d: Sum(rhs),rhsMax =  -1.38455913401003E-11  1.57644483154471E-01
 cg2d: Sum(rhs),rhsMax =  -1.39522837727668E-11  1.55413787915338E-01
 cg2d: Sum(rhs),rhsMax =  -1.40946143645237E-11  1.53147194799765E-01
 cg2d: Sum(rhs),rhsMax =  -1.42472700304097E-11  1.50845708910424E-01
 cg2d: Sum(rhs),rhsMax =  -1.43900447113765E-11  1.48510299785501E-01
 cg2d: Sum(rhs),rhsMax =  -1.45444767341019E-11  1.46141903544092E-01
 cg2d: Sum(rhs),rhsMax =  -1.47478695922132E-11  1.43741426043715E-01
 cg2d: Sum(rhs),rhsMax =  -1.48970835667228E-11  1.41309746839247E-01
 cg2d: Sum(rhs),rhsMax =  -1.50937040643839E-11  1.38847723661955E-01
 cg2d: Sum(rhs),rhsMax =  -1.52716728152313E-11  1.36356197250671E-01
 cg2d: Sum(rhs),rhsMax =  -1.54569690380413E-11  1.33835996351198E-01
 cg2d: Sum(rhs),rhsMax =  -1.56707979925841E-11  1.31287942727713E-01
 cg2d: Sum(rhs),rhsMax =  -1.59637858487827E-11  1.28712856059190E-01
 cg2d: Sum(rhs),rhsMax =  -1.62234670142425E-11  1.26111558621370E-01
 cg2d: Sum(rhs),rhsMax =  -1.65372160410016E-11  1.23484879678587E-01
 cg2d: Sum(rhs),rhsMax =  -1.68477454209892E-11  1.20833659529498E-01
 cg2d: Sum(rhs),rhsMax =  -1.71542779980882E-11  1.18158753161993E-01
 cg2d: Sum(rhs),rhsMax =  -1.75353065401396E-11  1.15461033500966E-01
 cg2d: Sum(rhs),rhsMax =  -1.79078973872038E-11  1.12741394239443E-01
 cg2d: Sum(rhs),rhsMax =  -1.82699411155340E-11  1.10000752235620E-01
 cg2d: Sum(rhs),rhsMax =  -1.86781701216887E-11  1.07240049484296E-01
 cg2d: Sum(rhs),rhsMax =  -1.91022753170955E-11  1.04460254622207E-01
 cg2d: Sum(rhs),rhsMax =  -1.95727323237804E-11  1.01662364044885E-01
 cg2d: Sum(rhs),rhsMax =  -2.00671146366460E-11  9.88474026277463E-02
 cg2d: Sum(rhs),rhsMax =  -2.06112349410148E-11  9.60164240541609E-02
 cg2d: Sum(rhs),rhsMax =  -2.11556328011397E-11  9.31705106926446E-02
 cg2d: Sum(rhs),rhsMax =  -2.17630913290634E-11  9.03107730241181E-02
 cg2d: Sum(rhs),rhsMax =  -2.24145146887622E-11  8.74383486181924E-02
 cg2d: Sum(rhs),rhsMax =  -2.31109575921096E-11  8.45544006327456E-02
 cg2d: Sum(rhs),rhsMax =  -2.38525310614079E-11  8.16601158098416E-02
 cg2d: Sum(rhs),rhsMax =  -2.46664910719119E-11  7.87567019586896E-02
 cg2d: Sum(rhs),rhsMax =  -2.55270249382988E-11  7.58453849235015E-02
 cg2d: Sum(rhs),rhsMax =  -2.64501198721234E-11  7.29274051035062E-02
 cg2d: Sum(rhs),rhsMax =  -2.74352762730246E-11  7.00040135801678E-02
 cg2d: Sum(rhs),rhsMax =  -2.85592660631551E-11  6.70764679508539E-02
 cg2d: Sum(rhs),rhsMax =  -2.97841751262240E-11  6.41460280142995E-02
 cg2d: Sum(rhs),rhsMax =  -3.11122239082806E-11  6.12139514977137E-02
 cg2d: Sum(rhs),rhsMax =  -3.25528215494586E-11  5.82814900056540E-02
 cg2d: Sum(rhs),rhsMax =  -3.41293382444263E-11  5.53498853827289E-02
 cg2d: Sum(rhs),rhsMax =  -3.59235141633718E-11  5.24203667006530E-02
 cg2d: Sum(rhs),rhsMax =  -3.79118819671120E-11  4.94941480439078E-02
 cg2d: Sum(rhs),rhsMax =  -4.01521021292650E-11  4.65724272208877E-02
 cg2d: Sum(rhs),rhsMax =  -4.27483118348171E-11  4.36563854891943E-02
 cg2d: Sum(rhs),rhsMax =  -4.57158061406560E-11  4.07471883230738E-02
 cg2d: Sum(rhs),rhsMax =  -4.91774676536494E-11  3.78459871830008E-02
 cg2d: Sum(rhs),rhsMax =  -5.31675259374254E-11  3.49539221802009E-02
 cg2d: Sum(rhs),rhsMax =  -5.79031822489640E-11  3.20721254681315E-02
 cg2d: Sum(rhs),rhsMax =  -5.74144620735240E-11  3.22756848056700E-02
 cg2d: Sum(rhs),rhsMax =  -5.65927305018477E-11  3.26887346295777E-02
 cg2d: Sum(rhs),rhsMax =  -5.58367796443804E-11  3.30987567351134E-02
 cg2d: Sum(rhs),rhsMax =  -5.27986543374936E-11  3.49407092511463E-02
 cg2d: Sum(rhs),rhsMax =  -5.00314234486154E-11  3.68363015107483E-02
 cg2d: Sum(rhs),rhsMax =  -4.75451900072699E-11  3.87154351752741E-02
 cg2d: Sum(rhs),rhsMax =  -4.52786697024976E-11  4.05770237867395E-02
 cg2d: Sum(rhs),rhsMax =  -4.32547331286059E-11  4.24200004082942E-02
 cg2d: Sum(rhs),rhsMax =  -4.13840073321126E-11  4.42433502440964E-02
 cg2d: Sum(rhs),rhsMax =  -3.97220034642487E-11  4.60461556193435E-02
 cg2d: Sum(rhs),rhsMax =  -3.81271680893747E-11  4.78275372423746E-02
 cg2d: Sum(rhs),rhsMax =  -3.66223718017977E-11  4.95866473748932E-02
 cg2d: Sum(rhs),rhsMax =  -3.52673446002427E-11  5.13226886313338E-02
 cg2d: Sum(rhs),rhsMax =  -3.40176775637246E-11  5.30349145560938E-02
 cg2d: Sum(rhs),rhsMax =  -3.28591598375283E-11  5.47226119069161E-02
 cg2d: Sum(rhs),rhsMax =  -3.17643689129454E-11  5.63851359192072E-02
 cg2d: Sum(rhs),rhsMax =  -3.07804892685226E-11  5.80219133728045E-02
 cg2d: Sum(rhs),rhsMax =  -2.98606694926207E-11  5.96324024103050E-02
 cg2d: Sum(rhs),rhsMax =  -2.89791524110683E-11  6.12521226727199E-02
 cg2d: Sum(rhs),rhsMax =  -2.81521472800250E-11  6.28530043548504E-02
 cg2d: Sum(rhs),rhsMax =  -2.73615574641894E-11  6.44249791004796E-02
 cg2d: Sum(rhs),rhsMax =  -2.66802135939770E-11  6.59675132817017E-02
 cg2d: Sum(rhs),rhsMax =  -2.59935406532463E-11  6.74800670136479E-02
 cg2d: Sum(rhs),rhsMax =  -2.53604914846051E-11  6.89621016058463E-02
 cg2d: Sum(rhs),rhsMax =  -2.47798448427261E-11  7.04130695666159E-02
 cg2d: Sum(rhs),rhsMax =  -2.42280639994874E-11  7.18324047413332E-02
 cg2d: Sum(rhs),rhsMax =  -2.36696218181009E-11  7.32195361949200E-02
 cg2d: Sum(rhs),rhsMax =  -2.31724639476738E-11  7.45738800019560E-02
 cg2d: Sum(rhs),rhsMax =  -2.26918484003136E-11  7.58948477227936E-02
 cg2d: Sum(rhs),rhsMax =  -2.22681872941166E-11  7.71818585763671E-02
 cg2d: Sum(rhs),rhsMax =  -2.18426388087778E-11  7.84343498326037E-02
 cg2d: Sum(rhs),rhsMax =  -2.14179785018587E-11  7.96517822391312E-02
 cg2d: Sum(rhs),rhsMax =  -2.10762518548790E-11  8.08336456438417E-02
 cg2d: Sum(rhs),rhsMax =  -2.07368566762511E-11  8.19794620633265E-02
 cg2d: Sum(rhs),rhsMax =  -2.04072314602399E-11  8.30887886924749E-02
 cg2d: Sum(rhs),rhsMax =  -1.99869010231168E-11  8.43635102408445E-02
 cg2d: Sum(rhs),rhsMax =  -1.96112015515837E-11  8.56730398036052E-02
 cg2d: Sum(rhs),rhsMax =  -1.92392768383343E-11  8.69368389300537E-02
 cg2d: Sum(rhs),rhsMax =  -1.88831172920345E-11  8.81545219713785E-02
 cg2d: Sum(rhs),rhsMax =  -1.85612636371957E-11  8.93257156335997E-02
 cg2d: Sum(rhs),rhsMax =  -1.82390769154495E-11  9.04500623481133E-02
 cg2d: Sum(rhs),rhsMax =  -1.79721793003296E-11  9.15272240975356E-02
 cg2d: Sum(rhs),rhsMax =  -1.77091674657959E-11  9.25568859623634E-02
 cg2d: Sum(rhs),rhsMax =  -1.74704695155015E-11  9.35387588346396E-02
 cg2d: Sum(rhs),rhsMax =  -1.72388769925647E-11  9.44725806452380E-02
 cg2d: Sum(rhs),rhsMax =  -1.70218283912504E-11  9.53581158495120E-02
 cg2d: Sum(rhs),rhsMax =  -1.68278724288484E-11  9.61951531011225E-02
 cg2d: Sum(rhs),rhsMax =  -1.66505698118158E-11  9.69835014918569E-02
 cg2d: Sum(rhs),rhsMax =  -1.64738223062955E-11  9.77229857543139E-02
 cg2d: Sum(rhs),rhsMax =  -1.63458135915562E-11  9.84134410516108E-02
 cg2d: Sum(rhs),rhsMax =  -1.61763935579984E-11  9.90547078120368E-02
 cg2d: Sum(rhs),rhsMax =  -1.60588209396906E-11  9.96466271098623E-02
 cg2d: Sum(rhs),rhsMax =  -1.59611213135236E-11  1.00189037141267E-01
 cg2d: Sum(rhs),rhsMax =  -1.58327795318769E-11  1.00681770917752E-01
 cg2d: Sum(rhs),rhsMax =  -1.57179824711307E-11  1.01124655309581E-01
 cg2d: Sum(rhs),rhsMax =  -1.56008539420327E-11  1.01517511307956E-01
 cg2d: Sum(rhs),rhsMax =  -1.54928292417367E-11  1.01860155548730E-01
 cg2d: Sum(rhs),rhsMax =  -1.53944634817549E-11  1.02152402333641E-01
 cg2d: Sum(rhs),rhsMax =  -1.52978740786125E-11  1.02394066541842E-01
 cg2d: Sum(rhs),rhsMax =  -1.52021728538898E-11  1.02584966883590E-01
 cg2d: Sum(rhs),rhsMax =  -1.51499923717324E-11  1.02724929108667E-01
 cg2d: Sum(rhs),rhsMax =  -1.51515466839669E-11  1.02813789154052E-01
 cg2d: Sum(rhs),rhsMax =  -1.51209045284872E-11  1.02851396234311E-01
 cg2d: Sum(rhs),rhsMax =  -1.50781609420392E-11  1.02837616192663E-01
 cg2d: Sum(rhs),rhsMax =  -1.50693901801446E-11  1.02772335214421E-01
 cg2d: Sum(rhs),rhsMax =  -1.50642831542314E-11  1.02655464001128E-01
 cg2d: Sum(rhs),rhsMax =  -1.50494061657014E-11  1.02486942509347E-01
 cg2d: Sum(rhs),rhsMax =  -1.50093271145124E-11  1.02266744876986E-01
 cg2d: Sum(rhs),rhsMax =  -1.50557344369417E-11  1.01994884040495E-01
 cg2d: Sum(rhs),rhsMax =  -1.51497703271275E-11  1.01671415650215E-01
 cg2d: Sum(rhs),rhsMax =  -1.53079771081366E-11  1.01296440908173E-01
 cg2d: Sum(rhs),rhsMax =  -1.54133372731735E-11  1.00870108163066E-01
 cg2d: Sum(rhs),rhsMax =  -1.55472301699433E-11  1.00392612783767E-01
 cg2d: Sum(rhs),rhsMax =  -1.56710200371890E-11  9.98641951750446E-02
 cg2d: Sum(rhs),rhsMax =  -1.57911461684535E-11  9.92851368888174E-02
 cg2d: Sum(rhs),rhsMax =  -1.59323665371858E-11  9.86557553230821E-02
 cg2d: Sum(rhs),rhsMax =  -1.61050062175150E-11  9.79763975128191E-02
 cg2d: Sum(rhs),rhsMax =  -1.62446722740128E-11  9.72474337641334E-02
 cg2d: Sum(rhs),rhsMax =  -1.64106506161943E-11  9.64692520960937E-02
 cg2d: Sum(rhs),rhsMax =  -1.65691904641108E-11  9.56422540048332E-02
 cg2d: Sum(rhs),rhsMax =  -1.67611480250685E-11  9.47668521594178E-02
 cg2d: Sum(rhs),rhsMax =  -1.69877445443944E-11  9.38434703588038E-02
 cg2d: Sum(rhs),rhsMax =  -1.71961334061166E-11  9.28725458169953E-02
 cg2d: Sum(rhs),rhsMax =  -1.74403824715341E-11  9.18545339890064E-02
 cg2d: Sum(rhs),rhsMax =  -1.77190484507150E-11  9.07899153150756E-02
 cg2d: Sum(rhs),rhsMax =  -1.79987136306181E-11  8.96792031928959E-02
 cg2d: Sum(rhs),rhsMax =  -1.83165704825683E-11  8.85229523035017E-02
 cg2d: Sum(rhs),rhsMax =  -1.86445303640426E-11  8.73217660826774E-02
 cg2d: Sum(rhs),rhsMax =  -1.89791515836646E-11  8.60763035302662E-02
 cg2d: Sum(rhs),rhsMax =  -1.93652871516292E-11  8.47872840670864E-02
 cg2d: Sum(rhs),rhsMax =  -1.97057925532818E-11  8.34554898976288E-02
 cg2d: Sum(rhs),rhsMax =  -2.00963690133449E-11  8.20817654198631E-02
 cg2d: Sum(rhs),rhsMax =  -2.04573025186505E-11  8.06670136852316E-02
 cg2d: Sum(rhs),rhsMax =  -2.08791872680081E-11  7.92121903199688E-02
 cg2d: Sum(rhs),rhsMax =  -2.13460360498630E-11  7.77182949528635E-02
 cg2d: Sum(rhs),rhsMax =  -2.18293161324823E-11  7.61863605207032E-02
 cg2d: Sum(rhs),rhsMax =  -2.23387974784828E-11  7.46174407455700E-02
 cg2d: Sum(rhs),rhsMax =  -2.28868035634378E-11  7.30125963942126E-02
 cg2d: Sum(rhs),rhsMax =  -2.34402497412134E-11  7.13728811983503E-02
 cg2d: Sum(rhs),rhsMax =  -2.41052733329639E-11  6.96993277840352E-02
 cg2d: Sum(rhs),rhsMax =  -2.47198927993963E-11  6.79929341741753E-02
 cg2d: Sum(rhs),rhsMax =  -2.53429499608160E-11  6.65626612217829E-02
 cg2d: Sum(rhs),rhsMax =  -2.59809951330681E-11  6.51192383681840E-02
 cg2d: Sum(rhs),rhsMax =  -2.66955346717168E-11  6.36486661177913E-02
 cg2d: Sum(rhs),rhsMax =  -2.74260614219202E-11  6.21516181974722E-02
 cg2d: Sum(rhs),rhsMax =  -2.81697998261166E-11  6.06288580676644E-02
 cg2d: Sum(rhs),rhsMax =  -2.90133472802268E-11  5.90812227571383E-02
 cg2d: Sum(rhs),rhsMax =  -2.98643332286019E-11  5.75096153534366E-02
 cg2d: Sum(rhs),rhsMax =  -3.08415515348770E-11  5.59149889820494E-02
 cg2d: Sum(rhs),rhsMax =  -3.18529647103105E-11  5.42983205081066E-02
 cg2d: Sum(rhs),rhsMax =  -3.29478666571958E-11  5.26605954744395E-02
 cg2d: Sum(rhs),rhsMax =  -3.41118244762129E-11  5.10027654041765E-02
 cg2d: Sum(rhs),rhsMax =  -3.53835849509210E-11  4.93257832211406E-02
 cg2d: Sum(rhs),rhsMax =  -3.66969787890525E-11  4.76306027142924E-02
 cg2d: Sum(rhs),rhsMax =  -3.80860898374635E-11  4.59181508634596E-02
 cg2d: Sum(rhs),rhsMax =  -3.96100929833665E-11  4.41893168037435E-02
 cg2d: Sum(rhs),rhsMax =  -4.13289402700912E-11  4.24449235669352E-02
 cg2d: Sum(rhs),rhsMax =  -4.31829016989127E-11  4.06857107990477E-02
 cg2d: Sum(rhs),rhsMax =  -4.52141657447669E-11  3.89123450783726E-02
 cg2d: Sum(rhs),rhsMax =  -4.74421613105847E-11  3.71254344046783E-02
 cg2d: Sum(rhs),rhsMax =  -4.99039698453885E-11  3.53255439852931E-02
 cg2d: Sum(rhs),rhsMax =  -5.26794163846489E-11  3.35131815332574E-02
 cg2d: Sum(rhs),rhsMax =  -5.40034683638169E-11  3.27384510974146E-02
 cg2d: Sum(rhs),rhsMax =  -5.47472067680133E-11  3.23371779813575E-02
 cg2d: Sum(rhs),rhsMax =  -5.55281376435346E-11  3.19335364244006E-02
 cg2d: Sum(rhs),rhsMax =  -5.62739854714778E-11  3.15276597478908E-02
 cg2d: Sum(rhs),rhsMax =  -5.71145908345727E-11  3.11196751925380E-02
 cg2d: Sum(rhs),rhsMax =  -5.79311043580333E-11  3.07097042665497E-02
 cg2d: Sum(rhs),rhsMax =  -5.86107828937088E-11  3.03969589478214E-02
 cg2d: Sum(rhs),rhsMax =  -5.42263178804347E-11  3.29197909084064E-02
 cg2d: Sum(rhs),rhsMax =  -5.03877495283689E-11  3.54857214497882E-02
 cg2d: Sum(rhs),rhsMax =  -4.69637384536981E-11  3.81150000540560E-02
 cg2d: Sum(rhs),rhsMax =  -4.39382636177599E-11  4.07947751266108E-02
 cg2d: Sum(rhs),rhsMax =  -4.12407052952091E-11  4.35232147003127E-02
 cg2d: Sum(rhs),rhsMax =  -3.87865295436995E-11  4.63518083342269E-02
 cg2d: Sum(rhs),rhsMax =  -3.65442676120153E-11  4.92567072139085E-02
 cg2d: Sum(rhs),rhsMax =  -3.45549144853408E-11  5.21665352953784E-02
 cg2d: Sum(rhs),rhsMax =  -3.28587157483184E-11  5.50802290366943E-02
 cg2d: Sum(rhs),rhsMax =  -3.12971037974563E-11  5.79966651637594E-02
 cg2d: Sum(rhs),rhsMax =  -2.96473956495902E-11  6.09146568785850E-02
 cg2d: Sum(rhs),rhsMax =  -2.83528200917260E-11  6.38329534945152E-02
 cg2d: Sum(rhs),rhsMax =  -2.71724864830958E-11  6.67502435021016E-02
 cg2d: Sum(rhs),rhsMax =  -2.60902965898424E-11  6.96651608368011E-02
 cg2d: Sum(rhs),rhsMax =  -2.48764897570197E-11  7.25762938673935E-02
 cg2d: Sum(rhs),rhsMax =  -2.40487629810104E-11  7.54821964441802E-02
 cg2d: Sum(rhs),rhsMax =  -2.32281416323588E-11  7.83814002146691E-02
 cg2d: Sum(rhs),rhsMax =  -2.24827934047767E-11  8.12724273523690E-02
 cg2d: Sum(rhs),rhsMax =  -2.17603712826531E-11  8.41538028305214E-02
 cg2d: Sum(rhs),rhsMax =  -2.10747530537958E-11  8.70240654416469E-02
 cg2d: Sum(rhs),rhsMax =  -2.04973815698395E-11  8.98817768983805E-02
 cg2d: Sum(rhs),rhsMax =  -1.98508431914490E-11  9.27255285362827E-02
 cg2d: Sum(rhs),rhsMax =  -1.93229321432398E-11  9.55539453573948E-02
 cg2d: Sum(rhs),rhsMax =  -1.88151716429275E-11  9.83656873849558E-02
 cg2d: Sum(rhs),rhsMax =  -1.83404402775977E-11  1.01159448525011E-01
 cg2d: Sum(rhs),rhsMax =  -1.79057879634570E-11  1.03933953329397E-01
 cg2d: Sum(rhs),rhsMax =  -1.73486780497001E-11  1.06687952209083E-01
 cg2d: Sum(rhs),rhsMax =  -1.69680935968586E-11  1.09420215744081E-01
 cg2d: Sum(rhs),rhsMax =  -1.65982783073559E-11  1.12129528769462E-01
 cg2d: Sum(rhs),rhsMax =  -1.62474478315744E-11  1.14814684886412E-01
 cg2d: Sum(rhs),rhsMax =  -1.59361412954695E-11  1.17474481960262E-01
 cg2d: Sum(rhs),rhsMax =  -1.56793467098737E-11  1.20107719036020E-01
 cg2d: Sum(rhs),rhsMax =  -1.53874690766997E-11  1.22713194939360E-01
 cg2d: Sum(rhs),rhsMax =  -1.51698653638732E-11  1.25289708656840E-01
 cg2d: Sum(rhs),rhsMax =  -1.49322776366034E-11  1.27836061427133E-01
 cg2d: Sum(rhs),rhsMax =  -1.47373224734793E-11  1.30351060333516E-01
 cg2d: Sum(rhs),rhsMax =  -1.45321532585285E-11  1.32833523078098E-01
 cg2d: Sum(rhs),rhsMax =  -1.43403067198733E-11  1.35282283527640E-01
 cg2d: Sum(rhs),rhsMax =  -1.41714417978278E-11  1.37696197611343E-01
 cg2d: Sum(rhs),rhsMax =  -1.39477318583658E-11  1.40074149144204E-01
 cg2d: Sum(rhs),rhsMax =  -1.38248301695398E-11  1.42415055200481E-01
 cg2d: Sum(rhs),rhsMax =  -1.36544109352599E-11  1.44717870730449E-01
 cg2d: Sum(rhs),rhsMax =  -1.35416122759580E-11  1.46981592197333E-01
 cg2d: Sum(rhs),rhsMax =  -1.33876243424425E-11  1.49205260103069E-01
 cg2d: Sum(rhs),rhsMax =  -1.32603927838204E-11  1.51387960351776E-01
 cg2d: Sum(rhs),rhsMax =  -1.31389343849264E-11  1.53528824478994E-01
 cg2d: Sum(rhs),rhsMax =  -1.30303545731181E-11  1.55627028835369E-01
 cg2d: Sum(rhs),rhsMax =  -1.29196653375629E-11  1.57681792856670E-01
 cg2d: Sum(rhs),rhsMax =  -1.27962085372246E-11  1.59692376578074E-01
 cg2d: Sum(rhs),rhsMax =  -1.26726407145838E-11  1.61658077561636E-01
 cg2d: Sum(rhs),rhsMax =  -1.26176846748649E-11  1.63578227404746E-01
 cg2d: Sum(rhs),rhsMax =  -1.25024435249088E-11  1.65452187988187E-01
 cg2d: Sum(rhs),rhsMax =  -1.24001919843408E-11  1.67279347608868E-01
 cg2d: Sum(rhs),rhsMax =  -1.23305810006968E-11  1.69059117111085E-01
 cg2d: Sum(rhs),rhsMax =  -1.22462040508253E-11  1.70790926148115E-01
 cg2d: Sum(rhs),rhsMax =  -1.21651577700277E-11  1.72474219654476E-01
 cg2d: Sum(rhs),rhsMax =  -1.21008758569019E-11  1.74108454613250E-01
 cg2d: Sum(rhs),rhsMax =  -1.20052856544817E-11  1.75693097184674E-01
 cg2d: Sum(rhs),rhsMax =  -1.19640963802681E-11  1.77227620259080E-01
 cg2d: Sum(rhs),rhsMax =  -1.18776100066498E-11  1.78711501478678E-01
 cg2d: Sum(rhs),rhsMax =  -1.18394183346027E-11  1.80144221800541E-01
 cg2d: Sum(rhs),rhsMax =  -1.17875709193527E-11  1.81525264589904E-01
 cg2d: Sum(rhs),rhsMax =  -1.17563736523607E-11  1.82854115253410E-01
 cg2d: Sum(rhs),rhsMax =  -1.18682841332429E-11  1.84130261415600E-01
 cg2d: Sum(rhs),rhsMax =  -1.16288090268313E-11  1.85353193586144E-01
 cg2d: Sum(rhs),rhsMax =  -1.16999743227097E-11  1.86522406285790E-01
 cg2d: Sum(rhs),rhsMax =  -1.17360565710101E-11  1.87637399581034E-01
 cg2d: Sum(rhs),rhsMax =  -1.17317267012140E-11  1.88697680960678E-01
 cg2d: Sum(rhs),rhsMax =  -1.17597043214346E-11  1.89702767434441E-01
 cg2d: Sum(rhs),rhsMax =  -1.17791332243655E-11  1.90652187812950E-01
 cg2d: Sum(rhs),rhsMax =  -1.17883480754699E-11  1.91545485096303E-01
 cg2d: Sum(rhs),rhsMax =  -1.18113296920797E-11  1.92382218912664E-01
 cg2d: Sum(rhs),rhsMax =  -1.18008935956482E-11  1.93161967961052E-01
 cg2d: Sum(rhs),rhsMax =  -1.17980070157842E-11  1.93884332429272E-01
 cg2d: Sum(rhs),rhsMax =  -1.18371978885534E-11  1.94548936374828E-01
 cg2d: Sum(rhs),rhsMax =  -1.18675069771257E-11  1.95155430087508E-01
 cg2d: Sum(rhs),rhsMax =  -1.18787202296744E-11  1.95703492385219E-01
 cg2d: Sum(rhs),rhsMax =  -1.18922649505748E-11  1.96192832888507E-01
 cg2d: Sum(rhs),rhsMax =  -1.20088383681605E-11  1.96623194272077E-01
 cg2d: Sum(rhs),rhsMax =  -1.19763088335390E-11  1.96994354514639E-01
 cg2d: Sum(rhs),rhsMax =  -1.19736442982799E-11  1.97306129106770E-01
 cg2d: Sum(rhs),rhsMax =  -1.19195764369806E-11  1.97558373188062E-01
 cg2d: Sum(rhs),rhsMax =  -1.18830500994704E-11  1.97750983585276E-01
 cg2d: Sum(rhs),rhsMax =  -1.18468568288677E-11  1.97883900721206E-01
 cg2d: Sum(rhs),rhsMax =  -1.18240972568628E-11  1.97957110306950E-01
 cg2d: Sum(rhs),rhsMax =  -1.18275389482392E-11  1.97970644915264E-01
 cg2d: Sum(rhs),rhsMax =  -1.18034471086048E-11  1.97924585308299E-01
 cg2d: Sum(rhs),rhsMax =  -1.18129950266166E-11  1.97819061465993E-01
 cg2d: Sum(rhs),rhsMax =  -1.18071108445861E-11  1.97654253285580E-01
 cg2d: Sum(rhs),rhsMax =  -1.18098864021476E-11  1.97430390912740E-01
 cg2d: Sum(rhs),rhsMax =  -1.17617027228789E-11  1.97147754658120E-01
 cg2d: Sum(rhs),rhsMax =  -1.17590381876198E-11  1.96806674442112E-01
 cg2d: Sum(rhs),rhsMax =  -1.17061915716477E-11  1.96407528730270E-01
 cg2d: Sum(rhs),rhsMax =  -1.16764375945877E-11  1.95950742779502E-01
 cg2d: Sum(rhs),rhsMax =  -1.16078258116659E-11  1.95436786149313E-01
 cg2d: Sum(rhs),rhsMax =  -1.15930598454383E-11  1.94866169481971E-01
 cg2d: Sum(rhs),rhsMax =  -1.15989440274689E-11  1.94239440506737E-01
 cg2d: Sum(rhs),rhsMax =  -1.15872866857103E-11  1.93557179197023E-01
 cg2d: Sum(rhs),rhsMax =  -1.16007203843083E-11  1.92819992293752E-01
 cg2d: Sum(rhs),rhsMax =  -1.15876197526177E-11  1.92028507128502E-01
 cg2d: Sum(rhs),rhsMax =  -1.15653042698227E-11  1.91183364950225E-01
 cg2d: Sum(rhs),rhsMax =  -1.15434328762376E-11  1.90285213983139E-01
 cg2d: Sum(rhs),rhsMax =  -1.15415454970957E-11  1.89334702488315E-01
 cg2d: Sum(rhs),rhsMax =  -1.14700471343099E-11  1.88332472128832E-01
 cg2d: Sum(rhs),rhsMax =  -1.14495080083543E-11  1.87279151946466E-01
 cg2d: Sum(rhs),rhsMax =  -1.14001030837585E-11  1.86175353244433E-01
 cg2d: Sum(rhs),rhsMax =  -1.15080167617521E-11  1.85021665635270E-01
 cg2d: Sum(rhs),rhsMax =  -1.15335518913184E-11  1.83818654525799E-01
 cg2d: Sum(rhs),rhsMax =  -1.15282228208002E-11  1.82566859975837E-01
(PID.TID 0000.0001)      cg2d_init_res =   4.06435390560266E-02
(PID.TID 0000.0001)      cg2d_iters(min,last) =      -1      36
(PID.TID 0000.0001)      cg2d_last_res =   9.34725846307107E-14
(PID.TID 0000.0001) // =======================================================
(PID.TID 0000.0001) // Begin MONITOR dynamic field statistics
(PID.TID 0000.0001) // =======================================================
(PID.TID 0000.0001) %MON time_tsnumber                =                  4320
(PID.TID 0000.0001) %MON time_secondsf                =   6.4800000000000E+04
(PID.TID 0000.0001) %MON dynstat_eta_max              =   3.0860516439971E-02
(PID.TID 0000.0001) %MON dynstat_eta_min              =  -2.3615407950825E-02
(PID.TID 0000.0001) %MON dynstat_eta_mean             =   4.4908065755039E-15
(PID.TID 0000.0001) %MON dynstat_eta_sd               =   1.8994856661504E-02
(PID.TID 0000.0001) %MON dynstat_eta_del2             =   1.9470028119729E-05
(PID.TID 0000.0001) %MON dynstat_uvel_max             =   1.2440139394085E+00
(PID.TID 0000.0001) %MON dynstat_uvel_min             =  -4.6735952934622E-01
(PID.TID 0000.0001) %MON dynstat_uvel_mean            =   3.4202024756645E-01
(PID.TID 0000.0001) %MON dynstat_uvel_sd              =   1.4348915242206E-01
(PID.TID 0000.0001) %MON dynstat_uvel_del2            =   6.6897066621921E-04
(PID.TID 0000.0001) %MON dynstat_vvel_max             =   0.0000000000000E+00
(PID.TID 0000.0001) %MON dynstat_vvel_min             =   0.0000000000000E+00
(PID.TID 0000.0001) %MON dynstat_vvel_mean            =   0.0000000000000E+00
(PID.TID 0000.0001) %MON dynstat_vvel_sd              =   0.0000000000000E+00
(PID.TID 0000.0001) %MON dynstat_vvel_del2            =   0.0000000000000E+00
(PID.TID 0000.0001) %MON dynstat_wvel_max             =   1.5937739901240E-02
(PID.TID 0000.0001) %MON dynstat_wvel_min             =  -2.5360649977871E-02
(PID.TID 0000.0001) %MON dynstat_wvel_mean            =   4.3732863168379E-20
(PID.TID 0000.0001) %MON dynstat_wvel_sd              =   1.7927859187311E-03
(PID.TID 0000.0001) %MON dynstat_wvel_del2            =   4.3787366723220E-05
(PID.TID 0000.0001) %MON dynstat_theta_max            =   1.5000000000010E+01
(PID.TID 0000.0001) %MON dynstat_theta_min            =   9.9999999999929E+00
(PID.TID 0000.0001) %MON dynstat_theta_mean           =   1.3268201136624E+01
(PID.TID 0000.0001) %MON dynstat_theta_sd             =   2.2659379616253E+00
(PID.TID 0000.0001) %MON dynstat_theta_del2           =   9.2930824717993E-04
(PID.TID 0000.0001) %MON dynstat_salt_max             =   3.5000000000000E+01
(PID.TID 0000.0001) %MON dynstat_salt_min             =   3.5000000000000E+01
(PID.TID 0000.0001) %MON dynstat_salt_mean            =   3.5000000000000E+01
(PID.TID 0000.0001) %MON dynstat_salt_sd              =   2.1316282072803E-14
(PID.TID 0000.0001) %MON dynstat_salt_del2            =   0.0000000000000E+00
(PID.TID 0000.0001) %MON dynstat_sst_max              =   1.5000000000000E+01
(PID.TID 0000.0001) %MON dynstat_sst_min              =   1.4999999999989E+01
(PID.TID 0000.0001) %MON dynstat_sst_mean             =   1.4999999999996E+01
(PID.TID 0000.0001) %MON dynstat_sst_sd               =   3.0233041205096E-12
(PID.TID 0000.0001) %MON dynstat_sst_del2             =   1.6849464319034E-14
(PID.TID 0000.0001) %MON dynstat_sss_max              =   3.5000000000000E+01
(PID.TID 0000.0001) %MON dynstat_sss_min              =   3.5000000000000E+01
(PID.TID 0000.0001) %MON dynstat_sss_mean             =   3.5000000000000E+01
(PID.TID 0000.0001) %MON dynstat_sss_sd               =   7.8159700933611E-14
(PID.TID 0000.0001) %MON dynstat_sss_del2             =   0.0000000000000E+00
(PID.TID 0000.0001) %MON forcing_qnet_max             =   0.0000000000000E+00
(PID.TID 0000.0001) %MON forcing_qnet_min             =   0.0000000000000E+00
(PID.TID 0000.0001) %MON forcing_qnet_mean            =   0.0000000000000E+00
(PID.TID 0000.0001) %MON forcing_qnet_sd              =   0.0000000000000E+00
(PID.TID 0000.0001) %MON forcing_qnet_del2            =   0.0000000000000E+00
(PID.TID 0000.0001) %MON forcing_qsw_max              =   0.0000000000000E+00
(PID.TID 0000.0001) %MON forcing_qsw_min              =   0.0000000000000E+00
(PID.TID 0000.0001) %MON forcing_qsw_mean             =   0.0000000000000E+00
(PID.TID 0000.0001) %MON forcing_qsw_sd               =   0.0000000000000E+00
(PID.TID 0000.0001) %MON forcing_qsw_del2             =   0.0000000000000E+00
(PID.TID 0000.0001) %MON forcing_empmr_max            =   0.0000000000000E+00
(PID.TID 0000.0001) %MON forcing_empmr_min            =   0.0000000000000E+00
(PID.TID 0000.0001) %MON forcing_empmr_mean           =   0.0000000000000E+00
(PID.TID 0000.0001) %MON forcing_empmr_sd             =   0.0000000000000E+00
(PID.TID 0000.0001) %MON forcing_empmr_del2           =   0.0000000000000E+00
(PID.TID 0000.0001) %MON forcing_fu_max               =   0.0000000000000E+00
(PID.TID 0000.0001) %MON forcing_fu_min               =   0.0000000000000E+00
(PID.TID 0000.0001) %MON forcing_fu_mean              =   0.0000000000000E+00
(PID.TID 0000.0001) %MON forcing_fu_sd                =   0.0000000000000E+00
(PID.TID 0000.0001) %MON forcing_fu_del2              =   0.0000000000000E+00
(PID.TID 0000.0001) %MON forcing_fv_max               =   0.0000000000000E+00
(PID.TID 0000.0001) %MON forcing_fv_min               =   0.0000000000000E+00
(PID.TID 0000.0001) %MON forcing_fv_mean              =   0.0000000000000E+00
(PID.TID 0000.0001) %MON forcing_fv_sd                =   0.0000000000000E+00
(PID.TID 0000.0001) %MON forcing_fv_del2              =   0.0000000000000E+00
(PID.TID 0000.0001) %MON advcfl_uvel_max              =   9.3301045455638E-02
(PID.TID 0000.0001) %MON advcfl_vvel_max              =   0.0000000000000E+00
(PID.TID 0000.0001) %MON advcfl_wvel_max              =   3.0794724928186E-01
(PID.TID 0000.0001) %MON advcfl_W_hf_max              =   3.1052385500830E-01
(PID.TID 0000.0001) %MON pe_b_mean                    =   9.0140244091934E-06
(PID.TID 0000.0001) %MON ke_max                       =   5.5288400448442E-01
(PID.TID 0000.0001) %MON ke_mean                      =   6.8894448553403E-02
(PID.TID 0000.0001) %MON ke_vol                       =   9.5889217545975E+10
(PID.TID 0000.0001) %MON vort_r_min                   =   0.0000000000000E+00
(PID.TID 0000.0001) %MON vort_r_max                   =   0.0000000000000E+00
(PID.TID 0000.0001) %MON vort_a_mean                  =   0.0000000000000E+00
(PID.TID 0000.0001) %MON vort_a_sd                    =   0.0000000000000E+00
(PID.TID 0000.0001) %MON vort_p_mean                  =   0.0000000000000E+00
(PID.TID 0000.0001) %MON vort_p_sd                    =   0.0000000000000E+00
(PID.TID 0000.0001) %MON surfExpan_theta_mean         =  -2.0953766235411E-17
(PID.TID 0000.0001) %MON surfExpan_salt_mean          =   2.9711154683373E-18
(PID.TID 0000.0001) // =======================================================
(PID.TID 0000.0001) // End MONITOR dynamic field statistics
(PID.TID 0000.0001) // =======================================================
(PID.TID 0000.0001) // =======================================================
(PID.TID 0000.0001) // Begin OBCS MONITOR field statistics
(PID.TID 0000.0001) // =======================================================
(PID.TID 0000.0001) %MON obc_E_uVel_max               =   3.3404902334837E-01
(PID.TID 0000.0001) %MON obc_E_uVel_min               =   3.3404902334837E-01
(PID.TID 0000.0001) %MON obc_E_uVel_mean              =   3.3404902334837E-01
(PID.TID 0000.0001) %MON obc_E_uVel_sd                =   8.3300023432813E-09
(PID.TID 0000.0001) %MON obc_E_uVel_Int               =   3.3404902334837E+05
(PID.TID 0000.0001) %MON obc_W_uVel_max               =   3.3404902334837E-01
(PID.TID 0000.0001) %MON obc_W_uVel_min               =   3.3404902334837E-01
(PID.TID 0000.0001) %MON obc_W_uVel_mean              =   3.3404902334837E-01
(PID.TID 0000.0001) %MON obc_W_uVel_sd                =   8.3300023432813E-09
(PID.TID 0000.0001) %MON obc_W_uVel_Int               =   3.3404902334837E+05
(PID.TID 0000.0001) // =======================================================
(PID.TID 0000.0001) // End OBCS MONITOR field statistics
(PID.TID 0000.0001) // =======================================================
(PID.TID 0000.0001) %CHECKPOINT      4320 0000004320
 cg2d: Sum(rhs),rhsMax =  -1.15408793632810E-11  1.81266797118021E-01
 cg2d: Sum(rhs),rhsMax =  -1.15816245482847E-11  1.79918958111781E-01
 cg2d: Sum(rhs),rhsMax =  -1.16266996030845E-11  1.78523815417620E-01
 cg2d: Sum(rhs),rhsMax =  -1.16532339333730E-11  1.77081826325246E-01
 cg2d: Sum(rhs),rhsMax =  -1.17189591364308E-11  1.75593438408768E-01
 cg2d: Sum(rhs),rhsMax =  -1.17529319609844E-11  1.74059095530210E-01
 cg2d: Sum(rhs),rhsMax =  -1.18007825733457E-11  1.72479244078794E-01
 cg2d: Sum(rhs),rhsMax =  -1.18667298210084E-11  1.70854339141091E-01
 cg2d: Sum(rhs),rhsMax =  -1.19397824960288E-11  1.69184850327668E-01
 cg2d: Sum(rhs),rhsMax =  -1.20443655049485E-11  1.67471267029350E-01
 cg2d: Sum(rhs),rhsMax =  -1.21394005958564E-11  1.65714102938000E-01
 cg2d: Sum(rhs),rhsMax =  -1.21997967283960E-11  1.63913899741984E-01
 cg2d: Sum(rhs),rhsMax =  -1.23078214286920E-11  1.62071229988738E-01
 cg2d: Sum(rhs),rhsMax =  -1.23654420036701E-11  1.60186699181614E-01
 cg2d: Sum(rhs),rhsMax =  -1.24822374658606E-11  1.58260947260033E-01
 cg2d: Sum(rhs),rhsMax =  -1.25676136164543E-11  1.56294649664148E-01
 cg2d: Sum(rhs),rhsMax =  -1.26899601937680E-11  1.54288518177401E-01
 cg2d: Sum(rhs),rhsMax =  -1.27866606192129E-11  1.52243301767205E-01
 cg2d: Sum(rhs),rhsMax =  -1.28820287770282E-11  1.50159787561090E-01
 cg2d: Sum(rhs),rhsMax =  -1.30080390903231E-11  1.48038802031179E-01
 cg2d: Sum(rhs),rhsMax =  -1.31017419136015E-11  1.45881212650338E-01
 cg2d: Sum(rhs),rhsMax =  -1.32218680448659E-11  1.43687929777483E-01
 cg2d: Sum(rhs),rhsMax =  -1.33444366667845E-11  1.41459908616623E-01
 cg2d: Sum(rhs),rhsMax =  -1.34608990620677E-11  1.39198151036891E-01
 cg2d: Sum(rhs),rhsMax =  -1.36244349135950E-11  1.36903706986418E-01
 cg2d: Sum(rhs),rhsMax =  -1.37747591111292E-11  1.34577675193106E-01
 cg2d: Sum(rhs),rhsMax =  -1.39824818390366E-11  1.32221202869753E-01
 cg2d: Sum(rhs),rhsMax =  -1.41728850877598E-11  1.29835484186718E-01
 cg2d: Sum(rhs),rhsMax =  -1.43771661242909E-11  1.27421757300444E-01
 cg2d: Sum(rhs),rhsMax =  -1.45307099685965E-11  1.24981299919262E-01
 cg2d: Sum(rhs),rhsMax =  -1.47397649641334E-11  1.22515423471084E-01
 cg2d: Sum(rhs),rhsMax =  -1.50003343080130E-11  1.20025466060995E-01
 cg2d: Sum(rhs),rhsMax =  -1.52711177037190E-11  1.17512784508765E-01
 cg2d: Sum(rhs),rhsMax =  -1.55535584411837E-11  1.14978745857673E-01
 cg2d: Sum(rhs),rhsMax =  -1.58696389362945E-11  1.12424718776774E-01
 cg2d: Sum(rhs),rhsMax =  -1.61714530655388E-11  1.09852065269635E-01
 cg2d: Sum(rhs),rhsMax =  -1.65324420819957E-11  1.07262133082475E-01
 cg2d: Sum(rhs),rhsMax =  -1.68695613034231E-11  1.04656249152288E-01
 cg2d: Sum(rhs),rhsMax =  -1.72626912764429E-11  1.02035714240071E-01
 cg2d: Sum(rhs),rhsMax =  -1.76627601433665E-11  9.94017989205205E-02
 cg2d: Sum(rhs),rhsMax =  -1.80681580808084E-11  9.67557409253782E-02
 cg2d: Sum(rhs),rhsMax =  -1.85281234799106E-11  9.40987437506260E-02
 cg2d: Sum(rhs),rhsMax =  -1.89929183491699E-11  9.14319762890551E-02
 cg2d: Sum(rhs),rhsMax =  -1.94994020930039E-11  8.87565733150346E-02
 cg2d: Sum(rhs),rhsMax =  -2.00270355854570E-11  8.60736366088785E-02
 cg2d: Sum(rhs),rhsMax =  -2.06110128964099E-11  8.33842365176160E-02
 cg2d: Sum(rhs),rhsMax =  -2.12237449837005E-11  8.06894138019571E-02
 cg2d: Sum(rhs),rhsMax =  -2.18705054066959E-11  7.79901816722441E-02
 cg2d: Sum(rhs),rhsMax =  -2.25677809773117E-11  7.52875279828229E-02
 cg2d: Sum(rhs),rhsMax =  -2.33347230427228E-11  7.25824176161078E-02
 cg2d: Sum(rhs),rhsMax =  -2.41266451261879E-11  6.98757951337477E-02
 cg2d: Sum(rhs),rhsMax =  -2.50114651212385E-11  6.71685877880474E-02
 cg2d: Sum(rhs),rhsMax =  -2.59481602871148E-11  6.44617090076604E-02
 cg2d: Sum(rhs),rhsMax =  -2.69682332021404E-11  6.17560624336081E-02
 cg2d: Sum(rhs),rhsMax =  -2.81158984982710E-11  5.90525464882137E-02
 cg2d: Sum(rhs),rhsMax =  -2.93392116157420E-11  5.63520594360984E-02
 cg2d: Sum(rhs),rhsMax =  -3.07531222709656E-11  5.36555048151000E-02
 cg2d: Sum(rhs),rhsMax =  -3.23406995628162E-11  5.09637970364204E-02
 cg2d: Sum(rhs),rhsMax =  -3.40923643482594E-11  4.82778668756940E-02
 cg2d: Sum(rhs),rhsMax =  -3.60104862595634E-11  4.55986665305227E-02
 cg2d: Sum(rhs),rhsMax =  -3.81652348613315E-11  4.29271738955170E-02
 cg2d: Sum(rhs),rhsMax =  -4.06124023299981E-11  4.02643957058056E-02
 cg2d: Sum(rhs),rhsMax =  -4.34244307179199E-11  3.76113692320794E-02
 cg2d: Sum(rhs),rhsMax =  -4.66184313374640E-11  3.49691622751595E-02
 cg2d: Sum(rhs),rhsMax =  -4.89756013521969E-11  3.32235835249171E-02
 cg2d: Sum(rhs),rhsMax =  -4.82556772318787E-11  3.36412777120308E-02
 cg2d: Sum(rhs),rhsMax =  -4.75661732224353E-11  3.40598469297714E-02
 cg2d: Sum(rhs),rhsMax =  -4.69054795004809E-11  3.44959185117927E-02
 cg2d: Sum(rhs),rhsMax =  -4.62542226742357E-11  3.49267163637051E-02
 cg2d: Sum(rhs),rhsMax =  -4.53269644040688E-11  3.55843690188673E-02
 cg2d: Sum(rhs),rhsMax =  -4.31032987080471E-11  3.73211090001768E-02
 cg2d: Sum(rhs),rhsMax =  -4.11579659242989E-11  3.90411865656552E-02
 cg2d: Sum(rhs),rhsMax =  -3.93619581373628E-11  4.07441123228449E-02
 cg2d: Sum(rhs),rhsMax =  -3.77168296594732E-11  4.24293849458443E-02
 cg2d: Sum(rhs),rhsMax =  -3.62185836877416E-11  4.40964582232180E-02
 cg2d: Sum(rhs),rhsMax =  -3.48744366718279E-11  4.57447342535842E-02
 cg2d: Sum(rhs),rhsMax =  -3.36501937425737E-11  4.73735491249234E-02
 cg2d: Sum(rhs),rhsMax =  -3.24142934715610E-11  4.89821516280782E-02
 cg2d: Sum(rhs),rhsMax =  -3.12976311533930E-11  5.05697093986008E-02
 cg2d: Sum(rhs),rhsMax =  -3.02531333318257E-11  5.21353250837873E-02
 cg2d: Sum(rhs),rhsMax =  -2.92913471255929E-11  5.36780688106322E-02
 cg2d: Sum(rhs),rhsMax =  -2.83731926842279E-11  5.51969887524035E-02
 cg2d: Sum(rhs),rhsMax =  -2.76054734626996E-11  5.66911129406287E-02
 cg2d: Sum(rhs),rhsMax =  -2.68299826799989E-11  5.81594565461969E-02
 cg2d: Sum(rhs),rhsMax =  -2.61232147025225E-11  5.96010846321802E-02
 cg2d: Sum(rhs),rhsMax =  -2.53941312422512E-11  6.10151113744859E-02
 cg2d: Sum(rhs),rhsMax =  -2.47831755118000E-11  6.24007015397583E-02
 cg2d: Sum(rhs),rhsMax =  -2.41998643346619E-11  6.37570814793026E-02
 cg2d: Sum(rhs),rhsMax =  -2.36670683051443E-11  6.50835363596588E-02
 cg2d: Sum(rhs),rhsMax =  -2.31222818669607E-11  6.63794212898169E-02
 cg2d: Sum(rhs),rhsMax =  -2.26526575275443E-11  6.76441664277122E-02
 cg2d: Sum(rhs),rhsMax =  -2.21934692845593E-11  6.88772708944545E-02
 cg2d: Sum(rhs),rhsMax =  -2.17376117106483E-11  7.00782918575153E-02
 cg2d: Sum(rhs),rhsMax =  -2.13195017195744E-11  7.12468244820777E-02
 cg2d: Sum(rhs),rhsMax =  -2.09388062444305E-11  7.23824875365452E-02
 cg2d: Sum(rhs),rhsMax =  -2.05120365137645E-11  7.34849179266663E-02
 cg2d: Sum(rhs),rhsMax =  -2.01864081006420E-11  7.45537656958479E-02
 cg2d: Sum(rhs),rhsMax =  -1.98369098924900E-11  7.58279388022165E-02
 cg2d: Sum(rhs),rhsMax =  -1.94146920762250E-11  7.71174056707797E-02
 cg2d: Sum(rhs),rhsMax =  -1.90829574364670E-11  7.83631898818583E-02
 cg2d: Sum(rhs),rhsMax =  -1.86850535044414E-11  7.95646467896494E-02
 cg2d: Sum(rhs),rhsMax =  -1.83337789394500E-11  8.07212113614252E-02
 cg2d: Sum(rhs),rhsMax =  -1.79621872931079E-11  8.18323963058564E-02
 cg2d: Sum(rhs),rhsMax =  -1.76356707015657E-11  8.28977872499445E-02
 cg2d: Sum(rhs),rhsMax =  -1.74658065787980E-11  8.39170361446183E-02
 cg2d: Sum(rhs),rhsMax =  -1.71572756002547E-11  8.48898540134156E-02
 cg2d: Sum(rhs),rhsMax =  -1.69404490435454E-11  8.58160035624017E-02
 cg2d: Sum(rhs),rhsMax =  -1.67378333415513E-11  8.66952925438289E-02
 cg2d: Sum(rhs),rhsMax =  -1.65017999265160E-11  8.75275680685501E-02
 cg2d: Sum(rhs),rhsMax =  -1.62851954144116E-11  8.83127122101594E-02
 cg2d: Sum(rhs),rhsMax =  -1.60362834122907E-11  8.90506385521412E-02
 cg2d: Sum(rhs),rhsMax =  -1.59173785263533E-11  8.97412895303318E-02
 cg2d: Sum(rhs),rhsMax =  -1.57062141070696E-11  9.03846339725094E-02
 cg2d: Sum(rhs),rhsMax =  -1.55998547413105E-11  9.09806646354427E-02
 cg2d: Sum(rhs),rhsMax =  -1.54668500229604E-11  9.15293953353630E-02
 cg2d: Sum(rhs),rhsMax =  -1.53589363449669E-11  9.20308577742635E-02
 cg2d: Sum(rhs),rhsMax =  -1.52208246007035E-11  9.24850980919493E-02
 cg2d: Sum(rhs),rhsMax =  -1.51028078931859E-11  9.28921733755028E-02
 cg2d: Sum(rhs),rhsMax =  -1.50479628757694E-11  9.32521486757919E-02
 cg2d: Sum(rhs),rhsMax =  -1.49330547927207E-11  9.35650948049688E-02
 cg2d: Sum(rhs),rhsMax =  -1.48893120055504E-11  9.38310871722142E-02
 cg2d: Sum(rhs),rhsMax =  -1.48024925650247E-11  9.40502058406210E-02
 cg2d: Sum(rhs),rhsMax =  -1.47826195728840E-11  9.42225368422954E-02
 cg2d: Sum(rhs),rhsMax =  -1.47595269339718E-11  9.43481746218690E-02
 cg2d: Sum(rhs),rhsMax =  -1.47323264698684E-11  9.44272253353697E-02
 cg2d: Sum(rhs),rhsMax =  -1.46859191474391E-11  9.44598106574624E-02
 cg2d: Sum(rhs),rhsMax =  -1.47365453173620E-11  9.44460717199439E-02
 cg2d: Sum(rhs),rhsMax =  -1.46991308014321E-11  9.43861728293262E-02
 cg2d: Sum(rhs),rhsMax =  -1.47725165433599E-11  9.42803047096495E-02
 cg2d: Sum(rhs),rhsMax =  -1.47742929001993E-11  9.41286869235922E-02
 cg2d: Sum(rhs),rhsMax =  -1.48249190701222E-11  9.39315693923040E-02
 cg2d: Sum(rhs),rhsMax =  -1.49151802020242E-11  9.36892329543671E-02
 cg2d: Sum(rhs),rhsMax =  -1.50425227829487E-11  9.34019889281469E-02
 cg2d: Sum(rhs),rhsMax =  -1.51706425199905E-11  9.30701776821050E-02
 cg2d: Sum(rhs),rhsMax =  -1.52488022209241E-11  9.26941662778723E-02
 cg2d: Sum(rhs),rhsMax =  -1.53445034456468E-11  9.22743451753891E-02
 cg2d: Sum(rhs),rhsMax =  -1.54408708041842E-11  9.18111239995040E-02
 cg2d: Sum(rhs),rhsMax =  -1.55472301699433E-11  9.13049264549125E-02
 cg2d: Sum(rhs),rhsMax =  -1.56435975284808E-11  9.07561845385168E-02
 cg2d: Sum(rhs),rhsMax =  -1.58187907217666E-11  9.01653322080005E-02
 cg2d: Sum(rhs),rhsMax =  -1.59853241754604E-11  8.95327986700494E-02
 cg2d: Sum(rhs),rhsMax =  -1.61216595628844E-11  8.88590015005069E-02
 cg2d: Sum(rhs),rhsMax =  -1.62930779978865E-11  8.81443399054959E-02
 cg2d: Sum(rhs),rhsMax =  -1.65042424171702E-11  8.73891885371471E-02
 cg2d: Sum(rhs),rhsMax =  -1.66586744398955E-11  8.65938923966438E-02
 cg2d: Sum(rhs),rhsMax =  -1.68643987663586E-11  8.57587631253074E-02
 cg2d: Sum(rhs),rhsMax =  -1.71280767347071E-11  8.48840771901501E-02
 cg2d: Sum(rhs),rhsMax =  -1.73389080870834E-11  8.39700761752499E-02
 cg2d: Sum(rhs),rhsMax =  -1.76028081000368E-11  8.30169691842045E-02
 cg2d: Sum(rhs),rhsMax =  -1.78682624252247E-11  8.20249371623738E-02
 cg2d: Sum(rhs),rhsMax =  -1.81430426238194E-11  8.09941387633599E-02
 cg2d: Sum(rhs),rhsMax =  -1.85299553479013E-11  7.99247173039536E-02
 cg2d: Sum(rhs),rhsMax =  -1.88331572559264E-11  7.88168082797146E-02
 cg2d: Sum(rhs),rhsMax =  -1.91969773410960E-11  7.76705469247922E-02
 cg2d: Sum(rhs),rhsMax =  -1.95520266643712E-11  7.64860754090875E-02
 cg2d: Sum(rhs),rhsMax =  -1.99554817115200E-11  7.52635494393181E-02
 cg2d: Sum(rhs),rhsMax =  -2.03423944356018E-11  7.40031442074774E-02
 cg2d: Sum(rhs),rhsMax =  -2.07678318986382E-11  7.27050597615360E-02
 cg2d: Sum(rhs),rhsMax =  -2.12004858113346E-11  7.13695260804230E-02
 cg2d: Sum(rhs),rhsMax =  -2.16403561736911E-11  6.99968074318285E-02
 cg2d: Sum(rhs),rhsMax =  -2.21630491736846E-11  6.85872070925362E-02
 cg2d: Sum(rhs),rhsMax =  -2.27339258529469E-11  6.71410719679819E-02
 cg2d: Sum(rhs),rhsMax =  -2.32828201163215E-11  6.56587970533275E-02
 cg2d: Sum(rhs),rhsMax =  -2.39080977237904E-11  6.41408296271742E-02
 cg2d: Sum(rhs),rhsMax =  -2.45480302751844E-11  6.25876729655643E-02
 cg2d: Sum(rhs),rhsMax =  -2.52200482719900E-11  6.09998892512695E-02
 cg2d: Sum(rhs),rhsMax =  -2.60430566001446E-11  5.93781013031421E-02
 cg2d: Sum(rhs),rhsMax =  -2.67903477180198E-11  5.77353722736316E-02
 cg2d: Sum(rhs),rhsMax =  -2.75910405633795E-11  5.63231211978452E-02
 cg2d: Sum(rhs),rhsMax =  -2.83626455654939E-11  5.49345020695233E-02
 cg2d: Sum(rhs),rhsMax =  -2.92106339117026E-11  5.35255209016076E-02
 cg2d: Sum(rhs),rhsMax =  -3.01081382048096E-11  5.20952009532054E-02
 cg2d: Sum(rhs),rhsMax =  -3.10669268088759E-11  5.06441171026772E-02
 cg2d: Sum(rhs),rhsMax =  -3.20724558022789E-11  4.91728569977877E-02
 cg2d: Sum(rhs),rhsMax =  -3.31488170246530E-11  4.76820401768101E-02
 cg2d: Sum(rhs),rhsMax =  -3.43659545265496E-11  4.61723063907477E-02
 cg2d: Sum(rhs),rhsMax =  -3.56493723430162E-11  4.46442912851741E-02
 cg2d: Sum(rhs),rhsMax =  -3.70138364402806E-11  4.30986280122985E-02
 cg2d: Sum(rhs),rhsMax =  -3.84627885097188E-11  4.15359642137969E-02
 cg2d: Sum(rhs),rhsMax =  -4.00699473601662E-11  3.99569637515314E-02
 cg2d: Sum(rhs),rhsMax =  -4.17894607807057E-11  3.83622766017228E-02
 cg2d: Sum(rhs),rhsMax =  -4.36427560757124E-11  3.67525368210923E-02
 cg2d: Sum(rhs),rhsMax =  -4.56653603819746E-11  3.51933269051914E-02
 cg2d: Sum(rhs),rhsMax =  -4.62930804800976E-11  3.47710756105088E-02
 cg2d: Sum(rhs),rhsMax =  -4.68703964529027E-11  3.43490000714496E-02
 cg2d: Sum(rhs),rhsMax =  -4.75171013647468E-11  3.39238638433392E-02
 cg2d: Sum(rhs),rhsMax =  -4.81902295845771E-11  3.34958314496569E-02
 cg2d: Sum(rhs),rhsMax =  -4.88369344964212E-11  3.30650729652359E-02
 cg2d: Sum(rhs),rhsMax =  -4.95967711344747E-11  3.26317660792791E-02
 cg2d: Sum(rhs),rhsMax =  -5.03326269551962E-11  3.21960959161542E-02
 cg2d: Sum(rhs),rhsMax =  -5.11080067155945E-11  3.17582524215521E-02
 cg2d: Sum(rhs),rhsMax =  -4.89225326916198E-11  3.32202077685998E-02
 cg2d: Sum(rhs),rhsMax =  -4.57887616711616E-11  3.55627452028228E-02
 cg2d: Sum(rhs),rhsMax =  -4.29286606262735E-11  3.79556991880455E-02
 cg2d: Sum(rhs),rhsMax =  -4.03880956456604E-11  4.04090225478298E-02
 cg2d: Sum(rhs),rhsMax =  -3.80373996189398E-11  4.29748833401832E-02
 cg2d: Sum(rhs),rhsMax =  -3.58846338061047E-11  4.56168770700719E-02
 cg2d: Sum(rhs),rhsMax =  -3.40168865298196E-11  4.82667263862192E-02
 cg2d: Sum(rhs),rhsMax =  -3.23478327457494E-11  5.09232050009720E-02
 cg2d: Sum(rhs),rhsMax =  -3.08593428588466E-11  5.35850777780539E-02
 cg2d: Sum(rhs),rhsMax =  -2.95233282265883E-11  5.62511010844382E-02
 cg2d: Sum(rhs),rhsMax =  -2.82731615897092E-11  5.89200235644576E-02
 cg2d: Sum(rhs),rhsMax =  -2.71256350714566E-11  6.15905874960416E-02
 cg2d: Sum(rhs),rhsMax =  -2.60911292571109E-11  6.42615308228711E-02
 cg2d: Sum(rhs),rhsMax =  -2.51585419164257E-11  6.69315898768729E-02
 cg2d: Sum(rhs),rhsMax =  -2.42633135805193E-11  6.95995027138854E-02
 cg2d: Sum(rhs),rhsMax =  -2.34439134771947E-11  7.22640129293648E-02
 cg2d: Sum(rhs),rhsMax =  -2.26816898596383E-11  7.49238737275303E-02
 cg2d: Sum(rhs),rhsMax =  -2.19791962408067E-11  7.75778519826451E-02
 cg2d: Sum(rhs),rhsMax =  -2.12818096478884E-11  8.02247319867361E-02
 cg2d: Sum(rhs),rhsMax =  -2.06764605437115E-11  8.28633186059638E-02
 cg2d: Sum(rhs),rhsMax =  -2.01356709084166E-11  8.54924396030464E-02
 cg2d: Sum(rhs),rhsMax =  -1.95780058831474E-11  8.81109469224972E-02
 cg2d: Sum(rhs),rhsMax =  -1.90950033562842E-11  9.07177168109667E-02
 cg2d: Sum(rhs),rhsMax =  -1.86413662284224E-11  9.33116487338133E-02
 cg2d: Sum(rhs),rhsMax =  -1.82096004941457E-11  9.58916631417200E-02
 cg2d: Sum(rhs),rhsMax =  -1.77843295645630E-11  9.84566982295667E-02
 cg2d: Sum(rhs),rhsMax =  -1.73939751491048E-11  1.01005705907234E-01
 cg2d: Sum(rhs),rhsMax =  -1.70173319880007E-11  1.03537647263284E-01
 cg2d: Sum(rhs),rhsMax =  -1.66470170981370E-11  1.06051487842622E-01
 cg2d: Sum(rhs),rhsMax =  -1.63200564173849E-11  1.08546193074957E-01
 cg2d: Sum(rhs),rhsMax =  -1.60622071199157E-11  1.11020724181981E-01
 cg2d: Sum(rhs),rhsMax =  -1.58302260189203E-11  1.13474034857770E-01
 cg2d: Sum(rhs),rhsMax =  -1.55768731247008E-11  1.15905068962377E-01
 cg2d: Sum(rhs),rhsMax =  -1.53589363449669E-11  1.18312759397594E-01
 cg2d: Sum(rhs),rhsMax =  -1.51383350299739E-11  1.20696028253958E-01
 cg2d: Sum(rhs),rhsMax =  -1.49232848301040E-11  1.23053788228825E-01
 cg2d: Sum(rhs),rhsMax =  -1.47452050569541E-11  1.25384945234462E-01
 cg2d: Sum(rhs),rhsMax =  -1.45783385363529E-11  1.27688402043774E-01
 cg2d: Sum(rhs),rhsMax =  -1.43821621279017E-11  1.29963062759541E-01
 cg2d: Sum(rhs),rhsMax =  -1.42140743619734E-11  1.32207837847037E-01
 cg2d: Sum(rhs),rhsMax =  -1.40508715773535E-11  1.34421649444733E-01
 cg2d: Sum(rhs),rhsMax =  -1.38991040898873E-11  1.36603436673549E-01
 cg2d: Sum(rhs),rhsMax =  -1.37765354679686E-11  1.38752160662780E-01
 cg2d: Sum(rhs),rhsMax =  -1.36624045410372E-11  1.40866809056262E-01
 cg2d: Sum(rhs),rhsMax =  -1.35250699528910E-11  1.42946399799871E-01
 cg2d: Sum(rhs),rhsMax =  -1.33866251417203E-11  1.44989984069048E-01
 cg2d: Sum(rhs),rhsMax =  -1.32747146608381E-11  1.46996648253998E-01
 cg2d: Sum(rhs),rhsMax =  -1.31804567260474E-11  1.48965514979198E-01
 cg2d: Sum(rhs),rhsMax =  -1.30941923970340E-11  1.50895743189415E-01
 cg2d: Sum(rhs),rhsMax =  -1.29863897413429E-11  1.52786527383409E-01
 cg2d: Sum(rhs),rhsMax =  -1.29554145189559E-11  1.54637096119074E-01
 cg2d: Sum(rhs),rhsMax =  -1.28479449301722E-11  1.56446709947307E-01
 cg2d: Sum(rhs),rhsMax =  -1.27379218284318E-11  1.58214658952954E-01
 cg2d: Sum(rhs),rhsMax =  -1.26144650280935E-11  1.59940260088498E-01
 cg2d: Sum(rhs),rhsMax =  -1.22458709839179E-11  1.61622854495730E-01
 cg2d: Sum(rhs),rhsMax =  -1.23211441049875E-11  1.63261805014006E-01
 cg2d: Sum(rhs),rhsMax =  -1.22741816710459E-11  1.64856494042994E-01
 cg2d: Sum(rhs),rhsMax =  -1.21942456132729E-11  1.66406321894474E-01
 cg2d: Sum(rhs),rhsMax =  -1.21331833469185E-11  1.67910705755028E-01
 cg2d: Sum(rhs),rhsMax =  -1.20595755603858E-11  1.69369079334392E-01
 cg2d: Sum(rhs),rhsMax =  -1.19899645767418E-11  1.70780893212277E-01
 cg2d: Sum(rhs),rhsMax =  -1.19652066032927E-11  1.72145615867357E-01
 cg2d: Sum(rhs),rhsMax =  -1.19012577570743E-11  1.73462735298604E-01
 cg2d: Sum(rhs),rhsMax =  -1.19629861572434E-11  1.74731761130086E-01
 cg2d: Sum(rhs),rhsMax =  -1.19042553592408E-11  1.75952227042971E-01
 cg2d: Sum(rhs),rhsMax =  -1.18659526648912E-11  1.77123693345709E-01
 cg2d: Sum(rhs),rhsMax =  -1.18295373496835E-11  1.78245749475091E-01
 cg2d: Sum(rhs),rhsMax =  -1.17909015884266E-11  1.79318016216612E-01
 cg2d: Sum(rhs),rhsMax =  -1.17468257343489E-11  1.80340147449277E-01
 cg2d: Sum(rhs),rhsMax =  -1.17417187084357E-11  1.81311831228775E-01
 cg2d: Sum(rhs),rhsMax =  -1.17444942659972E-11  1.82232790053326E-01
 cg2d: Sum(rhs),rhsMax =  -1.17463816451391E-11  1.83102780241264E-01
 cg2d: Sum(rhs),rhsMax =  -1.17038601032959E-11  1.83921590374610E-01
 cg2d: Sum(rhs),rhsMax =  -1.17396092846889E-11  1.84689038817151E-01
 cg2d: Sum(rhs),rhsMax =  -1.16081588785732E-11  1.85404970368628E-01
 cg2d: Sum(rhs),rhsMax =  -1.15883969087349E-11  1.86069252172384E-01
 cg2d: Sum(rhs),rhsMax =  -1.15589759985824E-11  1.86681769050585E-01
 cg2d: Sum(rhs),rhsMax =  -1.15859544180807E-11  1.87242418469337E-01
 cg2d: Sum(rhs),rhsMax =  -1.16433529484539E-11  1.87751105353884E-01
 cg2d: Sum(rhs),rhsMax =  -1.16265885807820E-11  1.88207737013321E-01
 cg2d: Sum(rhs),rhsMax =  -1.16487930412745E-11  1.88612218468234E-01
 cg2d: Sum(rhs),rhsMax =  -1.16553433571198E-11  1.88964448449949E-01
 cg2d: Sum(rhs),rhsMax =  -1.16822107543157E-11  1.89264316324902E-01
 cg2d: Sum(rhs),rhsMax =  -1.17026388579689E-11  1.89511700168877E-01
 cg2d: Sum(rhs),rhsMax =  -1.17124088205856E-11  1.89706466171988E-01
 cg2d: Sum(rhs),rhsMax =  -1.17174048241964E-11  1.89848469477383E-01
 cg2d: Sum(rhs),rhsMax =  -1.17639231689282E-11  1.89937556519348E-01
 cg2d: Sum(rhs),rhsMax =  -1.17615917005764E-11  1.89973568872987E-01
 cg2d: Sum(rhs),rhsMax =  -1.17352794148928E-11  1.89956348404131E-01
 cg2d: Sum(rhs),rhsMax =  -1.16889831147660E-11  1.89885743500960E-01
 cg2d: Sum(rhs),rhsMax =  -1.16489040635770E-11  1.89761616091971E-01
 cg2d: Sum(rhs),rhsMax =  -1.16457954391080E-11  1.89583849084688E-01
 cg2d: Sum(rhs),rhsMax =  -1.16027187857526E-11  1.89352353819527E-01
 cg2d: Sum(rhs),rhsMax =  -1.16135989713939E-11  1.89067077120795E-01
 cg2d: Sum(rhs),rhsMax =  -1.16076037670609E-11  1.88728007606310E-01
 cg2d: Sum(rhs),rhsMax =  -1.16024967411477E-11  1.88335180718505E-01
 cg2d: Sum(rhs),rhsMax =  -1.15576437309528E-11  1.87888682375760E-01
 cg2d: Sum(rhs),rhsMax =  -1.15789600130256E-11  1.87388651076403E-01
 cg2d: Sum(rhs),rhsMax =  -1.15387699395342E-11  1.86835278402466E-01
 cg2d: Sum(rhs),rhsMax =  -1.15412124301884E-11  1.86228807984425E-01
 cg2d: Sum(rhs),rhsMax =  -1.15354392704603E-11  1.85569533015300E-01
 cg2d: Sum(rhs),rhsMax =  -1.15184528581835E-11  1.84857792714601E-01
 cg2d: Sum(rhs),rhsMax =  -1.14911413717778E-11  1.84093967939782E-01
 cg2d: Sum(rhs),rhsMax =  -1.14891429703334E-11  1.83278476268295E-01
 cg2d: Sum(rhs),rhsMax =  -1.14945830631541E-11  1.82411766877834E-01
 cg2d: Sum(rhs),rhsMax =  -1.14694920227976E-11  1.81494315525207E-01
 cg2d: Sum(rhs),rhsMax =  -1.14518394767060E-11  1.80526619875964E-01
 cg2d: Sum(rhs),rhsMax =  -1.15225606833746E-11  1.79509195377638E-01
 cg2d: Sum(rhs),rhsMax =  -1.15065734718200E-11  1.78442571809055E-01
 cg2d: Sum(rhs),rhsMax =  -1.15385478949293E-11  1.77327290583796E-01
 cg2d: Sum(rhs),rhsMax =  -1.15567555525331E-11  1.76163902916265E-01
 cg2d: Sum(rhs),rhsMax =  -1.16502363312065E-11  1.74952968634808E-01
 cg2d: Sum(rhs),rhsMax =  -1.16772147507049E-11  1.73695055792964E-01
 cg2d: Sum(rhs),rhsMax =  -1.17363896379175E-11  1.72390741014939E-01
 cg2d: Sum(rhs),rhsMax =  -1.17607035221567E-11  1.71040610638909E-01
 cg2d: Sum(rhs),rhsMax =  -1.18139942273388E-11  1.69645262475216E-01
 cg2d: Sum(rhs),rhsMax =  -1.19014798016792E-11  1.68205308105968E-01
 cg2d: Sum(rhs),rhsMax =  -1.19391163622140E-11  1.66721375639982E-01
 cg2d: Sum(rhs),rhsMax =  -1.19961818256797E-11  1.65194112805334E-01
 cg2d: Sum(rhs),rhsMax =  -1.20999876784822E-11  1.63624190233928E-01
 cg2d: Sum(rhs),rhsMax =  -1.21319621015914E-11  1.62012304756729E-01
 cg2d: Sum(rhs),rhsMax =  -1.22052368212167E-11  1.60359182498946E-01
 cg2d: Sum(rhs),rhsMax =  -1.23160370790742E-11  1.58665581548731E-01
 cg2d: Sum(rhs),rhsMax =  -1.24062982109763E-11  1.56932293975572E-01
 cg2d: Sum(rhs),rhsMax =  -1.24630306075346E-11  1.55160147000411E-01
 cg2d: Sum(rhs),rhsMax =  -1.25539578732514E-11  1.53350003148106E-01
 cg2d: Sum(rhs),rhsMax =  -1.26453292281781E-11  1.51502759285674E-01
 cg2d: Sum(rhs),rhsMax =  -1.27511334824248E-11  1.49619344517752E-01
 cg2d: Sum(rhs),rhsMax =  -1.28531629783879E-11  1.47700716979027E-01
 cg2d: Sum(rhs),rhsMax =  -1.29583010988199E-11  1.45747859627467E-01
 cg2d: Sum(rhs),rhsMax =  -1.30881971927010E-11  1.43761775232956E-01
 cg2d: Sum(rhs),rhsMax =  -1.31872290864976E-11  1.41743480804806E-01
 cg2d: Sum(rhs),rhsMax =  -1.32955868537010E-11  1.39694001824559E-01
 cg2d: Sum(rhs),rhsMax =  -1.34239286353477E-11  1.37614366450562E-01
 cg2d: Sum(rhs),rhsMax =  -1.35512712162722E-11  1.35505600000757E-01
 cg2d: Sum(rhs),rhsMax =  -1.36884947821159E-11  1.33368720000718E-01
 cg2d: Sum(rhs),rhsMax =  -1.38165034968551E-11  1.31204732041360E-01
 cg2d: Sum(rhs),rhsMax =  -1.39662725828771E-11  1.29014626633808E-01
 cg2d: Sum(rhs),rhsMax =  -1.41371914175181E-11  1.26799377175549E-01
 cg2d: Sum(rhs),rhsMax =  -1.43106637651158E-11  1.24559939084223E-01
 cg2d: Sum(rhs),rhsMax =  -1.44688150349737E-11  1.22297250094087E-01
 cg2d: Sum(rhs),rhsMax =  -1.46446188509231E-11  1.20012231659279E-01
 cg2d: Sum(rhs),rhsMax =  -1.48219769791069E-11  1.17705791305819E-01
 cg2d: Sum(rhs),rhsMax =  -1.50428558498561E-11  1.15378825796637E-01
 cg2d: Sum(rhs),rhsMax =  -1.52443613288256E-11  1.13032224924318E-01
 cg2d: Sum(rhs),rhsMax =  -1.54419255160576E-11  1.10666875687659E-01
 cg2d: Sum(rhs),rhsMax =  -1.57429069780335E-11  1.08283666616691E-01
 cg2d: Sum(rhs),rhsMax =  -1.60449986630340E-11  1.05883492009790E-01
 cg2d: Sum(rhs),rhsMax =  -1.63607460912374E-11  1.03467255864514E-01
 cg2d: Sum(rhs),rhsMax =  -1.67079128310377E-11  1.01035875294698E-01
 cg2d: Sum(rhs),rhsMax =  -1.70671810018064E-11  9.85902832306688E-02
 cg2d: Sum(rhs),rhsMax =  -1.74336656222351E-11  9.61314303433959E-02
 cg2d: Sum(rhs),rhsMax =  -1.78351777790908E-11  9.36602860823001E-02
 cg2d: Sum(rhs),rhsMax =  -1.82498460787883E-11  9.11778387856676E-02
 cg2d: Sum(rhs),rhsMax =  -1.87258542005964E-11  8.86850949074065E-02
 cg2d: Sum(rhs),rhsMax =  -1.92007520993798E-11  8.61830774293767E-02
 cg2d: Sum(rhs),rhsMax =  -1.97014071723345E-11  8.36728235740452E-02
 cg2d: Sum(rhs),rhsMax =  -2.02350913802718E-11  8.11553819628940E-02
 cg2d: Sum(rhs),rhsMax =  -2.08035255688799E-11  7.86318093914465E-02
 cg2d: Sum(rhs),rhsMax =  -2.14202544590592E-11  7.61031674056787E-02
 cg2d: Sum(rhs),rhsMax =  -2.20771456671542E-11  7.35705188672377E-02
 cg2d: Sum(rhs),rhsMax =  -2.27945440300914E-11  7.10349246870653E-02
 cg2d: Sum(rhs),rhsMax =  -2.35344244092772E-11  6.84974408901434E-02
 cg2d: Sum(rhs),rhsMax =  -2.43423614598726E-11  6.59591161496352E-02
 cg2d: Sum(rhs),rhsMax =  -2.52134424449935E-11  6.34209899020218E-02
 cg2d: Sum(rhs),rhsMax =  -2.61811405888324E-11  6.08840911138262E-02
 cg2d: Sum(rhs),rhsMax =  -2.71953570774031E-11  5.83494377308515E-02
 cg2d: Sum(rhs),rhsMax =  -2.83038037451888E-11  5.58180368213229E-02
 cg2d: Sum(rhs),rhsMax =  -2.95486057497185E-11  5.32908854046844E-02
 cg2d: Sum(rhs),rhsMax =  -3.09232778272772E-11  5.07689718862831E-02
 cg2d: Sum(rhs),rhsMax =  -3.24913151938944E-11  4.82532780041309E-02
 cg2d: Sum(rhs),rhsMax =  -3.42334771641362E-11  4.57447811828563E-02
 cg2d: Sum(rhs),rhsMax =  -3.61872753984471E-11  4.32444571692244E-02
 cg2d: Sum(rhs),rhsMax =  -3.83043596841048E-11  4.07532828057573E-02
 cg2d: Sum(rhs),rhsMax =  -4.07501254962028E-11  3.82722387873193E-02
 cg2d: Sum(rhs),rhsMax =  -4.35128044706801E-11  3.58023122414899E-02
 cg2d: Sum(rhs),rhsMax =  -4.47051284879763E-11  3.48133453060340E-02
 cg2d: Sum(rhs),rhsMax =  -4.40417702307627E-11  3.52731331104093E-02
 cg2d: Sum(rhs),rhsMax =  -4.34335900578731E-11  3.57282062399087E-02
 cg2d: Sum(rhs),rhsMax =  -4.28072022273795E-11  3.61781588008354E-02
 cg2d: Sum(rhs),rhsMax =  -4.22415435963330E-11  3.66226292831659E-02
 cg2d: Sum(rhs),rhsMax =  -4.05162570160655E-11  3.81261605114081E-02
 cg2d: Sum(rhs),rhsMax =  -3.88287180186353E-11  3.96869176898819E-02
 cg2d: Sum(rhs),rhsMax =  -3.73178155044229E-11  4.12313924093843E-02
 cg2d: Sum(rhs),rhsMax =  -3.58180152204568E-11  4.27590180636492E-02
 cg2d: Sum(rhs),rhsMax =  -3.45352635378049E-11  4.42692459550857E-02
 cg2d: Sum(rhs),rhsMax =  -3.32948113523912E-11  4.57614734293608E-02
 cg2d: Sum(rhs),rhsMax =  -3.21626059118785E-11  4.72353294957739E-02
 cg2d: Sum(rhs),rhsMax =  -3.10830250427330E-11  4.86903555778586E-02
 cg2d: Sum(rhs),rhsMax =  -3.01478841890912E-11  5.01259799672516E-02
 cg2d: Sum(rhs),rhsMax =  -2.92941226831545E-11  5.15415803754427E-02
 cg2d: Sum(rhs),rhsMax =  -2.84184897836326E-11  5.29365383958493E-02
 cg2d: Sum(rhs),rhsMax =  -2.76322298375931E-11  5.43102543689392E-02
 cg2d: Sum(rhs),rhsMax =  -2.68720601326322E-11  5.56620461567893E-02
 cg2d: Sum(rhs),rhsMax =  -2.61687338465322E-11  5.69914124177290E-02
 cg2d: Sum(rhs),rhsMax =  -2.55082621691827E-11  5.82977590309437E-02
 cg2d: Sum(rhs),rhsMax =  -2.48752130005414E-11  5.96058870790954E-02
 cg2d: Sum(rhs),rhsMax =  -2.42803555039472E-11  6.08995052677885E-02
 cg2d: Sum(rhs),rhsMax =  -2.37165842520426E-11  6.21672506528755E-02
 cg2d: Sum(rhs),rhsMax =  -2.31775709735871E-11  6.34083834259742E-02
 cg2d: Sum(rhs),rhsMax =  -2.26580976203650E-11  6.46221728366425E-02
 cg2d: Sum(rhs),rhsMax =  -2.21961338198184E-11  6.58079051378265E-02
 cg2d: Sum(rhs),rhsMax =  -2.18149942554646E-11  6.69648858342514E-02
 cg2d: Sum(rhs),rhsMax =  -2.13623563283249E-11  6.80924417439913E-02
 cg2d: Sum(rhs),rhsMax =  -2.09846584553475E-11  6.91899247719469E-02
 cg2d: Sum(rhs),rhsMax =  -2.06233918831344E-11  7.02567164376530E-02
 cg2d: Sum(rhs),rhsMax =  -2.02757810541243E-11  7.12922324082308E-02
 cg2d: Sum(rhs),rhsMax =  -1.99391614330580E-11  7.22959278568390E-02
 cg2d: Sum(rhs),rhsMax =  -1.96607174984820E-11  7.32673023370724E-02
 cg2d: Sum(rhs),rhsMax =  -1.93812743631838E-11  7.42059055709697E-02
 cg2d: Sum(rhs),rhsMax =  -1.90548687939440E-11  7.51113424679587E-02
 cg2d: Sum(rhs),rhsMax =  -1.88198345796309E-11  7.59832743880874E-02
 cg2d: Sum(rhs),rhsMax =  -1.85539361652332E-11  7.68214246625723E-02
 cg2d: Sum(rhs),rhsMax =  -1.83353332516845E-11  7.76255680751770E-02
 cg2d: Sum(rhs),rhsMax =  -1.80027104335068E-11  7.83955332339359E-02
 cg2d: Sum(rhs),rhsMax =  -1.77314829485908E-11  7.92935394978768E-02
 cg2d: Sum(rhs),rhsMax =  -1.74323888657568E-11  8.02105251340802E-02
 cg2d: Sum(rhs),rhsMax =  -1.71472835930331E-11  8.10843426767991E-02
 cg2d: Sum(rhs),rhsMax =  -1.68782765541664E-11  8.19143453911446E-02
 cg2d: Sum(rhs),rhsMax =  -1.66635594212039E-11  8.26999458975993E-02
 cg2d: Sum(rhs),rhsMax =  -1.64721569717585E-11  8.34406268602322E-02
 cg2d: Sum(rhs),rhsMax =  -1.62573288164936E-11  8.41359509012426E-02
 cg2d: Sum(rhs),rhsMax =  -1.60936819426638E-11  8.47855689854681E-02
 cg2d: Sum(rhs),rhsMax =  -1.59249280429208E-11  8.53892264095743E-02
 cg2d: Sum(rhs),rhsMax =  -1.57712731763127E-11  8.59467653927625E-02
 cg2d: Sum(rhs),rhsMax =  -1.56544777141221E-11  8.64581236102584E-02
 cg2d: Sum(rhs),rhsMax =  -1.55113699662479E-11  8.69233280669912E-02
 cg2d: Sum(rhs),rhsMax =  -1.53907997457736E-11  8.73424843350122E-02
 cg2d: Sum(rhs),rhsMax =  -1.52802215325210E-11  8.77157615272267E-02
 cg2d: Sum(rhs),rhsMax =  -1.52247103812897E-11  8.80433739263372E-02
 cg2d: Sum(rhs),rhsMax =  -1.50423007383438E-11  8.83255605166216E-02
 cg2d: Sum(rhs),rhsMax =  -1.50083279137903E-11  8.85625636938905E-02
 cg2d: Sum(rhs),rhsMax =  -1.49014134365189E-11  8.87546088862795E-02
 cg2d: Sum(rhs),rhsMax =  -1.48684398126875E-11  8.89018868199822E-02
 cg2d: Sum(rhs),rhsMax =  -1.47433176778122E-11  8.90045399404055E-02
 cg2d: Sum(rhs),rhsMax =  -1.46711531812116E-11  8.90626541509145E-02
 cg2d: Sum(rhs),rhsMax =  -1.46185286098444E-11  8.90762564041349E-02
 cg2d: Sum(rhs),rhsMax =  -1.45821132946367E-11  8.90453183918158E-02
 cg2d: Sum(rhs),rhsMax =  -1.45584655442121E-11  8.89697660331499E-02
 cg2d: Sum(rhs),rhsMax =  -1.45480294477807E-11  8.88494939283681E-02
 cg2d: Sum(rhs),rhsMax =  -1.45692347075510E-11  8.86843835365449E-02
 cg2d: Sum(rhs),rhsMax =  -1.46647138876688E-11  8.84743236886504E-02
 cg2d: Sum(rhs),rhsMax =  -1.47372114511768E-11  8.82192320712599E-02
 cg2d: Sum(rhs),rhsMax =  -1.48877576933160E-11  8.79190763869556E-02
 cg2d: Sum(rhs),rhsMax =  -1.49911194569086E-11  8.75738931982220E-02
 cg2d: Sum(rhs),rhsMax =  -1.52013956977726E-11  8.71838041211200E-02
 cg2d: Sum(rhs),rhsMax =  -1.53080881304390E-11  8.67490279668507E-02
 cg2d: Sum(rhs),rhsMax =  -1.55150337022292E-11  8.62698882404387E-02
 cg2d: Sum(rhs),rhsMax =  -1.57203139394824E-11  8.57468157694110E-02
 cg2d: Sum(rhs),rhsMax =  -1.58349999779261E-11  8.51803464282982E-02
 cg2d: Sum(rhs),rhsMax =  -1.59766644358683E-11  8.45711143787246E-02
 cg2d: Sum(rhs),rhsMax =  -1.61725077774122E-11  8.39198413950568E-02
 cg2d: Sum(rhs),rhsMax =  -1.63883351333993E-11  8.32273229658677E-02
 cg2d: Sum(rhs),rhsMax =  -1.65523150741365E-11  8.24944119897063E-02
 cg2d: Sum(rhs),rhsMax =  -1.67489355717976E-11  8.17220008289545E-02
 cg2d: Sum(rhs),rhsMax =  -1.69924074810979E-11  8.09110027000446E-02
 cg2d: Sum(rhs),rhsMax =  -1.72466485537370E-11  8.00623330611516E-02
 cg2d: Sum(rhs),rhsMax =  -1.74639191996562E-11  7.91768917519974E-02
 cg2d: Sum(rhs),rhsMax =  -1.77594605688114E-11  7.82555465929769E-02
 cg2d: Sum(rhs),rhsMax =  -1.80485626444238E-11  7.72991190566394E-02
 cg2d: Sum(rhs),rhsMax =  -1.83503212625169E-11  7.63083725415000E-02
 cg2d: Sum(rhs),rhsMax =  -1.86773929655715E-11  7.52840035748608E-02
 cg2d: Sum(rhs),rhsMax =  -1.90223392593225E-11  7.42266362810144E-02
 cg2d: Sum(rhs),rhsMax =  -1.93675075976785E-11  7.31368202999012E-02
 cg2d: Sum(rhs),rhsMax =  -1.97765137599504E-11  7.20150321025825E-02
 cg2d: Sum(rhs),rhsMax =  -2.01770822272351E-11  7.08616796768678E-02
 cg2d: Sum(rhs),rhsMax =  -2.05870875902292E-11  6.97227758453942E-02
 cg2d: Sum(rhs),rhsMax =  -2.09309236609556E-11  6.87191944634532E-02
 cg2d: Sum(rhs),rhsMax =  -2.12776463115461E-11  6.76887047433815E-02
 cg2d: Sum(rhs),rhsMax =  -2.16577866751777E-11  6.66326272277868E-02
 cg2d: Sum(rhs),rhsMax =  -2.21135332267863E-11  6.55510212423136E-02
 cg2d: Sum(rhs),rhsMax =  -2.25489626970443E-11  6.44451089457652E-02
 cg2d: Sum(rhs),rhsMax =  -2.29636309967418E-11  6.33147302688104E-02
 cg2d: Sum(rhs),rhsMax =  -2.34553487743483E-11  6.21612055479325E-02
 cg2d: Sum(rhs),rhsMax =  -2.39663844325833E-11  6.09846308779981E-02
 cg2d: Sum(rhs),rhsMax =  -2.44892994771817E-11  5.97861576469701E-02
 cg2d: Sum(rhs),rhsMax =  -2.50746090557641E-11  5.85661384928423E-02
 cg2d: Sum(rhs),rhsMax =  -2.56649146379573E-11  5.73244583507252E-02
 cg2d: Sum(rhs),rhsMax =  -2.63068455907955E-11  5.60622862052999E-02
 cg2d: Sum(rhs),rhsMax =  -2.69505529004732E-11  5.47796848179370E-02
 cg2d: Sum(rhs),rhsMax =  -2.77139422522055E-11  5.34776019354671E-02
 cg2d: Sum(rhs),rhsMax =  -2.84890999679988E-11  5.21565084404914E-02
 cg2d: Sum(rhs),rhsMax =  -2.93680635365945E-11  5.08163505594491E-02
 cg2d: Sum(rhs),rhsMax =  -3.03090885722668E-11  4.94581089170441E-02
 cg2d: Sum(rhs),rhsMax =  -3.12400105784150E-11  4.80820446648841E-02
 cg2d: Sum(rhs),rhsMax =  -3.22537552222002E-11  4.66883566152458E-02
 cg2d: Sum(rhs),rhsMax =  -3.33821859044292E-11  4.52768987649358E-02
 cg2d: Sum(rhs),rhsMax =  -3.44987372002947E-11  4.38486316189955E-02
 cg2d: Sum(rhs),rhsMax =  -3.57021079366859E-11  4.24038603773898E-02
(PID.TID 0000.0001)      cg2d_init_res =   2.74583407902356E-01
(PID.TID 0000.0001)      cg2d_iters(min,last) =      -1      38
(PID.TID 0000.0001)      cg2d_last_res =   9.99821485411564E-14
(PID.TID 0000.0001) // =======================================================
(PID.TID 0000.0001) // Begin MONITOR dynamic field statistics
(PID.TID 0000.0001) // =======================================================
(PID.TID 0000.0001) %MON time_tsnumber                =                  4800
(PID.TID 0000.0001) %MON time_secondsf                =   7.2000000000000E+04
(PID.TID 0000.0001) %MON dynstat_eta_max              =   1.0051785150742E-02
(PID.TID 0000.0001) %MON dynstat_eta_min              =  -1.5413679938682E-02
(PID.TID 0000.0001) %MON dynstat_eta_mean             =   3.2549729877672E-15
(PID.TID 0000.0001) %MON dynstat_eta_sd               =   8.4863623443626E-03
(PID.TID 0000.0001) %MON dynstat_eta_del2             =   1.7519166695859E-05
(PID.TID 0000.0001) %MON dynstat_uvel_max             =   1.1776834788966E+00
(PID.TID 0000.0001) %MON dynstat_uvel_min             =  -1.0643177795112E+00
(PID.TID 0000.0001) %MON dynstat_uvel_mean            =   3.3798468716513E-01
(PID.TID 0000.0001) %MON dynstat_uvel_sd              =   1.5043756964574E-01
(PID.TID 0000.0001) %MON dynstat_uvel_del2            =   7.0862709545572E-04
(PID.TID 0000.0001) %MON dynstat_vvel_max             =   0.0000000000000E+00
(PID.TID 0000.0001) %MON dynstat_vvel_min             =   0.0000000000000E+00
(PID.TID 0000.0001) %MON dynstat_vvel_mean            =   0.0000000000000E+00
(PID.TID 0000.0001) %MON dynstat_vvel_sd              =   0.0000000000000E+00
(PID.TID 0000.0001) %MON dynstat_vvel_del2            =   0.0000000000000E+00
(PID.TID 0000.0001) %MON dynstat_wvel_max             =   2.0160296858537E-02
(PID.TID 0000.0001) %MON dynstat_wvel_min             =  -2.2981235353332E-02
(PID.TID 0000.0001) %MON dynstat_wvel_mean            =  -4.3080964467823E-20
(PID.TID 0000.0001) %MON dynstat_wvel_sd              =   1.8569188000165E-03
(PID.TID 0000.0001) %MON dynstat_wvel_del2            =   4.3323320849844E-05
(PID.TID 0000.0001) %MON dynstat_theta_max            =   1.5000000000011E+01
(PID.TID 0000.0001) %MON dynstat_theta_min            =   9.9999999999921E+00
(PID.TID 0000.0001) %MON dynstat_theta_mean           =   1.3251112846863E+01
(PID.TID 0000.0001) %MON dynstat_theta_sd             =   2.2642307358250E+00
(PID.TID 0000.0001) %MON dynstat_theta_del2           =   9.3782215273007E-04
(PID.TID 0000.0001) %MON dynstat_salt_max             =   3.5000000000000E+01
(PID.TID 0000.0001) %MON dynstat_salt_min             =   3.5000000000000E+01
(PID.TID 0000.0001) %MON dynstat_salt_mean            =   3.5000000000000E+01
(PID.TID 0000.0001) %MON dynstat_salt_sd              =   2.1316282072803E-14
(PID.TID 0000.0001) %MON dynstat_salt_del2            =   0.0000000000000E+00
(PID.TID 0000.0001) %MON dynstat_sst_max              =   1.5000000000000E+01
(PID.TID 0000.0001) %MON dynstat_sst_min              =   1.4999999999988E+01
(PID.TID 0000.0001) %MON dynstat_sst_mean             =   1.4999999999995E+01
(PID.TID 0000.0001) %MON dynstat_sst_sd               =   3.3386798336931E-12
(PID.TID 0000.0001) %MON dynstat_sst_del2             =   1.8153242802712E-14
(PID.TID 0000.0001) %MON dynstat_sss_max              =   3.5000000000000E+01
(PID.TID 0000.0001) %MON dynstat_sss_min              =   3.5000000000000E+01
(PID.TID 0000.0001) %MON dynstat_sss_mean             =   3.5000000000000E+01
(PID.TID 0000.0001) %MON dynstat_sss_sd               =   7.8159700933611E-14
(PID.TID 0000.0001) %MON dynstat_sss_del2             =   0.0000000000000E+00
(PID.TID 0000.0001) %MON forcing_qnet_max             =   0.0000000000000E+00
(PID.TID 0000.0001) %MON forcing_qnet_min             =   0.0000000000000E+00
(PID.TID 0000.0001) %MON forcing_qnet_mean            =   0.0000000000000E+00
(PID.TID 0000.0001) %MON forcing_qnet_sd              =   0.0000000000000E+00
(PID.TID 0000.0001) %MON forcing_qnet_del2            =   0.0000000000000E+00
(PID.TID 0000.0001) %MON forcing_qsw_max              =   0.0000000000000E+00
(PID.TID 0000.0001) %MON forcing_qsw_min              =   0.0000000000000E+00
(PID.TID 0000.0001) %MON forcing_qsw_mean             =   0.0000000000000E+00
(PID.TID 0000.0001) %MON forcing_qsw_sd               =   0.0000000000000E+00
(PID.TID 0000.0001) %MON forcing_qsw_del2             =   0.0000000000000E+00
(PID.TID 0000.0001) %MON forcing_empmr_max            =   0.0000000000000E+00
(PID.TID 0000.0001) %MON forcing_empmr_min            =   0.0000000000000E+00
(PID.TID 0000.0001) %MON forcing_empmr_mean           =   0.0000000000000E+00
(PID.TID 0000.0001) %MON forcing_empmr_sd             =   0.0000000000000E+00
(PID.TID 0000.0001) %MON forcing_empmr_del2           =   0.0000000000000E+00
(PID.TID 0000.0001) %MON forcing_fu_max               =   0.0000000000000E+00
(PID.TID 0000.0001) %MON forcing_fu_min               =   0.0000000000000E+00
(PID.TID 0000.0001) %MON forcing_fu_mean              =   0.0000000000000E+00
(PID.TID 0000.0001) %MON forcing_fu_sd                =   0.0000000000000E+00
(PID.TID 0000.0001) %MON forcing_fu_del2              =   0.0000000000000E+00
(PID.TID 0000.0001) %MON forcing_fv_max               =   0.0000000000000E+00
(PID.TID 0000.0001) %MON forcing_fv_min               =   0.0000000000000E+00
(PID.TID 0000.0001) %MON forcing_fv_mean              =   0.0000000000000E+00
(PID.TID 0000.0001) %MON forcing_fv_sd                =   0.0000000000000E+00
(PID.TID 0000.0001) %MON forcing_fv_del2              =   0.0000000000000E+00
(PID.TID 0000.0001) %MON advcfl_uvel_max              =   8.8326260917247E-02
(PID.TID 0000.0001) %MON advcfl_vvel_max              =   0.0000000000000E+00
(PID.TID 0000.0001) %MON advcfl_wvel_max              =   2.2544464843464E-01
(PID.TID 0000.0001) %MON advcfl_W_hf_max              =   2.2832893779414E-01
(PID.TID 0000.0001) %MON pe_b_mean                    =   1.7992430363427E-06
(PID.TID 0000.0001) %MON ke_max                       =   5.3975183728129E-01
(PID.TID 0000.0001) %MON ke_mean                      =   6.8539536771199E-02
(PID.TID 0000.0001) %MON ke_vol                       =   9.5889217545975E+10
(PID.TID 0000.0001) %MON vort_r_min                   =   0.0000000000000E+00
(PID.TID 0000.0001) %MON vort_r_max                   =   0.0000000000000E+00
(PID.TID 0000.0001) %MON vort_a_mean                  =   0.0000000000000E+00
(PID.TID 0000.0001) %MON vort_a_sd                    =   0.0000000000000E+00
(PID.TID 0000.0001) %MON vort_p_mean                  =   0.0000000000000E+00
(PID.TID 0000.0001) %MON vort_p_sd                    =   0.0000000000000E+00
(PID.TID 0000.0001) %MON surfExpan_theta_mean         =   4.0553724294401E-17
(PID.TID 0000.0001) %MON surfExpan_salt_mean          =  -2.2290349204637E-18
(PID.TID 0000.0001) // =======================================================
(PID.TID 0000.0001) // End MONITOR dynamic field statistics
(PID.TID 0000.0001) // =======================================================
(PID.TID 0000.0001) // =======================================================
(PID.TID 0000.0001) // Begin OBCS MONITOR field statistics
(PID.TID 0000.0001) // =======================================================
(PID.TID 0000.0001) %MON obc_E_uVel_max               =   3.3404902334837E-01
(PID.TID 0000.0001) %MON obc_E_uVel_min               =   3.3404902334837E-01
(PID.TID 0000.0001) %MON obc_E_uVel_mean              =   3.3404902334837E-01
(PID.TID 0000.0001) %MON obc_E_uVel_sd                =   8.3300023432813E-09
(PID.TID 0000.0001) %MON obc_E_uVel_Int               =   3.3404902334837E+05
(PID.TID 0000.0001) %MON obc_W_uVel_max               =   3.3404902334837E-01
(PID.TID 0000.0001) %MON obc_W_uVel_min               =   3.3404902334837E-01
(PID.TID 0000.0001) %MON obc_W_uVel_mean              =   3.3404902334837E-01
(PID.TID 0000.0001) %MON obc_W_uVel_sd                =   8.3300023432813E-09
(PID.TID 0000.0001) %MON obc_W_uVel_Int               =   3.3404902334837E+05
(PID.TID 0000.0001) // =======================================================
(PID.TID 0000.0001) // End OBCS MONITOR field statistics
(PID.TID 0000.0001) // =======================================================
 cg2d: Sum(rhs),rhsMax =  -3.70756758627522E-11  4.09428258420337E-02
 cg2d: Sum(rhs),rhsMax =  -3.84493548111209E-11  3.94654856546622E-02
 cg2d: Sum(rhs),rhsMax =  -4.00179889226138E-11  3.79728873487464E-02
 cg2d: Sum(rhs),rhsMax =  -4.17245127337651E-11  3.64775712673978E-02
 cg2d: Sum(rhs),rhsMax =  -4.22842871827811E-11  3.60159646942674E-02
 cg2d: Sum(rhs),rhsMax =  -4.28785895678629E-11  3.55604956628725E-02
 cg2d: Sum(rhs),rhsMax =  -4.35106395357820E-11  3.51025652235452E-02
 cg2d: Sum(rhs),rhsMax =  -4.41607861390025E-11  3.46422294461533E-02
 cg2d: Sum(rhs),rhsMax =  -4.48263648422653E-11  3.41794705349280E-02
 cg2d: Sum(rhs),rhsMax =  -4.54591919663017E-11  3.37142149005947E-02
 cg2d: Sum(rhs),rhsMax =  -4.61301552512339E-11  3.32463572687896E-02
 cg2d: Sum(rhs),rhsMax =  -4.43530767668676E-11  3.46036088382346E-02
 cg2d: Sum(rhs),rhsMax =  -4.17532675101029E-11  3.68136385412077E-02
 cg2d: Sum(rhs),rhsMax =  -3.93655108510416E-11  3.90963969610624E-02
 cg2d: Sum(rhs),rhsMax =  -3.71650765718101E-11  4.14918679315674E-02
 cg2d: Sum(rhs),rhsMax =  -3.51455808900170E-11  4.38979888422098E-02
 cg2d: Sum(rhs),rhsMax =  -3.33695709953119E-11  4.63137600266400E-02
 cg2d: Sum(rhs),rhsMax =  -3.17412519879046E-11  4.87381413526639E-02
 cg2d: Sum(rhs),rhsMax =  -3.02745693098183E-11  5.11700591031940E-02
 cg2d: Sum(rhs),rhsMax =  -2.89189019953007E-11  5.36084141587460E-02
 cg2d: Sum(rhs),rhsMax =  -2.77796674552633E-11  5.60520912333997E-02
 cg2d: Sum(rhs),rhsMax =  -2.66727195885608E-11  5.84999688085138E-02
 cg2d: Sum(rhs),rhsMax =  -2.56769050466232E-11  6.09509293075908E-02
 cg2d: Sum(rhs),rhsMax =  -2.47504516881492E-11  6.34038689772205E-02
 cg2d: Sum(rhs),rhsMax =  -2.38928876683531E-11  6.58577068954954E-02
 cg2d: Sum(rhs),rhsMax =  -2.30897245767636E-11  6.83113925293354E-02
 cg2d: Sum(rhs),rhsMax =  -2.23488172412800E-11  7.07639112937501E-02
 cg2d: Sum(rhs),rhsMax =  -2.16625606341836E-11  7.32142877500429E-02
 cg2d: Sum(rhs),rhsMax =  -2.10426676083841E-11  7.56615860731261E-02
 cg2d: Sum(rhs),rhsMax =  -2.04332661901674E-11  7.81049076948773E-02
 cg2d: Sum(rhs),rhsMax =  -1.98563943065722E-11  8.05433862006270E-02
 cg2d: Sum(rhs),rhsMax =  -1.93363103306865E-11  8.29761797344419E-02
 cg2d: Sum(rhs),rhsMax =  -1.88304372095160E-11  8.54024613403445E-02
 cg2d: Sum(rhs),rhsMax =  -1.83585369128991E-11  8.78214078084808E-02
 cg2d: Sum(rhs),rhsMax =  -1.79423143009672E-11  9.02321876844983E-02
 cg2d: Sum(rhs),rhsMax =  -1.74997238922003E-11  9.26339491510631E-02
 cg2d: Sum(rhs),rhsMax =  -1.71017089378722E-11  9.50258084813618E-02
 cg2d: Sum(rhs),rhsMax =  -1.67484914825877E-11  9.74068397137432E-02
 cg2d: Sum(rhs),rhsMax =  -1.63932201147077E-11  9.97760661204253E-02
 cg2d: Sum(rhs),rhsMax =  -1.60485513767128E-11  1.02132453912357E-01
 cg2d: Sum(rhs),rhsMax =  -1.57960866609130E-11  1.04474908486847E-01
 cg2d: Sum(rhs),rhsMax =  -1.55499502163536E-11  1.06802273385698E-01
 cg2d: Sum(rhs),rhsMax =  -1.52446943957329E-11  1.09113331998950E-01
 cg2d: Sum(rhs),rhsMax =  -1.50160439638114E-11  1.11406811929468E-01
 cg2d: Sum(rhs),rhsMax =  -1.47877265987972E-11  1.13681391830435E-01
 cg2d: Sum(rhs),rhsMax =  -1.45878309432135E-11  1.15935710442630E-01
 cg2d: Sum(rhs),rhsMax =  -1.43404177421758E-11  1.18168377490207E-01
 cg2d: Sum(rhs),rhsMax =  -1.41000544573444E-11  1.20377986040732E-01
 cg2d: Sum(rhs),rhsMax =  -1.38995481790971E-11  1.22563125892163E-01
 cg2d: Sum(rhs),rhsMax =  -1.37387323739802E-11  1.24722397514090E-01
 cg2d: Sum(rhs),rhsMax =  -1.35630395803332E-11  1.26854426051355E-01
 cg2d: Sum(rhs),rhsMax =  -1.34119382266817E-11  1.28957874883151E-01
 cg2d: Sum(rhs),rhsMax =  -1.32546196240924E-11  1.31031458226850E-01
 cg2d: Sum(rhs),rhsMax =  -1.31182842366684E-11  1.33073952289266E-01
 cg2d: Sum(rhs),rhsMax =  -1.29892763212069E-11  1.35084204504224E-01
 cg2d: Sum(rhs),rhsMax =  -1.28523858222707E-11  1.37061140450501E-01
 cg2d: Sum(rhs),rhsMax =  -1.27371446723146E-11  1.39003768138395E-01
 cg2d: Sum(rhs),rhsMax =  -1.26247901022225E-11  1.40911179464643E-01
 cg2d: Sum(rhs),rhsMax =  -1.25032206810261E-11  1.42782548764174E-01
 cg2d: Sum(rhs),rhsMax =  -1.24046328764393E-11  1.44617128544266E-01
 cg2d: Sum(rhs),rhsMax =  -1.22991616890999E-11  1.46414242644805E-01
 cg2d: Sum(rhs),rhsMax =  -1.22137855385063E-11  1.48173277220218E-01
 cg2d: Sum(rhs),rhsMax =  -1.21166410238516E-11  1.49893670071420E-01
 cg2d: Sum(rhs),rhsMax =  -1.20254917135298E-11  1.51574898960643E-01
 cg2d: Sum(rhs),rhsMax =  -1.19445564550347E-11  1.53216469592495E-01
 cg2d: Sum(rhs),rhsMax =  -1.18484111411021E-11  1.54817903969035E-01
 cg2d: Sum(rhs),rhsMax =  -1.17755805106867E-11  1.56378729780341E-01
 cg2d: Sum(rhs),rhsMax =  -1.16938680960743E-11  1.57898471428694E-01
 cg2d: Sum(rhs),rhsMax =  -1.16167075958629E-11  1.59376643140375E-01
 cg2d: Sum(rhs),rhsMax =  -1.15241149956091E-11  1.60812744459446E-01
 cg2d: Sum(rhs),rhsMax =  -1.14526166328233E-11  1.62206258223674E-01
 cg2d: Sum(rhs),rhsMax =  -1.13872244966728E-11  1.63556651003432E-01
 cg2d: Sum(rhs),rhsMax =  -1.13550280289587E-11  1.64863375797468E-01
 cg2d: Sum(rhs),rhsMax =  -1.13504761145578E-11  1.66125876644247E-01
 cg2d: Sum(rhs),rhsMax =  -1.13665743484148E-11  1.67343594713295E-01
 cg2d: Sum(rhs),rhsMax =  -1.13296039216948E-11  1.68515975383855E-01
 cg2d: Sum(rhs),rhsMax =  -1.13202780482879E-11  1.69642475800640E-01
 cg2d: Sum(rhs),rhsMax =  -1.13152820446771E-11  1.70722572433205E-01
 cg2d: Sum(rhs),rhsMax =  -1.13009601676595E-11  1.71755768225958E-01
 cg2d: Sum(rhs),rhsMax =  -1.12784226402596E-11  1.72741599007021E-01
 cg2d: Sum(rhs),rhsMax =  -1.12758691273029E-11  1.73679638928565E-01
 cg2d: Sum(rhs),rhsMax =  -1.12524434214833E-11  1.74569504753355E-01
 cg2d: Sum(rhs),rhsMax =  -1.12213571767938E-11  1.75410858950964E-01
 cg2d: Sum(rhs),rhsMax =  -1.12105880134550E-11  1.76203411606814E-01
 cg2d: Sum(rhs),rhsMax =  -1.12069242774737E-11  1.76946921192072E-01
 cg2d: Sum(rhs),rhsMax =  -1.11782805234384E-11  1.77641194275577E-01
 cg2d: Sum(rhs),rhsMax =  -1.11676223824020E-11  1.78286084264665E-01
 cg2d: Sum(rhs),rhsMax =  -1.11637366018158E-11  1.78881489271501E-01
 cg2d: Sum(rhs),rhsMax =  -1.11900488874994E-11  1.79427349201010E-01
 cg2d: Sum(rhs),rhsMax =  -1.11796127910679E-11  1.79923642164324E-01
 cg2d: Sum(rhs),rhsMax =  -1.12342357638795E-11  1.80370380297612E-01
 cg2d: Sum(rhs),rhsMax =  -1.12377884775583E-11  1.80767605100889E-01
 cg2d: Sum(rhs),rhsMax =  -1.12556630682548E-11  1.81115382450621E-01
 cg2d: Sum(rhs),rhsMax =  -1.12375664329534E-11  1.81413797446055E-01
 cg2d: Sum(rhs),rhsMax =  -1.12780895733522E-11  1.81662949276676E-01
 cg2d: Sum(rhs),rhsMax =  -1.12728715251365E-11  1.81862946322990E-01
 cg2d: Sum(rhs),rhsMax =  -1.12621023617976E-11  1.82013901699307E-01
 cg2d: Sum(rhs),rhsMax =  -1.12769793503276E-11  1.82115929489755E-01
 cg2d: Sum(rhs),rhsMax =  -1.12703180121798E-11  1.82169141925064E-01
 cg2d: Sum(rhs),rhsMax =  -1.12717613021118E-11  1.82173647595517E-01
 cg2d: Sum(rhs),rhsMax =  -1.13388187727992E-11  1.82129550813954E-01
 cg2d: Sum(rhs),rhsMax =  -1.14021014852028E-11  1.82036952171153E-01
 cg2d: Sum(rhs),rhsMax =  -1.13719034189330E-11  1.81895950248038E-01
 cg2d: Sum(rhs),rhsMax =  -1.13449249994346E-11  1.81706644361356E-01
 cg2d: Sum(rhs),rhsMax =  -1.13510312260701E-11  1.81469138157334E-01
 cg2d: Sum(rhs),rhsMax =  -1.12755360603956E-11  1.81183543820815E-01
 cg2d: Sum(rhs),rhsMax =  -1.12263531804047E-11  1.80849986464487E-01
 cg2d: Sum(rhs),rhsMax =  -1.11611830888592E-11  1.80468608518119E-01
 cg2d: Sum(rhs),rhsMax =  -1.10856879231847E-11  1.80039573806793E-01
 cg2d: Sum(rhs),rhsMax =  -1.10071951553437E-11  1.79563071032669E-01
 cg2d: Sum(rhs),rhsMax =  -1.09884323862275E-11  1.79039316433806E-01
 cg2d: Sum(rhs),rhsMax =  -1.09828812711044E-11  1.78468555460378E-01
 cg2d: Sum(rhs),rhsMax =  -1.09734443753950E-11  1.77851063342805E-01
 cg2d: Sum(rhs),rhsMax =  -1.09394715508415E-11  1.77187144715179E-01
 cg2d: Sum(rhs),rhsMax =  -1.09439124429400E-11  1.76477132285477E-01
 cg2d: Sum(rhs),rhsMax =  -1.09074971277323E-11  1.75721384702382E-01
 cg2d: Sum(rhs),rhsMax =  -1.09191544694909E-11  1.74920283836933E-01
 cg2d: Sum(rhs),rhsMax =  -1.08948405852516E-11  1.74074231732322E-01
 cg2d: Sum(rhs),rhsMax =  -1.08698605671975E-11  1.73183647483964E-01
 cg2d: Sum(rhs),rhsMax =  -1.08496545081493E-11  1.72248964296674E-01
 cg2d: Sum(rhs),rhsMax =  -1.08176800850401E-11  1.71270626929526E-01
 cg2d: Sum(rhs),rhsMax =  -1.07962527806649E-11  1.70249089685962E-01
 cg2d: Sum(rhs),rhsMax =  -1.07763797885241E-11  1.69184815079511E-01
 cg2d: Sum(rhs),rhsMax =  -1.08030251411151E-11  1.68078273103223E-01
 cg2d: Sum(rhs),rhsMax =  -1.08463238390755E-11  1.66929941052707E-01
 cg2d: Sum(rhs),rhsMax =  -1.08874020909866E-11  1.65740303970834E-01
 cg2d: Sum(rhs),rhsMax =  -1.09461328889893E-11  1.64509855401734E-01
 cg2d: Sum(rhs),rhsMax =  -1.09778852674935E-11  1.63239098295798E-01
 cg2d: Sum(rhs),rhsMax =  -1.10601527936183E-11  1.61928545876245E-01
 cg2d: Sum(rhs),rhsMax =  -1.10971232203383E-11  1.60578722292982E-01
 cg2d: Sum(rhs),rhsMax =  -1.11520792600572E-11  1.59190162935451E-01
 cg2d: Sum(rhs),rhsMax =  -1.12091447235230E-11  1.57763414334749E-01
 cg2d: Sum(rhs),rhsMax =  -1.12760911719079E-11  1.56299033656713E-01
 cg2d: Sum(rhs),rhsMax =  -1.13510312260701E-11  1.54797587843777E-01
 cg2d: Sum(rhs),rhsMax =  -1.14306342169357E-11  1.53259652546965E-01
 cg2d: Sum(rhs),rhsMax =  -1.15005782674871E-11  1.51685811032404E-01
 cg2d: Sum(rhs),rhsMax =  -1.15665255151498E-11  1.50076653275647E-01
 cg2d: Sum(rhs),rhsMax =  -1.16060494548265E-11  1.48432775461044E-01
 cg2d: Sum(rhs),rhsMax =  -1.17029719248762E-11  1.46754780090138E-01
 cg2d: Sum(rhs),rhsMax =  -1.17983400826915E-11  1.45043276822784E-01
 cg2d: Sum(rhs),rhsMax =  -1.18954845973462E-11  1.43298884125298E-01
 cg2d: Sum(rhs),rhsMax =  -1.19938503573280E-11  1.41522231755155E-01
 cg2d: Sum(rhs),rhsMax =  -1.20848886453473E-11  1.39713963984977E-01
 cg2d: Sum(rhs),rhsMax =  -1.21682663944966E-11  1.37874743346161E-01
 cg2d: Sum(rhs),rhsMax =  -1.23042687150132E-11  1.36005254754300E-01
 cg2d: Sum(rhs),rhsMax =  -1.23946963803689E-11  1.34106209719146E-01
 cg2d: Sum(rhs),rhsMax =  -1.25388033289653E-11  1.32178350275798E-01
 cg2d: Sum(rhs),rhsMax =  -1.26623711516061E-11  1.30222452368089E-01
 cg2d: Sum(rhs),rhsMax =  -1.27964305818296E-11  1.28239328447791E-01
 cg2d: Sum(rhs),rhsMax =  -1.29448674002219E-11  1.26229829101139E-01
 cg2d: Sum(rhs),rhsMax =  -1.30682131782578E-11  1.24194843575405E-01
 cg2d: Sum(rhs),rhsMax =  -1.32065469671261E-11  1.22135299149817E-01
 cg2d: Sum(rhs),rhsMax =  -1.33853483852420E-11  1.20052159371818E-01
 cg2d: Sum(rhs),rhsMax =  -1.35738087436721E-11  1.17946421242793E-01
 cg2d: Sum(rhs),rhsMax =  -1.37985733950075E-11  1.15819111508364E-01
 cg2d: Sum(rhs),rhsMax =  -1.39638856033741E-11  1.13671282261154E-01
 cg2d: Sum(rhs),rhsMax =  -1.41465172909250E-11  1.11504006064341E-01
 cg2d: Sum(rhs),rhsMax =  -1.44076417463168E-11  1.09318370832894E-01
 cg2d: Sum(rhs),rhsMax =  -1.45742862223130E-11  1.07115474714030E-01
 cg2d: Sum(rhs),rhsMax =  -1.47937773142814E-11  1.04896421155138E-01
 cg2d: Sum(rhs),rhsMax =  -1.50598422621329E-11  1.02662314362311E-01
 cg2d: Sum(rhs),rhsMax =  -1.53410062431192E-11  1.00414255314485E-01
 cg2d: Sum(rhs),rhsMax =  -1.56470392198571E-11  9.81533384316086E-02
 cg2d: Sum(rhs),rhsMax =  -1.59716129211063E-11  9.58806489662366E-02
 cg2d: Sum(rhs),rhsMax =  -1.63030700051081E-11  9.35972611384717E-02
 cg2d: Sum(rhs),rhsMax =  -1.66388569589060E-11  9.13042370335590E-02
 cg2d: Sum(rhs),rhsMax =  -1.70182201664204E-11  8.90026262129566E-02
 cg2d: Sum(rhs),rhsMax =  -1.74198988567298E-11  8.66934659539750E-02
 cg2d: Sum(rhs),rhsMax =  -1.78130843409008E-11  8.43777820075779E-02
 cg2d: Sum(rhs),rhsMax =  -1.85587101242390E-11  8.20565897472677E-02
 cg2d: Sum(rhs),rhsMax =  -1.90488458340354E-11  7.97308955713860E-02
 cg2d: Sum(rhs),rhsMax =  -1.95596594476655E-11  7.74016984171423E-02
 cg2d: Sum(rhs),rhsMax =  -2.01153538270660E-11  7.50699912467556E-02
 cg2d: Sum(rhs),rhsMax =  -2.07134032148559E-11  7.27367623784677E-02
 cg2d: Sum(rhs),rhsMax =  -2.13617457056614E-11  7.04029965533348E-02
 cg2d: Sum(rhs),rhsMax =  -2.20640172798880E-11  6.80696756525650E-02
 cg2d: Sum(rhs),rhsMax =  -2.27896729265709E-11  6.57377790083051E-02
 cg2d: Sum(rhs),rhsMax =  -2.35176184082420E-11  6.34082832902660E-02
 cg2d: Sum(rhs),rhsMax =  -2.43434716828972E-11  6.10821619461583E-02
 cg2d: Sum(rhs),rhsMax =  -2.52183759985591E-11  5.87603842497909E-02
 cg2d: Sum(rhs),rhsMax =  -2.61707018903157E-11  5.64439140044241E-02
 cg2d: Sum(rhs),rhsMax =  -2.71906872018057E-11  5.41337079761462E-02
 cg2d: Sum(rhs),rhsMax =  -2.83106038612146E-11  5.18307141499304E-02
 cg2d: Sum(rhs),rhsMax =  -2.94866631112001E-11  4.95358699039227E-02
 cg2d: Sum(rhs),rhsMax =  -3.08908176815947E-11  4.72501002103514E-02
 cg2d: Sum(rhs),rhsMax =  -3.23534810053872E-11  4.49743159677945E-02
 cg2d: Sum(rhs),rhsMax =  -3.39493433365590E-11  4.27094125920887E-02
 cg2d: Sum(rhs),rhsMax =  -3.57372464954153E-11  4.04562689519209E-02
 cg2d: Sum(rhs),rhsMax =  -3.77879394442004E-11  3.82157467373237E-02
 cg2d: Sum(rhs),rhsMax =  -4.00421362733994E-11  3.59886903420847E-02
 cg2d: Sum(rhs),rhsMax =  -3.97931687601272E-11  3.62078758228110E-02
 cg2d: Sum(rhs),rhsMax =  -3.92396115600491E-11  3.66528297252998E-02
 cg2d: Sum(rhs),rhsMax =  -3.87213594521540E-11  3.70922180622773E-02
 cg2d: Sum(rhs),rhsMax =  -3.82207598903506E-11  3.75262088490400E-02
 cg2d: Sum(rhs),rhsMax =  -3.77531339523784E-11  3.79669077336004E-02
 cg2d: Sum(rhs),rhsMax =  -3.64762664517571E-11  3.92421681179148E-02
 cg2d: Sum(rhs),rhsMax =  -3.51255691199981E-11  4.06451573314172E-02
 cg2d: Sum(rhs),rhsMax =  -3.39593908549318E-11  4.20317611909241E-02
 cg2d: Sum(rhs),rhsMax =  -3.27268212529930E-11  4.34012853852554E-02
 cg2d: Sum(rhs),rhsMax =  -3.17221804380097E-11  4.47530590606003E-02
 cg2d: Sum(rhs),rhsMax =  -3.07147640654648E-11  4.60864075996767E-02
 cg2d: Sum(rhs),rhsMax =  -2.98239211105056E-11  4.74006683093732E-02
 cg2d: Sum(rhs),rhsMax =  -2.89513968354527E-11  4.86951891473846E-02
 cg2d: Sum(rhs),rhsMax =  -2.81575873728457E-11  4.99693362099615E-02
 cg2d: Sum(rhs),rhsMax =  -2.73708833375963E-11  5.12228589862566E-02
 cg2d: Sum(rhs),rhsMax =  -2.66799915493721E-11  5.24547814563060E-02
 cg2d: Sum(rhs),rhsMax =  -2.59563481819214E-11  5.36648359139461E-02
 cg2d: Sum(rhs),rhsMax =  -2.53250753701195E-11  5.48521600078821E-02
 cg2d: Sum(rhs),rhsMax =  -2.47361020555559E-11  5.60166504851944E-02
 cg2d: Sum(rhs),rhsMax =  -2.41883180152058E-11  5.71575970159146E-02
 cg2d: Sum(rhs),rhsMax =  -2.36696218181009E-11  5.82750273823485E-02
 cg2d: Sum(rhs),rhsMax =  -2.31188401755844E-11  5.93683348421622E-02
 cg2d: Sum(rhs),rhsMax =  -2.26817453707895E-11  6.04376413162457E-02
 cg2d: Sum(rhs),rhsMax =  -2.22035723140834E-11  6.14824170713257E-02
 cg2d: Sum(rhs),rhsMax =  -2.17456053164256E-11  6.25024840639326E-02
 cg2d: Sum(rhs),rhsMax =  -2.13523643211033E-11  6.34980821927364E-02
 cg2d: Sum(rhs),rhsMax =  -2.10097494957040E-11  6.44686497583556E-02
 cg2d: Sum(rhs),rhsMax =  -2.06477057673737E-11  6.54142435391322E-02
 cg2d: Sum(rhs),rhsMax =  -2.03140837484739E-11  6.63341843507918E-02
 cg2d: Sum(rhs),rhsMax =  -2.00160998886645E-11  6.72468452252346E-02
 cg2d: Sum(rhs),rhsMax =  -1.97416527569771E-11  6.81336182726448E-02
 cg2d: Sum(rhs),rhsMax =  -1.94377847151372E-11  6.89925195915914E-02
 cg2d: Sum(rhs),rhsMax =  -1.91483495726175E-11  6.98236638913213E-02
 cg2d: Sum(rhs),rhsMax =  -1.89517290749563E-11  7.06264438399783E-02
 cg2d: Sum(rhs),rhsMax =  -1.86961557346876E-11  7.13997621287714E-02
 cg2d: Sum(rhs),rhsMax =  -1.84556814275538E-11  7.21437253752262E-02
 cg2d: Sum(rhs),rhsMax =  -1.82541759485844E-11  7.28573362837618E-02
 cg2d: Sum(rhs),rhsMax =  -1.79425363455721E-11  7.35406752472891E-02
 cg2d: Sum(rhs),rhsMax =  -1.76998415923890E-11  7.41931671235492E-02
 cg2d: Sum(rhs),rhsMax =  -1.75254255552204E-11  7.48138324672979E-02
 cg2d: Sum(rhs),rhsMax =  -1.73009384596412E-11  7.54029355802022E-02
 cg2d: Sum(rhs),rhsMax =  -1.71139769022943E-11  7.59601703706365E-02
 cg2d: Sum(rhs),rhsMax =  -1.69472214039956E-11  7.64848528298206E-02
 cg2d: Sum(rhs),rhsMax =  -1.67783564819501E-11  7.69774747287094E-02
 cg2d: Sum(rhs),rhsMax =  -1.66474611873468E-11  7.74375351917319E-02
 cg2d: Sum(rhs),rhsMax =  -1.65127911344598E-11  7.79121562505043E-02
 cg2d: Sum(rhs),rhsMax =  -1.63387081641986E-11  7.84318797284315E-02
 cg2d: Sum(rhs),rhsMax =  -1.62322377761370E-11  7.89145484523054E-02
 cg2d: Sum(rhs),rhsMax =  -1.60580437835733E-11  7.93598020285306E-02
 cg2d: Sum(rhs),rhsMax =  -1.59140478572795E-11  7.97672729715707E-02
 cg2d: Sum(rhs),rhsMax =  -1.58209001455134E-11  8.01366042491284E-02
 cg2d: Sum(rhs),rhsMax =  -1.57188706495504E-11  8.04674647298236E-02
 cg2d: Sum(rhs),rhsMax =  -1.56145096852356E-11  8.07595610628407E-02
 cg2d: Sum(rhs),rhsMax =  -1.55354618058823E-11  8.10126447624864E-02
 cg2d: Sum(rhs),rhsMax =  -1.54629642423743E-11  8.12265151184995E-02
 cg2d: Sum(rhs),rhsMax =  -1.53685952852811E-11  8.14010187362648E-02
 cg2d: Sum(rhs),rhsMax =  -1.53053125728775E-11  8.15360464290830E-02
 cg2d: Sum(rhs),rhsMax =  -1.52426959942886E-11  8.16315284587332E-02
 cg2d: Sum(rhs),rhsMax =  -1.52476919978994E-11  8.16874287599840E-02
 cg2d: Sum(rhs),rhsMax =  -1.52808876663357E-11  8.17037392153836E-02
 cg2d: Sum(rhs),rhsMax =  -1.51855195085204E-11  8.16804751994378E-02
 cg2d: Sum(rhs),rhsMax =  -1.51645362933550E-11  8.16176731856404E-02
 cg2d: Sum(rhs),rhsMax =  -1.51870738207549E-11  8.15153901479862E-02
 cg2d: Sum(rhs),rhsMax =  -1.51686441185461E-11  8.13737047732839E-02
 cg2d: Sum(rhs),rhsMax =  -1.51811896387244E-11  8.11927195622064E-02
 cg2d: Sum(rhs),rhsMax =  -1.52247103812897E-11  8.09725630998089E-02
 cg2d: Sum(rhs),rhsMax =  -1.52226009575429E-11  8.07133921501790E-02
 cg2d: Sum(rhs),rhsMax =  -1.52652335216885E-11  8.04153931984195E-02
 cg2d: Sum(rhs),rhsMax =  -1.53433932226221E-11  8.00787830528566E-02
 cg2d: Sum(rhs),rhsMax =  -1.55582213778871E-11  7.97038075341650E-02
 cg2d: Sum(rhs),rhsMax =  -1.56910040516323E-11  7.92907374904857E-02
 cg2d: Sum(rhs),rhsMax =  -1.57923674137805E-11  7.88398627465344E-02
 cg2d: Sum(rhs),rhsMax =  -1.59241508868035E-11  7.83514845612914E-02
 cg2d: Sum(rhs),rhsMax =  -1.60815805116954E-11  7.78259069342425E-02
 cg2d: Sum(rhs),rhsMax =  -1.62393432034946E-11  7.72634273113209E-02
 cg2d: Sum(rhs),rhsMax =  -1.64267488500514E-11  7.66643271403190E-02
 cg2d: Sum(rhs),rhsMax =  -1.66565650161488E-11  7.60288632936296E-02
 cg2d: Sum(rhs),rhsMax =  -1.68296487856878E-11  7.53572615989175E-02
 cg2d: Sum(rhs),rhsMax =  -1.70201630567135E-11  7.46497134336847E-02
 cg2d: Sum(rhs),rhsMax =  -1.72349912119785E-11  7.39063757446959E-02
 cg2d: Sum(rhs),rhsMax =  -1.74251724160968E-11  7.31273747791032E-02
 cg2d: Sum(rhs),rhsMax =  -1.76773040649891E-11  7.23128135251599E-02
 cg2d: Sum(rhs),rhsMax =  -1.78947967555132E-11  7.14627823619774E-02
 cg2d: Sum(rhs),rhsMax =  -1.81851200764527E-11  7.05773719409760E-02
 cg2d: Sum(rhs),rhsMax =  -1.84295911864751E-11  6.97713477220268E-02
 cg2d: Sum(rhs),rhsMax =  -1.87048154742797E-11  6.89492214310918E-02
 cg2d: Sum(rhs),rhsMax =  -1.89424032015495E-11  6.80994472380763E-02
 cg2d: Sum(rhs),rhsMax =  -1.92478255556239E-11  6.72223804361135E-02
 cg2d: Sum(rhs),rhsMax =  -1.95432559024766E-11  6.63183875917991E-02
 cg2d: Sum(rhs),rhsMax =  -1.99145144819113E-11  6.53878284239566E-02
 cg2d: Sum(rhs),rhsMax =  -2.02312611108368E-11  6.44310544266843E-02
 cg2d: Sum(rhs),rhsMax =  -2.06346051356832E-11  6.34484208777499E-02
 cg2d: Sum(rhs),rhsMax =  -2.09909867265878E-11  6.24480695860002E-02
 cg2d: Sum(rhs),rhsMax =  -2.13917772384775E-11  6.14351770615408E-02
 cg2d: Sum(rhs),rhsMax =  -2.17946771741140E-11  6.03984612953789E-02
 cg2d: Sum(rhs),rhsMax =  -2.22364349156123E-11  5.93384695607321E-02
 cg2d: Sum(rhs),rhsMax =  -2.27154961507381E-11  5.82557979951845E-02
 cg2d: Sum(rhs),rhsMax =  -2.31892283153456E-11  5.71510774160038E-02
 cg2d: Sum(rhs),rhsMax =  -2.37554420579045E-11  5.60249654269998E-02
 cg2d: Sum(rhs),rhsMax =  -2.43027820090447E-11  5.48781390277517E-02
 cg2d: Sum(rhs),rhsMax =  -2.48848719408556E-11  5.37112833184117E-02
 cg2d: Sum(rhs),rhsMax =  -2.55270249382988E-11  5.25250760402416E-02
 cg2d: Sum(rhs),rhsMax =  -2.61656252220632E-11  5.13201703496535E-02
 cg2d: Sum(rhs),rhsMax =  -2.69354538673383E-11  5.00971783169988E-02
 cg2d: Sum(rhs),rhsMax =  -2.76622058592579E-11  4.88566582486170E-02
 cg2d: Sum(rhs),rhsMax =  -2.84305912146010E-11  4.75991203609378E-02
 cg2d: Sum(rhs),rhsMax =  -2.92663671075388E-11  4.63250092605000E-02
 cg2d: Sum(rhs),rhsMax =  -3.00971469968658E-11  4.50346976761321E-02
 cg2d: Sum(rhs),rhsMax =  -3.10591552477035E-11  4.37285000656548E-02
 cg2d: Sum(rhs),rhsMax =  -3.20623527727548E-11  4.24066906450272E-02
 cg2d: Sum(rhs),rhsMax =  -3.31756844218489E-11  4.10695320544362E-02
 cg2d: Sum(rhs),rhsMax =  -3.43055583940099E-11  3.97172990473448E-02
 cg2d: Sum(rhs),rhsMax =  -3.55725449097122E-11  3.83502999578103E-02
 cg2d: Sum(rhs),rhsMax =  -3.62736507497630E-11  3.77459902202136E-02
 cg2d: Sum(rhs),rhsMax =  -3.67114116883727E-11  3.72922323761622E-02
 cg2d: Sum(rhs),rhsMax =  -3.73098218986456E-11  3.68349153601009E-02
 cg2d: Sum(rhs),rhsMax =  -3.78697073699641E-11  3.63739615204457E-02
 cg2d: Sum(rhs),rhsMax =  -3.84291487520727E-11  3.59092984918161E-02
 cg2d: Sum(rhs),rhsMax =  -3.89850374205025E-11  3.54408902317720E-02
 cg2d: Sum(rhs),rhsMax =  -3.95394827990003E-11  3.49687388445523E-02
 cg2d: Sum(rhs),rhsMax =  -4.01838562424928E-11  3.44929025974046E-02
 cg2d: Sum(rhs),rhsMax =  -3.85047549400497E-11  3.60439733291256E-02
 cg2d: Sum(rhs),rhsMax =  -3.63385432855523E-11  3.82197696448344E-02
 cg2d: Sum(rhs),rhsMax =  -3.44601569501890E-11  4.04080939085073E-02
 cg2d: Sum(rhs),rhsMax =  -3.27825822044048E-11  4.26079744770418E-02
 cg2d: Sum(rhs),rhsMax =  -3.11912995432095E-11  4.48184054992583E-02
 cg2d: Sum(rhs),rhsMax =  -2.98494839956476E-11  4.70383483054425E-02
 cg2d: Sum(rhs),rhsMax =  -2.85874518501927E-11  4.92667349148492E-02
 cg2d: Sum(rhs),rhsMax =  -2.74469960648283E-11  5.15024737387366E-02
 cg2d: Sum(rhs),rhsMax =  -2.64054906412570E-11  5.37444573738009E-02
 cg2d: Sum(rhs),rhsMax =  -2.54324374060477E-11  5.59915721742128E-02
 cg2d: Sum(rhs),rhsMax =  -2.45538103738063E-11  5.82427090903220E-02
 cg2d: Sum(rhs),rhsMax =  -2.36984182278022E-11  6.04967750928045E-02
 cg2d: Sum(rhs),rhsMax =  -2.29204016877205E-11  6.27527043817346E-02
 cg2d: Sum(rhs),rhsMax =  -2.22069307387329E-11  6.50094685257167E-02
 cg2d: Sum(rhs),rhsMax =  -2.15213125098757E-11  6.72660846959279E-02
 cg2d: Sum(rhs),rhsMax =  -2.09034178855205E-11  6.95216212558449E-02
 cg2d: Sum(rhs),rhsMax =  -2.03128902587224E-11  7.17752001351358E-02
 cg2d: Sum(rhs),rhsMax =  -1.97524774314672E-11  7.40259956343328E-02
 cg2d: Sum(rhs),rhsMax =  -1.92300897428055E-11  7.62732295856819E-02
 cg2d: Sum(rhs),rhsMax =  -1.87179716171215E-11  7.85161630945041E-02
 cg2d: Sum(rhs),rhsMax =  -1.82698856043828E-11  8.07540852801379E-02
 cg2d: Sum(rhs),rhsMax =  -1.78284054186406E-11  8.29862997599696E-02
 cg2d: Sum(rhs),rhsMax =  -1.74048553347461E-11  8.52121097760856E-02
 cg2d: Sum(rhs),rhsMax =  -1.70201075455623E-11  8.74308029780203E-02
 cg2d: Sum(rhs),rhsMax =  -1.66590630179542E-11  8.96416369165027E-02
 cg2d: Sum(rhs),rhsMax =  -1.62840851913870E-11  9.18438262592098E-02
 cg2d: Sum(rhs),rhsMax =  -1.59436353008857E-11  9.40365326169970E-02
 cg2d: Sum(rhs),rhsMax =  -1.56278323615311E-11  9.62188576868232E-02
 cg2d: Sum(rhs),rhsMax =  -1.53319579254685E-11  9.83898401859994E-02
 cg2d: Sum(rhs),rhsMax =  -1.51172963036572E-11  1.00548456789434E-01
 cg2d: Sum(rhs),rhsMax =  -1.48203116445700E-11  1.02693627007873E-01
 cg2d: Sum(rhs),rhsMax =  -1.46217482566158E-11  1.04824221681792E-01
 cg2d: Sum(rhs),rhsMax =  -1.44214640229734E-11  1.06939074531595E-01
 cg2d: Sum(rhs),rhsMax =  -1.42336697983581E-11  1.09036996015641E-01
 cg2d: Sum(rhs),rhsMax =  -1.40389921909900E-11  1.11116788614500E-01
 cg2d: Sum(rhs),rhsMax =  -1.38786759862342E-11  1.13177262589518E-01
 cg2d: Sum(rhs),rhsMax =  -1.37155842239167E-11  1.15217251258153E-01
 cg2d: Sum(rhs),rhsMax =  -1.35514377497259E-11  1.17235624885979E-01
 cg2d: Sum(rhs),rhsMax =  -1.33906774557602E-11  1.19231302409446E-01
 cg2d: Sum(rhs),rhsMax =  -1.32466815294663E-11  1.21203260356789E-01
 cg2d: Sum(rhs),rhsMax =  -1.31126776103940E-11  1.23150538541856E-01
 cg2d: Sum(rhs),rhsMax =  -1.29644628366066E-11  1.25072242312386E-01
 cg2d: Sum(rhs),rhsMax =  -1.28233534901767E-11  1.26967541361514E-01
 cg2d: Sum(rhs),rhsMax =  -1.27146071449147E-11  1.28835665326961E-01
 cg2d: Sum(rhs),rhsMax =  -1.25860988298143E-11  1.30675896591482E-01
 cg2d: Sum(rhs),rhsMax =  -1.24851795568759E-11  1.32487560860471E-01
 cg2d: Sum(rhs),rhsMax =  -1.23838717058788E-11  1.34270016211134E-01
 cg2d: Sum(rhs),rhsMax =  -1.22736265595336E-11  1.36022641379980E-01
 cg2d: Sum(rhs),rhsMax =  -1.21914700557113E-11  1.37744824076574E-01
 cg2d: Sum(rhs),rhsMax =  -1.20824461546931E-11  1.39435950081384E-01
 cg2d: Sum(rhs),rhsMax =  -1.19827481270818E-11  1.41095393814359E-01
 cg2d: Sum(rhs),rhsMax =  -1.19114718089008E-11  1.42722510951707E-01
 cg2d: Sum(rhs),rhsMax =  -1.18322018849426E-11  1.44316633506667E-01
 cg2d: Sum(rhs),rhsMax =  -1.17452714221145E-11  1.45877067664561E-01
 cg2d: Sum(rhs),rhsMax =  -1.16729959032114E-11  1.47403094445344E-01
 cg2d: Sum(rhs),rhsMax =  -1.15971676706295E-11  1.48893973131775E-01
 cg2d: Sum(rhs),rhsMax =  -1.15022436020240E-11  1.50348947223860E-01
 cg2d: Sum(rhs),rhsMax =  -1.14563913911070E-11  1.51767252546218E-01
 cg2d: Sum(rhs),rhsMax =  -1.13776765786611E-11  1.53148127004046E-01
 cg2d: Sum(rhs),rhsMax =  -1.13283826763677E-11  1.54490821393541E-01
 cg2d: Sum(rhs),rhsMax =  -1.12692077891552E-11  1.55794610625651E-01
 cg2d: Sum(rhs),rhsMax =  -1.12008180508383E-11  1.57058804697781E-01
 cg2d: Sum(rhs),rhsMax =  -1.11312070671943E-11  1.58282758768000E-01
 cg2d: Sum(rhs),rhsMax =  -1.10905729044930E-11  1.59465881740031E-01
 cg2d: Sum(rhs),rhsMax =  -1.10194076086145E-11  1.60607642852978E-01
 cg2d: Sum(rhs),rhsMax =  -1.10265130359721E-11  1.61707575901915E-01
 cg2d: Sum(rhs),rhsMax =  -1.09149356219973E-11  1.62765280847078E-01
 cg2d: Sum(rhs),rhsMax =  -1.09410258630760E-11  1.63780422735582E-01
 cg2d: Sum(rhs),rhsMax =  -1.09442455098474E-11  1.64752728031952E-01
 cg2d: Sum(rhs),rhsMax =  -1.09345865695332E-11  1.65681978617527E-01
 cg2d: Sum(rhs),rhsMax =  -1.09470210674090E-11  1.66568003882682E-01
 cg2d: Sum(rhs),rhsMax =  -1.09330322572987E-11  1.67410671420486E-01
 cg2d: Sum(rhs),rhsMax =  -1.09343645249282E-11  1.68209876945441E-01
 cg2d: Sum(rhs),rhsMax =  -1.09373621270947E-11  1.68965534113690E-01
 cg2d: Sum(rhs),rhsMax =  -1.09254827407312E-11  1.69677564903652E-01
 cg2d: Sum(rhs),rhsMax =  -1.09088293953619E-11  1.70345891165845E-01
 cg2d: Sum(rhs),rhsMax =  -1.09389164393292E-11  1.70970427857453E-01
 cg2d: Sum(rhs),rhsMax =  -1.08990594327452E-11  1.71551078347601E-01
 cg2d: Sum(rhs),rhsMax =  -1.09080522392446E-11  1.72087732022610E-01
 cg2d: Sum(rhs),rhsMax =  -1.08854036895423E-11  1.72580264248953E-01
 cg2d: Sum(rhs),rhsMax =  -1.08624220729325E-11  1.73028538583340E-01
 cg2d: Sum(rhs),rhsMax =  -1.08846265334250E-11  1.73432410944037E-01
 cg2d: Sum(rhs),rhsMax =  -1.09093845068742E-11  1.73791735316720E-01
 cg2d: Sum(rhs),rhsMax =  -1.09420250637982E-11  1.74106370502857E-01
 cg2d: Sum(rhs),rhsMax =  -1.09968700812146E-11  1.74376187336848E-01
 cg2d: Sum(rhs),rhsMax =  -1.10275122366943E-11  1.74601075786455E-01
 cg2d: Sum(rhs),rhsMax =  -1.10217390769662E-11  1.74780951374320E-01
 cg2d: Sum(rhs),rhsMax =  -1.10107478690225E-11  1.74915760465751E-01
 cg2d: Sum(rhs),rhsMax =  -1.09947606574679E-11  1.75005484119592E-01
 cg2d: Sum(rhs),rhsMax =  -1.09994235941713E-11  1.75050140214621E-01
 cg2d: Sum(rhs),rhsMax =  -1.10360609539839E-11  1.75049783785188E-01
 cg2d: Sum(rhs),rhsMax =  -1.10574882583592E-11  1.75004505644685E-01
 cg2d: Sum(rhs),rhsMax =  -1.10870201908142E-11  1.74914429503249E-01
 cg2d: Sum(rhs),rhsMax =  -1.10838005440428E-11  1.74779707888255E-01
 cg2d: Sum(rhs),rhsMax =  -1.10486064741622E-11  1.74600517253173E-01
 cg2d: Sum(rhs),rhsMax =  -1.10014219956156E-11  1.74377052704827E-01
 cg2d: Sum(rhs),rhsMax =  -1.09715569962532E-11  1.74109522641141E-01
 cg2d: Sum(rhs),rhsMax =  -1.08988373881402E-11  1.73798143795301E-01
 cg2d: Sum(rhs),rhsMax =  -1.08534292664331E-11  1.73443136996643E-01
 cg2d: Sum(rhs),rhsMax =  -1.08398845455326E-11  1.73044723875604E-01
 cg2d: Sum(rhs),rhsMax =  -1.08224540440460E-11  1.72603124652264E-01
 cg2d: Sum(rhs),rhsMax =  -1.08132391929416E-11  1.72118557048397E-01
 cg2d: Sum(rhs),rhsMax =  -1.07943654015230E-11  1.71591236271525E-01
 cg2d: Sum(rhs),rhsMax =  -1.07921449554738E-11  1.71021375953041E-01
 cg2d: Sum(rhs),rhsMax =  -1.07809317029250E-11  1.70409189876093E-01
 cg2d: Sum(rhs),rhsMax =  -1.07865938403506E-11  1.69754894325506E-01
 cg2d: Sum(rhs),rhsMax =  -1.07925890446836E-11  1.69058710738559E-01
 cg2d: Sum(rhs),rhsMax =  -1.07723829856354E-11  1.68320868417941E-01
 cg2d: Sum(rhs),rhsMax =  -1.07570619078956E-11  1.67541607090168E-01
 cg2d: Sum(rhs),rhsMax =  -1.07520659042848E-11  1.66721179127777E-01
 cg2d: Sum(rhs),rhsMax =  -1.07330810905637E-11  1.65859851298172E-01
 cg2d: Sum(rhs),rhsMax =  -1.07605035992719E-11  1.64957905954821E-01
 cg2d: Sum(rhs),rhsMax =  -1.07943654015230E-11  1.64015641644153E-01
 cg2d: Sum(rhs),rhsMax =  -1.08603126491857E-11  1.63033373139731E-01
 cg2d: Sum(rhs),rhsMax =  -1.08812958643512E-11  1.62011431072692E-01
 cg2d: Sum(rhs),rhsMax =  -1.09048325924732E-11  1.60950161185342E-01
 cg2d: Sum(rhs),rhsMax =  -1.09484643573410E-11  1.59849923419484E-01
 cg2d: Sum(rhs),rhsMax =  -1.09804387804502E-11  1.58711091014097E-01
 cg2d: Sum(rhs),rhsMax =  -1.10482734072548E-11  1.57534049845978E-01
 cg2d: Sum(rhs),rhsMax =  -1.10855769008822E-11  1.56319198197073E-01
 cg2d: Sum(rhs),rhsMax =  -1.11273212866081E-11  1.55066947113004E-01
 cg2d: Sum(rhs),rhsMax =  -1.11946008019004E-11  1.53777721478584E-01
 cg2d: Sum(rhs),rhsMax =  -1.12589937373286E-11  1.52451961882907E-01
 cg2d: Sum(rhs),rhsMax =  -1.13130615986279E-11  1.51090127283394E-01
 cg2d: Sum(rhs),rhsMax =  -1.13724585304453E-11  1.49692698405743E-01
 cg2d: Sum(rhs),rhsMax =  -1.14436238263238E-11  1.48260181739270E-01
 cg2d: Sum(rhs),rhsMax =  -1.14959153307836E-11  1.46793113910423E-01
 cg2d: Sum(rhs),rhsMax =  -1.15671361378133E-11  1.45292066147900E-01
 cg2d: Sum(rhs),rhsMax =  -1.16509024650213E-11  1.43757648513765E-01
 cg2d: Sum(rhs),rhsMax =  -1.17176823799525E-11  1.42190513474333E-01
 cg2d: Sum(rhs),rhsMax =  -1.18264287252146E-11  1.40591358473747E-01
 cg2d: Sum(rhs),rhsMax =  -1.18821064098995E-11  1.38960927156873E-01
 cg2d: Sum(rhs),rhsMax =  -1.19740883874897E-11  1.37300008933243E-01
 cg2d: Sum(rhs),rhsMax =  -1.20700116568173E-11  1.35609436666047E-01
 cg2d: Sum(rhs),rhsMax =  -1.21649912365740E-11  1.33890082392775E-01
 cg2d: Sum(rhs),rhsMax =  -1.22685750447715E-11  1.32142851070021E-01
 cg2d: Sum(rhs),rhsMax =  -1.23499543924765E-11  1.30368672709389E-01
 cg2d: Sum(rhs),rhsMax =  -1.24578680704701E-11  1.28568493100510E-01
 cg2d: Sum(rhs),rhsMax =  -1.25794930028178E-11  1.26743263602803E-01
 cg2d: Sum(rhs),rhsMax =  -1.27099442082113E-11  1.24893930621616E-01
 cg2d: Sum(rhs),rhsMax =  -1.28371757668333E-11  1.23021425425462E-01
 cg2d: Sum(rhs),rhsMax =  -1.29675714610755E-11  1.21126654988108E-01
 cg2d: Sum(rhs),rhsMax =  -1.31261668201432E-11  1.19210494518631E-01
 cg2d: Sum(rhs),rhsMax =  -1.33005273461606E-11  1.17273782250962E-01
 cg2d: Sum(rhs),rhsMax =  -1.34703914689283E-11  1.15317316993977E-01
 cg2d: Sum(rhs),rhsMax =  -1.36861078026129E-11  1.13341858720900E-01
 cg2d: Sum(rhs),rhsMax =  -1.39018796474488E-11  1.11348132309998E-01
 cg2d: Sum(rhs),rhsMax =  -1.41056055724675E-11  1.09336834342686E-01
 cg2d: Sum(rhs),rhsMax =  -1.43409728536881E-11  1.07308642643491E-01
 cg2d: Sum(rhs),rhsMax =  -1.45818357388805E-11  1.05264228052951E-01
 cg2d: Sum(rhs),rhsMax =  -1.48365764118807E-11  1.03204267749145E-01
 cg2d: Sum(rhs),rhsMax =  -1.51044177165716E-11  1.01129459299749E-01
 cg2d: Sum(rhs),rhsMax =  -1.53749790676727E-11  9.90405345500457E-02
 cg2d: Sum(rhs),rhsMax =  -1.56534785133999E-11  9.69382724649026E-02
 cg2d: Sum(rhs),rhsMax =  -1.59425805890123E-11  9.48235099844121E-02
 cg2d: Sum(rhs),rhsMax =  -1.62723723384772E-11  9.26971501823192E-02
 cg2d: Sum(rhs),rhsMax =  -1.66172076099258E-11  9.05601671761852E-02
 cg2d: Sum(rhs),rhsMax =  -1.69642633274236E-11  8.84136074050827E-02
 cg2d: Sum(rhs),rhsMax =  -1.73229486311044E-11  8.62585871241710E-02
 cg2d: Sum(rhs),rhsMax =  -1.77228232089988E-11  8.40962862188216E-02
 cg2d: Sum(rhs),rhsMax =  -1.81391568432332E-11  8.19279386849478E-02
 cg2d: Sum(rhs),rhsMax =  -1.85510218297935E-11  7.97548203356567E-02
 cg2d: Sum(rhs),rhsMax =  -1.90071847150364E-11  7.75782344618938E-02
 cg2d: Sum(rhs),rhsMax =  -1.94981253365256E-11  7.53994962861566E-02
 cg2d: Sum(rhs),rhsMax =  -2.00177929787770E-11  7.32199170976682E-02
 cg2d: Sum(rhs),rhsMax =  -2.05309796941222E-11  7.10407889452136E-02
 cg2d: Sum(rhs),rhsMax =  -2.11350797973964E-11  6.88633706906019E-02
 cg2d: Sum(rhs),rhsMax =  -2.17762058385418E-11  6.66888761030218E-02
 cg2d: Sum(rhs),rhsMax =  -2.24144244831415E-11  6.45184645130009E-02
(PID.TID 0000.0001)      cg2d_init_res =   1.81725174989074E-01
(PID.TID 0000.0001)      cg2d_iters(min,last) =      -1      38
(PID.TID 0000.0001)      cg2d_last_res =   6.25879025418215E-14
(PID.TID 0000.0001) // =======================================================
(PID.TID 0000.0001) // Begin MONITOR dynamic field statistics
(PID.TID 0000.0001) // =======================================================
(PID.TID 0000.0001) %MON time_tsnumber                =                  5280
(PID.TID 0000.0001) %MON time_secondsf                =   7.9200000000000E+04
(PID.TID 0000.0001) %MON dynstat_eta_max              =   1.0887666982176E-02
(PID.TID 0000.0001) %MON dynstat_eta_min              =  -1.2497027853800E-02
(PID.TID 0000.0001) %MON dynstat_eta_mean             =   3.0863550478484E-15
(PID.TID 0000.0001) %MON dynstat_eta_sd               =   7.8107620315106E-03
(PID.TID 0000.0001) %MON dynstat_eta_del2             =   2.5924872432221E-05
(PID.TID 0000.0001) %MON dynstat_uvel_max             =   1.2241158845665E+00
(PID.TID 0000.0001) %MON dynstat_uvel_min             =  -3.9471316785697E-01
(PID.TID 0000.0001) %MON dynstat_uvel_mean            =   3.4295315520487E-01
(PID.TID 0000.0001) %MON dynstat_uvel_sd              =   1.5666895430191E-01
(PID.TID 0000.0001) %MON dynstat_uvel_del2            =   6.9286411952926E-04
(PID.TID 0000.0001) %MON dynstat_vvel_max             =   0.0000000000000E+00
(PID.TID 0000.0001) %MON dynstat_vvel_min             =   0.0000000000000E+00
(PID.TID 0000.0001) %MON dynstat_vvel_mean            =   0.0000000000000E+00
(PID.TID 0000.0001) %MON dynstat_vvel_sd              =   0.0000000000000E+00
(PID.TID 0000.0001) %MON dynstat_vvel_del2            =   0.0000000000000E+00
(PID.TID 0000.0001) %MON dynstat_wvel_max             =   2.0250491180344E-02
(PID.TID 0000.0001) %MON dynstat_wvel_min             =  -2.3058839082412E-02
(PID.TID 0000.0001) %MON dynstat_wvel_mean            =   4.2316278680871E-20
(PID.TID 0000.0001) %MON dynstat_wvel_sd              =   1.9139342891490E-03
(PID.TID 0000.0001) %MON dynstat_wvel_del2            =   4.4224346793277E-05
(PID.TID 0000.0001) %MON dynstat_theta_max            =   1.5000000000012E+01
(PID.TID 0000.0001) %MON dynstat_theta_min            =   9.9999999999912E+00
(PID.TID 0000.0001) %MON dynstat_theta_mean           =   1.3233684164222E+01
(PID.TID 0000.0001) %MON dynstat_theta_sd             =   2.2622544060651E+00
(PID.TID 0000.0001) %MON dynstat_theta_del2           =   1.0843362415193E-03
(PID.TID 0000.0001) %MON dynstat_salt_max             =   3.5000000000000E+01
(PID.TID 0000.0001) %MON dynstat_salt_min             =   3.5000000000000E+01
(PID.TID 0000.0001) %MON dynstat_salt_mean            =   3.5000000000000E+01
(PID.TID 0000.0001) %MON dynstat_salt_sd              =   2.1316282072803E-14
(PID.TID 0000.0001) %MON dynstat_salt_del2            =   0.0000000000000E+00
(PID.TID 0000.0001) %MON dynstat_sst_max              =   1.5000000000000E+01
(PID.TID 0000.0001) %MON dynstat_sst_min              =   1.4999999999987E+01
(PID.TID 0000.0001) %MON dynstat_sst_mean             =   1.4999999999995E+01
(PID.TID 0000.0001) %MON dynstat_sst_sd               =   3.5948731092526E-12
(PID.TID 0000.0001) %MON dynstat_sst_del2             =   1.8944972746487E-14
(PID.TID 0000.0001) %MON dynstat_sss_max              =   3.5000000000000E+01
(PID.TID 0000.0001) %MON dynstat_sss_min              =   3.5000000000000E+01
(PID.TID 0000.0001) %MON dynstat_sss_mean             =   3.5000000000000E+01
(PID.TID 0000.0001) %MON dynstat_sss_sd               =   7.8159700933611E-14
(PID.TID 0000.0001) %MON dynstat_sss_del2             =   0.0000000000000E+00
(PID.TID 0000.0001) %MON forcing_qnet_max             =   0.0000000000000E+00
(PID.TID 0000.0001) %MON forcing_qnet_min             =   0.0000000000000E+00
(PID.TID 0000.0001) %MON forcing_qnet_mean            =   0.0000000000000E+00
(PID.TID 0000.0001) %MON forcing_qnet_sd              =   0.0000000000000E+00
(PID.TID 0000.0001) %MON forcing_qnet_del2            =   0.0000000000000E+00
(PID.TID 0000.0001) %MON forcing_qsw_max              =   0.0000000000000E+00
(PID.TID 0000.0001) %MON forcing_qsw_min              =   0.0000000000000E+00
(PID.TID 0000.0001) %MON forcing_qsw_mean             =   0.0000000000000E+00
(PID.TID 0000.0001) %MON forcing_qsw_sd               =   0.0000000000000E+00
(PID.TID 0000.0001) %MON forcing_qsw_del2             =   0.0000000000000E+00
(PID.TID 0000.0001) %MON forcing_empmr_max            =   0.0000000000000E+00
(PID.TID 0000.0001) %MON forcing_empmr_min            =   0.0000000000000E+00
(PID.TID 0000.0001) %MON forcing_empmr_mean           =   0.0000000000000E+00
(PID.TID 0000.0001) %MON forcing_empmr_sd             =   0.0000000000000E+00
(PID.TID 0000.0001) %MON forcing_empmr_del2           =   0.0000000000000E+00
(PID.TID 0000.0001) %MON forcing_fu_max               =   0.0000000000000E+00
(PID.TID 0000.0001) %MON forcing_fu_min               =   0.0000000000000E+00
(PID.TID 0000.0001) %MON forcing_fu_mean              =   0.0000000000000E+00
(PID.TID 0000.0001) %MON forcing_fu_sd                =   0.0000000000000E+00
(PID.TID 0000.0001) %MON forcing_fu_del2              =   0.0000000000000E+00
(PID.TID 0000.0001) %MON forcing_fv_max               =   0.0000000000000E+00
(PID.TID 0000.0001) %MON forcing_fv_min               =   0.0000000000000E+00
(PID.TID 0000.0001) %MON forcing_fv_mean              =   0.0000000000000E+00
(PID.TID 0000.0001) %MON forcing_fv_sd                =   0.0000000000000E+00
(PID.TID 0000.0001) %MON forcing_fv_del2              =   0.0000000000000E+00
(PID.TID 0000.0001) %MON advcfl_uvel_max              =   9.1808691342486E-02
(PID.TID 0000.0001) %MON advcfl_vvel_max              =   0.0000000000000E+00
(PID.TID 0000.0001) %MON advcfl_wvel_max              =   2.1099398208585E-01
(PID.TID 0000.0001) %MON advcfl_W_hf_max              =   2.1369339279121E-01
(PID.TID 0000.0001) %MON pe_b_mean                    =   1.5241703235712E-06
(PID.TID 0000.0001) %MON ke_max                       =   5.3382398614040E-01
(PID.TID 0000.0001) %MON ke_mean                      =   7.1217986448333E-02
(PID.TID 0000.0001) %MON ke_vol                       =   9.5889217545975E+10
(PID.TID 0000.0001) %MON vort_r_min                   =   0.0000000000000E+00
(PID.TID 0000.0001) %MON vort_r_max                   =   0.0000000000000E+00
(PID.TID 0000.0001) %MON vort_a_mean                  =   0.0000000000000E+00
(PID.TID 0000.0001) %MON vort_a_sd                    =   0.0000000000000E+00
(PID.TID 0000.0001) %MON vort_p_mean                  =   0.0000000000000E+00
(PID.TID 0000.0001) %MON vort_p_sd                    =   0.0000000000000E+00
(PID.TID 0000.0001) %MON surfExpan_theta_mean         =  -4.5177063015187E-17
(PID.TID 0000.0001) %MON surfExpan_salt_mean          =   4.6554614044772E-19
(PID.TID 0000.0001) // =======================================================
(PID.TID 0000.0001) // End MONITOR dynamic field statistics
(PID.TID 0000.0001) // =======================================================
(PID.TID 0000.0001) // =======================================================
(PID.TID 0000.0001) // Begin OBCS MONITOR field statistics
(PID.TID 0000.0001) // =======================================================
(PID.TID 0000.0001) %MON obc_E_uVel_max               =   3.3404902334837E-01
(PID.TID 0000.0001) %MON obc_E_uVel_min               =   3.3404902334837E-01
(PID.TID 0000.0001) %MON obc_E_uVel_mean              =   3.3404902334837E-01
(PID.TID 0000.0001) %MON obc_E_uVel_sd                =   8.3300023432813E-09
(PID.TID 0000.0001) %MON obc_E_uVel_Int               =   3.3404902334837E+05
(PID.TID 0000.0001) %MON obc_W_uVel_max               =   3.3404902334837E-01
(PID.TID 0000.0001) %MON obc_W_uVel_min               =   3.3404902334837E-01
(PID.TID 0000.0001) %MON obc_W_uVel_mean              =   3.3404902334837E-01
(PID.TID 0000.0001) %MON obc_W_uVel_sd                =   8.3300023432813E-09
(PID.TID 0000.0001) %MON obc_W_uVel_Int               =   3.3404902334837E+05
(PID.TID 0000.0001) // =======================================================
(PID.TID 0000.0001) // End OBCS MONITOR field statistics
(PID.TID 0000.0001) // =======================================================
 cg2d: Sum(rhs),rhsMax =  -2.30862898242812E-11  6.23532343711553E-02
 cg2d: Sum(rhs),rhsMax =  -2.38249983977590E-11  6.01942198123026E-02
 cg2d: Sum(rhs),rhsMax =  -2.46221931732293E-11  5.80423902155958E-02
 cg2d: Sum(rhs),rhsMax =  -2.54816168165917E-11  5.58986525303451E-02
 cg2d: Sum(rhs),rhsMax =  -2.63572219605379E-11  5.37638560121266E-02
 cg2d: Sum(rhs),rhsMax =  -2.73863987043654E-11  5.16387989122440E-02
 cg2d: Sum(rhs),rhsMax =  -2.84233192537897E-11  4.95242365909592E-02
 cg2d: Sum(rhs),rhsMax =  -2.95850843823331E-11  4.74208905081786E-02
 cg2d: Sum(rhs),rhsMax =  -3.08505998525277E-11  4.53294575526124E-02
 cg2d: Sum(rhs),rhsMax =  -3.22873949798463E-11  4.32506192057352E-02
 cg2d: Sum(rhs),rhsMax =  -3.37576633313574E-11  4.11850500956126E-02
 cg2d: Sum(rhs),rhsMax =  -3.55119267325676E-11  3.91334255711400E-02
 cg2d: Sum(rhs),rhsMax =  -3.74094089039545E-11  3.70964280117476E-02
 cg2d: Sum(rhs),rhsMax =  -3.69373420738839E-11  3.75715416043582E-02
 cg2d: Sum(rhs),rhsMax =  -3.64023255983170E-11  3.80556042806640E-02
 cg2d: Sum(rhs),rhsMax =  -3.59096086199884E-11  3.85352889688503E-02
 cg2d: Sum(rhs),rhsMax =  -3.54245521805296E-11  3.90103512738210E-02
 cg2d: Sum(rhs),rhsMax =  -3.49108519870356E-11  3.95661645514521E-02
 cg2d: Sum(rhs),rhsMax =  -3.37744276990293E-11  4.08620179163250E-02
 cg2d: Sum(rhs),rhsMax =  -3.27108340414384E-11  4.21421947987317E-02
 cg2d: Sum(rhs),rhsMax =  -3.17206261257752E-11  4.34061188888013E-02
 cg2d: Sum(rhs),rhsMax =  -3.07679437483444E-11  4.46532786841995E-02
 cg2d: Sum(rhs),rhsMax =  -2.99300584316597E-11  4.58832234023308E-02
 cg2d: Sum(rhs),rhsMax =  -2.91320301215592E-11  4.70955515431360E-02
 cg2d: Sum(rhs),rhsMax =  -2.83129075739907E-11  4.82898999488752E-02
 cg2d: Sum(rhs),rhsMax =  -2.75230949142724E-11  4.94659263060756E-02
 cg2d: Sum(rhs),rhsMax =  -2.68529642966087E-11  5.06233001679952E-02
 cg2d: Sum(rhs),rhsMax =  -2.62010413365488E-11  5.17616778564351E-02
 cg2d: Sum(rhs),rhsMax =  -2.55534482462849E-11  5.28807159101986E-02
 cg2d: Sum(rhs),rhsMax =  -2.49763543180848E-11  5.39800797055565E-02
 cg2d: Sum(rhs),rhsMax =  -2.44381181957465E-11  5.50594259864037E-02
 cg2d: Sum(rhs),rhsMax =  -2.38405961638932E-11  5.61183849528613E-02
 cg2d: Sum(rhs),rhsMax =  -2.34038344260057E-11  5.71565579346027E-02
 cg2d: Sum(rhs),rhsMax =  -2.28772556454260E-11  5.81734975094612E-02
 cg2d: Sum(rhs),rhsMax =  -2.24410490190508E-11  5.91687336026629E-02
 cg2d: Sum(rhs),rhsMax =  -2.20299334330321E-11  6.01417755548337E-02
 cg2d: Sum(rhs),rhsMax =  -2.16274775866054E-11  6.10921060572287E-02
 cg2d: Sum(rhs),rhsMax =  -2.12174722236114E-11  6.20191799479519E-02
 cg2d: Sum(rhs),rhsMax =  -2.08519868039048E-11  6.29224291422348E-02
 cg2d: Sum(rhs),rhsMax =  -2.05251371454551E-11  6.38012779447366E-02
 cg2d: Sum(rhs),rhsMax =  -2.01549887890451E-11  6.46551431939749E-02
 cg2d: Sum(rhs),rhsMax =  -1.99089633667882E-11  6.54834424273717E-02
 cg2d: Sum(rhs),rhsMax =  -1.96038740796212E-11  6.62856036028806E-02
 cg2d: Sum(rhs),rhsMax =  -1.92773574880789E-11  6.70610747594297E-02
 cg2d: Sum(rhs),rhsMax =  -1.89663840188814E-11  6.78093329679949E-02
 cg2d: Sum(rhs),rhsMax =  -1.86742843411025E-11  6.85298921147409E-02
 cg2d: Sum(rhs),rhsMax =  -1.84101622835442E-11  6.92223095076038E-02
 cg2d: Sum(rhs),rhsMax =  -1.82543979931893E-11  6.98861914835910E-02
 cg2d: Sum(rhs),rhsMax =  -1.79893877572113E-11  7.05212070605278E-02
 cg2d: Sum(rhs),rhsMax =  -1.77368120191090E-11  7.11270778035012E-02
 cg2d: Sum(rhs),rhsMax =  -1.75189862616776E-11  7.17035775341957E-02
 cg2d: Sum(rhs),rhsMax =  -1.73366876410341E-11  7.22505264729558E-02
 cg2d: Sum(rhs),rhsMax =  -1.71443970131691E-11  7.27678061823669E-02
 cg2d: Sum(rhs),rhsMax =  -1.70029545998318E-11  7.32553612734470E-02
 cg2d: Sum(rhs),rhsMax =  -1.68165481539972E-11  7.37131860982715E-02
 cg2d: Sum(rhs),rhsMax =  -1.67269531559100E-11  7.41413103495257E-02
 cg2d: Sum(rhs),rhsMax =  -1.65996105749855E-11  7.45397908265243E-02
 cg2d: Sum(rhs),rhsMax =  -1.64424029946986E-11  7.49087063678875E-02
 cg2d: Sum(rhs),rhsMax =  -1.63301594469090E-11  7.52481522688592E-02
 cg2d: Sum(rhs),rhsMax =  -1.62415636495439E-11  7.55582322949288E-02
 cg2d: Sum(rhs),rhsMax =  -1.61364255291119E-11  7.58390493865900E-02
 cg2d: Sum(rhs),rhsMax =  -1.60412794159015E-11  7.60906975156155E-02
 cg2d: Sum(rhs),rhsMax =  -1.59774415919856E-11  7.63132547164225E-02
 cg2d: Sum(rhs),rhsMax =  -1.58655311111033E-11  7.65067750908318E-02
 cg2d: Sum(rhs),rhsMax =  -1.57971413727864E-11  7.66778892250239E-02
 cg2d: Sum(rhs),rhsMax =  -1.57206470063898E-11  7.68222638194382E-02
 cg2d: Sum(rhs),rhsMax =  -1.56573642939861E-11  7.69367259384929E-02
 cg2d: Sum(rhs),rhsMax =  -1.55201407281425E-11  7.70212342896110E-02
 cg2d: Sum(rhs),rhsMax =  -1.54650736661210E-11  7.70757140274391E-02
 cg2d: Sum(rhs),rhsMax =  -1.53871360097924E-11  7.71000582622104E-02
 cg2d: Sum(rhs),rhsMax =  -1.53257406765306E-11  7.70941320773037E-02
 cg2d: Sum(rhs),rhsMax =  -1.53563828320102E-11  7.70577808645241E-02
 cg2d: Sum(rhs),rhsMax =  -1.53713708428427E-11  7.69907518118013E-02
 cg2d: Sum(rhs),rhsMax =  -1.54604107294176E-11  7.68928778232525E-02
 cg2d: Sum(rhs),rhsMax =  -1.55068180518469E-11  7.67641129018296E-02
 cg2d: Sum(rhs),rhsMax =  -1.56813451113180E-11  7.66044540992213E-02
 cg2d: Sum(rhs),rhsMax =  -1.57713841986151E-11  7.64138726796432E-02
 cg2d: Sum(rhs),rhsMax =  -1.58630886204492E-11  7.61923165371537E-02
 cg2d: Sum(rhs),rhsMax =  -1.59865454207875E-11  7.59397598016670E-02
 cg2d: Sum(rhs),rhsMax =  -1.61215485405819E-11  7.56562497004589E-02
 cg2d: Sum(rhs),rhsMax =  -1.61748392457639E-11  7.53419248912750E-02
 cg2d: Sum(rhs),rhsMax =  -1.62887481280904E-11  7.49970076882222E-02
 cg2d: Sum(rhs),rhsMax =  -1.63972169175963E-11  7.46217845566445E-02
 cg2d: Sum(rhs),rhsMax =  -1.65455427136862E-11  7.42165894973527E-02
 cg2d: Sum(rhs),rhsMax =  -1.66757718744748E-11  7.37817943551708E-02
 cg2d: Sum(rhs),rhsMax =  -1.68229874475401E-11  7.33178035679628E-02
 cg2d: Sum(rhs),rhsMax =  -1.69924074810979E-11  7.28250503133686E-02
 cg2d: Sum(rhs),rhsMax =  -1.71495040390823E-11  7.23039920576914E-02
 cg2d: Sum(rhs),rhsMax =  -1.73028258387831E-11  7.17551048146318E-02
 cg2d: Sum(rhs),rhsMax =  -1.75368608523740E-11  7.11788764241259E-02
 cg2d: Sum(rhs),rhsMax =  -1.77288184133317E-11  7.05757991907116E-02
 cg2d: Sum(rhs),rhsMax =  -1.79536385758183E-11  6.99463621183742E-02
 cg2d: Sum(rhs),rhsMax =  -1.81725745562744E-11  6.92910421353721E-02
 cg2d: Sum(rhs),rhsMax =  -1.84294801641727E-11  6.86102967326881E-02
 cg2d: Sum(rhs),rhsMax =  -1.86913817756817E-11  6.79045570208546E-02
 cg2d: Sum(rhs),rhsMax =  -1.89769311376153E-11  6.71744553544696E-02
 cg2d: Sum(rhs),rhsMax =  -1.92147409094900E-11  6.64312840731237E-02
 cg2d: Sum(rhs),rhsMax =  -1.94764204763942E-11  6.56649019442231E-02
 cg2d: Sum(rhs),rhsMax =  -1.98064897816153E-11  6.48755159041862E-02
 cg2d: Sum(rhs),rhsMax =  -2.01513250530638E-11  6.40632826505619E-02
 cg2d: Sum(rhs),rhsMax =  -2.04977146367469E-11  6.32283286476956E-02
 cg2d: Sum(rhs),rhsMax =  -2.08449923988496E-11  6.23707484694317E-02
 cg2d: Sum(rhs),rhsMax =  -2.12119211084882E-11  6.14906133079534E-02
 cg2d: Sum(rhs),rhsMax =  -2.16043849476932E-11  6.05879904764539E-02
 cg2d: Sum(rhs),rhsMax =  -2.19891882480283E-11  5.96629612077704E-02
 cg2d: Sum(rhs),rhsMax =  -2.23336904525695E-11  5.87156451784934E-02
 cg2d: Sum(rhs),rhsMax =  -2.27955432308136E-11  5.77462153733989E-02
 cg2d: Sum(rhs),rhsMax =  -2.32462937788114E-11  5.67549068867574E-02
 cg2d: Sum(rhs),rhsMax =  -2.36941577469452E-11  5.57420214968001E-02
 cg2d: Sum(rhs),rhsMax =  -2.42877939982122E-11  5.47079263060742E-02
 cg2d: Sum(rhs),rhsMax =  -2.48179254924707E-11  5.36530600330934E-02
 cg2d: Sum(rhs),rhsMax =  -2.53906895508749E-11  5.25779277654729E-02
 cg2d: Sum(rhs),rhsMax =  -2.59580135164583E-11  5.14830927940840E-02
 cg2d: Sum(rhs),rhsMax =  -2.65660826670455E-11  5.03691540485046E-02
 cg2d: Sum(rhs),rhsMax =  -2.72882827445642E-11  4.92367372703378E-02
 cg2d: Sum(rhs),rhsMax =  -2.80117040674099E-11  4.80864913325230E-02
 cg2d: Sum(rhs),rhsMax =  -2.87856405378761E-11  4.69190821545605E-02
 cg2d: Sum(rhs),rhsMax =  -2.95591329191325E-11  4.57351853914449E-02
 cg2d: Sum(rhs),rhsMax =  -3.04093417113904E-11  4.45354775072949E-02
 cg2d: Sum(rhs),rhsMax =  -3.12609937935804E-11  4.33206188943750E-02
 cg2d: Sum(rhs),rhsMax =  -3.22480930847746E-11  4.20912535420924E-02
 cg2d: Sum(rhs),rhsMax =  -3.32881500142435E-11  4.08480223271607E-02
 cg2d: Sum(rhs),rhsMax =  -3.44015926856400E-11  3.95915431059889E-02
 cg2d: Sum(rhs),rhsMax =  -3.49495987705950E-11  3.90873994188974E-02
 cg2d: Sum(rhs),rhsMax =  -3.54405393920842E-11  3.85988269716479E-02
 cg2d: Sum(rhs),rhsMax =  -3.59787755144225E-11  3.81054372302657E-02
 cg2d: Sum(rhs),rhsMax =  -3.64784868978063E-11  3.76075749032572E-02
 cg2d: Sum(rhs),rhsMax =  -3.70912189850969E-11  3.71055738569599E-02
 cg2d: Sum(rhs),rhsMax =  -3.77078368529737E-11  3.65997506456516E-02
 cg2d: Sum(rhs),rhsMax =  -3.82843756696616E-11  3.60904022704217E-02
 cg2d: Sum(rhs),rhsMax =  -3.82430753731455E-11  3.62449085959030E-02
 cg2d: Sum(rhs),rhsMax =  -3.63259422542228E-11  3.82266804808513E-02
 cg2d: Sum(rhs),rhsMax =  -3.45522499500817E-11  4.02192534036158E-02
 cg2d: Sum(rhs),rhsMax =  -3.29936633569616E-11  4.22220078575824E-02
 cg2d: Sum(rhs),rhsMax =  -3.15827919372680E-11  4.42343570466131E-02
 cg2d: Sum(rhs),rhsMax =  -3.02746994140790E-11  4.62557381422549E-02
 cg2d: Sum(rhs),rhsMax =  -2.90239221545363E-11  4.82856028518703E-02
 cg2d: Sum(rhs),rhsMax =  -2.79230250033180E-11  5.03234078050996E-02
 cg2d: Sum(rhs),rhsMax =  -2.69144984077485E-11  5.23686051971895E-02
 cg2d: Sum(rhs),rhsMax =  -2.59445520622847E-11  5.44206341488183E-02
 cg2d: Sum(rhs),rhsMax =  -2.50484216701707E-11  5.64789131726586E-02
 cg2d: Sum(rhs),rhsMax =  -2.42188220433287E-11  5.85428340381201E-02
 cg2d: Sum(rhs),rhsMax =  -2.34653199648882E-11  6.06117572116123E-02
 cg2d: Sum(rhs),rhsMax =  -2.27636937077946E-11  6.26850089340712E-02
 cg2d: Sum(rhs),rhsMax =  -2.21204859984780E-11  6.47618798909013E-02
 cg2d: Sum(rhs),rhsMax =  -2.14751133542634E-11  6.68416253394563E-02
 cg2d: Sum(rhs),rhsMax =  -2.08806583135157E-11  6.89234664900174E-02
 cg2d: Sum(rhs),rhsMax =  -2.02824146366964E-11  7.10065928952329E-02
 cg2d: Sum(rhs),rhsMax =  -1.97650229516455E-11  7.30901655849154E-02
 cg2d: Sum(rhs),rhsMax =  -1.92647287011738E-11  7.51733206774493E-02
 cg2d: Sum(rhs),rhsMax =  -1.88086213270822E-11  7.72551732120892E-02
 cg2d: Sum(rhs),rhsMax =  -1.83464077263551E-11  7.93348210317032E-02
 cg2d: Sum(rhs),rhsMax =  -1.79318782045357E-11  8.14113485275929E-02
 cg2d: Sum(rhs),rhsMax =  -1.75350289843834E-11  8.34838300751495E-02
 cg2d: Sum(rhs),rhsMax =  -1.71535008419710E-11  8.55513330899553E-02
 cg2d: Sum(rhs),rhsMax =  -1.67953428942269E-11  8.76129206355935E-02
 cg2d: Sum(rhs),rhsMax =  -1.64392388590784E-11  8.96676535343068E-02
 cg2d: Sum(rhs),rhsMax =  -1.61124447117800E-11  9.17145919495100E-02
 cg2d: Sum(rhs),rhsMax =  -1.58222879242942E-11  9.37527964369963E-02
 cg2d: Sum(rhs),rhsMax =  -1.55236379306700E-11  9.57813284727608E-02
 cg2d: Sum(rhs),rhsMax =  -1.52539647579886E-11  9.77992504878843E-02
 cg2d: Sum(rhs),rhsMax =  -1.50575663049324E-11  9.98056254668379E-02
 cg2d: Sum(rhs),rhsMax =  -1.48108747488607E-11  1.01799516192144E-01
 cg2d: Sum(rhs),rhsMax =  -1.45513601168545E-11  1.03779984243001E-01
 cg2d: Sum(rhs),rhsMax =  -1.43700051857820E-11  1.05746088875957E-01
 cg2d: Sum(rhs),rhsMax =  -1.42018619087025E-11  1.07696885929521E-01
 cg2d: Sum(rhs),rhsMax =  -1.40297218287344E-11  1.09631426899332E-01
 cg2d: Sum(rhs),rhsMax =  -1.38792866088977E-11  1.11548758324356E-01
 cg2d: Sum(rhs),rhsMax =  -1.37038158598557E-11  1.13447921606959E-01
 cg2d: Sum(rhs),rhsMax =  -1.35482181029545E-11  1.15327953361796E-01
 cg2d: Sum(rhs),rhsMax =  -1.33958955039759E-11  1.17187886352916E-01
 cg2d: Sum(rhs),rhsMax =  -1.32988065004724E-11  1.19026751039394E-01
 cg2d: Sum(rhs),rhsMax =  -1.31437638550835E-11  1.20843577710901E-01
 cg2d: Sum(rhs),rhsMax =  -1.30312982626890E-11  1.22637399163329E-01
 cg2d: Sum(rhs),rhsMax =  -1.29253274749885E-11  1.24407253834605E-01
 cg2d: Sum(rhs),rhsMax =  -1.27994281839960E-11  1.26152189303684E-01
 cg2d: Sum(rhs),rhsMax =  -1.27098886970600E-11  1.27871266050048E-01
 cg2d: Sum(rhs),rhsMax =  -1.26094690244827E-11  1.29563561371404E-01
 cg2d: Sum(rhs),rhsMax =  -1.25260357641821E-11  1.31228173366278E-01
 cg2d: Sum(rhs),rhsMax =  -1.24253940469998E-11  1.32864224885534E-01
 cg2d: Sum(rhs),rhsMax =  -1.23388521622303E-11  1.34470867351241E-01
 cg2d: Sum(rhs),rhsMax =  -1.22701293570060E-11  1.36047284372961E-01
 cg2d: Sum(rhs),rhsMax =  -1.21770926675424E-11  1.37592695095111E-01
 cg2d: Sum(rhs),rhsMax =  -1.20878307363625E-11  1.39106357197298E-01
 cg2d: Sum(rhs),rhsMax =  -1.20392029678840E-11  1.40587569478827E-01
 cg2d: Sum(rhs),rhsMax =  -1.19572129975154E-11  1.42035673966683E-01
 cg2d: Sum(rhs),rhsMax =  -1.18922649505748E-11  1.43450057487491E-01
 cg2d: Sum(rhs),rhsMax =  -1.18229870338382E-11  1.44830152665468E-01
 cg2d: Sum(rhs),rhsMax =  -1.17394427512352E-11  1.46175438318613E-01
 cg2d: Sum(rhs),rhsMax =  -1.16820442208621E-11  1.47485439249709E-01
 cg2d: Sum(rhs),rhsMax =  -1.15953913137901E-11  1.48759725440529E-01
 cg2d: Sum(rhs),rhsMax =  -1.15338849582258E-11  1.49997910674782E-01
 cg2d: Sum(rhs),rhsMax =  -1.14931397732221E-11  1.51199650639137E-01
 cg2d: Sum(rhs),rhsMax =  -1.14380727112007E-11  1.52364640566888E-01
 cg2d: Sum(rhs),rhsMax =  -1.13772324894512E-11  1.53492612501750E-01
 cg2d: Sum(rhs),rhsMax =  -1.13461462447617E-11  1.54583332264330E-01
 cg2d: Sum(rhs),rhsMax =  -1.12785336625620E-11  1.55636596205451E-01
 cg2d: Sum(rhs),rhsMax =  -1.12597708934459E-11  1.56652227827902E-01
 cg2d: Sum(rhs),rhsMax =  -1.12206910429791E-11  1.57630074366585E-01
 cg2d: Sum(rhs),rhsMax =  -1.12401199459100E-11  1.58570003383612E-01
 cg2d: Sum(rhs),rhsMax =  -1.12467812840578E-11  1.59471899438035E-01
 cg2d: Sum(rhs),rhsMax =  -1.12472253732676E-11  1.60335660879334E-01
 cg2d: Sum(rhs),rhsMax =  -1.12617692948902E-11  1.61161196802069E-01
 cg2d: Sum(rhs),rhsMax =  -1.12575504473966E-11  1.61948424153224E-01
 cg2d: Sum(rhs),rhsMax =  -1.12965192755610E-11  1.62697265026421E-01
 cg2d: Sum(rhs),rhsMax =  -1.13252740518988E-11  1.63407644137921E-01
 cg2d: Sum(rhs),rhsMax =  -1.13207221374978E-11  1.64079486470144E-01
 cg2d: Sum(rhs),rhsMax =  -1.13438147764100E-11  1.64712715061971E-01
 cg2d: Sum(rhs),rhsMax =  -1.13274944979480E-11  1.65307248921747E-01
 cg2d: Sum(rhs),rhsMax =  -1.13291598324849E-11  1.65863001037911E-01
 cg2d: Sum(rhs),rhsMax =  -1.14211973212264E-11  1.66379876463684E-01
 cg2d: Sum(rhs),rhsMax =  -1.14009912621782E-11  1.66857770456562E-01
 cg2d: Sum(rhs),rhsMax =  -1.14819265206734E-11  1.67296566661491E-01
 cg2d: Sum(rhs),rhsMax =  -1.15352172258554E-11  1.67696135349646E-01
 cg2d: Sum(rhs),rhsMax =  -1.15382148280219E-11  1.68056331704279E-01
 cg2d: Sum(rhs),rhsMax =  -1.15990550497713E-11  1.68376994212073E-01
 cg2d: Sum(rhs),rhsMax =  -1.16316956066953E-11  1.68657943235660E-01
 cg2d: Sum(rhs),rhsMax =  -1.17186260695235E-11  1.68898979861229E-01
 cg2d: Sum(rhs),rhsMax =  -1.17501564034228E-11  1.69099885116086E-01
 cg2d: Sum(rhs),rhsMax =  -1.17498233365154E-11  1.69260419754801E-01
 cg2d: Sum(rhs),rhsMax =  -1.18048903985368E-11  1.69380324752239E-01
 cg2d: Sum(rhs),rhsMax =  -1.17740261984522E-11  1.69459322629868E-01
 cg2d: Sum(rhs),rhsMax =  -1.16736620370261E-11  1.69497119766678E-01
 cg2d: Sum(rhs),rhsMax =  -1.16123777260668E-11  1.69493409818001E-01
 cg2d: Sum(rhs),rhsMax =  -1.16032738972649E-11  1.69447878318322E-01
 cg2d: Sum(rhs),rhsMax =  -1.15487619467558E-11  1.69360208482075E-01
 cg2d: Sum(rhs),rhsMax =  -1.15094600516841E-11  1.69230088159869E-01
 cg2d: Sum(rhs),rhsMax =  -1.14633857961621E-11  1.69057217783693E-01
 cg2d: Sum(rhs),rhsMax =  -1.13883347196975E-11  1.68841319022709E-01
 cg2d: Sum(rhs),rhsMax =  -1.13955511693575E-11  1.68582143927256E-01
 cg2d: Sum(rhs),rhsMax =  -1.13897780096295E-11  1.68279484186035E-01
 cg2d: Sum(rhs),rhsMax =  -1.13646869692730E-11  1.67933180073923E-01
 cg2d: Sum(rhs),rhsMax =  -1.13721254635379E-11  1.67543128654224E-01
 cg2d: Sum(rhs),rhsMax =  -1.13681286606493E-11  1.67109290794776E-01
 cg2d: Sum(rhs),rhsMax =  -1.13197229367756E-11  1.66631696616440E-01
 cg2d: Sum(rhs),rhsMax =  -1.12700959675749E-11  1.66110449082824E-01
 cg2d: Sum(rhs),rhsMax =  -1.12362341653238E-11  1.65545725525317E-01
 cg2d: Sum(rhs),rhsMax =  -1.11987086270915E-11  1.64937776980686E-01
 cg2d: Sum(rhs),rhsMax =  -1.11806119917901E-11  1.64286925510887E-01
 cg2d: Sum(rhs),rhsMax =  -1.11671782931921E-11  1.63593559598828E-01
 cg2d: Sum(rhs),rhsMax =  -1.11212150599727E-11  1.62858127936683E-01
 cg2d: Sum(rhs),rhsMax =  -1.11051168261156E-11  1.62081132028079E-01
 cg2d: Sum(rhs),rhsMax =  -1.10610409720380E-11  1.61263118093807E-01
 cg2d: Sum(rhs),rhsMax =  -1.10251807683426E-11  1.60404668796716E-01
 cg2d: Sum(rhs),rhsMax =  -1.09973141704245E-11  1.59506395285464E-01
 cg2d: Sum(rhs),rhsMax =  -1.10053077762018E-11  1.58568929957503E-01
 cg2d: Sum(rhs),rhsMax =  -1.10337294856322E-11  1.57592920423619E-01
 cg2d: Sum(rhs),rhsMax =  -1.10773612505000E-11  1.56579024865418E-01
 cg2d: Sum(rhs),rhsMax =  -1.11005649117146E-11  1.55527908718547E-01
 cg2d: Sum(rhs),rhsMax =  -1.11328168905800E-11  1.54440242818865E-01
 cg2d: Sum(rhs),rhsMax =  -1.11867182184255E-11  1.53316702833890E-01
 cg2d: Sum(rhs),rhsMax =  -1.12367892768361E-11  1.52157969749771E-01
 cg2d: Sum(rhs),rhsMax =  -1.12762021942103E-11  1.50964731087819E-01
 cg2d: Sum(rhs),rhsMax =  -1.13422049530243E-11  1.49737682482873E-01
 cg2d: Sum(rhs),rhsMax =  -1.13766773779389E-11  1.48477529258916E-01
 cg2d: Sum(rhs),rhsMax =  -1.13987708161289E-11  1.47184987675076E-01
 cg2d: Sum(rhs),rhsMax =  -1.14845355447812E-11  1.45860785579431E-01
 cg2d: Sum(rhs),rhsMax =  -1.15140119660850E-11  1.44505662290312E-01
 cg2d: Sum(rhs),rhsMax =  -1.15818465928896E-11  1.43120367616258E-01
 cg2d: Sum(rhs),rhsMax =  -1.16375242775746E-11  1.41705660029112E-01
 cg2d: Sum(rhs),rhsMax =  -1.16894272039758E-11  1.40262304049130E-01
 cg2d: Sum(rhs),rhsMax =  -1.17464371562903E-11  1.38791067018365E-01
 cg2d: Sum(rhs),rhsMax =  -1.17984511049940E-11  1.37292715496381E-01
 cg2d: Sum(rhs),rhsMax =  -1.18490772749169E-11  1.35768011518909E-01
 cg2d: Sum(rhs),rhsMax =  -1.19053655822654E-11  1.34217708972366E-01
 cg2d: Sum(rhs),rhsMax =  -1.19877441306926E-11  1.32642550331629E-01
 cg2d: Sum(rhs),rhsMax =  -1.20676801884656E-11  1.31043263983875E-01
 cg2d: Sum(rhs),rhsMax =  -1.21300747224495E-11  1.29420562303683E-01
 cg2d: Sum(rhs),rhsMax =  -1.21987975276738E-11  1.27775140612070E-01
 cg2d: Sum(rhs),rhsMax =  -1.22753474052217E-11  1.26107677164767E-01
 cg2d: Sum(rhs),rhsMax =  -1.23692167619538E-11  1.24418834073962E-01
 cg2d: Sum(rhs),rhsMax =  -1.24472654405849E-11  1.22709259119881E-01
 cg2d: Sum(rhs),rhsMax =  -1.25492394253968E-11  1.20979588359003E-01
 cg2d: Sum(rhs),rhsMax =  -1.26373356224008E-11  1.19230449390844E-01
 cg2d: Sum(rhs),rhsMax =  -1.27365895608023E-11  1.17462465096408E-01
 cg2d: Sum(rhs),rhsMax =  -1.28126953491403E-11  1.15676257689856E-01
 cg2d: Sum(rhs),rhsMax =  -1.29250499192324E-11  1.13872452873704E-01
 cg2d: Sum(rhs),rhsMax =  -1.30312982626890E-11  1.12051683898946E-01
 cg2d: Sum(rhs),rhsMax =  -1.31603061781504E-11  1.10214595368724E-01
 cg2d: Sum(rhs),rhsMax =  -1.32726052370913E-11  1.08361846652803E-01
 cg2d: Sum(rhs),rhsMax =  -1.34309785515541E-11  1.06494114811539E-01
 cg2d: Sum(rhs),rhsMax =  -1.35749189666967E-11  1.04612096959505E-01
 cg2d: Sum(rhs),rhsMax =  -1.37105327091547E-11  1.02716512028386E-01
 cg2d: Sum(rhs),rhsMax =  -1.38696276685835E-11  1.00808101913638E-01
 cg2d: Sum(rhs),rhsMax =  -1.40267242265679E-11  9.88876320103309E-02
 cg2d: Sum(rhs),rhsMax =  -1.41894829219780E-11  9.69558911233640E-02
 cg2d: Sum(rhs),rhsMax =  -1.44240730470813E-11  9.50136907948665E-02
 cg2d: Sum(rhs),rhsMax =  -1.46783696308717E-11  9.30618640161527E-02
 cg2d: Sum(rhs),rhsMax =  -1.49471823807090E-11  9.11012633728891E-02
 cg2d: Sum(rhs),rhsMax =  -1.52073909021055E-11  8.91327586192714E-02
 cg2d: Sum(rhs),rhsMax =  -1.54911083960485E-11  8.71572336715354E-02
 cg2d: Sum(rhs),rhsMax =  -1.58038582220854E-11  8.51755830247987E-02
 cg2d: Sum(rhs),rhsMax =  -1.61439195345281E-11  8.31887076228143E-02
 cg2d: Sum(rhs),rhsMax =  -1.64811497782580E-11  8.11975102466853E-02
 cg2d: Sum(rhs),rhsMax =  -1.68302871639270E-11  7.92028905354269E-02
 cg2d: Sum(rhs),rhsMax =  -1.72641068107993E-11  7.72057397883519E-02
 cg2d: Sum(rhs),rhsMax =  -1.76473002877486E-11  7.52069357834023E-02
 cg2d: Sum(rhs),rhsMax =  -1.80588460851894E-11  7.32073378870886E-02
 cg2d: Sum(rhs),rhsMax =  -1.85152865261884E-11  7.12077827773928E-02
 cg2d: Sum(rhs),rhsMax =  -1.89909893366647E-11  6.92090811279112E-02
 cg2d: Sum(rhs),rhsMax =  -1.95080965270655E-11  6.72120156006139E-02
 cg2d: Sum(rhs),rhsMax =  -2.00429525407109E-11  6.52173404738673E-02
 cg2d: Sum(rhs),rhsMax =  -2.06059162788375E-11  6.32257830927884E-02
 cg2d: Sum(rhs),rhsMax =  -2.11911044267765E-11  6.12380473112089E-02
 cg2d: Sum(rhs),rhsMax =  -2.18105533633661E-11  5.92548189068944E-02
 cg2d: Sum(rhs),rhsMax =  -2.24892326983195E-11  5.72767727759966E-02
 cg2d: Sum(rhs),rhsMax =  -2.31826502439247E-11  5.53045815650829E-02
 cg2d: Sum(rhs),rhsMax =  -2.39205877328175E-11  5.33389252556522E-02
 cg2d: Sum(rhs),rhsMax =  -2.47331044533894E-11  5.13805010966249E-02
 cg2d: Sum(rhs),rhsMax =  -2.56120680219851E-11  4.94300332227536E-02
 cg2d: Sum(rhs),rhsMax =  -2.65349964223560E-11  4.74882812914299E-02
 cg2d: Sum(rhs),rhsMax =  -2.75613420974707E-11  4.55560475237507E-02
 cg2d: Sum(rhs),rhsMax =  -2.86327073162340E-11  4.36341816470729E-02
 cg2d: Sum(rhs),rhsMax =  -2.99401059500326E-11  4.17235833953216E-02
 cg2d: Sum(rhs),rhsMax =  -3.12662118417961E-11  3.98252024125879E-02
 cg2d: Sum(rhs),rhsMax =  -3.24146265384684E-11  3.82786190805235E-02
 cg2d: Sum(rhs),rhsMax =  -3.18913784269625E-11  3.87672755905960E-02
 cg2d: Sum(rhs),rhsMax =  -3.14210879537313E-11  3.92531343106865E-02
 cg2d: Sum(rhs),rhsMax =  -3.08923997494048E-11  3.97597257930087E-02
 cg2d: Sum(rhs),rhsMax =  -3.04191116740071E-11  4.02617124659866E-02
 cg2d: Sum(rhs),rhsMax =  -2.99408275949986E-11  4.07590029670243E-02
 cg2d: Sum(rhs),rhsMax =  -2.94666513411812E-11  4.12514999660838E-02
 cg2d: Sum(rhs),rhsMax =  -2.87263546283612E-11  4.21773907605356E-02
 cg2d: Sum(rhs),rhsMax =  -2.78949086052194E-11  4.32882119686232E-02
 cg2d: Sum(rhs),rhsMax =  -2.71792588435460E-11  4.43828641761202E-02
 cg2d: Sum(rhs),rhsMax =  -2.63967736557902E-11  4.54609424449404E-02
 cg2d: Sum(rhs),rhsMax =  -2.57137644510408E-11  4.65220660651752E-02
 cg2d: Sum(rhs),rhsMax =  -2.51024756536822E-11  4.75658804875970E-02
 cg2d: Sum(rhs),rhsMax =  -2.45226061679205E-11  4.85920605114448E-02
 cg2d: Sum(rhs),rhsMax =  -2.39713804361941E-11  4.96003147991166E-02
 cg2d: Sum(rhs),rhsMax =  -2.34204877713751E-11  5.05903856770672E-02
 cg2d: Sum(rhs),rhsMax =  -2.28904672994190E-11  5.15620735433407E-02
 cg2d: Sum(rhs),rhsMax =  -2.23706608792895E-11  5.25251947454597E-02
 cg2d: Sum(rhs),rhsMax =  -2.19463336392778E-11  5.34758223124992E-02
 cg2d: Sum(rhs),rhsMax =  -2.15307771611606E-11  5.44066907079059E-02
 cg2d: Sum(rhs),rhsMax =  -2.10732542527126E-11  5.53176463292590E-02
 cg2d: Sum(rhs),rhsMax =  -2.07388550776955E-11  5.62085220394419E-02
 cg2d: Sum(rhs),rhsMax =  -2.03150829491960E-11  5.70791213766495E-02
 cg2d: Sum(rhs),rhsMax =  -1.99736893691238E-11  5.79292121343409E-02
 cg2d: Sum(rhs),rhsMax =  -1.96818117359499E-11  5.87585194627345E-02
 cg2d: Sum(rhs),rhsMax =  -1.93852711660725E-11  5.95667216704949E-02
 cg2d: Sum(rhs),rhsMax =  -1.90648608011657E-11  6.03534428292332E-02
 cg2d: Sum(rhs),rhsMax =  -1.87549975549928E-11  6.11182541183093E-02
 cg2d: Sum(rhs),rhsMax =  -1.83670856301887E-11  6.18606901231209E-02
 cg2d: Sum(rhs),rhsMax =  -1.81025194834206E-11  6.25802525829461E-02
 cg2d: Sum(rhs),rhsMax =  -1.78278503071283E-11  6.32764281722511E-02
 cg2d: Sum(rhs),rhsMax =  -1.75942593827472E-11  6.39487004093190E-02
 cg2d: Sum(rhs),rhsMax =  -1.73698833094704E-11  6.45965662925561E-02
 cg2d: Sum(rhs),rhsMax =  -1.71322955822006E-11  6.52195515623143E-02
 cg2d: Sum(rhs),rhsMax =  -1.69166902708184E-11  6.58172250790107E-02
 cg2d: Sum(rhs),rhsMax =  -1.67414970775326E-11  6.63892063567329E-02
 cg2d: Sum(rhs),rhsMax =  -1.65241154093110E-11  6.69351709859792E-02
 cg2d: Sum(rhs),rhsMax =  -1.63850044643254E-11  6.74548493014301E-02
 cg2d: Sum(rhs),rhsMax =  -1.61954893940219E-11  6.79480239922905E-02
 cg2d: Sum(rhs),rhsMax =  -1.61003432808116E-11  6.84145263618871E-02
 cg2d: Sum(rhs),rhsMax =  -1.59777746588929E-11  6.88542126007849E-02
 cg2d: Sum(rhs),rhsMax =  -1.57954760382495E-11  6.92669796148351E-02
 cg2d: Sum(rhs),rhsMax =  -1.57355239949197E-11  6.96527671810539E-02
 cg2d: Sum(rhs),rhsMax =  -1.56259449823892E-11  7.00115415194626E-02
 cg2d: Sum(rhs),rhsMax =  -1.55169210813710E-11  7.03432799520803E-02
 cg2d: Sum(rhs),rhsMax =  -1.54100066040996E-11  7.06479558363853E-02
 cg2d: Sum(rhs),rhsMax =  -1.52852175361318E-11  7.09255305426351E-02
 cg2d: Sum(rhs),rhsMax =  -1.52011736531676E-11  7.11759444935055E-02
 cg2d: Sum(rhs),rhsMax =  -1.51465506803561E-11  7.13991152374643E-02
 cg2d: Sum(rhs),rhsMax =  -1.50039980439942E-11  7.15949337655955E-02
 cg2d: Sum(rhs),rhsMax =  -1.49597001453117E-11  7.17632622183410E-02
 cg2d: Sum(rhs),rhsMax =  -1.49624757028732E-11  7.19039358010685E-02
 cg2d: Sum(rhs),rhsMax =  -1.48631107421693E-11  7.20654031018449E-02
 cg2d: Sum(rhs),rhsMax =  -1.47759582347362E-11  7.22367393214084E-02
 cg2d: Sum(rhs),rhsMax =  -1.47342138490103E-11  7.23710777022195E-02
 cg2d: Sum(rhs),rhsMax =  -1.47198919719926E-11  7.24682965026881E-02
 cg2d: Sum(rhs),rhsMax =  -1.47694079188909E-11  7.25283318709340E-02
 cg2d: Sum(rhs),rhsMax =  -1.48298040514305E-11  7.25511685600013E-02
 cg2d: Sum(rhs),rhsMax =  -1.48502321550836E-11  7.25368307731221E-02
 cg2d: Sum(rhs),rhsMax =  -1.48100420815922E-11  7.24853739442816E-02
 cg2d: Sum(rhs),rhsMax =  -1.49453782682940E-11  7.23968777929209E-02
 cg2d: Sum(rhs),rhsMax =  -1.49887879885569E-11  7.22714408785523E-02
 cg2d: Sum(rhs),rhsMax =  -1.50759404959899E-11  7.21091769227274E-02
 cg2d: Sum(rhs),rhsMax =  -1.51983980956061E-11  7.19102128247536E-02
 cg2d: Sum(rhs),rhsMax =  -1.53261847657404E-11  7.16746881776381E-02
 cg2d: Sum(rhs),rhsMax =  -1.54266599494690E-11  7.14027560908561E-02
 cg2d: Sum(rhs),rhsMax =  -1.55455648354064E-11  7.10945848638258E-02
 cg2d: Sum(rhs),rhsMax =  -1.56588075839181E-11  7.07503600960005E-02
 cg2d: Sum(rhs),rhsMax =  -1.57717172655225E-11  7.03702870253246E-02
 cg2d: Sum(rhs),rhsMax =  -1.59295909796242E-11  6.99545928254384E-02
 cg2d: Sum(rhs),rhsMax =  -1.61135549348046E-11  6.95035287435871E-02
 cg2d: Sum(rhs),rhsMax =  -1.62515556567655E-11  6.90173719717873E-02
 cg2d: Sum(rhs),rhsMax =  -1.64158686644100E-11  6.84964273309954E-02
 cg2d: Sum(rhs),rhsMax =  -1.65742974900240E-11  6.79410285010414E-02
 cg2d: Sum(rhs),rhsMax =  -1.67655889171670E-11  6.73515388641173E-02
 cg2d: Sum(rhs),rhsMax =  -1.70011782429924E-11  6.67283518588627E-02
 cg2d: Sum(rhs),rhsMax =  -1.71573866225572E-11  6.61299903852386E-02
 cg2d: Sum(rhs),rhsMax =  -1.73564496108725E-11  6.55613220208016E-02
 cg2d: Sum(rhs),rhsMax =  -1.76132441964683E-11  6.49677087451601E-02
 cg2d: Sum(rhs),rhsMax =  -1.78492776115036E-11  6.43495171760003E-02
 cg2d: Sum(rhs),rhsMax =  -1.80385706372022E-11  6.37071243479817E-02
 cg2d: Sum(rhs),rhsMax =  -1.82838189033419E-11  6.30409112106445E-02
 cg2d: Sum(rhs),rhsMax =  -1.85810256070340E-11  6.23512538968915E-02
 cg2d: Sum(rhs),rhsMax =  -1.88502546905056E-11  6.16385135605874E-02
 cg2d: Sum(rhs),rhsMax =  -1.91445748143337E-11  6.09030269439039E-02
 cg2d: Sum(rhs),rhsMax =  -1.93893789912636E-11  6.01450994694124E-02
 cg2d: Sum(rhs),rhsMax =  -1.97408756008599E-11  5.93650026635712E-02
 cg2d: Sum(rhs),rhsMax =  -2.00613969880692E-11  5.85629783500379E-02
 cg2d: Sum(rhs),rhsMax =  -2.03960182076912E-11  5.77392499118128E-02
 cg2d: Sum(rhs),rhsMax =  -2.07762695936253E-11  5.68940384436208E-02
 cg2d: Sum(rhs),rhsMax =  -2.11358708313014E-11  5.60275813861496E-02
 cg2d: Sum(rhs),rhsMax =  -2.15251150237350E-11  5.51401501227222E-02
 cg2d: Sum(rhs),rhsMax =  -2.19161355730080E-11  5.42320671897432E-02
 cg2d: Sum(rhs),rhsMax =  -2.23966400980657E-11  5.33037196638214E-02
 cg2d: Sum(rhs),rhsMax =  -2.28141949776273E-11  5.23555650404782E-02
 cg2d: Sum(rhs),rhsMax =  -2.33401076243922E-11  5.13881300132350E-02
 cg2d: Sum(rhs),rhsMax =  -2.38611352898488E-11  5.04019994436959E-02
 cg2d: Sum(rhs),rhsMax =  -2.43846054459596E-11  4.93978014196476E-02
 cg2d: Sum(rhs),rhsMax =  -2.49654741324434E-11  4.83761932598866E-02
 cg2d: Sum(rhs),rhsMax =  -2.55790943981538E-11  4.73378407202432E-02
 cg2d: Sum(rhs),rhsMax =  -2.62426746999722E-11  4.62834003887660E-02
 cg2d: Sum(rhs),rhsMax =  -2.69249067486044E-11  4.52135061004433E-02
 cg2d: Sum(rhs),rhsMax =  -2.76922929032253E-11  4.41287694499647E-02
 cg2d: Sum(rhs),rhsMax =  -2.84884338341840E-11  4.30297651648536E-02
 cg2d: Sum(rhs),rhsMax =  -2.93134405637829E-11  4.19170301356046E-02
 cg2d: Sum(rhs),rhsMax =  -2.97358804246528E-11  4.13868297375126E-02
 cg2d: Sum(rhs),rhsMax =  -3.02191605072721E-11  4.09015140061657E-02
 cg2d: Sum(rhs),rhsMax =  -3.06160652385756E-11  4.04112914798788E-02
 cg2d: Sum(rhs),rhsMax =  -3.10912406931152E-11  3.99162087680123E-02
 cg2d: Sum(rhs),rhsMax =  -3.16008330614181E-11  3.94163313646393E-02
 cg2d: Sum(rhs),rhsMax =  -3.20761195382602E-11  3.89129827431316E-02
 cg2d: Sum(rhs),rhsMax =  -3.25396376510412E-11  3.84261859382434E-02
 cg2d: Sum(rhs),rhsMax =  -3.30597771380781E-11  3.79352616928320E-02
 cg2d: Sum(rhs),rhsMax =  -3.35399485962284E-11  3.74403984880532E-02
 cg2d: Sum(rhs),rhsMax =  -3.40674155552279E-11  3.69417993338493E-02
 cg2d: Sum(rhs),rhsMax =  -3.28408411576220E-11  3.84782683243888E-02
 cg2d: Sum(rhs),rhsMax =  -3.13770120996537E-11  4.03047154511646E-02
 cg2d: Sum(rhs),rhsMax =  -3.00882652126688E-11  4.21434206622299E-02
 cg2d: Sum(rhs),rhsMax =  -2.88992163532953E-11  4.39939096951412E-02
 cg2d: Sum(rhs),rhsMax =  -2.77880496390992E-11  4.58557423876864E-02
 cg2d: Sum(rhs),rhsMax =  -2.67861288705262E-11  4.77285044641367E-02
 cg2d: Sum(rhs),rhsMax =  -2.58467414138153E-11  4.96117972317771E-02
 cg2d: Sum(rhs),rhsMax =  -2.49620324410671E-11  5.15052255805744E-02
 cg2d: Sum(rhs),rhsMax =  -2.41518471888469E-11  5.34083847854000E-02
 cg2d: Sum(rhs),rhsMax =  -2.33821850770255E-11  5.53208467724497E-02
 cg2d: Sum(rhs),rhsMax =  -2.26598739772044E-11  5.72421464746344E-02
 cg2d: Sum(rhs),rhsMax =  -2.19732634865188E-11  5.91717689396652E-02
 cg2d: Sum(rhs),rhsMax =  -2.13451270547615E-11  6.11091378190384E-02
 cg2d: Sum(rhs),rhsMax =  -2.07355764503259E-11  6.30536057942289E-02
 cg2d: Sum(rhs),rhsMax =  -2.01583333359068E-11  6.50044473907929E-02
 cg2d: Sum(rhs),rhsMax =  -1.96004532049265E-11  6.69608545064948E-02
 cg2d: Sum(rhs),rhsMax =  -1.90932408772326E-11  6.89219348436378E-02
 cg2d: Sum(rhs),rhsMax =  -1.86041321237340E-11  7.08867132973102E-02
 cg2d: Sum(rhs),rhsMax =  -1.81469422821934E-11  7.28541362159006E-02
 cg2d: Sum(rhs),rhsMax =  -1.77209358298569E-11  7.48230783229784E-02
 cg2d: Sum(rhs),rhsMax =  -1.73094871769308E-11  7.67923519753736E-02
 cg2d: Sum(rhs),rhsMax =  -1.69272651451280E-11  7.87607183358404E-02
 cg2d: Sum(rhs),rhsMax =  -1.65653879502514E-11  8.07268999618858E-02
 cg2d: Sum(rhs),rhsMax =  -1.62271029946481E-11  8.26895942612867E-02
 cg2d: Sum(rhs),rhsMax =  -1.58841551023414E-11  8.46474872863162E-02
 cg2d: Sum(rhs),rhsMax =  -1.55800650158966E-11  8.65992672687497E-02
 cg2d: Sum(rhs),rhsMax =  -1.53668189284417E-11  8.85436373769879E-02
 cg2d: Sum(rhs),rhsMax =  -1.50696122247496E-11  9.04793272550383E-02
 cg2d: Sum(rhs),rhsMax =  -1.47896694890903E-11  9.24051029710464E-02
 cg2d: Sum(rhs),rhsMax =  -1.45592982114806E-11  9.43197751034254E-02
 cg2d: Sum(rhs),rhsMax =  -1.43473566360797E-11  9.62222048077095E-02
 cg2d: Sum(rhs),rhsMax =  -1.41086031746340E-11  9.81113078280229E-02
 cg2d: Sum(rhs),rhsMax =  -1.37205247163763E-11  9.99860565289302E-02
 cg2d: Sum(rhs),rhsMax =  -1.35664812717096E-11  1.01845480131987E-01
 cg2d: Sum(rhs),rhsMax =  -1.34042221766606E-11  1.03688663433873E-01
 cg2d: Sum(rhs),rhsMax =  -1.32368560556984E-11  1.05514744351928E-01
 cg2d: Sum(rhs),rhsMax =  -1.30955801758148E-11  1.07322910682782E-01
 cg2d: Sum(rhs),rhsMax =  -1.29500854484377E-11  1.09112396467466E-01
 cg2d: Sum(rhs),rhsMax =  -1.27923782677897E-11  1.10882478330832E-01
 cg2d: Sum(rhs),rhsMax =  -1.26701427127784E-11  1.12632472105869E-01
 cg2d: Sum(rhs),rhsMax =  -1.25478516466160E-11  1.14361729968961E-01
 cg2d: Sum(rhs),rhsMax =  -1.24392163236564E-11  1.16069638207819E-01
 cg2d: Sum(rhs),rhsMax =  -1.23414611863382E-11  1.17755615630075E-01
 cg2d: Sum(rhs),rhsMax =  -1.22397647572825E-11  1.19419112512937E-01
 cg2d: Sum(rhs),rhsMax =  -1.21373466832608E-11  1.21059609890947E-01
 cg2d: Sum(rhs),rhsMax =  -1.20598531161420E-11  1.22676618920567E-01
 cg2d: Sum(rhs),rhsMax =  -1.19531051723243E-11  1.24269680033217E-01
 cg2d: Sum(rhs),rhsMax =  -1.18502985202440E-11  1.25838361594559E-01
 cg2d: Sum(rhs),rhsMax =  -1.17686416167828E-11  1.27382257846640E-01
 cg2d: Sum(rhs),rhsMax =  -1.16839316000039E-11  1.28900986002893E-01
(PID.TID 0000.0001)      cg2d_init_res =   6.30143532477775E-02
(PID.TID 0000.0001)      cg2d_iters(min,last) =      -1      37
(PID.TID 0000.0001)      cg2d_last_res =   6.06276825810016E-14
(PID.TID 0000.0001) // =======================================================
(PID.TID 0000.0001) // Begin MONITOR dynamic field statistics
(PID.TID 0000.0001) // =======================================================
(PID.TID 0000.0001) %MON time_tsnumber                =                  5760
(PID.TID 0000.0001) %MON time_secondsf                =   8.6400000000000E+04
(PID.TID 0000.0001) %MON dynstat_eta_max              =   2.1965907682430E-02
(PID.TID 0000.0001) %MON dynstat_eta_min              =  -1.1345146915654E-02
(PID.TID 0000.0001) %MON dynstat_eta_mean             =   3.2371430676335E-15
(PID.TID 0000.0001) %MON dynstat_eta_sd               =   1.1539860904679E-02
(PID.TID 0000.0001) %MON dynstat_eta_del2             =   1.8263685905528E-05
(PID.TID 0000.0001) %MON dynstat_uvel_max             =   1.1317584733075E+00
(PID.TID 0000.0001) %MON dynstat_uvel_min             =  -9.8016863443948E-01
(PID.TID 0000.0001) %MON dynstat_uvel_mean            =   3.3877413368466E-01
(PID.TID 0000.0001) %MON dynstat_uvel_sd              =   1.6195010242167E-01
(PID.TID 0000.0001) %MON dynstat_uvel_del2            =   7.2803984606207E-04
(PID.TID 0000.0001) %MON dynstat_vvel_max             =   0.0000000000000E+00
(PID.TID 0000.0001) %MON dynstat_vvel_min             =   0.0000000000000E+00
(PID.TID 0000.0001) %MON dynstat_vvel_mean            =   0.0000000000000E+00
(PID.TID 0000.0001) %MON dynstat_vvel_sd              =   0.0000000000000E+00
(PID.TID 0000.0001) %MON dynstat_vvel_del2            =   0.0000000000000E+00
(PID.TID 0000.0001) %MON dynstat_wvel_max             =   2.9491913675327E-02
(PID.TID 0000.0001) %MON dynstat_wvel_min             =  -2.7000376531504E-02
(PID.TID 0000.0001) %MON dynstat_wvel_mean            =   3.7202366513202E-20
(PID.TID 0000.0001) %MON dynstat_wvel_sd              =   1.9509838814505E-03
(PID.TID 0000.0001) %MON dynstat_wvel_del2            =   4.6172334604130E-05
(PID.TID 0000.0001) %MON dynstat_theta_max            =   1.5000000000012E+01
(PID.TID 0000.0001) %MON dynstat_theta_min            =   9.9999999999910E+00
(PID.TID 0000.0001) %MON dynstat_theta_mean           =   1.3215309469477E+01
(PID.TID 0000.0001) %MON dynstat_theta_sd             =   2.2619976635777E+00
(PID.TID 0000.0001) %MON dynstat_theta_del2           =   1.0712317268081E-03
(PID.TID 0000.0001) %MON dynstat_salt_max             =   3.5000000000000E+01
(PID.TID 0000.0001) %MON dynstat_salt_min             =   3.5000000000000E+01
(PID.TID 0000.0001) %MON dynstat_salt_mean            =   3.5000000000000E+01
(PID.TID 0000.0001) %MON dynstat_salt_sd              =   2.1316282072803E-14
(PID.TID 0000.0001) %MON dynstat_salt_del2            =   0.0000000000000E+00
(PID.TID 0000.0001) %MON dynstat_sst_max              =   1.5000000000000E+01
(PID.TID 0000.0001) %MON dynstat_sst_min              =   1.4999999999987E+01
(PID.TID 0000.0001) %MON dynstat_sst_mean             =   1.4999999999995E+01
(PID.TID 0000.0001) %MON dynstat_sst_sd               =   3.8579232546747E-12
(PID.TID 0000.0001) %MON dynstat_sst_del2             =   1.8422606048521E-14
(PID.TID 0000.0001) %MON dynstat_sss_max              =   3.5000000000000E+01
(PID.TID 0000.0001) %MON dynstat_sss_min              =   3.5000000000000E+01
(PID.TID 0000.0001) %MON dynstat_sss_mean             =   3.5000000000000E+01
(PID.TID 0000.0001) %MON dynstat_sss_sd               =   7.8159700933611E-14
(PID.TID 0000.0001) %MON dynstat_sss_del2             =   0.0000000000000E+00
(PID.TID 0000.0001) %MON forcing_qnet_max             =   0.0000000000000E+00
(PID.TID 0000.0001) %MON forcing_qnet_min             =   0.0000000000000E+00
(PID.TID 0000.0001) %MON forcing_qnet_mean            =   0.0000000000000E+00
(PID.TID 0000.0001) %MON forcing_qnet_sd              =   0.0000000000000E+00
(PID.TID 0000.0001) %MON forcing_qnet_del2            =   0.0000000000000E+00
(PID.TID 0000.0001) %MON forcing_qsw_max              =   0.0000000000000E+00
(PID.TID 0000.0001) %MON forcing_qsw_min              =   0.0000000000000E+00
(PID.TID 0000.0001) %MON forcing_qsw_mean             =   0.0000000000000E+00
(PID.TID 0000.0001) %MON forcing_qsw_sd               =   0.0000000000000E+00
(PID.TID 0000.0001) %MON forcing_qsw_del2             =   0.0000000000000E+00
(PID.TID 0000.0001) %MON forcing_empmr_max            =   0.0000000000000E+00
(PID.TID 0000.0001) %MON forcing_empmr_min            =   0.0000000000000E+00
(PID.TID 0000.0001) %MON forcing_empmr_mean           =   0.0000000000000E+00
(PID.TID 0000.0001) %MON forcing_empmr_sd             =   0.0000000000000E+00
(PID.TID 0000.0001) %MON forcing_empmr_del2           =   0.0000000000000E+00
(PID.TID 0000.0001) %MON forcing_fu_max               =   0.0000000000000E+00
(PID.TID 0000.0001) %MON forcing_fu_min               =   0.0000000000000E+00
(PID.TID 0000.0001) %MON forcing_fu_mean              =   0.0000000000000E+00
(PID.TID 0000.0001) %MON forcing_fu_sd                =   0.0000000000000E+00
(PID.TID 0000.0001) %MON forcing_fu_del2              =   0.0000000000000E+00
(PID.TID 0000.0001) %MON forcing_fv_max               =   0.0000000000000E+00
(PID.TID 0000.0001) %MON forcing_fv_min               =   0.0000000000000E+00
(PID.TID 0000.0001) %MON forcing_fv_mean              =   0.0000000000000E+00
(PID.TID 0000.0001) %MON forcing_fv_sd                =   0.0000000000000E+00
(PID.TID 0000.0001) %MON forcing_fv_del2              =   0.0000000000000E+00
(PID.TID 0000.0001) %MON advcfl_uvel_max              =   8.4881885498065E-02
(PID.TID 0000.0001) %MON advcfl_vvel_max              =   0.0000000000000E+00
(PID.TID 0000.0001) %MON advcfl_wvel_max              =   2.1697395170443E-01
(PID.TID 0000.0001) %MON advcfl_W_hf_max              =   2.1974986882882E-01
(PID.TID 0000.0001) %MON pe_b_mean                    =   3.3269619710570E-06
(PID.TID 0000.0001) %MON ke_max                       =   5.1774382256026E-01
(PID.TID 0000.0001) %MON ke_mean                      =   7.0628243658709E-02
(PID.TID 0000.0001) %MON ke_vol                       =   9.5889217545975E+10
(PID.TID 0000.0001) %MON vort_r_min                   =   0.0000000000000E+00
(PID.TID 0000.0001) %MON vort_r_max                   =   0.0000000000000E+00
(PID.TID 0000.0001) %MON vort_a_mean                  =   0.0000000000000E+00
(PID.TID 0000.0001) %MON vort_a_sd                    =   0.0000000000000E+00
(PID.TID 0000.0001) %MON vort_p_mean                  =   0.0000000000000E+00
(PID.TID 0000.0001) %MON vort_p_sd                    =   0.0000000000000E+00
(PID.TID 0000.0001) %MON surfExpan_theta_mean         =   3.4953204224815E-17
(PID.TID 0000.0001) %MON surfExpan_salt_mean          =   2.8826617016523E-18
(PID.TID 0000.0001) // =======================================================
(PID.TID 0000.0001) // End MONITOR dynamic field statistics
(PID.TID 0000.0001) // =======================================================
(PID.TID 0000.0001) // =======================================================
(PID.TID 0000.0001) // Begin OBCS MONITOR field statistics
(PID.TID 0000.0001) // =======================================================
(PID.TID 0000.0001) %MON obc_E_uVel_max               =   3.3404902334837E-01
(PID.TID 0000.0001) %MON obc_E_uVel_min               =   3.3404902334837E-01
(PID.TID 0000.0001) %MON obc_E_uVel_mean              =   3.3404902334837E-01
(PID.TID 0000.0001) %MON obc_E_uVel_sd                =   8.3300023432813E-09
(PID.TID 0000.0001) %MON obc_E_uVel_Int               =   3.3404902334837E+05
(PID.TID 0000.0001) %MON obc_W_uVel_max               =   3.3404902334837E-01
(PID.TID 0000.0001) %MON obc_W_uVel_min               =   3.3404902334837E-01
(PID.TID 0000.0001) %MON obc_W_uVel_mean              =   3.3404902334837E-01
(PID.TID 0000.0001) %MON obc_W_uVel_sd                =   8.3300023432813E-09
(PID.TID 0000.0001) %MON obc_W_uVel_Int               =   3.3404902334837E+05
(PID.TID 0000.0001) // =======================================================
(PID.TID 0000.0001) // End OBCS MONITOR field statistics
(PID.TID 0000.0001) // =======================================================
(PID.TID 0000.0001) %CHECKPOINT      5760 0000005760
 cg2d: Sum(rhs),rhsMax =  -1.15733533867513E-11  1.30394182490555E-01
 cg2d: Sum(rhs),rhsMax =  -1.14970255538083E-11  1.31861498453963E-01
 cg2d: Sum(rhs),rhsMax =  -1.14374620885371E-11  1.33302594762806E-01
 cg2d: Sum(rhs),rhsMax =  -1.13686837721616E-11  1.34717136871779E-01
 cg2d: Sum(rhs),rhsMax =  -1.13019038572304E-11  1.36104789943217E-01
 cg2d: Sum(rhs),rhsMax =  -1.12266862473120E-11  1.37465214659568E-01
 cg2d: Sum(rhs),rhsMax =  -1.11754494547256E-11  1.38798064112651E-01
 cg2d: Sum(rhs),rhsMax =  -1.11214926157288E-11  1.40102982063977E-01
 cg2d: Sum(rhs),rhsMax =  -1.10526587882021E-11  1.41379602733974E-01
 cg2d: Sum(rhs),rhsMax =  -1.09947606574679E-11  1.42627552111121E-01
 cg2d: Sum(rhs),rhsMax =  -1.09292019878637E-11  1.43846450607575E-01
 cg2d: Sum(rhs),rhsMax =  -1.09026121464240E-11  1.45035916706192E-01
 cg2d: Sum(rhs),rhsMax =  -1.08498765527543E-11  1.46195571126333E-01
 cg2d: Sum(rhs),rhsMax =  -1.08000275389486E-11  1.47325040954247E-01
 cg2d: Sum(rhs),rhsMax =  -1.07267528193233E-11  1.48423963170086E-01
 cg2d: Sum(rhs),rhsMax =  -1.07110431635249E-11  1.49491987047032E-01
 cg2d: Sum(rhs),rhsMax =  -1.06589737036700E-11  1.50528775014098E-01
 cg2d: Sum(rhs),rhsMax =  -1.05930819671585E-11  1.51534001738824E-01
 cg2d: Sum(rhs),rhsMax =  -1.06344377748258E-11  1.52507351384922E-01
 cg2d: Sum(rhs),rhsMax =  -1.06481490291799E-11  1.53448513215561E-01
 cg2d: Sum(rhs),rhsMax =  -1.06668007759936E-11  1.54357175894824E-01
 cg2d: Sum(rhs),rhsMax =  -1.06635811292222E-11  1.55233021008369E-01
 cg2d: Sum(rhs),rhsMax =  -1.06866737681344E-11  1.56075716431990E-01
 cg2d: Sum(rhs),rhsMax =  -1.06988862214052E-11  1.56884910220912E-01
 cg2d: Sum(rhs),rhsMax =  -1.06986641768003E-11  1.57660225631434E-01
 cg2d: Sum(rhs),rhsMax =  -1.07206465926879E-11  1.58401257838115E-01
 cg2d: Sum(rhs),rhsMax =  -1.07501785251429E-11  1.59107572732678E-01
 cg2d: Sum(rhs),rhsMax =  -1.07590603093399E-11  1.59778707999986E-01
 cg2d: Sum(rhs),rhsMax =  -1.07682751604443E-11  1.60414176458292E-01
 cg2d: Sum(rhs),rhsMax =  -1.07724940079379E-11  1.61013471448004E-01
 cg2d: Sum(rhs),rhsMax =  -1.08112407914973E-11  1.61576073876434E-01
 cg2d: Sum(rhs),rhsMax =  -1.08082431893308E-11  1.62101460394175E-01
 cg2d: Sum(rhs),rhsMax =  -1.08261177800273E-11  1.62589112103376E-01
 cg2d: Sum(rhs),rhsMax =  -1.08478781513099E-11  1.63038523187483E-01
 cg2d: Sum(rhs),rhsMax =  -1.09111608637136E-11  1.63449208904991E-01
 cg2d: Sum(rhs),rhsMax =  -1.09700026840187E-11  1.63820712498678E-01
 cg2d: Sum(rhs),rhsMax =  -1.09905418099743E-11  1.64152610729944E-01
 cg2d: Sum(rhs),rhsMax =  -1.10417230914095E-11  1.64444517887386E-01
 cg2d: Sum(rhs),rhsMax =  -1.10277342812992E-11  1.64696088334140E-01
 cg2d: Sum(rhs),rhsMax =  -1.10257358798549E-11  1.64907017794418E-01
 cg2d: Sum(rhs),rhsMax =  -1.10000897279861E-11  1.65077043706359E-01
 cg2d: Sum(rhs),rhsMax =  -1.09495745803656E-11  1.65205945079445E-01
 cg2d: Sum(rhs),rhsMax =  -1.09520170710198E-11  1.65293542194838E-01
 cg2d: Sum(rhs),rhsMax =  -1.09555697846986E-11  1.65339696506008E-01
 cg2d: Sum(rhs),rhsMax =  -1.09552367177912E-11  1.65344311000938E-01
 cg2d: Sum(rhs),rhsMax =  -1.09749986876295E-11  1.65307331152012E-01
 cg2d: Sum(rhs),rhsMax =  -1.09933173675358E-11  1.65228746423045E-01
 cg2d: Sum(rhs),rhsMax =  -1.09784403790059E-11  1.65108592178972E-01
 cg2d: Sum(rhs),rhsMax =  -1.09595665875872E-11  1.64946951621021E-01
 cg2d: Sum(rhs),rhsMax =  -1.09250386515214E-11  1.64743957335639E-01
 cg2d: Sum(rhs),rhsMax =  -1.09203757148180E-11  1.64499792058829E-01
 cg2d: Sum(rhs),rhsMax =  -1.09295905659224E-11  1.64214688208030E-01
 cg2d: Sum(rhs),rhsMax =  -1.09461328889893E-11  1.63888925799561E-01
 cg2d: Sum(rhs),rhsMax =  -1.09514619595075E-11  1.63522828492448E-01
 cg2d: Sum(rhs),rhsMax =  -1.09953157689802E-11  1.63116757636370E-01
 cg2d: Sum(rhs),rhsMax =  -1.09692255279015E-11  1.62671104393900E-01
 cg2d: Sum(rhs),rhsMax =  -1.09611208998217E-11  1.62186280196750E-01
 cg2d: Sum(rhs),rhsMax =  -1.09602882325532E-11  1.61662705946458E-01
 cg2d: Sum(rhs),rhsMax =  -1.09693920613552E-11  1.61100800499915E-01
 cg2d: Sum(rhs),rhsMax =  -1.09684483717842E-11  1.60500969080316E-01
 cg2d: Sum(rhs),rhsMax =  -1.09457443109306E-11  1.59863592396192E-01
 cg2d: Sum(rhs),rhsMax =  -1.09511844037513E-11  1.59189017086416E-01
 cg2d: Sum(rhs),rhsMax =  -1.09582898311089E-11  1.58477548155733E-01
 cg2d: Sum(rhs),rhsMax =  -1.09248166069165E-11  1.57729443973067E-01
 cg2d: Sum(rhs),rhsMax =  -1.09269260306633E-11  1.56944914261777E-01
 cg2d: Sum(rhs),rhsMax =  -1.09210973597840E-11  1.56124121343616E-01
 cg2d: Sum(rhs),rhsMax =  -1.08984488100816E-11  1.55267184739291E-01
 cg2d: Sum(rhs),rhsMax =  -1.09065534381614E-11  1.54374189102412E-01
 cg2d: Sum(rhs),rhsMax =  -1.09585118757138E-11  1.53445195140236E-01
 cg2d: Sum(rhs),rhsMax =  -1.09732778419414E-11  1.52480253138432E-01
 cg2d: Sum(rhs),rhsMax =  -1.10066400438313E-11  1.51479418415166E-01
 cg2d: Sum(rhs),rhsMax =  -1.10598197267109E-11  1.50442768186658E-01
 cg2d: Sum(rhs),rhsMax =  -1.11103903854826E-11  1.49370419077569E-01
 cg2d: Sum(rhs),rhsMax =  -1.11688436277291E-11  1.48262544541309E-01
 cg2d: Sum(rhs),rhsMax =  -1.11975984040669E-11  1.47119391421055E-01
 cg2d: Sum(rhs),rhsMax =  -1.12818088204847E-11  1.45941294915344E-01
 cg2d: Sum(rhs),rhsMax =  -1.13222764497323E-11  1.44728691278832E-01
 cg2d: Sum(rhs),rhsMax =  -1.14024345521102E-11  1.43482127680051E-01
 cg2d: Sum(rhs),rhsMax =  -1.14359077763027E-11  1.42202268747409E-01
 cg2d: Sum(rhs),rhsMax =  -1.15016884905117E-11  1.40889899464510E-01
 cg2d: Sum(rhs),rhsMax =  -1.15554232849036E-11  1.39545924191398E-01
 cg2d: Sum(rhs),rhsMax =  -1.16263665361771E-11  1.38171361732820E-01
 cg2d: Sum(rhs),rhsMax =  -1.16993637000462E-11  1.36767336565337E-01
 cg2d: Sum(rhs),rhsMax =  -1.17806320254488E-11  1.35335066447804E-01
 cg2d: Sum(rhs),rhsMax =  -1.18892118372571E-11  1.33875846788255E-01
 cg2d: Sum(rhs),rhsMax =  -1.19761978112365E-11  1.32391032284034E-01
 cg2d: Sum(rhs),rhsMax =  -1.20551346682873E-11  1.30882016482155E-01
 cg2d: Sum(rhs),rhsMax =  -1.21304633005082E-11  1.29350210013010E-01
 cg2d: Sum(rhs),rhsMax =  -1.22434284932638E-11  1.27797018328150E-01
 cg2d: Sum(rhs),rhsMax =  -1.23340782032244E-11  1.26223819795347E-01
 cg2d: Sum(rhs),rhsMax =  -1.24458776618042E-11  1.24631945046127E-01
 cg2d: Sum(rhs),rhsMax =  -1.25395804850825E-11  1.23022658465058E-01
 cg2d: Sum(rhs),rhsMax =  -1.26281762824476E-11  1.21397142486670E-01
 cg2d: Sum(rhs),rhsMax =  -1.27430288543451E-11  1.19756485335483E-01
 cg2d: Sum(rhs),rhsMax =  -1.28518307107583E-11  1.18101672679825E-01
 cg2d: Sum(rhs),rhsMax =  -1.29328769915560E-11  1.16433583500427E-01
 cg2d: Sum(rhs),rhsMax =  -1.30535027231815E-11  1.14752990262075E-01
 cg2d: Sum(rhs),rhsMax =  -1.31741839659583E-11  1.13060563249852E-01
 cg2d: Sum(rhs),rhsMax =  -1.32939215191641E-11  1.11356878752459E-01
 cg2d: Sum(rhs),rhsMax =  -1.34099398252374E-11  1.09642430602334E-01
 cg2d: Sum(rhs),rhsMax =  -1.35539357515313E-11  1.07917644441740E-01
 cg2d: Sum(rhs),rhsMax =  -1.36873290479400E-11  1.06182893988870E-01
 cg2d: Sum(rhs),rhsMax =  -1.38322686638048E-11  1.04438518498107E-01
 cg2d: Sum(rhs),rhsMax =  -1.39787070807529E-11  1.02684840597251E-01
 cg2d: Sum(rhs),rhsMax =  -1.41345268822590E-11  1.00922183705679E-01
 cg2d: Sum(rhs),rhsMax =  -1.42940104197464E-11  9.91508883056981E-02
 cg2d: Sum(rhs),rhsMax =  -1.44467215967836E-11  9.73713263663805E-02
 cg2d: Sum(rhs),rhsMax =  -1.46178347204540E-11  9.55839134186411E-02
 cg2d: Sum(rhs),rhsMax =  -1.48568657376558E-11  9.37891178781119E-02
 cg2d: Sum(rhs),rhsMax =  -1.51010315363465E-11  9.19874672823879E-02
 cg2d: Sum(rhs),rhsMax =  -1.53688728410373E-11  9.01795513680129E-02
 cg2d: Sum(rhs),rhsMax =  -1.56443191734468E-11  8.83660220063739E-02
 cg2d: Sum(rhs),rhsMax =  -1.59149082801235E-11  8.65475901555627E-02
 cg2d: Sum(rhs),rhsMax =  -1.62065638686926E-11  8.47250201204345E-02
 cg2d: Sum(rhs),rhsMax =  -1.65199798285443E-11  8.28991215335350E-02
 cg2d: Sum(rhs),rhsMax =  -1.68495217778286E-11  8.10707395661485E-02
 cg2d: Sum(rhs),rhsMax =  -1.71861275211072E-11  7.92407439466310E-02
 cg2d: Sum(rhs),rhsMax =  -1.75154057924232E-11  7.74100174002643E-02
 cg2d: Sum(rhs),rhsMax =  -1.78899534075683E-11  7.55794441304028E-02
 cg2d: Sum(rhs),rhsMax =  -1.82663328907040E-11  7.37498989354179E-02
 cg2d: Sum(rhs),rhsMax =  -1.86781770605826E-11  7.19222375017832E-02
 cg2d: Sum(rhs),rhsMax =  -1.91087909384713E-11  7.00972883351981E-02
 cg2d: Sum(rhs),rhsMax =  -1.95553310957525E-11  6.82758467038006E-02
 cg2d: Sum(rhs),rhsMax =  -2.00345642853428E-11  6.64586707959476E-02
 cg2d: Sum(rhs),rhsMax =  -2.05346364912096E-11  6.46464802520038E-02
 cg2d: Sum(rhs),rhsMax =  -2.10457345994897E-11  6.28399570841624E-02
 cg2d: Sum(rhs),rhsMax =  -2.15751999599334E-11  6.10397488626376E-02
 cg2d: Sum(rhs),rhsMax =  -2.21651585974314E-11  5.92464739242767E-02
 cg2d: Sum(rhs),rhsMax =  -2.27861896018311E-11  5.74607282761780E-02
 cg2d: Sum(rhs),rhsMax =  -2.34537111953870E-11  5.56830937849694E-02
 cg2d: Sum(rhs),rhsMax =  -2.42097453195811E-11  5.39141471723604E-02
 cg2d: Sum(rhs),rhsMax =  -2.49486542536204E-11  5.21544692900136E-02
 cg2d: Sum(rhs),rhsMax =  -2.57666110670129E-11  5.04046541280721E-02
 cg2d: Sum(rhs),rhsMax =  -2.65975574897936E-11  4.86653170144936E-02
 cg2d: Sum(rhs),rhsMax =  -2.75154898865537E-11  4.69371014937885E-02
 cg2d: Sum(rhs),rhsMax =  -2.84172685383055E-11  4.52206844353187E-02
 cg2d: Sum(rhs),rhsMax =  -2.93891022629111E-11  4.35167790115313E-02
 cg2d: Sum(rhs),rhsMax =  -3.05593328420173E-11  4.18261353013238E-02
 cg2d: Sum(rhs),rhsMax =  -3.17280646200402E-11  4.01495384072624E-02
 cg2d: Sum(rhs),rhsMax =  -3.18229886886456E-11  3.99224319160823E-02
 cg2d: Sum(rhs),rhsMax =  -3.13002956886521E-11  4.04420571174925E-02
 cg2d: Sum(rhs),rhsMax =  -3.08315595276554E-11  4.09551425475527E-02
 cg2d: Sum(rhs),rhsMax =  -3.03536085155542E-11  4.14615117069708E-02
 cg2d: Sum(rhs),rhsMax =  -2.99229530043021E-11  4.19609801179524E-02
 cg2d: Sum(rhs),rhsMax =  -2.95085067492096E-11  4.24533491075578E-02
 cg2d: Sum(rhs),rhsMax =  -2.91002777430549E-11  4.29384014091255E-02
 cg2d: Sum(rhs),rhsMax =  -2.84328116606503E-11  4.39020972503500E-02
 cg2d: Sum(rhs),rhsMax =  -2.76797473830470E-11  4.49078798953770E-02
 cg2d: Sum(rhs),rhsMax =  -2.70395927870482E-11  4.58978907484685E-02
 cg2d: Sum(rhs),rhsMax =  -2.64593902343790E-11  4.68718082891431E-02
 cg2d: Sum(rhs),rhsMax =  -2.58361110283545E-11  4.78293254638860E-02
 cg2d: Sum(rhs),rhsMax =  -2.52995402405531E-11  4.87701467737711E-02
 cg2d: Sum(rhs),rhsMax =  -2.47982745449349E-11  4.96939849743183E-02
 cg2d: Sum(rhs),rhsMax =  -2.43167708191550E-11  5.06005443812405E-02
 cg2d: Sum(rhs),rhsMax =  -2.37576625039537E-11  5.14895348957416E-02
 cg2d: Sum(rhs),rhsMax =  -2.33055796883264E-11  5.23606676760143E-02
 cg2d: Sum(rhs),rhsMax =  -2.28820296044319E-11  5.32136386925716E-02
 cg2d: Sum(rhs),rhsMax =  -2.24907870105540E-11  5.40481191796754E-02
 cg2d: Sum(rhs),rhsMax =  -2.20624629676536E-11  5.48637611089650E-02
 cg2d: Sum(rhs),rhsMax =  -2.17006412839282E-11  5.56602039117089E-02
 cg2d: Sum(rhs),rhsMax =  -2.13489226297270E-11  5.64370714837526E-02
 cg2d: Sum(rhs),rhsMax =  -2.10074180273523E-11  5.71939703325035E-02
 cg2d: Sum(rhs),rhsMax =  -2.06300532212822E-11  5.79304937323924E-02
 cg2d: Sum(rhs),rhsMax =  -2.02629024670387E-11  5.86462286603593E-02
 cg2d: Sum(rhs),rhsMax =  -1.99593674921061E-11  5.93407632749373E-02
 cg2d: Sum(rhs),rhsMax =  -1.96279659192555E-11  6.00136950035312E-02
 cg2d: Sum(rhs),rhsMax =  -1.93995930430901E-11  6.06646373677677E-02
 cg2d: Sum(rhs),rhsMax =  -1.90991666926266E-11  6.12932260242381E-02
 cg2d: Sum(rhs),rhsMax =  -1.88419280178209E-11  6.18991251346575E-02
 cg2d: Sum(rhs),rhsMax =  -1.85630399940351E-11  6.24820325872618E-02
 cg2d: Sum(rhs),rhsMax =  -1.83871806669345E-11  6.30416801588616E-02
 cg2d: Sum(rhs),rhsMax =  -1.80895298740325E-11  6.35778314090923E-02
 cg2d: Sum(rhs),rhsMax =  -1.79053438742471E-11  6.40902776553487E-02
 cg2d: Sum(rhs),rhsMax =  -1.76924030981240E-11  6.45788327947181E-02
 cg2d: Sum(rhs),rhsMax =  -1.75747194575138E-11  6.50433267535090E-02
 cg2d: Sum(rhs),rhsMax =  -1.74350534010159E-11  6.54835988990881E-02
 cg2d: Sum(rhs),rhsMax =  -1.72648562113409E-11  6.58994913339261E-02
 cg2d: Sum(rhs),rhsMax =  -1.70757852302472E-11  6.62908450664358E-02
 cg2d: Sum(rhs),rhsMax =  -1.69079195089239E-11  6.66574970910880E-02
 cg2d: Sum(rhs),rhsMax =  -1.68288716295706E-11  6.69992797730495E-02
 cg2d: Sum(rhs),rhsMax =  -1.66739955176354E-11  6.73160240522388E-02
 cg2d: Sum(rhs),rhsMax =  -1.65762958914684E-11  6.76075636622903E-02
 cg2d: Sum(rhs),rhsMax =  -1.64394053925321E-11  6.78779782458233E-02
 cg2d: Sum(rhs),rhsMax =  -1.63405955433404E-11  6.81276549912588E-02
 cg2d: Sum(rhs),rhsMax =  -1.62646562884561E-11  6.83510699748544E-02
 cg2d: Sum(rhs),rhsMax =  -1.61364255291119E-11  6.85480937370672E-02
 cg2d: Sum(rhs),rhsMax =  -1.61561874989502E-11  6.87186255061276E-02
 cg2d: Sum(rhs),rhsMax =  -1.60486068878640E-11  6.88625949042755E-02
 cg2d: Sum(rhs),rhsMax =  -1.59763313689609E-11  6.89799613530055E-02
 cg2d: Sum(rhs),rhsMax =  -1.59073865191317E-11  6.90707126560085E-02
 cg2d: Sum(rhs),rhsMax =  -1.58826285456826E-11  6.91348598553730E-02
 cg2d: Sum(rhs),rhsMax =  -1.58582036391408E-11  6.91724290590491E-02
 cg2d: Sum(rhs),rhsMax =  -1.58124624505263E-11  6.91834621145787E-02
 cg2d: Sum(rhs),rhsMax =  -1.57677204626339E-11  6.91680104032158E-02
 cg2d: Sum(rhs),rhsMax =  -1.58348889556237E-11  6.91261267778578E-02
 cg2d: Sum(rhs),rhsMax =  -1.58755231183250E-11  6.90578583413919E-02
 cg2d: Sum(rhs),rhsMax =  -1.58726365384609E-11  6.89632422393438E-02
 cg2d: Sum(rhs),rhsMax =  -1.59721125214674E-11  6.88423052357661E-02
 cg2d: Sum(rhs),rhsMax =  -1.59738888783068E-11  6.86950625875676E-02
 cg2d: Sum(rhs),rhsMax =  -1.60820246009052E-11  6.85215196607693E-02
 cg2d: Sum(rhs),rhsMax =  -1.62118096724839E-11  6.83216741927756E-02
 cg2d: Sum(rhs),rhsMax =  -1.62909685741397E-11  6.80955191258214E-02
 cg2d: Sum(rhs),rhsMax =  -1.63645763606723E-11  6.78430494322822E-02
 cg2d: Sum(rhs),rhsMax =  -1.64451785522601E-11  6.75642680492996E-02
 cg2d: Sum(rhs),rhsMax =  -1.65100155768982E-11  6.72591913265203E-02
 cg2d: Sum(rhs),rhsMax =  -1.65731872669994E-11  6.69278543114477E-02
 cg2d: Sum(rhs),rhsMax =  -1.67046376731150E-11  6.65703160630576E-02
 cg2d: Sum(rhs),rhsMax =  -1.68173253101145E-11  6.61866639165207E-02
 cg2d: Sum(rhs),rhsMax =  -1.69545488759582E-11  6.57770180998942E-02
 cg2d: Sum(rhs),rhsMax =  -1.71120895231525E-11  6.53438548948051E-02
 cg2d: Sum(rhs),rhsMax =  -1.72499792228109E-11  6.48919351525960E-02
 cg2d: Sum(rhs),rhsMax =  -1.73570047223848E-11  6.44152573742017E-02
 cg2d: Sum(rhs),rhsMax =  -1.75348624509297E-11  6.39140909878027E-02
 cg2d: Sum(rhs),rhsMax =  -1.77584613680892E-11  6.33887364088973E-02
 cg2d: Sum(rhs),rhsMax =  -1.79277703793446E-11  6.28395235460190E-02
 cg2d: Sum(rhs),rhsMax =  -1.81082926431486E-11  6.22668098548971E-02
 cg2d: Sum(rhs),rhsMax =  -1.82955872674029E-11  6.16709758634733E-02
 cg2d: Sum(rhs),rhsMax =  -1.84525728030849E-11  6.10524183979801E-02
 cg2d: Sum(rhs),rhsMax =  -1.87221349534639E-11  6.04115430661602E-02
 cg2d: Sum(rhs),rhsMax =  -1.89200877187545E-11  5.97487572726104E-02
 cg2d: Sum(rhs),rhsMax =  -1.91114901681999E-11  5.90644653826597E-02
 cg2d: Sum(rhs),rhsMax =  -1.93709492890548E-11  5.83590666605988E-02
 cg2d: Sum(rhs),rhsMax =  -1.96992422374365E-11  5.76329540362869E-02
 cg2d: Sum(rhs),rhsMax =  -1.99535943323781E-11  5.68865125596137E-02
 cg2d: Sum(rhs),rhsMax =  -2.02310390662319E-11  5.61201196159314E-02
 cg2d: Sum(rhs),rhsMax =  -2.05524486318609E-11  5.53341482124334E-02
 cg2d: Sum(rhs),rhsMax =  -2.09483541624422E-11  5.45289722352822E-02
 cg2d: Sum(rhs),rhsMax =  -2.13326023512650E-11  5.37049695608423E-02
 cg2d: Sum(rhs),rhsMax =  -2.16999751501135E-11  5.28625238155787E-02
 cg2d: Sum(rhs),rhsMax =  -2.20736762202023E-11  5.20020316891938E-02
 cg2d: Sum(rhs),rhsMax =  -2.24863461184555E-11  5.11239051425492E-02
 cg2d: Sum(rhs),rhsMax =  -2.29197771872691E-11  5.02285724549649E-02
 cg2d: Sum(rhs),rhsMax =  -2.34166019907889E-11  4.93164790752743E-02
 cg2d: Sum(rhs),rhsMax =  -2.39022135417599E-11  4.83880881131226E-02
 cg2d: Sum(rhs),rhsMax =  -2.44462228238262E-11  4.74438777866792E-02
 cg2d: Sum(rhs),rhsMax =  -2.49446019395805E-11  4.64843357362903E-02
 cg2d: Sum(rhs),rhsMax =  -2.55274690275087E-11  4.55099506278590E-02
 cg2d: Sum(rhs),rhsMax =  -2.61253241262693E-11  4.45212034709657E-02
 cg2d: Sum(rhs),rhsMax =  -2.67431632394732E-11  4.35185615155017E-02
 cg2d: Sum(rhs),rhsMax =  -2.72445399573940E-11  4.27617465700927E-02
 cg2d: Sum(rhs),rhsMax =  -2.76267897447724E-11  4.22831030314660E-02
 cg2d: Sum(rhs),rhsMax =  -2.79676282133323E-11  4.17982571546135E-02
 cg2d: Sum(rhs),rhsMax =  -2.83779666432338E-11  4.13076251181445E-02
 cg2d: Sum(rhs),rhsMax =  -2.87759815975619E-11  4.08189690646501E-02
 cg2d: Sum(rhs),rhsMax =  -2.91694446374891E-11  4.03416946132297E-02
 cg2d: Sum(rhs),rhsMax =  -2.96036528624199E-11  3.98600679060771E-02
 cg2d: Sum(rhs),rhsMax =  -3.00484082060848E-11  3.93742138483836E-02
 cg2d: Sum(rhs),rhsMax =  -3.04966052411260E-11  3.88841556712426E-02
 cg2d: Sum(rhs),rhsMax =  -3.09097192285890E-11  3.84134228398836E-02
 cg2d: Sum(rhs),rhsMax =  -2.97070146260126E-11  4.00119325001645E-02
 cg2d: Sum(rhs),rhsMax =  -2.86190515730311E-11  4.16761963125977E-02
 cg2d: Sum(rhs),rhsMax =  -2.75734435284392E-11  4.33546249374320E-02
 cg2d: Sum(rhs),rhsMax =  -2.65669708454652E-11  4.50464199012084E-02
 cg2d: Sum(rhs),rhsMax =  -2.56100696205408E-11  4.67507795708354E-02
 cg2d: Sum(rhs),rhsMax =  -2.48001064129255E-11  4.84668999180649E-02
 cg2d: Sum(rhs),rhsMax =  -2.39853137351531E-11  5.01939743146869E-02
 cg2d: Sum(rhs),rhsMax =  -2.31958896534934E-11  5.19311924808218E-02
 cg2d: Sum(rhs),rhsMax =  -2.25239549234146E-11  5.36777388326678E-02
 cg2d: Sum(rhs),rhsMax =  -2.18727536083207E-11  5.54327904673106E-02
 cg2d: Sum(rhs),rhsMax =  -2.12659612142119E-11  5.71955151019720E-02
 cg2d: Sum(rhs),rhsMax =  -2.06739209085427E-11  5.89650692915658E-02
 cg2d: Sum(rhs),rhsMax =  -2.01252209341973E-11  6.07405972392266E-02
 cg2d: Sum(rhs),rhsMax =  -1.96037769351065E-11  6.25212304643687E-02
 cg2d: Sum(rhs),rhsMax =  -1.91073441790923E-11  6.43060884614262E-02
 cg2d: Sum(rhs),rhsMax =  -1.86410106101098E-11  6.60942804119530E-02
 cg2d: Sum(rhs),rhsMax =  -1.82085665989540E-11  6.78849078934243E-02
 cg2d: Sum(rhs),rhsMax =  -1.77997339090297E-11  6.96770684071652E-02
 cg2d: Sum(rhs),rhsMax =  -1.73862937935532E-11  7.14698594418030E-02
 cg2d: Sum(rhs),rhsMax =  -1.70188863002352E-11  7.32623827120870E-02
 cg2d: Sum(rhs),rhsMax =  -1.66504171561499E-11  7.50537481780210E-02
 cg2d: Sum(rhs),rhsMax =  -1.63146857135033E-11  7.68430774584393E-02
 cg2d: Sum(rhs),rhsMax =  -1.59780244590735E-11  7.86295063138894E-02
 cg2d: Sum(rhs),rhsMax =  -1.56651080995829E-11  8.04121859769759E-02
 cg2d: Sum(rhs),rhsMax =  -1.53822787840596E-11  8.21902832467151E-02
 cg2d: Sum(rhs),rhsMax =  -1.50909007512467E-11  8.39629794168923E-02
 cg2d: Sum(rhs),rhsMax =  -1.48802636878997E-11  8.57294682799062E-02
 cg2d: Sum(rhs),rhsMax =  -1.46395118250098E-11  8.74889536029902E-02
 cg2d: Sum(rhs),rhsMax =  -1.44579070937567E-11  8.92406465457792E-02
 cg2d: Sum(rhs),rhsMax =  -1.42885425713501E-11  9.09837635374940E-02
 cg2d: Sum(rhs),rhsMax =  -1.40393807690486E-11  9.27175251623107E-02
 cg2d: Sum(rhs),rhsMax =  -1.38299371954531E-11  9.44411565077104E-02
 cg2d: Sum(rhs),rhsMax =  -1.36216593560334E-11  9.61538892835088E-02
 cg2d: Sum(rhs),rhsMax =  -1.34705580023819E-11  9.78549658260438E-02
 cg2d: Sum(rhs),rhsMax =  -1.33142941116660E-11  9.95436448828226E-02
 cg2d: Sum(rhs),rhsMax =  -1.31625821353509E-11  1.01219208847422E-01
 cg2d: Sum(rhs),rhsMax =  -1.30443433832284E-11  1.02880971903272E-01
 cg2d: Sum(rhs),rhsMax =  -1.29146138228009E-11  1.04528288373981E-01
 cg2d: Sum(rhs),rhsMax =  -1.27811650152410E-11  1.06160560482775E-01
 cg2d: Sum(rhs),rhsMax =  -1.26578192372051E-11  1.07777244707187E-01
 cg2d: Sum(rhs),rhsMax =  -1.25238153181328E-11  1.09377855981512E-01
 cg2d: Sum(rhs),rhsMax =  -1.22124532708767E-11  1.10961969144378E-01
 cg2d: Sum(rhs),rhsMax =  -1.21085919069230E-11  1.12529217239442E-01
 cg2d: Sum(rhs),rhsMax =  -1.20192744645919E-11  1.14079286533645E-01
 cg2d: Sum(rhs),rhsMax =  -1.19154686117895E-11  1.15611908395063E-01
 cg2d: Sum(rhs),rhsMax =  -1.18279275262978E-11  1.17126848438215E-01
 cg2d: Sum(rhs),rhsMax =  -1.17457710224755E-11  1.18623893582405E-01
 cg2d: Sum(rhs),rhsMax =  -1.16677223438444E-11  1.20102837846452E-01
 cg2d: Sum(rhs),rhsMax =  -1.15795706356892E-11  1.21563467818817E-01
 cg2d: Sum(rhs),rhsMax =  -1.14910303494753E-11  1.23005548756261E-01
 cg2d: Sum(rhs),rhsMax =  -1.14217524327387E-11  1.24428812211557E-01
 cg2d: Sum(rhs),rhsMax =  -1.13544174062952E-11  1.25832945953173E-01
 cg2d: Sum(rhs),rhsMax =  -1.12787001960157E-11  1.27217586744751E-01
 cg2d: Sum(rhs),rhsMax =  -1.12069242774737E-11  1.28582316314144E-01
 cg2d: Sum(rhs),rhsMax =  -1.11471387675977E-11  1.29926660583829E-01
 cg2d: Sum(rhs),rhsMax =  -1.10822462318083E-11  1.31250091983937E-01
 cg2d: Sum(rhs),rhsMax =  -1.09981468376930E-11  1.32552034449604E-01
 cg2d: Sum(rhs),rhsMax =  -1.09406927961686E-11  1.33831870537044E-01
 cg2d: Sum(rhs),rhsMax =  -1.09068865050688E-11  1.35088949985140E-01
 cg2d: Sum(rhs),rhsMax =  -1.08696940337438E-11  1.36322599009564E-01
 cg2d: Sum(rhs),rhsMax =  -1.08606457160931E-11  1.37532129640511E-01
 cg2d: Sum(rhs),rhsMax =  -1.07945874461279E-11  1.38716848501892E-01
 cg2d: Sum(rhs),rhsMax =  -1.07461817222543E-11  1.39876064544485E-01
 cg2d: Sum(rhs),rhsMax =  -1.06934461285846E-11  1.41009095393059E-01
 cg2d: Sum(rhs),rhsMax =  -1.06426534252080E-11  1.42115272130821E-01
 cg2d: Sum(rhs),rhsMax =  -1.06101238905865E-11  1.43193942500658E-01
 cg2d: Sum(rhs),rhsMax =  -1.05734310196226E-11  1.44244472639518E-01
 cg2d: Sum(rhs),rhsMax =  -1.05885300527575E-11  1.45266247573734E-01
 cg2d: Sum(rhs),rhsMax =  -1.05976893927107E-11  1.46258670783561E-01
 cg2d: Sum(rhs),rhsMax =  -1.06160635837682E-11  1.47221163191711E-01
 cg2d: Sum(rhs),rhsMax =  -1.06057385096392E-11  1.48153161941714E-01
 cg2d: Sum(rhs),rhsMax =  -1.06240571895455E-11  1.49054119314265E-01
 cg2d: Sum(rhs),rhsMax =  -1.06329944848937E-11  1.49923502081889E-01
 cg2d: Sum(rhs),rhsMax =  -1.06217257211938E-11  1.50760791523283E-01
 cg2d: Sum(rhs),rhsMax =  -1.05865871624644E-11  1.51565484233606E-01
 cg2d: Sum(rhs),rhsMax =  -1.05568886965557E-11  1.52337093771522E-01
 cg2d: Sum(rhs),rhsMax =  -1.05750408430083E-11  1.53075153087134E-01
 cg2d: Sum(rhs),rhsMax =  -1.05606634548394E-11  1.53779217547911E-01
 cg2d: Sum(rhs),rhsMax =  -1.05700448393975E-11  1.54448868343644E-01
 cg2d: Sum(rhs),rhsMax =  -1.05784270232334E-11  1.55083715965134E-01
 cg2d: Sum(rhs),rhsMax =  -1.05804809358290E-11  1.55683403413102E-01
 cg2d: Sum(rhs),rhsMax =  -1.05739306199837E-11  1.56247608785512E-01
 cg2d: Sum(rhs),rhsMax =  -1.05866981847669E-11  1.56776046915051E-01
 cg2d: Sum(rhs),rhsMax =  -1.05787600901408E-11  1.57268469782301E-01
 cg2d: Sum(rhs),rhsMax =  -1.05674358152896E-11  1.57724665511030E-01
 cg2d: Sum(rhs),rhsMax =  -1.05604414102345E-11  1.58144455854941E-01
 cg2d: Sum(rhs),rhsMax =  -1.05510045145252E-11  1.58527692203460E-01
 cg2d: Sum(rhs),rhsMax =  -1.05360165036927E-11  1.58874250259495E-01
 cg2d: Sum(rhs),rhsMax =  -1.05349617918193E-11  1.59184023665180E-01
 cg2d: Sum(rhs),rhsMax =  -1.05296327213011E-11  1.59456916971127E-01
 cg2d: Sum(rhs),rhsMax =  -1.05457864663094E-11  1.59692838405325E-01
 cg2d: Sum(rhs),rhsMax =  -1.05848108056250E-11  1.59891692957383E-01
 cg2d: Sum(rhs),rhsMax =  -1.05493946911395E-11  1.60053376413052E-01
 cg2d: Sum(rhs),rhsMax =  -1.05050967924569E-11  1.60177770833046E-01
 cg2d: Sum(rhs),rhsMax =  -1.04330988293100E-11  1.60264741922971E-01
 cg2d: Sum(rhs),rhsMax =  -1.04053432536944E-11  1.60314138656629E-01
 cg2d: Sum(rhs),rhsMax =  -1.04031783187963E-11  1.60325795371399E-01
 cg2d: Sum(rhs),rhsMax =  -1.03428376974080E-11  1.60299536381187E-01
 cg2d: Sum(rhs),rhsMax =  -1.02637343069034E-11  1.60235182974115E-01
 cg2d: Sum(rhs),rhsMax =  -1.02333697071799E-11  1.60132562472131E-01
 cg2d: Sum(rhs),rhsMax =  -1.02041153304810E-11  1.59991518768521E-01
 cg2d: Sum(rhs),rhsMax =  -1.01843533606427E-11  1.59811923798297E-01
 cg2d: Sum(rhs),rhsMax =  -1.01800790019979E-11  1.59593689210019E-01
 cg2d: Sum(rhs),rhsMax =  -1.01365582594326E-11  1.59336777468675E-01
 cg2d: Sum(rhs),rhsMax =  -1.01196273583071E-11  1.59041211640231E-01
 cg2d: Sum(rhs),rhsMax =  -1.00955355186727E-11  1.58707083196926E-01
 cg2d: Sum(rhs),rhsMax =  -1.00754959930782E-11  1.58334557278875E-01
 cg2d: Sum(rhs),rhsMax =  -1.00395247670804E-11  1.57923875066450E-01
 cg2d: Sum(rhs),rhsMax =  -1.00144337267238E-11  1.57475353085560E-01
 cg2d: Sum(rhs),rhsMax =  -9.99411664537320E-12  1.56989379474980E-01
 cg2d: Sum(rhs),rhsMax =  -1.00137120817578E-11  1.56466407440490E-01
 cg2d: Sum(rhs),rhsMax =  -1.00038310968387E-11  1.55906946286115E-01
 cg2d: Sum(rhs),rhsMax =  -9.96719373702604E-12  1.55311550583568E-01
 cg2d: Sum(rhs),rhsMax =  -9.93599647003407E-12  1.54680808171839E-01
 cg2d: Sum(rhs),rhsMax =  -9.92445015057797E-12  1.54015327622158E-01
 cg2d: Sum(rhs),rhsMax =  -9.90574289261303E-12  1.53315725868834E-01
 cg2d: Sum(rhs),rhsMax =  -9.87837589505602E-12  1.52582616644886E-01
 cg2d: Sum(rhs),rhsMax =  -9.71556168849474E-12  1.51816600263506E-01
 cg2d: Sum(rhs),rhsMax =  -9.71978053598832E-12  1.51018255280119E-01
 cg2d: Sum(rhs),rhsMax =  -9.71978053598832E-12  1.50188132215861E-01
 cg2d: Sum(rhs),rhsMax =  -9.70129532262831E-12  1.49326749481631E-01
 cg2d: Sum(rhs),rhsMax =  -9.74004210618773E-12  1.48434591514674E-01
 cg2d: Sum(rhs),rhsMax =  -9.75908243106005E-12  1.47512108988489E-01
 cg2d: Sum(rhs),rhsMax =  -9.73304770113259E-12  1.46559720783467E-01
 cg2d: Sum(rhs),rhsMax =  -9.75908243106005E-12  1.45577817499521E-01
 cg2d: Sum(rhs),rhsMax =  -9.78839231891016E-12  1.44566766119192E-01
 cg2d: Sum(rhs),rhsMax =  -9.83868542192567E-12  1.43526915479747E-01
 cg2d: Sum(rhs),rhsMax =  -9.87970816268557E-12  1.42458602198347E-01
 cg2d: Sum(rhs),rhsMax =  -9.90857396132583E-12  1.41362156736926E-01
 cg2d: Sum(rhs),rhsMax =  -9.92694815238337E-12  1.40237909350995E-01
 cg2d: Sum(rhs),rhsMax =  -9.98795490758653E-12  1.39086195735899E-01
 cg2d: Sum(rhs),rhsMax =  -1.00367492095188E-11  1.37907362224741E-01
 cg2d: Sum(rhs),rhsMax =  -1.00786046175472E-11  1.36701770450548E-01
 cg2d: Sum(rhs),rhsMax =  -1.01259001183962E-11  1.35469801462217E-01
 cg2d: Sum(rhs),rhsMax =  -1.01829100707107E-11  1.34211859281762E-01
 cg2d: Sum(rhs),rhsMax =  -1.02379771327321E-11  1.32928373911231E-01
 cg2d: Sum(rhs),rhsMax =  -1.03138608764652E-11  1.31619803811523E-01
 cg2d: Sum(rhs),rhsMax =  -1.03578812193916E-11  1.30286637880920E-01
 cg2d: Sum(rhs),rhsMax =  -1.04362074537789E-11  1.28929396957465E-01
 cg2d: Sum(rhs),rhsMax =  -1.04868891348531E-11  1.27548634859449E-01
 cg2d: Sum(rhs),rhsMax =  -1.05498387803493E-11  1.26144938965296E-01
 cg2d: Sum(rhs),rhsMax =  -1.06081810002934E-11  1.24718930321616E-01
 cg2d: Sum(rhs),rhsMax =  -1.06706310454285E-11  1.23271263247974E-01
 cg2d: Sum(rhs),rhsMax =  -1.07422404305169E-11  1.21802624394021E-01
 cg2d: Sum(rhs),rhsMax =  -1.08412723243134E-11  1.20313731316601E-01
 cg2d: Sum(rhs),rhsMax =  -1.09229292277746E-11  1.18805330451524E-01
 cg2d: Sum(rhs),rhsMax =  -1.09977027484831E-11  1.17278194511698E-01
 cg2d: Sum(rhs),rhsMax =  -1.10970677091871E-11  1.15733119338081E-01
 cg2d: Sum(rhs),rhsMax =  -1.12225784221209E-11  1.14170920274859E-01
 cg2d: Sum(rhs),rhsMax =  -1.12812537089724E-11  1.12592428184566E-01
 cg2d: Sum(rhs),rhsMax =  -1.13515308264311E-11  1.10998485256675E-01
 cg2d: Sum(rhs),rhsMax =  -1.14470655177001E-11  1.09389940795426E-01
 cg2d: Sum(rhs),rhsMax =  -1.15084608509619E-11  1.07767647192196E-01
 cg2d: Sum(rhs),rhsMax =  -1.18471898957750E-11  1.06132456290930E-01
 cg2d: Sum(rhs),rhsMax =  -1.19887433314148E-11  1.04485216338561E-01
 cg2d: Sum(rhs),rhsMax =  -1.21143650666511E-11  1.02826769673956E-01
 cg2d: Sum(rhs),rhsMax =  -1.22472310071231E-11  1.01157951259059E-01
 cg2d: Sum(rhs),rhsMax =  -1.23878685087675E-11  9.94795880934965E-02
 cg2d: Sum(rhs),rhsMax =  -1.25307819676124E-11  9.77924994330585E-02
 cg2d: Sum(rhs),rhsMax =  -1.27089727630647E-11  9.60974977377982E-02
 cg2d: Sum(rhs),rhsMax =  -1.29135591109275E-11  9.43953901829099E-02
 cg2d: Sum(rhs),rhsMax =  -1.31079869181150E-11  9.26869805304286E-02
 cg2d: Sum(rhs),rhsMax =  -1.33114075318019E-11  9.09730711160785E-02
 cg2d: Sum(rhs),rhsMax =  -1.35399746969966E-11  8.92544647310843E-02
 cg2d: Sum(rhs),rhsMax =  -1.37879707651223E-11  8.75319662186695E-02
 cg2d: Sum(rhs),rhsMax =  -1.40280842497731E-11  8.58063836248802E-02
 cg2d: Sum(rhs),rhsMax =  -1.42800493652118E-11  8.40785288028849E-02
 cg2d: Sum(rhs),rhsMax =  -1.45579381882754E-11  8.23492174347265E-02
 cg2d: Sum(rhs),rhsMax =  -1.48390466581105E-11  8.06192685045901E-02
 cg2d: Sum(rhs),rhsMax =  -1.51143403348541E-11  7.88895033145143E-02
 cg2d: Sum(rhs),rhsMax =  -1.54254109485663E-11  7.71607441720021E-02
 cg2d: Sum(rhs),rhsMax =  -1.57384313914655E-11  7.54338129002588E-02
 cg2d: Sum(rhs),rhsMax =  -1.60760224576784E-11  7.37095293239961E-02
 cg2d: Sum(rhs),rhsMax =  -1.63991719509538E-11  7.19887098689431E-02
 cg2d: Sum(rhs),rhsMax =  -1.67499868142240E-11  7.02721663852682E-02
 cg2d: Sum(rhs),rhsMax =  -1.71136299575991E-11  6.85607052749016E-02
 cg2d: Sum(rhs),rhsMax =  -1.75036790617256E-11  6.68551269513506E-02
 cg2d: Sum(rhs),rhsMax =  -1.79096598662554E-11  6.51562256114553E-02
 cg2d: Sum(rhs),rhsMax =  -1.83372483864019E-11  6.34647893056136E-02
 cg2d: Sum(rhs),rhsMax =  -1.87783677496611E-11  6.17816002665578E-02
 cg2d: Sum(rhs),rhsMax =  -1.92561799838842E-11  6.01074353891853E-02
 cg2d: Sum(rhs),rhsMax =  -1.97249716560322E-11  5.84430667684790E-02
 cg2d: Sum(rhs),rhsMax =  -2.02392269610385E-11  5.67892621968457E-02
 cg2d: Sum(rhs),rhsMax =  -2.07848738220662E-11  5.51467855206284E-02
 cg2d: Sum(rhs),rhsMax =  -2.13547513006063E-11  5.35163967479143E-02
 cg2d: Sum(rhs),rhsMax =  -2.19471663065463E-11  5.18988518091147E-02
 cg2d: Sum(rhs),rhsMax =  -2.25726659586201E-11  5.02949018775688E-02
 cg2d: Sum(rhs),rhsMax =  -2.32517893827833E-11  4.87052921668638E-02
 cg2d: Sum(rhs),rhsMax =  -2.39412933922267E-11  4.71307601443439E-02
 cg2d: Sum(rhs),rhsMax =  -2.46670461834242E-11  4.55720331243899E-02
 cg2d: Sum(rhs),rhsMax =  -2.54347654049525E-11  4.40298252377798E-02
 cg2d: Sum(rhs),rhsMax =  -2.62978527842961E-11  4.25048338221416E-02
 cg2d: Sum(rhs),rhsMax =  -2.71641598104111E-11  4.09977353281642E-02
 cg2d: Sum(rhs),rhsMax =  -2.71563882492387E-11  4.09594875294267E-02
 cg2d: Sum(rhs),rhsMax =  -2.68002287029390E-11  4.14480326759942E-02
 cg2d: Sum(rhs),rhsMax =  -2.64467336918983E-11  4.19360231502533E-02
 cg2d: Sum(rhs),rhsMax =  -2.61237698140349E-11  4.24349618897476E-02
 cg2d: Sum(rhs),rhsMax =  -2.57758259181173E-11  4.29269667288413E-02
 cg2d: Sum(rhs),rhsMax =  -2.54375409625140E-11  4.34118121183497E-02
 cg2d: Sum(rhs),rhsMax =  -2.50373055621367E-11  4.39742669512364E-02
 cg2d: Sum(rhs),rhsMax =  -2.45328202197470E-11  4.48758272216523E-02
 cg2d: Sum(rhs),rhsMax =  -2.40625297465158E-11  4.57629740193240E-02
 cg2d: Sum(rhs),rhsMax =  -2.36007879905742E-11  4.66353452676283E-02
 cg2d: Sum(rhs),rhsMax =  -2.30948593582525E-11  4.74925924571788E-02
 cg2d: Sum(rhs),rhsMax =  -2.26471064124212E-11  4.83343780915155E-02
 cg2d: Sum(rhs),rhsMax =  -2.22419860307355E-11  4.91603739311676E-02
 cg2d: Sum(rhs),rhsMax =  -2.18715046074180E-11  4.99702630420914E-02
 cg2d: Sum(rhs),rhsMax =  -2.14634976458683E-11  5.07637397138249E-02
 cg2d: Sum(rhs),rhsMax =  -2.11335393629497E-11  5.15405060553925E-02
 cg2d: Sum(rhs),rhsMax =  -2.07924788497849E-11  5.23002690707843E-02
 cg2d: Sum(rhs),rhsMax =  -2.04524175373422E-11  5.30427367202229E-02
 cg2d: Sum(rhs),rhsMax =  -2.01539895883229E-11  5.37676124273902E-02
 cg2d: Sum(rhs),rhsMax =  -1.98858707278760E-11  5.44745925112701E-02
 cg2d: Sum(rhs),rhsMax =  -1.95481408837850E-11  5.51633696776160E-02
 cg2d: Sum(rhs),rhsMax =  -1.92525995146298E-11  5.58336405714518E-02
 cg2d: Sum(rhs),rhsMax =  -1.89682713980233E-11  5.64851133160762E-02
 cg2d: Sum(rhs),rhsMax =  -1.87772020154853E-11  5.71175130875667E-02
 cg2d: Sum(rhs),rhsMax =  -1.84893211852000E-11  5.77305841626778E-02
 cg2d: Sum(rhs),rhsMax =  -1.83102422113279E-11  5.83240886072549E-02
 cg2d: Sum(rhs),rhsMax =  -1.80813142236502E-11  5.88978033709231E-02
 cg2d: Sum(rhs),rhsMax =  -1.78802528338906E-11  5.94515166519797E-02
 cg2d: Sum(rhs),rhsMax =  -1.76763048642670E-11  5.99850248470540E-02
 cg2d: Sum(rhs),rhsMax =  -1.75235381760785E-11  6.04981307432468E-02
 cg2d: Sum(rhs),rhsMax =  -1.73246972323682E-11  6.09906388792212E-02
 cg2d: Sum(rhs),rhsMax =  -1.71814784621915E-11  6.14623519257667E-02
 cg2d: Sum(rhs),rhsMax =  -1.70142788746830E-11  6.19130638316806E-02
 cg2d: Sum(rhs),rhsMax =  -1.68061120575658E-11  6.23425503605141E-02
 cg2d: Sum(rhs),rhsMax =  -1.66441305182730E-11  6.27505478559481E-02
 cg2d: Sum(rhs),rhsMax =  -1.64995794804668E-11  6.31367478005382E-02
 cg2d: Sum(rhs),rhsMax =  -1.64483981990315E-11  6.35008016366727E-02
 cg2d: Sum(rhs),rhsMax =  -1.61531898967837E-11  6.38423304446540E-02
(PID.TID 0000.0001)      cg2d_init_res =   5.65884413354844E-02
(PID.TID 0000.0001)      cg2d_iters(min,last) =      -1      37
(PID.TID 0000.0001)      cg2d_last_res =   7.93763493661020E-14
(PID.TID 0000.0001) // =======================================================
(PID.TID 0000.0001) // Begin MONITOR dynamic field statistics
(PID.TID 0000.0001) // =======================================================
(PID.TID 0000.0001) %MON time_tsnumber                =                  6240
(PID.TID 0000.0001) %MON time_secondsf                =   9.3600000000000E+04
(PID.TID 0000.0001) %MON dynstat_eta_max              =   1.5288025314667E-02
(PID.TID 0000.0001) %MON dynstat_eta_min              =  -1.7291635654698E-02
(PID.TID 0000.0001) %MON dynstat_eta_mean             =   2.2047246551506E-15
(PID.TID 0000.0001) %MON dynstat_eta_sd               =   1.1480535726210E-02
(PID.TID 0000.0001) %MON dynstat_eta_del2             =   2.3185738286352E-05
(PID.TID 0000.0001) %MON dynstat_uvel_max             =   1.1941587785737E+00
(PID.TID 0000.0001) %MON dynstat_uvel_min             =  -7.7748758111126E-01
(PID.TID 0000.0001) %MON dynstat_uvel_mean            =   3.4104547865731E-01
(PID.TID 0000.0001) %MON dynstat_uvel_sd              =   1.6756787394033E-01
(PID.TID 0000.0001) %MON dynstat_uvel_del2            =   7.0317754032784E-04
(PID.TID 0000.0001) %MON dynstat_vvel_max             =   0.0000000000000E+00
(PID.TID 0000.0001) %MON dynstat_vvel_min             =   0.0000000000000E+00
(PID.TID 0000.0001) %MON dynstat_vvel_mean            =   0.0000000000000E+00
(PID.TID 0000.0001) %MON dynstat_vvel_sd              =   0.0000000000000E+00
(PID.TID 0000.0001) %MON dynstat_vvel_del2            =   0.0000000000000E+00
(PID.TID 0000.0001) %MON dynstat_wvel_max             =   1.9688184545320E-02
(PID.TID 0000.0001) %MON dynstat_wvel_min             =  -2.7625773386043E-02
(PID.TID 0000.0001) %MON dynstat_wvel_mean            =  -1.4070146953663E-20
(PID.TID 0000.0001) %MON dynstat_wvel_sd              =   1.9128481301506E-03
(PID.TID 0000.0001) %MON dynstat_wvel_del2            =   4.5463193777678E-05
(PID.TID 0000.0001) %MON dynstat_theta_max            =   1.5000000000012E+01
(PID.TID 0000.0001) %MON dynstat_theta_min            =   9.9999999999908E+00
(PID.TID 0000.0001) %MON dynstat_theta_mean           =   1.3197647338275E+01
(PID.TID 0000.0001) %MON dynstat_theta_sd             =   2.2608606693060E+00
(PID.TID 0000.0001) %MON dynstat_theta_del2           =   1.1367404605686E-03
(PID.TID 0000.0001) %MON dynstat_salt_max             =   3.5000000000000E+01
(PID.TID 0000.0001) %MON dynstat_salt_min             =   3.5000000000000E+01
(PID.TID 0000.0001) %MON dynstat_salt_mean            =   3.5000000000000E+01
(PID.TID 0000.0001) %MON dynstat_salt_sd              =   2.1316282072803E-14
(PID.TID 0000.0001) %MON dynstat_salt_del2            =   0.0000000000000E+00
(PID.TID 0000.0001) %MON dynstat_sst_max              =   1.5000000000000E+01
(PID.TID 0000.0001) %MON dynstat_sst_min              =   1.4999999999986E+01
(PID.TID 0000.0001) %MON dynstat_sst_mean             =   1.4999999999995E+01
(PID.TID 0000.0001) %MON dynstat_sst_sd               =   4.1334456794031E-12
(PID.TID 0000.0001) %MON dynstat_sst_del2             =   1.8976449257039E-14
(PID.TID 0000.0001) %MON dynstat_sss_max              =   3.5000000000000E+01
(PID.TID 0000.0001) %MON dynstat_sss_min              =   3.5000000000000E+01
(PID.TID 0000.0001) %MON dynstat_sss_mean             =   3.5000000000000E+01
(PID.TID 0000.0001) %MON dynstat_sss_sd               =   7.8159700933611E-14
(PID.TID 0000.0001) %MON dynstat_sss_del2             =   0.0000000000000E+00
(PID.TID 0000.0001) %MON forcing_qnet_max             =   0.0000000000000E+00
(PID.TID 0000.0001) %MON forcing_qnet_min             =   0.0000000000000E+00
(PID.TID 0000.0001) %MON forcing_qnet_mean            =   0.0000000000000E+00
(PID.TID 0000.0001) %MON forcing_qnet_sd              =   0.0000000000000E+00
(PID.TID 0000.0001) %MON forcing_qnet_del2            =   0.0000000000000E+00
(PID.TID 0000.0001) %MON forcing_qsw_max              =   0.0000000000000E+00
(PID.TID 0000.0001) %MON forcing_qsw_min              =   0.0000000000000E+00
(PID.TID 0000.0001) %MON forcing_qsw_mean             =   0.0000000000000E+00
(PID.TID 0000.0001) %MON forcing_qsw_sd               =   0.0000000000000E+00
(PID.TID 0000.0001) %MON forcing_qsw_del2             =   0.0000000000000E+00
(PID.TID 0000.0001) %MON forcing_empmr_max            =   0.0000000000000E+00
(PID.TID 0000.0001) %MON forcing_empmr_min            =   0.0000000000000E+00
(PID.TID 0000.0001) %MON forcing_empmr_mean           =   0.0000000000000E+00
(PID.TID 0000.0001) %MON forcing_empmr_sd             =   0.0000000000000E+00
(PID.TID 0000.0001) %MON forcing_empmr_del2           =   0.0000000000000E+00
(PID.TID 0000.0001) %MON forcing_fu_max               =   0.0000000000000E+00
(PID.TID 0000.0001) %MON forcing_fu_min               =   0.0000000000000E+00
(PID.TID 0000.0001) %MON forcing_fu_mean              =   0.0000000000000E+00
(PID.TID 0000.0001) %MON forcing_fu_sd                =   0.0000000000000E+00
(PID.TID 0000.0001) %MON forcing_fu_del2              =   0.0000000000000E+00
(PID.TID 0000.0001) %MON forcing_fv_max               =   0.0000000000000E+00
(PID.TID 0000.0001) %MON forcing_fv_min               =   0.0000000000000E+00
(PID.TID 0000.0001) %MON forcing_fv_mean              =   0.0000000000000E+00
(PID.TID 0000.0001) %MON forcing_fv_sd                =   0.0000000000000E+00
(PID.TID 0000.0001) %MON forcing_fv_del2              =   0.0000000000000E+00
(PID.TID 0000.0001) %MON advcfl_uvel_max              =   8.9561908393024E-02
(PID.TID 0000.0001) %MON advcfl_vvel_max              =   0.0000000000000E+00
(PID.TID 0000.0001) %MON advcfl_wvel_max              =   1.8484841598891E-01
(PID.TID 0000.0001) %MON advcfl_W_hf_max              =   1.8721332605912E-01
(PID.TID 0000.0001) %MON pe_b_mean                    =   3.2928427942877E-06
(PID.TID 0000.0001) %MON ke_max                       =   6.1243635116168E-01
(PID.TID 0000.0001) %MON ke_mean                      =   7.2345098500233E-02
(PID.TID 0000.0001) %MON ke_vol                       =   9.5889217545975E+10
(PID.TID 0000.0001) %MON vort_r_min                   =   0.0000000000000E+00
(PID.TID 0000.0001) %MON vort_r_max                   =   0.0000000000000E+00
(PID.TID 0000.0001) %MON vort_a_mean                  =   0.0000000000000E+00
(PID.TID 0000.0001) %MON vort_a_sd                    =   0.0000000000000E+00
(PID.TID 0000.0001) %MON vort_p_mean                  =   0.0000000000000E+00
(PID.TID 0000.0001) %MON vort_p_sd                    =   0.0000000000000E+00
(PID.TID 0000.0001) %MON surfExpan_theta_mean         =  -1.2703823080537E-17
(PID.TID 0000.0001) %MON surfExpan_salt_mean          =  -1.8603223772291E-18
(PID.TID 0000.0001) // =======================================================
(PID.TID 0000.0001) // End MONITOR dynamic field statistics
(PID.TID 0000.0001) // =======================================================
(PID.TID 0000.0001) // =======================================================
(PID.TID 0000.0001) // Begin OBCS MONITOR field statistics
(PID.TID 0000.0001) // =======================================================
(PID.TID 0000.0001) %MON obc_E_uVel_max               =   3.3404902334837E-01
(PID.TID 0000.0001) %MON obc_E_uVel_min               =   3.3404902334837E-01
(PID.TID 0000.0001) %MON obc_E_uVel_mean              =   3.3404902334837E-01
(PID.TID 0000.0001) %MON obc_E_uVel_sd                =   8.3300023432813E-09
(PID.TID 0000.0001) %MON obc_E_uVel_Int               =   3.3404902334837E+05
(PID.TID 0000.0001) %MON obc_W_uVel_max               =   3.3404902334837E-01
(PID.TID 0000.0001) %MON obc_W_uVel_min               =   3.3404902334837E-01
(PID.TID 0000.0001) %MON obc_W_uVel_mean              =   3.3404902334837E-01
(PID.TID 0000.0001) %MON obc_W_uVel_sd                =   8.3300023432813E-09
(PID.TID 0000.0001) %MON obc_W_uVel_Int               =   3.3404902334837E+05
(PID.TID 0000.0001) // =======================================================
(PID.TID 0000.0001) // End OBCS MONITOR field statistics
(PID.TID 0000.0001) // =======================================================
 cg2d: Sum(rhs),rhsMax =  -1.60393920367596E-11  6.41609363160369E-02
 cg2d: Sum(rhs),rhsMax =  -1.58888457946205E-11  6.44562137289446E-02
 cg2d: Sum(rhs),rhsMax =  -1.58529855909251E-11  6.47277606584646E-02
 cg2d: Sum(rhs),rhsMax =  -1.56992197020145E-11  6.49751894796667E-02
 cg2d: Sum(rhs),rhsMax =  -1.55973012283539E-11  6.51981428195751E-02
 cg2d: Sum(rhs),rhsMax =  -1.55243595756360E-11  6.53962957745429E-02
 cg2d: Sum(rhs),rhsMax =  -1.53513868283994E-11  6.55693695172609E-02
 cg2d: Sum(rhs),rhsMax =  -1.52959866994706E-11  6.57171498047411E-02
 cg2d: Sum(rhs),rhsMax =  -1.52824419785702E-11  6.58395021404911E-02
 cg2d: Sum(rhs),rhsMax =  -1.52188261992592E-11  6.59363810368057E-02
 cg2d: Sum(rhs),rhsMax =  -1.52298174072030E-11  6.60078355629021E-02
 cg2d: Sum(rhs),rhsMax =  -1.52049484114514E-11  6.60540128186484E-02
 cg2d: Sum(rhs),rhsMax =  -1.51849643970081E-11  6.60751606819159E-02
 cg2d: Sum(rhs),rhsMax =  -1.51612056242811E-11  6.60716254624284E-02
 cg2d: Sum(rhs),rhsMax =  -1.51739731890643E-11  6.60438400999932E-02
 cg2d: Sum(rhs),rhsMax =  -1.51629819811205E-11  6.59923034592043E-02
 cg2d: Sum(rhs),rhsMax =  -1.51868517761500E-11  6.59175558466408E-02
 cg2d: Sum(rhs),rhsMax =  -1.52240442474749E-11  6.58201557525376E-02
 cg2d: Sum(rhs),rhsMax =  -1.53018708815011E-11  6.57006584432436E-02
 cg2d: Sum(rhs),rhsMax =  -1.53274060110675E-11  6.55595950343644E-02
 cg2d: Sum(rhs),rhsMax =  -1.53087542642538E-11  6.53974513031607E-02
 cg2d: Sum(rhs),rhsMax =  -1.53927981472179E-11  6.52146470254362E-02
 cg2d: Sum(rhs),rhsMax =  -1.54490864545664E-11  6.50115165395461E-02
 cg2d: Sum(rhs),rhsMax =  -1.55189194828154E-11  6.47882908941091E-02
 cg2d: Sum(rhs),rhsMax =  -1.55659929390595E-11  6.45450833181563E-02
 cg2d: Sum(rhs),rhsMax =  -1.56407109486167E-11  6.42818785826780E-02
 cg2d: Sum(rhs),rhsMax =  -1.56847868026944E-11  6.39985311086663E-02
 cg2d: Sum(rhs),rhsMax =  -1.58160151642051E-11  6.36947775663160E-02
 cg2d: Sum(rhs),rhsMax =  -1.58719704046462E-11  6.33702618142634E-02
 cg2d: Sum(rhs),rhsMax =  -1.59838808855284E-11  6.30245677825209E-02
 cg2d: Sum(rhs),rhsMax =  -1.60799151771585E-11  6.26572634223982E-02
 cg2d: Sum(rhs),rhsMax =  -1.61832769407511E-11  6.22679352849185E-02
 cg2d: Sum(rhs),rhsMax =  -1.62860835928313E-11  6.18562276588714E-02
 cg2d: Sum(rhs),rhsMax =  -1.63955515830594E-11  6.14218667309268E-02
 cg2d: Sum(rhs),rhsMax =  -1.65117919337376E-11  6.09646719487411E-02
 cg2d: Sum(rhs),rhsMax =  -1.66928693090540E-11  6.04845604103160E-02
 cg2d: Sum(rhs),rhsMax =  -1.68798308664009E-11  5.99815453857805E-02
 cg2d: Sum(rhs),rhsMax =  -1.70239378149972E-11  5.94557317518529E-02
 cg2d: Sum(rhs),rhsMax =  -1.72221126248928E-11  5.89073073587546E-02
 cg2d: Sum(rhs),rhsMax =  -1.74347203341085E-11  5.83365326292644E-02
 cg2d: Sum(rhs),rhsMax =  -1.76643144556010E-11  5.77437310886945E-02
 cg2d: Sum(rhs),rhsMax =  -1.78423942287509E-11  5.71292797933616E-02
 cg2d: Sum(rhs),rhsMax =  -1.81376025309987E-11  5.64935991061431E-02
 cg2d: Sum(rhs),rhsMax =  -1.83918436036379E-11  5.58371533226980E-02
 cg2d: Sum(rhs),rhsMax =  -1.87406756779751E-11  5.51604277972196E-02
 cg2d: Sum(rhs),rhsMax =  -1.90775173436464E-11  5.44639260076105E-02
 cg2d: Sum(rhs),rhsMax =  -1.94041449574911E-11  5.37481746088870E-02
 cg2d: Sum(rhs),rhsMax =  -1.97566407678096E-11  5.30137312367824E-02
 cg2d: Sum(rhs),rhsMax =  -2.01183514292325E-11  5.22611916831201E-02
 cg2d: Sum(rhs),rhsMax =  -2.04608552323293E-11  5.14911912033724E-02
 cg2d: Sum(rhs),rhsMax =  -2.08073558383148E-11  5.07043964821478E-02
 cg2d: Sum(rhs),rhsMax =  -2.11919370940450E-11  4.99014880888671E-02
 cg2d: Sum(rhs),rhsMax =  -2.15593098928935E-11  4.90831371146178E-02
 cg2d: Sum(rhs),rhsMax =  -2.19917417609850E-11  4.82499805492763E-02
 cg2d: Sum(rhs),rhsMax =  -2.23937535182017E-11  4.74025991064859E-02
 cg2d: Sum(rhs),rhsMax =  -2.28959073922397E-11  4.65415003667345E-02
 cg2d: Sum(rhs),rhsMax =  -2.33290053941460E-11  4.56671072221383E-02
 cg2d: Sum(rhs),rhsMax =  -2.38867814417176E-11  4.47797502372033E-02
 cg2d: Sum(rhs),rhsMax =  -2.44034792373782E-11  4.38796625199465E-02
 cg2d: Sum(rhs),rhsMax =  -2.47913911621822E-11  4.33175865324102E-02
 cg2d: Sum(rhs),rhsMax =  -2.51474396861795E-11  4.28399163042803E-02
 cg2d: Sum(rhs),rhsMax =  -2.54990473180783E-11  4.23552244372386E-02
 cg2d: Sum(rhs),rhsMax =  -2.58238985750836E-11  4.18638611620177E-02
 cg2d: Sum(rhs),rhsMax =  -2.62020405372709E-11  4.13662333783537E-02
 cg2d: Sum(rhs),rhsMax =  -2.66057176290246E-11  4.08743658265307E-02
 cg2d: Sum(rhs),rhsMax =  -2.70029554272355E-11  4.03884039988606E-02
 cg2d: Sum(rhs),rhsMax =  -2.74295031132965E-11  3.98982537080029E-02
 cg2d: Sum(rhs),rhsMax =  -2.72714073545899E-11  4.02322722524760E-02
 cg2d: Sum(rhs),rhsMax =  -2.63823407564701E-11  4.16731840275994E-02
 cg2d: Sum(rhs),rhsMax =  -2.55382381908476E-11  4.31299037755659E-02
 cg2d: Sum(rhs),rhsMax =  -2.47730724822759E-11  4.46022029422149E-02
 cg2d: Sum(rhs),rhsMax =  -2.40277797658450E-11  4.60897842475696E-02
 cg2d: Sum(rhs),rhsMax =  -2.33362218438060E-11  4.75922827732088E-02
 cg2d: Sum(rhs),rhsMax =  -2.26451635221281E-11  4.91092694626840E-02
 cg2d: Sum(rhs),rhsMax =  -2.20486962021482E-11  5.06402563746606E-02
 cg2d: Sum(rhs),rhsMax =  -2.14216422378399E-11  5.21847030111217E-02
 cg2d: Sum(rhs),rhsMax =  -2.08731365525239E-11  5.37420231373131E-02
 cg2d: Sum(rhs),rhsMax =  -2.03270456022864E-11  5.53115915604524E-02
 cg2d: Sum(rhs),rhsMax =  -1.98237815052238E-11  5.68927504820363E-02
 cg2d: Sum(rhs),rhsMax =  -1.93391413993993E-11  5.84848151895034E-02
 cg2d: Sum(rhs),rhsMax =  -1.88644655452208E-11  6.00870789901614E-02
 cg2d: Sum(rhs),rhsMax =  -1.84322002105830E-11  6.16988174055884E-02
 cg2d: Sum(rhs),rhsMax =  -1.80046533237999E-11  6.33192917286787E-02
 cg2d: Sum(rhs),rhsMax =  -1.76033770893369E-11  6.49477520812590E-02
 cg2d: Sum(rhs),rhsMax =  -1.72106356943758E-11  6.65834401588874E-02
 cg2d: Sum(rhs),rhsMax =  -1.68593680682783E-11  6.82255917656273E-02
 cg2d: Sum(rhs),rhsMax =  -1.64848265246653E-11  6.98734392075046E-02
 cg2d: Sum(rhs),rhsMax =  -1.61516217067614E-11  7.15262135556789E-02
 cg2d: Sum(rhs),rhsMax =  -1.58445548348318E-11  7.31831467142313E-02
 cg2d: Sum(rhs),rhsMax =  -1.55422480441203E-11  7.48434731562312E-02
 cg2d: Sum(rhs),rhsMax =  -1.52600848624118E-11  7.65064311383647E-02
 cg2d: Sum(rhs),rhsMax =  -1.49857487530269E-11  7.81712631783803E-02
 cg2d: Sum(rhs),rhsMax =  -1.47228895741591E-11  7.98372155864479E-02
 cg2d: Sum(rhs),rhsMax =  -1.44642908761483E-11  8.15035368828019E-02
 cg2d: Sum(rhs),rhsMax =  -1.42293954397132E-11  8.31694750077514E-02
 cg2d: Sum(rhs),rhsMax =  -1.39786238140260E-11  8.48342733306997E-02
 cg2d: Sum(rhs),rhsMax =  -1.37655165044492E-11  8.64971655832593E-02
 cg2d: Sum(rhs),rhsMax =  -1.35967348491306E-11  8.81573699603577E-02
 cg2d: Sum(rhs),rhsMax =  -1.34559030584569E-11  8.98140827691081E-02
 cg2d: Sum(rhs),rhsMax =  -1.33029698368148E-11  9.14664721003516E-02
 cg2d: Sum(rhs),rhsMax =  -1.31575028650133E-11  9.31136720429625E-02
 cg2d: Sum(rhs),rhsMax =  -1.30367938666609E-11  9.47547779980400E-02
 cg2d: Sum(rhs),rhsMax =  -1.28942134747234E-11  9.63888436672712E-02
 cg2d: Sum(rhs),rhsMax =  -1.27650112702327E-11  9.80148802120068E-02
 cg2d: Sum(rhs),rhsMax =  -1.26451904503000E-11  9.96318579766961E-02
 cg2d: Sum(rhs),rhsMax =  -1.25450760890544E-11  1.01238711029622E-01
 cg2d: Sum(rhs),rhsMax =  -1.24336652085333E-11  1.02834344605137E-01
 cg2d: Sum(rhs),rhsMax =  -1.23195897927530E-11  1.04417645341381E-01
 cg2d: Sum(rhs),rhsMax =  -1.22247767464501E-11  1.05987494004563E-01
 cg2d: Sum(rhs),rhsMax =  -1.21282983656101E-11  1.07542780198048E-01
 cg2d: Sum(rhs),rhsMax =  -1.20303211836870E-11  1.09082418385070E-01
 cg2d: Sum(rhs),rhsMax =  -1.19345644478130E-11  1.10605364421022E-01
 cg2d: Sum(rhs),rhsMax =  -1.18484666522534E-11  1.12110631708340E-01
 cg2d: Sum(rhs),rhsMax =  -1.17686971279340E-11  1.13597306064368E-01
 cg2d: Sum(rhs),rhsMax =  -1.17042486813546E-11  1.15064558431331E-01
 cg2d: Sum(rhs),rhsMax =  -1.16224807555909E-11  1.16511654664419E-01
 cg2d: Sum(rhs),rhsMax =  -1.15477072348824E-11  1.17937961795548E-01
 cg2d: Sum(rhs),rhsMax =  -1.14729892253251E-11  1.19342950381770E-01
 cg2d: Sum(rhs),rhsMax =  -1.14134257600540E-11  1.20726192784131E-01
 cg2d: Sum(rhs),rhsMax =  -1.13536402501779E-11  1.22087357468349E-01
 cg2d: Sum(rhs),rhsMax =  -1.12865272683393E-11  1.23426199664307E-01
 cg2d: Sum(rhs),rhsMax =  -1.12133635710165E-11  1.24742548938388E-01
 cg2d: Sum(rhs),rhsMax =  -1.11756714993305E-11  1.26036294408690E-01
 cg2d: Sum(rhs),rhsMax =  -1.11170517236303E-11  1.27307368453862E-01
 cg2d: Sum(rhs),rhsMax =  -1.10669806652197E-11  1.28555729824993E-01
 cg2d: Sum(rhs),rhsMax =  -1.10076392445535E-11  1.29781347067945E-01
 cg2d: Sum(rhs),rhsMax =  -1.09563469408158E-11  1.30984183096224E-01
 cg2d: Sum(rhs),rhsMax =  -1.09087738842106E-11  1.32164181632019E-01
 cg2d: Sum(rhs),rhsMax =  -1.08599795822784E-11  1.33321256067953E-01
 cg2d: Sum(rhs),rhsMax =  -1.08061892767353E-11  1.34455281109346E-01
 cg2d: Sum(rhs),rhsMax =  -1.07461262111030E-11  1.35566087352487E-01
 cg2d: Sum(rhs),rhsMax =  -1.06957220857851E-11  1.36653458752431E-01
 cg2d: Sum(rhs),rhsMax =  -1.06430420032666E-11  1.37717132762608E-01
 cg2d: Sum(rhs),rhsMax =  -1.05869757405230E-11  1.38756802769283E-01
 cg2d: Sum(rhs),rhsMax =  -1.05426223306893E-11  1.39772122337567E-01
 cg2d: Sum(rhs),rhsMax =  -1.05455644217045E-11  1.40762710728037E-01
 cg2d: Sum(rhs),rhsMax =  -1.04830588654181E-11  1.41728159127781E-01
 cg2d: Sum(rhs),rhsMax =  -1.05029873687101E-11  1.42668037069916E-01
 cg2d: Sum(rhs),rhsMax =  -1.04330988293100E-11  1.43581898583641E-01
 cg2d: Sum(rhs),rhsMax =  -1.03831943043531E-11  1.44469287713687E-01
 cg2d: Sum(rhs),rhsMax =  -1.03358988035041E-11  1.45329743162034E-01
 cg2d: Sum(rhs),rhsMax =  -1.02865493900595E-11  1.46162801923500E-01
 cg2d: Sum(rhs),rhsMax =  -1.01864072732383E-11  1.46968001903470E-01
 cg2d: Sum(rhs),rhsMax =  -1.02395314449666E-11  1.47744883604576E-01
 cg2d: Sum(rhs),rhsMax =  -1.02716168903783E-11  1.48492991038932E-01
 cg2d: Sum(rhs),rhsMax =  -1.03131947426505E-11  1.49211872075197E-01
 cg2d: Sum(rhs),rhsMax =  -1.03540509499567E-11  1.49901078429070E-01
 cg2d: Sum(rhs),rhsMax =  -1.03308472887420E-11  1.50560165534813E-01
 cg2d: Sum(rhs),rhsMax =  -1.03350106250844E-11  1.51188692488917E-01
 cg2d: Sum(rhs),rhsMax =  -1.03216324376376E-11  1.51786222217486E-01
 cg2d: Sum(rhs),rhsMax =  -1.03344000024208E-11  1.52352321975359E-01
 cg2d: Sum(rhs),rhsMax =  -1.03443364984912E-11  1.52886564244126E-01
 cg2d: Sum(rhs),rhsMax =  -1.03557162844936E-11  1.53388528062258E-01
 cg2d: Sum(rhs),rhsMax =  -1.03663189143788E-11  1.53857800794903E-01
 cg2d: Sum(rhs),rhsMax =  -1.03476671675651E-11  1.54293980333475E-01
 cg2d: Sum(rhs),rhsMax =  -1.03568265075182E-11  1.54696677704053E-01
 cg2d: Sum(rhs),rhsMax =  -1.03467234779941E-11  1.55065520055166E-01
 cg2d: Sum(rhs),rhsMax =  -1.03684283381256E-11  1.55400153986652E-01
 cg2d: Sum(rhs),rhsMax =  -1.03309583110445E-11  1.55700249169213E-01
 cg2d: Sum(rhs),rhsMax =  -1.03572150855769E-11  1.55965502188694E-01
 cg2d: Sum(rhs),rhsMax =  -1.03625441560951E-11  1.56195640526505E-01
 cg2d: Sum(rhs),rhsMax =  -1.03916875104915E-11  1.56390426557929E-01
 cg2d: Sum(rhs),rhsMax =  -1.04133923706229E-11  1.56549661488982E-01
 cg2d: Sum(rhs),rhsMax =  -1.04588560034813E-11  1.56673189041237E-01
 cg2d: Sum(rhs),rhsMax =  -1.04635189401847E-11  1.56760898730073E-01
 cg2d: Sum(rhs),rhsMax =  -1.05336295241898E-11  1.56812728576396E-01
 cg2d: Sum(rhs),rhsMax =  -1.05670472372310E-11  1.56828667097056E-01
 cg2d: Sum(rhs),rhsMax =  -1.05193076471721E-11  1.56808754434268E-01
 cg2d: Sum(rhs),rhsMax =  -1.05004338557535E-11  1.56753082552863E-01
 cg2d: Sum(rhs),rhsMax =  -1.04566910685833E-11  1.56661794307335E-01
 cg2d: Sum(rhs),rhsMax =  -1.04184993965362E-11  1.56535081445676E-01
 cg2d: Sum(rhs),rhsMax =  -1.03849151500413E-11  1.56373181572998E-01
 cg2d: Sum(rhs),rhsMax =  -1.03602681988946E-11  1.56176374143616E-01
 cg2d: Sum(rhs),rhsMax =  -1.03215769264864E-11  1.55944975599885E-01
 cg2d: Sum(rhs),rhsMax =  -1.02678421320945E-11  1.55679333825247E-01
 cg2d: Sum(rhs),rhsMax =  -1.02479136288025E-11  1.55379822100182E-01
 cg2d: Sum(rhs),rhsMax =  -1.02648445299280E-11  1.55046832776244E-01
 cg2d: Sum(rhs),rhsMax =  -1.02384767330932E-11  1.54680770900956E-01
 cg2d: Sum(rhs),rhsMax =  -1.02098884902091E-11  1.54282047999939E-01
 cg2d: Sum(rhs),rhsMax =  -1.01841868271890E-11  1.53851076199272E-01
 cg2d: Sum(rhs),rhsMax =  -1.01634811677798E-11  1.53388262840663E-01
 cg2d: Sum(rhs),rhsMax =  -1.01790242901245E-11  1.52894005708152E-01
 cg2d: Sum(rhs),rhsMax =  -1.01754715764457E-11  1.52368688941498E-01
 cg2d: Sum(rhs),rhsMax =  -1.01631481008724E-11  1.51812679695906E-01
 cg2d: Sum(rhs),rhsMax =  -1.01622599224527E-11  1.51226325630366E-01
 cg2d: Sum(rhs),rhsMax =  -1.01525454709872E-11  1.50609953184017E-01
 cg2d: Sum(rhs),rhsMax =  -1.01509356476015E-11  1.49963866622932E-01
 cg2d: Sum(rhs),rhsMax =  -1.01409991515311E-11  1.49288347989669E-01
 cg2d: Sum(rhs),rhsMax =  -1.01302854993435E-11  1.48583657898069E-01
 cg2d: Sum(rhs),rhsMax =  -1.01392227946917E-11  1.47850037193462E-01
 cg2d: Sum(rhs),rhsMax =  -1.01439412425464E-11  1.47087709510366E-01
 cg2d: Sum(rhs),rhsMax =  -1.01827990484082E-11  1.46296884747792E-01
 cg2d: Sum(rhs),rhsMax =  -1.02133301815854E-11  1.45477763450013E-01
 cg2d: Sum(rhs),rhsMax =  -1.02531871881695E-11  1.44630542071145E-01
 cg2d: Sum(rhs),rhsMax =  -1.02849950778250E-11  1.43755418940750E-01
 cg2d: Sum(rhs),rhsMax =  -1.03332897793962E-11  1.42852600825005E-01
 cg2d: Sum(rhs),rhsMax =  -1.03904662651644E-11  1.41922309870717E-01
 cg2d: Sum(rhs),rhsMax =  -1.04202757533756E-11  1.40964790689829E-01
 cg2d: Sum(rhs),rhsMax =  -1.04599662265059E-11  1.39980317270796E-01
 cg2d: Sum(rhs),rhsMax =  -1.05191966248697E-11  1.38969199380860E-01
 cg2d: Sum(rhs),rhsMax =  -1.05839781383565E-11  1.37931788113239E-01
 cg2d: Sum(rhs),rhsMax =  -1.06398778676464E-11  1.36868480236064E-01
 cg2d: Sum(rhs),rhsMax =  -1.06833986102117E-11  1.35779721091111E-01
 cg2d: Sum(rhs),rhsMax =  -1.07363562484863E-11  1.34666005811434E-01
 cg2d: Sum(rhs),rhsMax =  -1.07827080597644E-11  1.33527878703283E-01
 cg2d: Sum(rhs),rhsMax =  -1.08319464509066E-11  1.32365930732044E-01
 cg2d: Sum(rhs),rhsMax =  -1.08852926672398E-11  1.31180795157709E-01
 cg2d: Sum(rhs),rhsMax =  -1.09501296918779E-11  1.29973141474672E-01
 cg2d: Sum(rhs),rhsMax =  -1.10065845326801E-11  1.28743667915578E-01
 cg2d: Sum(rhs),rhsMax =  -1.10517706097824E-11  1.27493092873569E-01
 cg2d: Sum(rhs),rhsMax =  -1.11146647441274E-11  1.26222145673815E-01
 cg2d: Sum(rhs),rhsMax =  -1.11661235813187E-11  1.24931557176721E-01
 cg2d: Sum(rhs),rhsMax =  -1.12237441562968E-11  1.23622050716865E-01
 cg2d: Sum(rhs),rhsMax =  -1.12040376976097E-11  1.22294333864293E-01
 cg2d: Sum(rhs),rhsMax =  -1.12841402888364E-11  1.20949091426696E-01
 cg2d: Sum(rhs),rhsMax =  -1.13678511048931E-11  1.19586980103403E-01
 cg2d: Sum(rhs),rhsMax =  -1.14597775713321E-11  1.18208625082120E-01
 cg2d: Sum(rhs),rhsMax =  -1.15332743355623E-11  1.16814618656483E-01
 cg2d: Sum(rhs),rhsMax =  -1.16009979400644E-11  1.15405520903562E-01
 cg2d: Sum(rhs),rhsMax =  -1.16930909399571E-11  1.13981862345451E-01
 cg2d: Sum(rhs),rhsMax =  -1.17792997578192E-11  1.12544148410516E-01
 cg2d: Sum(rhs),rhsMax =  -1.18885457034423E-11  1.11092865416197E-01
 cg2d: Sum(rhs),rhsMax =  -1.19847465285261E-11  1.09628487724246E-01
 cg2d: Sum(rhs),rhsMax =  -1.20803367309463E-11  1.08151485673142E-01
 cg2d: Sum(rhs),rhsMax =  -1.21918308781943E-11  1.06662333870012E-01
 cg2d: Sum(rhs),rhsMax =  -1.22969134874751E-11  1.05161519428446E-01
 cg2d: Sum(rhs),rhsMax =  -1.24060484107957E-11  1.03649549764449E-01
 cg2d: Sum(rhs),rhsMax =  -1.25231491843181E-11  1.02126959563533E-01
 cg2d: Sum(rhs),rhsMax =  -1.26235133457442E-11  1.00594316616349E-01
 cg2d: Sum(rhs),rhsMax =  -1.27904353774966E-11  9.90522262753135E-02
 cg2d: Sum(rhs),rhsMax =  -1.29112831537270E-11  9.75013343349612E-02
 cg2d: Sum(rhs),rhsMax =  -1.30452038060724E-11  9.59423282044997E-02
 cg2d: Sum(rhs),rhsMax =  -1.31858135521412E-11  9.43759363104094E-02
 cg2d: Sum(rhs),rhsMax =  -1.33383026845735E-11  9.28029257457992E-02
 cg2d: Sum(rhs),rhsMax =  -1.34962041542508E-11  9.12240982314045E-02
 cg2d: Sum(rhs),rhsMax =  -1.36590183608121E-11  8.96402845471589E-02
 cg2d: Sum(rhs),rhsMax =  -1.38149908179841E-11  8.80523376805876E-02
 cg2d: Sum(rhs),rhsMax =  -1.39835504286978E-11  8.64611249750211E-02
 cg2d: Sum(rhs),rhsMax =  -1.41576611545347E-11  8.48675196143939E-02
 cg2d: Sum(rhs),rhsMax =  -1.43239309302601E-11  8.32723918244797E-02
 cg2d: Sum(rhs),rhsMax =  -1.45047446276081E-11  8.16766001973010E-02
 cg2d: Sum(rhs),rhsMax =  -1.47498055436124E-11  8.00809835520820E-02
 cg2d: Sum(rhs),rhsMax =  -1.49208458088967E-11  7.84863537308018E-02
 cg2d: Sum(rhs),rhsMax =  -1.51266933007266E-11  7.68934896890935E-02
 cg2d: Sum(rhs),rhsMax =  -1.53944938394157E-11  7.53031331849452E-02
 cg2d: Sum(rhs),rhsMax =  -1.56811022500314E-11  7.37159862903077E-02
 cg2d: Sum(rhs),rhsMax =  -1.59738333671555E-11  7.21327108574021E-02
 cg2d: Sum(rhs),rhsMax =  -1.62594798736038E-11  7.05539299746854E-02
 cg2d: Sum(rhs),rhsMax =  -1.65720909217626E-11  6.89802313107606E-02
 cg2d: Sum(rhs),rhsMax =  -1.69183139719919E-11  6.74121721501945E-02
 cg2d: Sum(rhs),rhsMax =  -1.72646896778872E-11  6.58502858317609E-02
 cg2d: Sum(rhs),rhsMax =  -1.76142711527660E-11  6.42950892284339E-02
 cg2d: Sum(rhs),rhsMax =  -1.80176706887636E-11  6.27470907906924E-02
 cg2d: Sum(rhs),rhsMax =  -1.83854598212463E-11  6.12067986683418E-02
 cg2d: Sum(rhs),rhsMax =  -1.88050686134034E-11  5.96747284276016E-02
 cg2d: Sum(rhs),rhsMax =  -1.92147409094900E-11  5.81514099167243E-02
 cg2d: Sum(rhs),rhsMax =  -1.96602734092721E-11  5.66373929003640E-02
 cg2d: Sum(rhs),rhsMax =  -2.01314520609230E-11  5.51332511799753E-02
 cg2d: Sum(rhs),rhsMax =  -2.06277217529305E-11  5.36395850398825E-02
 cg2d: Sum(rhs),rhsMax =  -2.11930473170696E-11  5.21570219855081E-02
 cg2d: Sum(rhs),rhsMax =  -2.17021400850115E-11  5.06862158642258E-02
 cg2d: Sum(rhs),rhsMax =  -2.22784013459432E-11  4.92278445668108E-02
 cg2d: Sum(rhs),rhsMax =  -2.28544960734212E-11  4.77826065954793E-02
 cg2d: Sum(rhs),rhsMax =  -2.34940955579077E-11  4.63512168376852E-02
 cg2d: Sum(rhs),rhsMax =  -2.41789921417990E-11  4.49344019039928E-02
 cg2d: Sum(rhs),rhsMax =  -2.48734366437020E-11  4.35328953735370E-02
 cg2d: Sum(rhs),rhsMax =  -2.55659937664632E-11  4.22065718574299E-02
 cg2d: Sum(rhs),rhsMax =  -2.52186049820580E-11  4.27004936924705E-02
 cg2d: Sum(rhs),rhsMax =  -2.48260301205505E-11  4.31875216628324E-02
 cg2d: Sum(rhs),rhsMax =  -2.44658737713621E-11  4.36672516984500E-02
 cg2d: Sum(rhs),rhsMax =  -2.41449082949430E-11  4.41393445643189E-02
 cg2d: Sum(rhs),rhsMax =  -2.38387087847514E-11  4.46035267654985E-02
 cg2d: Sum(rhs),rhsMax =  -2.35640396084591E-11  4.50595860886646E-02
 cg2d: Sum(rhs),rhsMax =  -2.32631691687857E-11  4.55073624530109E-02
 cg2d: Sum(rhs),rhsMax =  -2.29264385254169E-11  4.60279778112634E-02
 cg2d: Sum(rhs),rhsMax =  -2.24904539436466E-11  4.68484618723806E-02
 cg2d: Sum(rhs),rhsMax =  -2.20143903106873E-11  4.76553691529781E-02
 cg2d: Sum(rhs),rhsMax =  -2.15962803196135E-11  4.84482035785764E-02
 cg2d: Sum(rhs),rhsMax =  -2.12372341934497E-11  4.92264662258358E-02
 cg2d: Sum(rhs),rhsMax =  -2.08547623614663E-11  4.99896673103443E-02
 cg2d: Sum(rhs),rhsMax =  -2.04929406777410E-11  5.07373140426491E-02
 cg2d: Sum(rhs),rhsMax =  -2.01189065407448E-11  5.14689001127462E-02
 cg2d: Sum(rhs),rhsMax =  -1.98099314729916E-11  5.21839141669133E-02
 cg2d: Sum(rhs),rhsMax =  -1.94279037302181E-11  5.28818472895344E-02
 cg2d: Sum(rhs),rhsMax =  -1.90474302996790E-11  5.35622017381091E-02
 cg2d: Sum(rhs),rhsMax =  -1.87455606592835E-11  5.42244977102780E-02
 cg2d: Sum(rhs),rhsMax =  -1.84832149585645E-11  5.48682808758620E-02
 cg2d: Sum(rhs),rhsMax =  -1.82450721197824E-11  5.54931345540050E-02
 cg2d: Sum(rhs),rhsMax =  -1.80578885178306E-11  5.60986819349191E-02
 cg2d: Sum(rhs),rhsMax =  -1.77905468135009E-11  5.66845930824550E-02
 cg2d: Sum(rhs),rhsMax =  -1.75792713719147E-11  5.72505846353104E-02
 cg2d: Sum(rhs),rhsMax =  -1.73390191093858E-11  5.77964229638403E-02
 cg2d: Sum(rhs),rhsMax =  -1.71304082030588E-11  5.83219317102143E-02
 cg2d: Sum(rhs),rhsMax =  -1.68778324649566E-11  5.88269976664724E-02
 cg2d: Sum(rhs),rhsMax =  -1.67259539551878E-11  5.93115858903597E-02
 cg2d: Sum(rhs),rhsMax =  -1.65630842374753E-11  5.97757130719466E-02
 cg2d: Sum(rhs),rhsMax =  -1.64033231442318E-11  6.02194105880122E-02
 cg2d: Sum(rhs),rhsMax =  -1.62226898581252E-11  6.06426976410307E-02
 cg2d: Sum(rhs),rhsMax =  -1.60802482440658E-11  6.10455922041272E-02
 cg2d: Sum(rhs),rhsMax =  -1.59390278753335E-11  6.14281076581341E-02
 cg2d: Sum(rhs),rhsMax =  -1.57523993848940E-11  6.17902516070778E-02
 cg2d: Sum(rhs),rhsMax =  -1.56258339600868E-11  6.21320051876786E-02
 cg2d: Sum(rhs),rhsMax =  -1.55303547799690E-11  6.24533231274648E-02
 cg2d: Sum(rhs),rhsMax =  -1.54215529235557E-11  6.27541328999581E-02
 cg2d: Sum(rhs),rhsMax =  -1.53210777398272E-11  6.30343169015647E-02
 cg2d: Sum(rhs),rhsMax =  -1.51895163114091E-11  6.32937174627762E-02
 cg2d: Sum(rhs),rhsMax =  -1.51119117219878E-11  6.35321174801294E-02
 cg2d: Sum(rhs),rhsMax =  -1.50176537871971E-11  6.37492586307946E-02
 cg2d: Sum(rhs),rhsMax =  -1.48839829350322E-11  6.39448557919253E-02
 cg2d: Sum(rhs),rhsMax =  -1.47150069906843E-11  6.41185950503530E-02
 cg2d: Sum(rhs),rhsMax =  -1.45640166593353E-11  6.42701337232452E-02
 cg2d: Sum(rhs),rhsMax =  -1.44642076094215E-11  6.43991137003438E-02
 cg2d: Sum(rhs),rhsMax =  -1.43475231695334E-11  6.45051713762816E-02
 cg2d: Sum(rhs),rhsMax =  -1.42224010346581E-11  6.45879581844157E-02
 cg2d: Sum(rhs),rhsMax =  -1.41958667043696E-11  6.46471555032337E-02
 cg2d: Sum(rhs),rhsMax =  -1.41556766308781E-11  6.46824921766306E-02
 cg2d: Sum(rhs),rhsMax =  -1.41526790287116E-11  6.46937111554930E-02
 cg2d: Sum(rhs),rhsMax =  -1.41284761667748E-11  6.46806230799034E-02
 cg2d: Sum(rhs),rhsMax =  -1.41132661113375E-11  6.46431685163649E-02
 cg2d: Sum(rhs),rhsMax =  -1.40255584923921E-11  6.45813994724323E-02
 cg2d: Sum(rhs),rhsMax =  -1.39822597944317E-11  6.44954090706081E-02
 cg2d: Sum(rhs),rhsMax =  -1.39920297570484E-11  6.43852839521306E-02
 cg2d: Sum(rhs),rhsMax =  -1.39799283260800E-11  6.42510931328639E-02
 cg2d: Sum(rhs),rhsMax =  -1.40580880270136E-11  6.40929270731528E-02
 cg2d: Sum(rhs),rhsMax =  -1.41113787321956E-11  6.39109407870943E-02
 cg2d: Sum(rhs),rhsMax =  -1.41259226538182E-11  6.37053686808570E-02
 cg2d: Sum(rhs),rhsMax =  -1.41844314072159E-11  6.34765115583850E-02
 cg2d: Sum(rhs),rhsMax =  -1.42105216482946E-11  6.32247127300048E-02
 cg2d: Sum(rhs),rhsMax =  -1.42786893420066E-11  6.29503367734025E-02
 cg2d: Sum(rhs),rhsMax =  -1.43504097493974E-11  6.26537500725892E-02
 cg2d: Sum(rhs),rhsMax =  -1.44844136684696E-11  6.23353152383016E-02
 cg2d: Sum(rhs),rhsMax =  -1.45335965484605E-11  6.19953430368347E-02
 cg2d: Sum(rhs),rhsMax =  -1.46029854874996E-11  6.16341217173965E-02
 cg2d: Sum(rhs),rhsMax =  -1.47523104843117E-11  6.12520131199702E-02
 cg2d: Sum(rhs),rhsMax =  -1.48632217644717E-11  6.08494334467994E-02
 cg2d: Sum(rhs),rhsMax =  -1.50034429324819E-11  6.04267760150959E-02
 cg2d: Sum(rhs),rhsMax =  -1.51896273337115E-11  5.99843622574684E-02
 cg2d: Sum(rhs),rhsMax =  -1.53395074420359E-11  5.95224440036984E-02
 cg2d: Sum(rhs),rhsMax =  -1.54354307113636E-11  5.90412318462651E-02
 cg2d: Sum(rhs),rhsMax =  -1.56067381240632E-11  5.85409165966342E-02
 cg2d: Sum(rhs),rhsMax =  -1.58139057404583E-11  5.80216741751596E-02
 cg2d: Sum(rhs),rhsMax =  -1.60033097884593E-11  5.74836611075470E-02
 cg2d: Sum(rhs),rhsMax =  -1.61637370155177E-11  5.69270142354721E-02
 cg2d: Sum(rhs),rhsMax =  -1.64428470839084E-11  5.63518604662597E-02
 cg2d: Sum(rhs),rhsMax =  -1.66013869318249E-11  5.57583237149956E-02
 cg2d: Sum(rhs),rhsMax =  -1.68473013317794E-11  5.51465352330636E-02
 cg2d: Sum(rhs),rhsMax =  -1.71279657124046E-11  5.45166437386174E-02
 cg2d: Sum(rhs),rhsMax =  -1.74289471743805E-11  5.38687813642536E-02
 cg2d: Sum(rhs),rhsMax =  -1.76338943447263E-11  5.32031054049133E-02
 cg2d: Sum(rhs),rhsMax =  -1.79058989857594E-11  5.25198695045572E-02
 cg2d: Sum(rhs),rhsMax =  -1.81972215074211E-11  5.18194214513101E-02
 cg2d: Sum(rhs),rhsMax =  -1.84842141592867E-11  5.11021497718492E-02
 cg2d: Sum(rhs),rhsMax =  -1.88142834645078E-11  5.03684446866760E-02
 cg2d: Sum(rhs),rhsMax =  -1.91189286624649E-11  4.96186996299035E-02
 cg2d: Sum(rhs),rhsMax =  -1.94333438230387E-11  4.88533363148910E-02
 cg2d: Sum(rhs),rhsMax =  -1.97805105628390E-11  4.80728262057568E-02
 cg2d: Sum(rhs),rhsMax =  -2.01453298487309E-11  4.72776934835588E-02
 cg2d: Sum(rhs),rhsMax =  -2.05373495987260E-11  4.64685049042208E-02
 cg2d: Sum(rhs),rhsMax =  -2.09317008170729E-11  4.56458569532944E-02
 cg2d: Sum(rhs),rhsMax =  -2.13801198967190E-11  4.48103652007236E-02
 cg2d: Sum(rhs),rhsMax =  -2.16084927728843E-11  4.43334847097911E-02
 cg2d: Sum(rhs),rhsMax =  -2.18947082686327E-11  4.38792406643621E-02
 cg2d: Sum(rhs),rhsMax =  -2.21543894340925E-11  4.34189944564037E-02
 cg2d: Sum(rhs),rhsMax =  -2.25038876422445E-11  4.29718964516931E-02
 cg2d: Sum(rhs),rhsMax =  -2.27311502953853E-11  4.25181303928868E-02
 cg2d: Sum(rhs),rhsMax =  -2.30361285602498E-11  4.20576498653371E-02
 cg2d: Sum(rhs),rhsMax =  -2.33589814158108E-11  4.15904687162747E-02
 cg2d: Sum(rhs),rhsMax =  -2.36604069669966E-11  4.11729460058460E-02
 cg2d: Sum(rhs),rhsMax =  -2.29485319636069E-11  4.25446821615557E-02
 cg2d: Sum(rhs),rhsMax =  -2.23095986129351E-11  4.39321914568046E-02
 cg2d: Sum(rhs),rhsMax =  -2.16553441845235E-11  4.53347424652923E-02
 cg2d: Sum(rhs),rhsMax =  -2.11048956089144E-11  4.67516175461287E-02
 cg2d: Sum(rhs),rhsMax =  -2.05100381123202E-11  4.81821162894081E-02
 cg2d: Sum(rhs),rhsMax =  -1.99509853082702E-11  4.96255571191171E-02
 cg2d: Sum(rhs),rhsMax =  -1.94222971039437E-11  5.10812769215187E-02
 cg2d: Sum(rhs),rhsMax =  -1.89272486572634E-11  5.25486287062573E-02
 cg2d: Sum(rhs),rhsMax =  -1.84560144944612E-11  5.40269774477088E-02
 cg2d: Sum(rhs),rhsMax =  -1.80075399036639E-11  5.55156943807906E-02
 cg2d: Sum(rhs),rhsMax =  -1.75942593827472E-11  5.70141501332907E-02
 cg2d: Sum(rhs),rhsMax =  -1.71790914826886E-11  5.85217071841369E-02
 cg2d: Sum(rhs),rhsMax =  -1.68062230798682E-11  6.00377121915901E-02
 cg2d: Sum(rhs),rhsMax =  -1.64447899742015E-11  6.15614887337409E-02
 cg2d: Sum(rhs),rhsMax =  -1.60841895358033E-11  6.30923310176768E-02
 cg2d: Sum(rhs),rhsMax =  -1.57465984695904E-11  6.46294990732987E-02
 cg2d: Sum(rhs),rhsMax =  -1.54325996426508E-11  6.61722158739529E-02
 cg2d: Sum(rhs),rhsMax =  -1.51187673491648E-11  6.77196667218354E-02
 cg2d: Sum(rhs),rhsMax =  -1.48392825805033E-11  6.92710011030837E-02
 cg2d: Sum(rhs),rhsMax =  -1.45543160856576E-11  7.08253370722276E-02
 cg2d: Sum(rhs),rhsMax =  -1.42799071178867E-11  7.23817680812414E-02
 cg2d: Sum(rhs),rhsMax =  -1.40205763665691E-11  7.39393719547677E-02
 cg2d: Sum(rhs),rhsMax =  -1.37650524659194E-11  7.54972215957200E-02
 cg2d: Sum(rhs),rhsMax =  -1.35211321306006E-11  7.70543968752630E-02
 cg2d: Sum(rhs),rhsMax =  -1.32860458745832E-11  7.86099970613578E-02
 cg2d: Sum(rhs),rhsMax =  -1.30589289382144E-11  8.01631530814055E-02
 cg2d: Sum(rhs),rhsMax =  -1.28344834759986E-11  8.17130389043808E-02
 cg2d: Sum(rhs),rhsMax =  -1.26267052369400E-11  8.32588813683297E-02
 cg2d: Sum(rhs),rhsMax =  -1.24415200364325E-11  8.47999678678876E-02
 cg2d: Sum(rhs),rhsMax =  -1.23127202877882E-11  8.63356514477678E-02
 cg2d: Sum(rhs),rhsMax =  -1.21747195658273E-11  8.78653530133244E-02
 cg2d: Sum(rhs),rhsMax =  -1.20289611604818E-11  8.93885605543531E-02
 cg2d: Sum(rhs),rhsMax =  -1.19088072736417E-11  9.09048254736901E-02
 cg2d: Sum(rhs),rhsMax =  -1.17301723889796E-11  9.24137563322128E-02
 cg2d: Sum(rhs),rhsMax =  -1.16125165039449E-11  9.39150104342559E-02
 cg2d: Sum(rhs),rhsMax =  -1.14943332629736E-11  9.54082838408909E-02
 cg2d: Sum(rhs),rhsMax =  -1.13917486554982E-11  9.68933004611679E-02
 cg2d: Sum(rhs),rhsMax =  -1.12862219570076E-11  9.83698009184794E-02
 cg2d: Sum(rhs),rhsMax =  -1.12038711641560E-11  9.98375318594220E-02
 cg2d: Sum(rhs),rhsMax =  -1.11192444141039E-11  1.01296236284313E-01
 cg2d: Sum(rhs),rhsMax =  -1.10265685471234E-11  1.02745645359844E-01
 cg2d: Sum(rhs),rhsMax =  -1.09393050173878E-11  1.04185472028803E-01
 cg2d: Sum(rhs),rhsMax =  -1.08546227561845E-11  1.05615406576862E-01
 cg2d: Sum(rhs),rhsMax =  -1.07847064612088E-11  1.07035114156547E-01
 cg2d: Sum(rhs),rhsMax =  -1.06930020393747E-11  1.08444234119616E-01
 cg2d: Sum(rhs),rhsMax =  -1.06252784348726E-11  1.09842380891874E-01
 cg2d: Sum(rhs),rhsMax =  -1.05514486037350E-11  1.11229146034046E-01
 cg2d: Sum(rhs),rhsMax =  -1.04572461800956E-11  1.12604101077736E-01
 cg2d: Sum(rhs),rhsMax =  -1.04017905400156E-11  1.13966800715761E-01
 cg2d: Sum(rhs),rhsMax =  -1.03355657365967E-11  1.15316785950513E-01
 cg2d: Sum(rhs),rhsMax =  -1.02691743997241E-11  1.16653586860955E-01
 cg2d: Sum(rhs),rhsMax =  -1.02047259531446E-11  1.17976724731290E-01
 cg2d: Sum(rhs),rhsMax =  -1.01378905270622E-11  1.19285713383301E-01
 cg2d: Sum(rhs),rhsMax =  -1.00675578984522E-11  1.20580059659740E-01
 cg2d: Sum(rhs),rhsMax =  -1.00213726206277E-11  1.21859263108271E-01
 cg2d: Sum(rhs),rhsMax =  -9.95414861648669E-12  1.23122815005190E-01
 cg2d: Sum(rhs),rhsMax =  -9.88931159184858E-12  1.24370196928305E-01
 cg2d: Sum(rhs),rhsMax =  -9.84484715971234E-12  1.25600879133840E-01
 cg2d: Sum(rhs),rhsMax =  -9.77823377823483E-12  1.26814319011148E-01
 cg2d: Sum(rhs),rhsMax =  -9.73032765472226E-12  1.28009959878709E-01
 cg2d: Sum(rhs),rhsMax =  -9.67254054629052E-12  1.29187230352506E-01
 cg2d: Sum(rhs),rhsMax =  -9.61225543605337E-12  1.30345544467291E-01
 cg2d: Sum(rhs),rhsMax =  -9.51755341205285E-12  1.31484302664259E-01
 cg2d: Sum(rhs),rhsMax =  -9.48041645187914E-12  1.32602893682739E-01
 cg2d: Sum(rhs),rhsMax =  -9.42435018913557E-12  1.33700697313683E-01
 cg2d: Sum(rhs),rhsMax =  -9.28968013624853E-12  1.34777087897883E-01
 cg2d: Sum(rhs),rhsMax =  -9.27713461607027E-12  1.35831438382667E-01
 cg2d: Sum(rhs),rhsMax =  -9.26880794338558E-12  1.36863124682254E-01
 cg2d: Sum(rhs),rhsMax =  -9.27241616821561E-12  1.37871530049168E-01
 cg2d: Sum(rhs),rhsMax =  -9.25509668903146E-12  1.38856049137445E-01
 cg2d: Sum(rhs),rhsMax =  -9.26642096388264E-12  1.39816091435621E-01
 cg2d: Sum(rhs),rhsMax =  -9.26730914230234E-12  1.40751083771085E-01
 cg2d: Sum(rhs),rhsMax =  -9.26658749733633E-12  1.41660471638662E-01
 cg2d: Sum(rhs),rhsMax =  -9.26381193977477E-12  1.42543719183709E-01
 cg2d: Sum(rhs),rhsMax =  -9.25098886384035E-12  1.43400307768859E-01
 cg2d: Sum(rhs),rhsMax =  -9.05731045719449E-12  1.44229733166614E-01
 cg2d: Sum(rhs),rhsMax =  -9.08562114432243E-12  1.45031501537610E-01
 cg2d: Sum(rhs),rhsMax =  -9.10072017745733E-12  1.45805124468497E-01
 cg2d: Sum(rhs),rhsMax =  -9.11032360662034E-12  1.46550113446671E-01
 cg2d: Sum(rhs),rhsMax =  -9.14979203514577E-12  1.47265974217629E-01
 cg2d: Sum(rhs),rhsMax =  -9.12420139442816E-12  1.47952201531556E-01
 cg2d: Sum(rhs),rhsMax =  -9.12403486097446E-12  1.48608274794313E-01
 cg2d: Sum(rhs),rhsMax =  -9.11476449871884E-12  1.49233655129180E-01
 cg2d: Sum(rhs),rhsMax =  -9.11248854151836E-12  1.49827784328249E-01
 cg2d: Sum(rhs),rhsMax =  -9.12470099478924E-12  1.50390086082459E-01
 cg2d: Sum(rhs),rhsMax =  -9.12320219370599E-12  1.50919969770801E-01
 cg2d: Sum(rhs),rhsMax =  -9.10471698034598E-12  1.51416836951840E-01
 cg2d: Sum(rhs),rhsMax =  -9.09461395082189E-12  1.51880090538621E-01
 cg2d: Sum(rhs),rhsMax =  -9.06968944391906E-12  1.52309146457774E-01
 cg2d: Sum(rhs),rhsMax =  -9.10910236129325E-12  1.52703447405416E-01
 cg2d: Sum(rhs),rhsMax =  -9.11049014007403E-12  1.53062478129543E-01
 cg2d: Sum(rhs),rhsMax =  -9.11398734260160E-12  1.53385781505509E-01
 cg2d: Sum(rhs),rhsMax =  -9.12458997248677E-12  1.53672974543839E-01
 cg2d: Sum(rhs),rhsMax =  -9.12941944264389E-12  1.53923763392024E-01
 cg2d: Sum(rhs),rhsMax =  -9.10727049330262E-12  1.54137956365278E-01
 cg2d: Sum(rhs),rhsMax =  -9.09622377420760E-12  1.54315474112716E-01
 cg2d: Sum(rhs),rhsMax =  -9.11998254693458E-12  1.54456356144061E-01
 cg2d: Sum(rhs),rhsMax =  -9.12353526061338E-12  1.54560763067122E-01
 cg2d: Sum(rhs),rhsMax =  -9.18765064028548E-12  1.54628974156669E-01
 cg2d: Sum(rhs),rhsMax =  -9.15617581753736E-12  1.54661380137615E-01
 cg2d: Sum(rhs),rhsMax =  -9.12597775126756E-12  1.54658471350104E-01
 cg2d: Sum(rhs),rhsMax =  -9.12625530702371E-12  1.54620821765511E-01
 cg2d: Sum(rhs),rhsMax =  -9.15351128227826E-12  1.54549069535212E-01
 cg2d: Sum(rhs),rhsMax =  -9.08573216662489E-12  1.54443894971900E-01
 cg2d: Sum(rhs),rhsMax =  -9.03610519742415E-12  1.54305997118025E-01
 cg2d: Sum(rhs),rhsMax =  -8.95677976231468E-12  1.54136070082352E-01
 cg2d: Sum(rhs),rhsMax =  -8.87029338869638E-12  1.53934780339817E-01
 cg2d: Sum(rhs),rhsMax =  -8.80567840866320E-12  1.53702746130241E-01
 cg2d: Sum(rhs),rhsMax =  -8.79152306509923E-12  1.53440519967512E-01
 cg2d: Sum(rhs),rhsMax =  -8.76726469201117E-12  1.53148575068408E-01
 cg2d: Sum(rhs),rhsMax =  -8.74333938583050E-12  1.52827296288303E-01
 cg2d: Sum(rhs),rhsMax =  -8.70814531594988E-12  1.52476975900133E-01
(PID.TID 0000.0001)      cg2d_init_res =   1.96739723428047E-02
(PID.TID 0000.0001)      cg2d_iters(min,last) =      -1      36
(PID.TID 0000.0001)      cg2d_last_res =   6.09195351277180E-14
(PID.TID 0000.0001) // =======================================================
(PID.TID 0000.0001) // Begin MONITOR dynamic field statistics
(PID.TID 0000.0001) // =======================================================
(PID.TID 0000.0001) %MON time_tsnumber                =                  6720
(PID.TID 0000.0001) %MON time_secondsf                =   1.0080000000000E+05
(PID.TID 0000.0001) %MON dynstat_eta_max              =   2.5784958320119E-02
(PID.TID 0000.0001) %MON dynstat_eta_min              =  -1.2596646895891E-02
(PID.TID 0000.0001) %MON dynstat_eta_mean             =   2.8287498475833E-15
(PID.TID 0000.0001) %MON dynstat_eta_sd               =   1.1777838967314E-02
(PID.TID 0000.0001) %MON dynstat_eta_del2             =   2.0655860465138E-05
(PID.TID 0000.0001) %MON dynstat_uvel_max             =   1.1733256476650E+00
(PID.TID 0000.0001) %MON dynstat_uvel_min             =  -4.2992860369349E-01
(PID.TID 0000.0001) %MON dynstat_uvel_mean            =   3.4093375304194E-01
(PID.TID 0000.0001) %MON dynstat_uvel_sd              =   1.7246969698919E-01
(PID.TID 0000.0001) %MON dynstat_uvel_del2            =   6.8533735442519E-04
(PID.TID 0000.0001) %MON dynstat_vvel_max             =   0.0000000000000E+00
(PID.TID 0000.0001) %MON dynstat_vvel_min             =   0.0000000000000E+00
(PID.TID 0000.0001) %MON dynstat_vvel_mean            =   0.0000000000000E+00
(PID.TID 0000.0001) %MON dynstat_vvel_sd              =   0.0000000000000E+00
(PID.TID 0000.0001) %MON dynstat_vvel_del2            =   0.0000000000000E+00
(PID.TID 0000.0001) %MON dynstat_wvel_max             =   3.7447519578081E-02
(PID.TID 0000.0001) %MON dynstat_wvel_min             =  -2.5299985354128E-02
(PID.TID 0000.0001) %MON dynstat_wvel_mean            =   1.0335095017774E-20
(PID.TID 0000.0001) %MON dynstat_wvel_sd              =   2.0107661327896E-03
(PID.TID 0000.0001) %MON dynstat_wvel_del2            =   5.0422668765573E-05
(PID.TID 0000.0001) %MON dynstat_theta_max            =   1.5000000000011E+01
(PID.TID 0000.0001) %MON dynstat_theta_min            =   9.9999999999905E+00
(PID.TID 0000.0001) %MON dynstat_theta_mean           =   1.3178801171000E+01
(PID.TID 0000.0001) %MON dynstat_theta_sd             =   2.2616155252545E+00
(PID.TID 0000.0001) %MON dynstat_theta_del2           =   9.7873655295997E-04
(PID.TID 0000.0001) %MON dynstat_salt_max             =   3.5000000000000E+01
(PID.TID 0000.0001) %MON dynstat_salt_min             =   3.5000000000000E+01
(PID.TID 0000.0001) %MON dynstat_salt_mean            =   3.5000000000000E+01
(PID.TID 0000.0001) %MON dynstat_salt_sd              =   2.1316282072803E-14
(PID.TID 0000.0001) %MON dynstat_salt_del2            =   0.0000000000000E+00
(PID.TID 0000.0001) %MON dynstat_sst_max              =   1.5000000000000E+01
(PID.TID 0000.0001) %MON dynstat_sst_min              =   1.4999999999985E+01
(PID.TID 0000.0001) %MON dynstat_sst_mean             =   1.4999999999994E+01
(PID.TID 0000.0001) %MON dynstat_sst_sd               =   4.4115552947485E-12
(PID.TID 0000.0001) %MON dynstat_sst_del2             =   1.9206322415906E-14
(PID.TID 0000.0001) %MON dynstat_sss_max              =   3.5000000000000E+01
(PID.TID 0000.0001) %MON dynstat_sss_min              =   3.5000000000000E+01
(PID.TID 0000.0001) %MON dynstat_sss_mean             =   3.5000000000000E+01
(PID.TID 0000.0001) %MON dynstat_sss_sd               =   7.8159700933611E-14
(PID.TID 0000.0001) %MON dynstat_sss_del2             =   0.0000000000000E+00
(PID.TID 0000.0001) %MON forcing_qnet_max             =   0.0000000000000E+00
(PID.TID 0000.0001) %MON forcing_qnet_min             =   0.0000000000000E+00
(PID.TID 0000.0001) %MON forcing_qnet_mean            =   0.0000000000000E+00
(PID.TID 0000.0001) %MON forcing_qnet_sd              =   0.0000000000000E+00
(PID.TID 0000.0001) %MON forcing_qnet_del2            =   0.0000000000000E+00
(PID.TID 0000.0001) %MON forcing_qsw_max              =   0.0000000000000E+00
(PID.TID 0000.0001) %MON forcing_qsw_min              =   0.0000000000000E+00
(PID.TID 0000.0001) %MON forcing_qsw_mean             =   0.0000000000000E+00
(PID.TID 0000.0001) %MON forcing_qsw_sd               =   0.0000000000000E+00
(PID.TID 0000.0001) %MON forcing_qsw_del2             =   0.0000000000000E+00
(PID.TID 0000.0001) %MON forcing_empmr_max            =   0.0000000000000E+00
(PID.TID 0000.0001) %MON forcing_empmr_min            =   0.0000000000000E+00
(PID.TID 0000.0001) %MON forcing_empmr_mean           =   0.0000000000000E+00
(PID.TID 0000.0001) %MON forcing_empmr_sd             =   0.0000000000000E+00
(PID.TID 0000.0001) %MON forcing_empmr_del2           =   0.0000000000000E+00
(PID.TID 0000.0001) %MON forcing_fu_max               =   0.0000000000000E+00
(PID.TID 0000.0001) %MON forcing_fu_min               =   0.0000000000000E+00
(PID.TID 0000.0001) %MON forcing_fu_mean              =   0.0000000000000E+00
(PID.TID 0000.0001) %MON forcing_fu_sd                =   0.0000000000000E+00
(PID.TID 0000.0001) %MON forcing_fu_del2              =   0.0000000000000E+00
(PID.TID 0000.0001) %MON forcing_fv_max               =   0.0000000000000E+00
(PID.TID 0000.0001) %MON forcing_fv_min               =   0.0000000000000E+00
(PID.TID 0000.0001) %MON forcing_fv_mean              =   0.0000000000000E+00
(PID.TID 0000.0001) %MON forcing_fv_sd                =   0.0000000000000E+00
(PID.TID 0000.0001) %MON forcing_fv_del2              =   0.0000000000000E+00
(PID.TID 0000.0001) %MON advcfl_uvel_max              =   8.7999423574875E-02
(PID.TID 0000.0001) %MON advcfl_vvel_max              =   0.0000000000000E+00
(PID.TID 0000.0001) %MON advcfl_wvel_max              =   2.5966796521577E-01
(PID.TID 0000.0001) %MON advcfl_W_hf_max              =   2.5966796521577E-01
(PID.TID 0000.0001) %MON pe_b_mean                    =   3.4655958328728E-06
(PID.TID 0000.0001) %MON ke_max                       =   4.8581894906491E-01
(PID.TID 0000.0001) %MON ke_mean                      =   7.3149409299749E-02
(PID.TID 0000.0001) %MON ke_vol                       =   9.5889217545975E+10
(PID.TID 0000.0001) %MON vort_r_min                   =   0.0000000000000E+00
(PID.TID 0000.0001) %MON vort_r_max                   =   0.0000000000000E+00
(PID.TID 0000.0001) %MON vort_a_mean                  =   0.0000000000000E+00
(PID.TID 0000.0001) %MON vort_a_sd                    =   0.0000000000000E+00
(PID.TID 0000.0001) %MON vort_p_mean                  =   0.0000000000000E+00
(PID.TID 0000.0001) %MON vort_p_sd                    =   0.0000000000000E+00
(PID.TID 0000.0001) %MON surfExpan_theta_mean         =  -1.0516570926179E-17
(PID.TID 0000.0001) %MON surfExpan_salt_mean          =   7.3695954032874E-19
(PID.TID 0000.0001) // =======================================================
(PID.TID 0000.0001) // End MONITOR dynamic field statistics
(PID.TID 0000.0001) // =======================================================
(PID.TID 0000.0001) // =======================================================
(PID.TID 0000.0001) // Begin OBCS MONITOR field statistics
(PID.TID 0000.0001) // =======================================================
(PID.TID 0000.0001) %MON obc_E_uVel_max               =   3.3404902334837E-01
(PID.TID 0000.0001) %MON obc_E_uVel_min               =   3.3404902334837E-01
(PID.TID 0000.0001) %MON obc_E_uVel_mean              =   3.3404902334837E-01
(PID.TID 0000.0001) %MON obc_E_uVel_sd                =   8.3300023432813E-09
(PID.TID 0000.0001) %MON obc_E_uVel_Int               =   3.3404902334837E+05
(PID.TID 0000.0001) %MON obc_W_uVel_max               =   3.3404902334837E-01
(PID.TID 0000.0001) %MON obc_W_uVel_min               =   3.3404902334837E-01
(PID.TID 0000.0001) %MON obc_W_uVel_mean              =   3.3404902334837E-01
(PID.TID 0000.0001) %MON obc_W_uVel_sd                =   8.3300023432813E-09
(PID.TID 0000.0001) %MON obc_W_uVel_Int               =   3.3404902334837E+05
(PID.TID 0000.0001) // =======================================================
(PID.TID 0000.0001) // End OBCS MONITOR field statistics
(PID.TID 0000.0001) // =======================================================
 cg2d: Sum(rhs),rhsMax =  -8.67889093925100E-12  1.52097814268670E-01
 cg2d: Sum(rhs),rhsMax =  -8.63686899776894E-12  1.51689925208439E-01
 cg2d: Sum(rhs),rhsMax =  -8.63037419307489E-12  1.51253345573647E-01
 cg2d: Sum(rhs),rhsMax =  -8.61755111714047E-12  1.50788048424007E-01
 cg2d: Sum(rhs),rhsMax =  -8.60950200021193E-12  1.50293958950577E-01
 cg2d: Sum(rhs),rhsMax =  -8.59678994657997E-12  1.49770972207093E-01
 cg2d: Sum(rhs),rhsMax =  -8.57597326486825E-12  1.49218971760412E-01
 cg2d: Sum(rhs),rhsMax =  -8.52384829386210E-12  1.48637848193843E-01
 cg2d: Sum(rhs),rhsMax =  -8.48021652899433E-12  1.48027516596115E-01
 cg2d: Sum(rhs),rhsMax =  -8.44213587924969E-12  1.47387932232506E-01
 cg2d: Sum(rhs),rhsMax =  -8.41671177198577E-12  1.46719103693455E-01
 cg2d: Sum(rhs),rhsMax =  -8.41066105650157E-12  1.46021103040861E-01
 cg2d: Sum(rhs),rhsMax =  -8.38562552729627E-12  1.45294072663172E-01
 cg2d: Sum(rhs),rhsMax =  -8.34343705236051E-12  1.44538228743373E-01
 cg2d: Sum(rhs),rhsMax =  -8.30108204397106E-12  1.43753861426944E-01
 cg2d: Sum(rhs),rhsMax =  -8.27016233273525E-12  1.42941331959886E-01
 cg2d: Sum(rhs),rhsMax =  -8.23086043766352E-12  1.42101067240306E-01
 cg2d: Sum(rhs),rhsMax =  -8.18417555947804E-12  1.41233552202373E-01
 cg2d: Sum(rhs),rhsMax =  -8.13432654567237E-12  1.40339320728412E-01
 cg2d: Sum(rhs),rhsMax =  -8.05522315516782E-12  1.39418945709832E-01
 cg2d: Sum(rhs),rhsMax =  -8.04412092492157E-12  1.38473028893505E-01
 cg2d: Sum(rhs),rhsMax =  -7.99937893702918E-12  1.37502191080070E-01
 cg2d: Sum(rhs),rhsMax =  -8.00909338849465E-12  1.36507063125138E-01
 cg2d: Sum(rhs),rhsMax =  -8.02902189178667E-12  1.35488278152471E-01
 cg2d: Sum(rhs),rhsMax =  -8.06771316419486E-12  1.34446465224506E-01
 cg2d: Sum(rhs),rhsMax =  -8.10707057041782E-12  1.33382244587746E-01
 cg2d: Sum(rhs),rhsMax =  -8.12472311650936E-12  1.32296224492605E-01
 cg2d: Sum(rhs),rhsMax =  -8.15120193564667E-12  1.31188999486812E-01
 cg2d: Sum(rhs),rhsMax =  -8.18467515983912E-12  1.30061150003979E-01
 cg2d: Sum(rhs),rhsMax =  -8.20132850520849E-12  1.28913243017161E-01
 cg2d: Sum(rhs),rhsMax =  -8.22186763116406E-12  1.27745833503893E-01
 cg2d: Sum(rhs),rhsMax =  -8.25151058592155E-12  1.26559466472978E-01
 cg2d: Sum(rhs),rhsMax =  -8.26816393129093E-12  1.25354679330223E-01
 cg2d: Sum(rhs),rhsMax =  -8.32317548216110E-12  1.24132004401474E-01
 cg2d: Sum(rhs),rhsMax =  -8.35231883655752E-12  1.22891971478806E-01
 cg2d: Sum(rhs),rhsMax =  -8.38168423555885E-12  1.21635110304737E-01
 cg2d: Sum(rhs),rhsMax =  -8.41593461586854E-12  1.20361952959230E-01
 cg2d: Sum(rhs),rhsMax =  -8.45629122281366E-12  1.19073036098357E-01
 cg2d: Sum(rhs),rhsMax =  -8.47810710524755E-12  1.17768903106544E-01
 cg2d: Sum(rhs),rhsMax =  -8.52029558018330E-12  1.16450106103352E-01
 cg2d: Sum(rhs),rhsMax =  -8.57214299543330E-12  1.15117207752970E-01
 cg2d: Sum(rhs),rhsMax =  -8.61066773438779E-12  1.13770782835536E-01
 cg2d: Sum(rhs),rhsMax =  -8.66229310503286E-12  1.12411419520565E-01
 cg2d: Sum(rhs),rhsMax =  -8.70065131053366E-12  1.11039720268756E-01
 cg2d: Sum(rhs),rhsMax =  -8.73848216009776E-12  1.09656302285347E-01
 cg2d: Sum(rhs),rhsMax =  -8.76529404614246E-12  1.08261797462844E-01
 cg2d: Sum(rhs),rhsMax =  -8.98819907391157E-12  1.06856851778480E-01
 cg2d: Sum(rhs),rhsMax =  -8.99688656907927E-12  1.05442124155134E-01
 cg2d: Sum(rhs),rhsMax =  -9.02963814830571E-12  1.04018284821789E-01
 cg2d: Sum(rhs),rhsMax =  -8.93632390308596E-12  1.02586013257409E-01
 cg2d: Sum(rhs),rhsMax =  -9.05830965791665E-12  1.01145995863068E-01
 cg2d: Sum(rhs),rhsMax =  -9.11992703578335E-12  9.96989235111986E-02
 cg2d: Sum(rhs),rhsMax =  -9.19914144859035E-12  9.82454891286550E-02
 cg2d: Sum(rhs),rhsMax =  -9.27299903530354E-12  9.67863854629354E-02
 cg2d: Sum(rhs),rhsMax =  -9.34777255601205E-12  9.53223031595005E-02
 cg2d: Sum(rhs),rhsMax =  -9.42310118823286E-12  9.38539292444642E-02
 cg2d: Sum(rhs),rhsMax =  -9.51538847715483E-12  9.23819460720097E-02
 cg2d: Sum(rhs),rhsMax =  -9.59936297117991E-12  9.09070307239418E-02
 cg2d: Sum(rhs),rhsMax =  -9.68346236529527E-12  8.94298548299605E-02
 cg2d: Sum(rhs),rhsMax =  -9.76758951498624E-12  8.79510847483815E-02
 cg2d: Sum(rhs),rhsMax =  -9.88227555343002E-12  8.64713819929287E-02
 cg2d: Sum(rhs),rhsMax =  -9.97905230670781E-12  8.49914037708203E-02
 cg2d: Sum(rhs),rhsMax =  -1.00938701841358E-11  8.35118034910866E-02
 cg2d: Sum(rhs),rhsMax =  -1.02511263366800E-11  8.20332311081091E-02
 cg2d: Sum(rhs),rhsMax =  -1.02976446814118E-11  8.05563331823816E-02
 cg2d: Sum(rhs),rhsMax =  -1.03620402189253E-11  7.90817525678822E-02
 cg2d: Sum(rhs),rhsMax =  -1.04528330435727E-11  7.76101276726429E-02
 cg2d: Sum(rhs),rhsMax =  -1.05480069123587E-11  7.61420912846221E-02
 cg2d: Sum(rhs),rhsMax =  -1.06998784832335E-11  7.46782690059327E-02
 cg2d: Sum(rhs),rhsMax =  -1.08516390318059E-11  7.32192773997256E-02
 cg2d: Sum(rhs),rhsMax =  -1.10468717506862E-11  7.17657219691303E-02
 cg2d: Sum(rhs),rhsMax =  -1.12334030966110E-11  7.03181951565183E-02
 cg2d: Sum(rhs),rhsMax =  -1.14499520975642E-11  6.88772745728131E-02
 cg2d: Sum(rhs),rhsMax =  -1.16518739101679E-11  6.74435216461184E-02
 cg2d: Sum(rhs),rhsMax =  -1.18746679156345E-11  6.60174808891066E-02
 cg2d: Sum(rhs),rhsMax =  -1.20908283385290E-11  6.45996798927490E-02
 cg2d: Sum(rhs),rhsMax =  -1.23060450718526E-11  6.31906301192148E-02
 cg2d: Sum(rhs),rhsMax =  -1.25196242262149E-11  6.17908284971276E-02
 cg2d: Sum(rhs),rhsMax =  -1.27645116698716E-11  6.04007597469450E-02
 cg2d: Sum(rhs),rhsMax =  -1.30196409209304E-11  5.90208992932926E-02
 cg2d: Sum(rhs),rhsMax =  -1.32868160918065E-11  5.76517165545255E-02
 cg2d: Sum(rhs),rhsMax =  -1.35551014857072E-11  5.62936783613507E-02
 cg2d: Sum(rhs),rhsMax =  -1.38812294991908E-11  5.49472522375461E-02
 cg2d: Sum(rhs),rhsMax =  -1.41782141582780E-11  5.36129092759140E-02
 cg2d: Sum(rhs),rhsMax =  -1.45068956847183E-11  5.22911263702144E-02
 cg2d: Sum(rhs),rhsMax =  -1.48510093112009E-11  5.09823876101902E-02
 cg2d: Sum(rhs),rhsMax =  -1.51912926682485E-11  4.96871847187996E-02
 cg2d: Sum(rhs),rhsMax =  -1.55525592404615E-11  4.84060164954639E-02
 cg2d: Sum(rhs),rhsMax =  -1.59309232472538E-11  4.71393873151907E-02
 cg2d: Sum(rhs),rhsMax =  -1.63321578483533E-11  4.58878048197975E-02
 cg2d: Sum(rhs),rhsMax =  -1.67251767990706E-11  4.46517770137470E-02
 cg2d: Sum(rhs),rhsMax =  -1.71680447635936E-11  4.35502969343265E-02
 cg2d: Sum(rhs),rhsMax =  -1.69040337283377E-11  4.40157072949553E-02
 cg2d: Sum(rhs),rhsMax =  -1.67187375055278E-11  4.44730944091985E-02
 cg2d: Sum(rhs),rhsMax =  -1.64848135142392E-11  4.49223259267240E-02
 cg2d: Sum(rhs),rhsMax =  -1.62785340762639E-11  4.53632785610170E-02
 cg2d: Sum(rhs),rhsMax =  -1.61043400837002E-11  4.57958361693310E-02
 cg2d: Sum(rhs),rhsMax =  -1.59047219838726E-11  4.62198880996758E-02
 cg2d: Sum(rhs),rhsMax =  -1.56809010221082E-11  4.66353278206108E-02
 cg2d: Sum(rhs),rhsMax =  -1.54146695408031E-11  4.72750230246135E-02
 cg2d: Sum(rhs),rhsMax =  -1.51856305308229E-11  4.79827526904547E-02
 cg2d: Sum(rhs),rhsMax =  -1.49340539934428E-11  4.86747218136076E-02
 cg2d: Sum(rhs),rhsMax =  -1.46933576417041E-11  4.93506900320390E-02
 cg2d: Sum(rhs),rhsMax =  -1.44341205654541E-11  5.00103913832714E-02
 cg2d: Sum(rhs),rhsMax =  -1.42548195469772E-11  5.06535397662506E-02
 cg2d: Sum(rhs),rhsMax =  -1.40156775074729E-11  5.12798460396585E-02
 cg2d: Sum(rhs),rhsMax =  -1.38331568422245E-11  5.18890352601930E-02
 cg2d: Sum(rhs),rhsMax =  -1.36326505639772E-11  5.24808577690591E-02
 cg2d: Sum(rhs),rhsMax =  -1.34680044894253E-11  5.30550930554116E-02
 cg2d: Sum(rhs),rhsMax =  -1.32247546247299E-11  5.36115483120955E-02
 cg2d: Sum(rhs),rhsMax =  -1.30176980306373E-11  5.41500532168682E-02
 cg2d: Sum(rhs),rhsMax =  -1.28757005057878E-11  5.46704513047072E-02
 cg2d: Sum(rhs),rhsMax =  -1.27083898959768E-11  5.51725903775155E-02
 cg2d: Sum(rhs),rhsMax =  -1.26189059201920E-11  5.56563059247564E-02
 cg2d: Sum(rhs),rhsMax =  -1.24986687666251E-11  5.61214217549847E-02
 cg2d: Sum(rhs),rhsMax =  -1.23925314454709E-11  5.65677489807196E-02
 cg2d: Sum(rhs),rhsMax =  -1.22279963932215E-11  5.69950847272168E-02
 cg2d: Sum(rhs),rhsMax =  -1.21401777519736E-11  5.74032130410199E-02
 cg2d: Sum(rhs),rhsMax =  -1.20005116954758E-11  5.77919024977200E-02
 cg2d: Sum(rhs),rhsMax =  -1.18802745419089E-11  5.81609135895673E-02
 cg2d: Sum(rhs),rhsMax =  -1.17326148796337E-11  5.85100022596729E-02
 cg2d: Sum(rhs),rhsMax =  -1.16342491196519E-11  5.88389132069958E-02
 cg2d: Sum(rhs),rhsMax =  -1.15014664459068E-11  5.91473958583488E-02
 cg2d: Sum(rhs),rhsMax =  -1.14336318191022E-11  5.94352438226410E-02
 cg2d: Sum(rhs),rhsMax =  -1.12996279000299E-11  5.97023132051619E-02
 cg2d: Sum(rhs),rhsMax =  -1.12184705969298E-11  5.99485139319740E-02
 cg2d: Sum(rhs),rhsMax =  -1.11310960448918E-11  6.01737953420897E-02
 cg2d: Sum(rhs),rhsMax =  -1.10705888900497E-11  6.03781429969165E-02
 cg2d: Sum(rhs),rhsMax =  -1.09963149697023E-11  6.05615843954725E-02
 cg2d: Sum(rhs),rhsMax =  -1.08359987649465E-11  6.07241927259264E-02
 cg2d: Sum(rhs),rhsMax =  -1.07878150856777E-11  6.08660813536743E-02
 cg2d: Sum(rhs),rhsMax =  -1.07355235812179E-11  6.09873870811670E-02
 cg2d: Sum(rhs),rhsMax =  -1.06581410364015E-11  6.10882512093160E-02
 cg2d: Sum(rhs),rhsMax =  -1.05903064095969E-11  6.11688022088418E-02
 cg2d: Sum(rhs),rhsMax =  -1.05477848677538E-11  6.12291385755915E-02
 cg2d: Sum(rhs),rhsMax =  -1.05061515043303E-11  6.12693175811604E-02
 cg2d: Sum(rhs),rhsMax =  -1.05324637900139E-11  6.12893435846108E-02
 cg2d: Sum(rhs),rhsMax =  -1.03874686629979E-11  6.12891662350496E-02
 cg2d: Sum(rhs),rhsMax =  -1.03962394248924E-11  6.12686847264859E-02
 cg2d: Sum(rhs),rhsMax =  -1.03503872139754E-11  6.12277553762664E-02
 cg2d: Sum(rhs),rhsMax =  -1.03012043339845E-11  6.11661841596742E-02
 cg2d: Sum(rhs),rhsMax =  -1.03127506534406E-11  6.10837566733618E-02
 cg2d: Sum(rhs),rhsMax =  -1.02990949102377E-11  6.09802787272878E-02
 cg2d: Sum(rhs),rhsMax =  -1.03438368981301E-11  6.08555885367318E-02
 cg2d: Sum(rhs),rhsMax =  -1.04104502796076E-11  6.07095473576530E-02
 cg2d: Sum(rhs),rhsMax =  -1.04691810776103E-11  6.05420320665947E-02
 cg2d: Sum(rhs),rhsMax =  -1.04929398503373E-11  6.03529402090540E-02
 cg2d: Sum(rhs),rhsMax =  -1.05603303879320E-11  6.01422029284221E-02
 cg2d: Sum(rhs),rhsMax =  -1.06192832305396E-11  5.99205478042021E-02
 cg2d: Sum(rhs),rhsMax =  -1.06898934149058E-11  5.96845668842876E-02
 cg2d: Sum(rhs),rhsMax =  -1.07980291375043E-11  5.94279922730946E-02
 cg2d: Sum(rhs),rhsMax =  -1.08618669614202E-11  5.91510745364718E-02
 cg2d: Sum(rhs),rhsMax =  -1.09161568673244E-11  5.88540917157603E-02
 cg2d: Sum(rhs),rhsMax =  -1.10443876266686E-11  5.85373421132134E-02
 cg2d: Sum(rhs),rhsMax =  -1.11621822895813E-11  5.82011419691359E-02
 cg2d: Sum(rhs),rhsMax =  -1.13284936986702E-11  5.78458243975695E-02
 cg2d: Sum(rhs),rhsMax =  -1.14217524327387E-11  5.74716962865289E-02
 cg2d: Sum(rhs),rhsMax =  -1.15881748641300E-11  5.70791322043019E-02
 cg2d: Sum(rhs),rhsMax =  -1.16894272039758E-11  5.66685468066888E-02
 cg2d: Sum(rhs),rhsMax =  -1.17678089495143E-11  5.62403268277081E-02
 cg2d: Sum(rhs),rhsMax =  -1.19499965478553E-11  5.57947899095549E-02
 cg2d: Sum(rhs),rhsMax =  -1.20504717315839E-11  5.53321832928095E-02
 cg2d: Sum(rhs),rhsMax =  -1.21530563390593E-11  5.48527009842009E-02
 cg2d: Sum(rhs),rhsMax =  -1.22688526005277E-11  5.43564995209596E-02
 cg2d: Sum(rhs),rhsMax =  -1.24195098649693E-11  5.38437038921634E-02
 cg2d: Sum(rhs),rhsMax =  -1.26345600648392E-11  5.33144095505323E-02
 cg2d: Sum(rhs),rhsMax =  -1.27503563263076E-11  5.27686846272303E-02
 cg2d: Sum(rhs),rhsMax =  -1.29782851132632E-11  5.22065752949263E-02
 cg2d: Sum(rhs),rhsMax =  -1.31304966899393E-11  5.16281134456614E-02
 cg2d: Sum(rhs),rhsMax =  -1.32872601810163E-11  5.10330195948784E-02
 cg2d: Sum(rhs),rhsMax =  -1.34992017564173E-11  5.04216643614513E-02
 cg2d: Sum(rhs),rhsMax =  -1.37139188893798E-11  4.97942545662507E-02
 cg2d: Sum(rhs),rhsMax =  -1.39390721187738E-11  4.91508511900310E-02
 cg2d: Sum(rhs),rhsMax =  -1.41829881172839E-11  4.84915084342515E-02
 cg2d: Sum(rhs),rhsMax =  -1.44519951561506E-11  4.78163603334037E-02
 cg2d: Sum(rhs),rhsMax =  -1.46826995006677E-11  4.71814325656620E-02
 cg2d: Sum(rhs),rhsMax =  -1.48319134751773E-11  4.67585497728871E-02
 cg2d: Sum(rhs),rhsMax =  -1.50340850879616E-11  4.63279072498795E-02
 cg2d: Sum(rhs),rhsMax =  -1.51989532071184E-11  4.58898214443295E-02
 cg2d: Sum(rhs),rhsMax =  -1.53674850622565E-11  4.54533676724370E-02
 cg2d: Sum(rhs),rhsMax =  -1.55457868800113E-11  4.50197039556340E-02
 cg2d: Sum(rhs),rhsMax =  -1.57869273209599E-11  4.45797838718897E-02
 cg2d: Sum(rhs),rhsMax =  -1.59313673364636E-11  4.41338697082159E-02
 cg2d: Sum(rhs),rhsMax =  -1.61667346176841E-11  4.36822104455298E-02
 cg2d: Sum(rhs),rhsMax =  -1.63485891491177E-11  4.32250347457512E-02
 cg2d: Sum(rhs),rhsMax =  -1.65906177684860E-11  4.27625432911500E-02
 cg2d: Sum(rhs),rhsMax =  -1.66494595887912E-11  4.28458149422166E-02
 cg2d: Sum(rhs),rhsMax =  -1.62297952854829E-11  4.40605560968752E-02
 cg2d: Sum(rhs),rhsMax =  -1.58310031750375E-11  4.52922100013834E-02
 cg2d: Sum(rhs),rhsMax =  -1.54585233502758E-11  4.65398517082847E-02
 cg2d: Sum(rhs),rhsMax =  -1.50891521499830E-11  4.78025572709350E-02
 cg2d: Sum(rhs),rhsMax =  -1.47442058562319E-11  4.90794171010703E-02
 cg2d: Sum(rhs),rhsMax =  -1.44004808078080E-11  5.03695482196504E-02
 cg2d: Sum(rhs),rhsMax =  -1.40974454332365E-11  5.16721048597224E-02
 cg2d: Sum(rhs),rhsMax =  -1.37792000032277E-11  5.29862868704981E-02
 cg2d: Sum(rhs),rhsMax =  -1.34232625015329E-11  5.43113454698081E-02
 cg2d: Sum(rhs),rhsMax =  -1.31888944210345E-11  5.56465860419208E-02
 cg2d: Sum(rhs),rhsMax =  -1.28965726986507E-11  5.69913678564053E-02
 cg2d: Sum(rhs),rhsMax =  -1.26476606965298E-11  5.83451007871322E-02
 cg2d: Sum(rhs),rhsMax =  -1.24408261470421E-11  5.97072393039798E-02
 cg2d: Sum(rhs),rhsMax =  -1.22068466446024E-11  6.10772742024599E-02
 cg2d: Sum(rhs),rhsMax =  -1.19845244839212E-11  6.24547226819650E-02
 cg2d: Sum(rhs),rhsMax =  -1.17631182572353E-11  6.38391174483097E-02
 cg2d: Sum(rhs),rhsMax =  -1.15435161429644E-11  6.52299955764266E-02
 cg2d: Sum(rhs),rhsMax =  -1.13480613794792E-11  6.66268878515368E-02
 cg2d: Sum(rhs),rhsMax =  -1.11648468248404E-11  6.80293092360981E-02
 cg2d: Sum(rhs),rhsMax =  -1.10384479334869E-11  6.94367509949958E-02
 cg2d: Sum(rhs),rhsMax =  -1.09268843972998E-11  7.08486748661258E-02
 cg2d: Sum(rhs),rhsMax =  -1.08213160654458E-11  7.22645095022297E-02
 cg2d: Sum(rhs),rhsMax =  -1.06505984587280E-11  7.36836492477198E-02
 cg2d: Sum(rhs),rhsMax =  -1.05442321540750E-11  7.51054551571653E-02
 cg2d: Sum(rhs),rhsMax =  -1.04382717747153E-11  7.65292580584801E-02
 cg2d: Sum(rhs),rhsMax =  -1.03472421603135E-11  7.79543633449678E-02
 cg2d: Sum(rhs),rhsMax =  -1.02366982078494E-11  7.93800571137504E-02
 cg2d: Sum(rhs),rhsMax =  -1.01539540664497E-11  8.08056132621615E-02
 cg2d: Sum(rhs),rhsMax =  -1.00708053007992E-11  8.22303011569177E-02
 cg2d: Sum(rhs),rhsMax =  -9.92451953951701E-12  8.36533935120220E-02
 cg2d: Sum(rhs),rhsMax =  -9.80542730344425E-12  8.50741741428682E-02
 cg2d: Sum(rhs),rhsMax =  -9.72495695084064E-12  8.64919452988331E-02
 cg2d: Sum(rhs),rhsMax =  -9.66220159437370E-12  8.79060343093234E-02
 cg2d: Sum(rhs),rhsMax =  -9.59593515759138E-12  8.93157993065315E-02
 cg2d: Sum(rhs),rhsMax =  -9.46942524393535E-12  9.07206338134990E-02
 cg2d: Sum(rhs),rhsMax =  -9.38708832887158E-12  9.21199700114164E-02
 cg2d: Sum(rhs),rhsMax =  -9.33822463800027E-12  9.35132805293374E-02
 cg2d: Sum(rhs),rhsMax =  -9.26955734392720E-12  9.49000786808085E-02
 cg2d: Sum(rhs),rhsMax =  -9.21765441752598E-12  9.62799170796909E-02
 cg2d: Sum(rhs),rhsMax =  -9.15875708606961E-12  9.76523846721376E-02
 cg2d: Sum(rhs),rhsMax =  -9.11626329980209E-12  9.90171023158034E-02
 cg2d: Sum(rhs),rhsMax =  -9.05445163290608E-12  1.00373717101444E-01
 cg2d: Sum(rhs),rhsMax =  -9.00801655490113E-12  1.01721895732434E-01
 cg2d: Sum(rhs),rhsMax =  -8.91411944259346E-12  1.03061317327124E-01
 cg2d: Sum(rhs),rhsMax =  -8.85252982030238E-12  1.04391666056512E-01
 cg2d: Sum(rhs),rhsMax =  -8.79721295810043E-12  1.05712624038649E-01
 cg2d: Sum(rhs),rhsMax =  -8.74125771765932E-12  1.07023864898229E-01
 cg2d: Sum(rhs),rhsMax =  -8.68513594376452E-12  1.08325048348112E-01
 cg2d: Sum(rhs),rhsMax =  -8.62712679072786E-12  1.09615816071169E-01
 cg2d: Sum(rhs),rhsMax =  -8.56276161087521E-12  1.10895789070459E-01
 cg2d: Sum(rhs),rhsMax =  -8.51996251327591E-12  1.12164566535262E-01
 cg2d: Sum(rhs),rhsMax =  -8.46256398290279E-12  1.13421726147994E-01
 cg2d: Sum(rhs),rhsMax =  -8.41576808241484E-12  1.14666825643384E-01
 cg2d: Sum(rhs),rhsMax =  -8.35215230310382E-12  1.15899405337365E-01
 cg2d: Sum(rhs),rhsMax =  -8.29764035259473E-12  1.17118991277284E-01
 cg2d: Sum(rhs),rhsMax =  -8.24318391323686E-12  1.18325098632678E-01
 cg2d: Sum(rhs),rhsMax =  -8.19116996453317E-12  1.19517234948751E-01
 cg2d: Sum(rhs),rhsMax =  -8.01014810036804E-12  1.20694902921021E-01
 cg2d: Sum(rhs),rhsMax =  -7.98200394669379E-12  1.21857602415174E-01
 cg2d: Sum(rhs),rhsMax =  -7.95108423545798E-12  1.23004831544383E-01
 cg2d: Sum(rhs),rhsMax =  -7.91355869722565E-12  1.24136086719697E-01
 cg2d: Sum(rhs),rhsMax =  -7.89235343745531E-12  1.25250861698628E-01
 cg2d: Sum(rhs),rhsMax =  -7.85749243448208E-12  1.26348645763773E-01
 cg2d: Sum(rhs),rhsMax =  -7.82823805778321E-12  1.27428921257548E-01
 cg2d: Sum(rhs),rhsMax =  -7.79692976848878E-12  1.28491160773170E-01
 cg2d: Sum(rhs),rhsMax =  -7.75080000181561E-12  1.29534824343739E-01
 cg2d: Sum(rhs),rhsMax =  -7.73281438881668E-12  1.30559356985551E-01
 cg2d: Sum(rhs),rhsMax =  -7.70233876679072E-12  1.31564186928820E-01
 cg2d: Sum(rhs),rhsMax =  -7.64949215081856E-12  1.32548724822712E-01
 cg2d: Sum(rhs),rhsMax =  -7.63294982775164E-12  1.33512364120350E-01
 cg2d: Sum(rhs),rhsMax =  -7.61435359208917E-12  1.34454482763021E-01
 cg2d: Sum(rhs),rhsMax =  -7.56716911354260E-12  1.35374446195018E-01
 cg2d: Sum(rhs),rhsMax =  -7.53802575914619E-12  1.36271611655583E-01
 cg2d: Sum(rhs),rhsMax =  -7.48962003527254E-12  1.37145333618719E-01
 cg2d: Sum(rhs),rhsMax =  -7.47674144818689E-12  1.37994970187091E-01
 cg2d: Sum(rhs),rhsMax =  -7.47929496114352E-12  1.38819890194075E-01
 cg2d: Sum(rhs),rhsMax =  -7.50094431012371E-12  1.39619480727140E-01
 cg2d: Sum(rhs),rhsMax =  -7.49850181946954E-12  1.40393154756405E-01
 cg2d: Sum(rhs),rhsMax =  -7.49439399427843E-12  1.41140358535597E-01
 cg2d: Sum(rhs),rhsMax =  -7.50133288818233E-12  1.41860578439567E-01
 cg2d: Sum(rhs),rhsMax =  -7.49639239572275E-12  1.42553346912534E-01
 cg2d: Sum(rhs),rhsMax =  -7.49622586226906E-12  1.43218247232628E-01
 cg2d: Sum(rhs),rhsMax =  -7.50066675436756E-12  1.43854916841051E-01
 cg2d: Sum(rhs),rhsMax =  -7.50915996050594E-12  1.44463049021673E-01
 cg2d: Sum(rhs),rhsMax =  -7.52353734867484E-12  1.45042392814679E-01
 cg2d: Sum(rhs),rhsMax =  -7.52820028537826E-12  1.45592751138240E-01
 cg2d: Sum(rhs),rhsMax =  -7.53458406776986E-12  1.46113977182775E-01
 cg2d: Sum(rhs),rhsMax =  -7.53735962533142E-12  1.46605969243105E-01
 cg2d: Sum(rhs),rhsMax =  -7.54657447643581E-12  1.47068664248173E-01
 cg2d: Sum(rhs),rhsMax =  -7.55495666027173E-12  1.47502030326417E-01
 cg2d: Sum(rhs),rhsMax =  -7.58487717078538E-12  1.47906058799550E-01
 cg2d: Sum(rhs),rhsMax =  -7.60042029313013E-12  1.48280756024324E-01
 cg2d: Sum(rhs),rhsMax =  -7.68740626710951E-12  1.48626135499963E-01
 cg2d: Sum(rhs),rhsMax =  -7.75446373779687E-12  1.48942210630062E-01
 cg2d: Sum(rhs),rhsMax =  -7.80692177571041E-12  1.49228988474795E-01
 cg2d: Sum(rhs),rhsMax =  -7.83267894988171E-12  1.49486464755337E-01
 cg2d: Sum(rhs),rhsMax =  -7.85010945136833E-12  1.49714620259622E-01
 cg2d: Sum(rhs),rhsMax =  -7.87547804748101E-12  1.49913418806521E-01
 cg2d: Sum(rhs),rhsMax =  -7.89995846517400E-12  1.50082806692335E-01
 cg2d: Sum(rhs),rhsMax =  -7.91139376232763E-12  1.50222713486900E-01
 cg2d: Sum(rhs),rhsMax =  -7.93204391058566E-12  1.50333054033297E-01
 cg2d: Sum(rhs),rhsMax =  -7.94103671708513E-12  1.50413731433809E-01
 cg2d: Sum(rhs),rhsMax =  -7.92838017460440E-12  1.50464640782048E-01
 cg2d: Sum(rhs),rhsMax =  -7.93687338074278E-12  1.50485673434450E-01
 cg2d: Sum(rhs),rhsMax =  -7.92532706128668E-12  1.50476721510303E-01
 cg2d: Sum(rhs),rhsMax =  -7.94186938435359E-12  1.50437682491471E-01
 cg2d: Sum(rhs),rhsMax =  -7.94625476530086E-12  1.50368463774388E-01
 cg2d: Sum(rhs),rhsMax =  -7.96412935599733E-12  1.50268987036757E-01
 cg2d: Sum(rhs),rhsMax =  -8.01303468023207E-12  1.50139192304670E-01
 cg2d: Sum(rhs),rhsMax =  -7.94742049947672E-12  1.49979041621385E-01
 cg2d: Sum(rhs),rhsMax =  -7.89002196910360E-12  1.49788522234468E-01
 cg2d: Sum(rhs),rhsMax =  -7.82396369913840E-12  1.49567649200606E-01
 cg2d: Sum(rhs),rhsMax =  -7.74935671188359E-12  1.49316467337213E-01
 cg2d: Sum(rhs),rhsMax =  -7.66897656490073E-12  1.49035052445492E-01
 cg2d: Sum(rhs),rhsMax =  -7.64099894468018E-12  1.48723511731712E-01
 cg2d: Sum(rhs),rhsMax =  -7.59420304419223E-12  1.48381983370929E-01
 cg2d: Sum(rhs),rhsMax =  -7.53624940230679E-12  1.48010635186655E-01
 cg2d: Sum(rhs),rhsMax =  -7.50366435653405E-12  1.47609662460562E-01
 cg2d: Sum(rhs),rhsMax =  -7.47940598344599E-12  1.47179284936358E-01
 cg2d: Sum(rhs),rhsMax =  -7.45198347473774E-12  1.46719743138559E-01
 cg2d: Sum(rhs),rhsMax =  -7.43199946029449E-12  1.46231294186436E-01
 cg2d: Sum(rhs),rhsMax =  -7.38453742599177E-12  1.45714207292375E-01
 cg2d: Sum(rhs),rhsMax =  -7.36488647845590E-12  1.45168759366071E-01
 cg2d: Sum(rhs),rhsMax =  -7.30981941643449E-12  1.44595230975948E-01
 cg2d: Sum(rhs),rhsMax =  -7.27212734474847E-12  1.43993902978867E-01
 cg2d: Sum(rhs),rhsMax =  -7.21905868417139E-12  1.43365054166723E-01
 cg2d: Sum(rhs),rhsMax =  -7.18369808083708E-12  1.42708960236470E-01
 cg2d: Sum(rhs),rhsMax =  -7.18741732796957E-12  1.42025894309753E-01
 cg2d: Sum(rhs),rhsMax =  -7.14989178973724E-12  1.41316129110924E-01
 cg2d: Sum(rhs),rhsMax =  -7.09671210685769E-12  1.40579940777445E-01
 cg2d: Sum(rhs),rhsMax =  -7.10265180003944E-12  1.39817614128798E-01
 cg2d: Sum(rhs),rhsMax =  -7.10598246911331E-12  1.39029449076407E-01
 cg2d: Sum(rhs),rhsMax =  -7.11253278495860E-12  1.38215767755054E-01
 cg2d: Sum(rhs),rhsMax =  -7.13190617673831E-12  1.37376921724585E-01
 cg2d: Sum(rhs),rhsMax =  -7.13384906703141E-12  1.36513298755462E-01
 cg2d: Sum(rhs),rhsMax =  -7.14300840698456E-12  1.35625328568484E-01
 cg2d: Sum(rhs),rhsMax =  -7.16343651063767E-12  1.34713487060082E-01
 cg2d: Sum(rhs),rhsMax =  -7.16410264445244E-12  1.33778298605341E-01
 cg2d: Sum(rhs),rhsMax =  -7.17248482828836E-12  1.32820336180442E-01
 cg2d: Sum(rhs),rhsMax =  -7.19596604525918E-12  1.31840219220059E-01
 cg2d: Sum(rhs),rhsMax =  -7.19274639848777E-12  1.30838609298673E-01
 cg2d: Sum(rhs),rhsMax =  -7.20590254132958E-12  1.29816203879963E-01
 cg2d: Sum(rhs),rhsMax =  -7.21472881437535E-12  1.28773728503915E-01
 cg2d: Sum(rhs),rhsMax =  -7.23815452019494E-12  1.27711927872545E-01
 cg2d: Sum(rhs),rhsMax =  -7.23748838638016E-12  1.26631556350894E-01
 cg2d: Sum(rhs),rhsMax =  -7.25230986375891E-12  1.25533368420887E-01
 cg2d: Sum(rhs),rhsMax =  -7.25908222420912E-12  1.24418109606231E-01
 cg2d: Sum(rhs),rhsMax =  -7.28028748397946E-12  1.23286508340803E-01
 cg2d: Sum(rhs),rhsMax =  -7.28123117355040E-12  1.22139269172537E-01
 cg2d: Sum(rhs),rhsMax =  -7.30610016930200E-12  1.20977067599913E-01
 cg2d: Sum(rhs),rhsMax =  -7.31442684198669E-12  1.19800546723194E-01
 cg2d: Sum(rhs),rhsMax =  -7.32081062437828E-12  1.18610315760190E-01
 cg2d: Sum(rhs),rhsMax =  -7.36469218942659E-12  1.17406950376263E-01
 cg2d: Sum(rhs),rhsMax =  -7.38806238409495E-12  1.16190994653701E-01
 cg2d: Sum(rhs),rhsMax =  -7.42914063600608E-12  1.14962964556439E-01
 cg2d: Sum(rhs),rhsMax =  -7.46189221523252E-12  1.13723352552256E-01
 cg2d: Sum(rhs),rhsMax =  -7.49719730741560E-12  1.12472633043539E-01
 cg2d: Sum(rhs),rhsMax =  -7.52206630316721E-12  1.11211268259312E-01
 cg2d: Sum(rhs),rhsMax =  -7.54671325431389E-12  1.09939714255842E-01
 cg2d: Sum(rhs),rhsMax =  -7.58618168283931E-12  1.08658426676856E-01
 cg2d: Sum(rhs),rhsMax =  -7.61704588292389E-12  1.07367865945949E-01
 cg2d: Sum(rhs),rhsMax =  -7.64346919090997E-12  1.06068501607825E-01
 cg2d: Sum(rhs),rhsMax =  -7.66972596544235E-12  1.04760815573303E-01
 cg2d: Sum(rhs),rhsMax =  -7.69573293979420E-12  1.03445304092931E-01
 cg2d: Sum(rhs),rhsMax =  -7.73295316669476E-12  1.02122478392553E-01
 cg2d: Sum(rhs),rhsMax =  -7.76503861210642E-12  1.00792863979774E-01
 cg2d: Sum(rhs),rhsMax =  -7.79346032153683E-12  9.94569987335674E-02
 cg2d: Sum(rhs),rhsMax =  -7.82854336911498E-12  9.81154299945061E-02
 cg2d: Sum(rhs),rhsMax =  -7.87274412328287E-12  9.67687109699826E-02
 cg2d: Sum(rhs),rhsMax =  -7.89887599772499E-12  9.54173968447547E-02
 cg2d: Sum(rhs),rhsMax =  -7.92545196137695E-12  9.40620410313261E-02
 cg2d: Sum(rhs),rhsMax =  -8.02924393639159E-12  9.27031919976003E-02
 cg2d: Sum(rhs),rhsMax =  -8.06660294117023E-12  9.13413910741143E-02
 cg2d: Sum(rhs),rhsMax =  -8.10213701685214E-12  8.99771715433726E-02
 cg2d: Sum(rhs),rhsMax =  -8.14646267111030E-12  8.86110592015535E-02
 cg2d: Sum(rhs),rhsMax =  -8.17514805850905E-12  8.72435744608373E-02
 cg2d: Sum(rhs),rhsMax =  -8.21996984368134E-12  8.58752358744137E-02
 cg2d: Sum(rhs),rhsMax =  -8.26394855324430E-12  8.45065648077248E-02
 cg2d: Sum(rhs),rhsMax =  -8.30293472864341E-12  8.31380908401576E-02
 cg2d: Sum(rhs),rhsMax =  -8.35957345013405E-12  8.17703573731957E-02
 cg2d: Sum(rhs),rhsMax =  -8.40846142713403E-12  8.04039268545288E-02
 cg2d: Sum(rhs),rhsMax =  -8.45398751003756E-12  7.90393850114817E-02
 cg2d: Sum(rhs),rhsMax =  -8.49839643102257E-12  7.76773435263664E-02
 cg2d: Sum(rhs),rhsMax =  -8.58368931488940E-12  7.63184406811750E-02
 cg2d: Sum(rhs),rhsMax =  -8.71751282272015E-12  7.49633396462927E-02
 cg2d: Sum(rhs),rhsMax =  -8.82732775764339E-12  7.36127242759167E-02
 cg2d: Sum(rhs),rhsMax =  -8.88625284467537E-12  7.22672924544180E-02
 cg2d: Sum(rhs),rhsMax =  -8.94950780150339E-12  7.09277473098421E-02
 cg2d: Sum(rhs),rhsMax =  -9.03238595029165E-12  6.95947867925301E-02
 cg2d: Sum(rhs),rhsMax =  -9.18107256886458E-12  6.82690922871028E-02
 cg2d: Sum(rhs),rhsMax =  -9.32703914102717E-12  6.69513170753893E-02
 cg2d: Sum(rhs),rhsMax =  -9.46140388258243E-12  6.56420754994573E-02
 cg2d: Sum(rhs),rhsMax =  -9.52965484302126E-12  6.43419336771690E-02
 cg2d: Sum(rhs),rhsMax =  -9.63407131848726E-12  6.30514025491012E-02
 cg2d: Sum(rhs),rhsMax =  -9.80621139845539E-12  6.17709338956725E-02
 cg2d: Sum(rhs),rhsMax =  -9.89791582028943E-12  6.05009197688458E-02
 cg2d: Sum(rhs),rhsMax =  -1.00724983909117E-11  5.92416955378911E-02
 cg2d: Sum(rhs),rhsMax =  -1.02075570218574E-11  5.79935464923973E-02
 cg2d: Sum(rhs),rhsMax =  -1.03930752892722E-11  5.67567176798786E-02
 cg2d: Sum(rhs),rhsMax =  -1.06049613535220E-11  5.55314264057081E-02
 cg2d: Sum(rhs),rhsMax =  -1.07582276420715E-11  5.43178766168810E-02
 cg2d: Sum(rhs),rhsMax =  -1.09469100451065E-11  5.31162742492456E-02
 cg2d: Sum(rhs),rhsMax =  -1.11582965089951E-11  5.19268425531614E-02
 cg2d: Sum(rhs),rhsMax =  -1.13360432152376E-11  5.07498364278067E-02
 cg2d: Sum(rhs),rhsMax =  -1.15558673741134E-11  4.95855548836862E-02
 cg2d: Sum(rhs),rhsMax =  -1.18003384841359E-11  4.84343509044749E-02
 cg2d: Sum(rhs),rhsMax =  -1.20792265079217E-11  4.72966381781834E-02
 cg2d: Sum(rhs),rhsMax =  -1.22826193660330E-11  4.61728943970795E-02
 cg2d: Sum(rhs),rhsMax =  -1.25778276682809E-11  4.50636610681073E-02
 cg2d: Sum(rhs),rhsMax =  -1.24551480240598E-11  4.51616279902244E-02
 cg2d: Sum(rhs),rhsMax =  -1.23208110380801E-11  4.56047163953841E-02
 cg2d: Sum(rhs),rhsMax =  -1.22513110767386E-11  4.60411210530534E-02
 cg2d: Sum(rhs),rhsMax =  -1.21137544439875E-11  4.64706890763877E-02
 cg2d: Sum(rhs),rhsMax =  -1.19362297823500E-11  4.68932075117328E-02
 cg2d: Sum(rhs),rhsMax =  -1.17857945625133E-11  4.73084082791826E-02
 cg2d: Sum(rhs),rhsMax =  -1.16626708290823E-11  4.77159786987204E-02
 cg2d: Sum(rhs),rhsMax =  -1.15667475597547E-11  4.81155766045313E-02
 cg2d: Sum(rhs),rhsMax =  -1.14290799047012E-11  4.85880304526979E-02
 cg2d: Sum(rhs),rhsMax =  -1.12853060230123E-11  4.91978945672476E-02
 cg2d: Sum(rhs),rhsMax =  -1.10595976821060E-11  4.97936234321795E-02
 cg2d: Sum(rhs),rhsMax =  -1.08931752507146E-11  5.03745384451072E-02
 cg2d: Sum(rhs),rhsMax =  -1.07417408301558E-11  5.09400155966642E-02
 cg2d: Sum(rhs),rhsMax =  -1.06394892895878E-11  5.14889894093965E-02
 cg2d: Sum(rhs),rhsMax =  -1.04672936984684E-11  5.20219369836655E-02
 cg2d: Sum(rhs),rhsMax =  -1.03475006341114E-11  5.25384458114501E-02
 cg2d: Sum(rhs),rhsMax =  -1.02098329790579E-11  5.30380475610435E-02
 cg2d: Sum(rhs),rhsMax =  -1.01074704161874E-11  5.35198696371862E-02
 cg2d: Sum(rhs),rhsMax =  -9.95048488050543E-12  5.39845866594019E-02
 cg2d: Sum(rhs),rhsMax =  -9.83169101687054E-12  5.44320602460656E-02
 cg2d: Sum(rhs),rhsMax =  -9.68403135459539E-12  5.48620932972125E-02
 cg2d: Sum(rhs),rhsMax =  -9.61253299180953E-12  5.52740599602814E-02
 cg2d: Sum(rhs),rhsMax =  -9.44888611797978E-12  5.56687653108072E-02
 cg2d: Sum(rhs),rhsMax =  -9.39603950200762E-12  5.60461756279671E-02
 cg2d: Sum(rhs),rhsMax =  -9.25493015557777E-12  5.64061414819139E-02
 cg2d: Sum(rhs),rhsMax =  -9.15489906105904E-12  5.67480467134292E-02
 cg2d: Sum(rhs),rhsMax =  -9.17432796398998E-12  5.70726005109256E-02
 cg2d: Sum(rhs),rhsMax =  -9.04509800392361E-12  5.73796643418462E-02
 cg2d: Sum(rhs),rhsMax =  -9.00024499372876E-12  5.76689663532912E-02
 cg2d: Sum(rhs),rhsMax =  -8.90920670570949E-12  5.79397674300730E-02
 cg2d: Sum(rhs),rhsMax =  -8.85969075881121E-12  5.81925999704416E-02
 cg2d: Sum(rhs),rhsMax =  -8.79341044424109E-12  5.84271997628754E-02
 cg2d: Sum(rhs),rhsMax =  -8.80451267448734E-12  5.86431979986446E-02
 cg2d: Sum(rhs),rhsMax =  -8.75188810312011E-12  5.88398175480785E-02
 cg2d: Sum(rhs),rhsMax =  -8.69193605979035E-12  5.90175498914216E-02
 cg2d: Sum(rhs),rhsMax =  -8.69204708209281E-12  5.91761634971824E-02
 cg2d: Sum(rhs),rhsMax =  -8.64774918341027E-12  5.93149200297973E-02
 cg2d: Sum(rhs),rhsMax =  -8.64885940643489E-12  5.94343014324914E-02
 cg2d: Sum(rhs),rhsMax =  -8.50741699309765E-12  5.95341314944686E-02
 cg2d: Sum(rhs),rhsMax =  -8.51008152835675E-12  5.96137831806211E-02
 cg2d: Sum(rhs),rhsMax =  -8.52840020826306E-12  5.96738315017356E-02
 cg2d: Sum(rhs),rhsMax =  -8.43314307275023E-12  5.97142166050792E-02
 cg2d: Sum(rhs),rhsMax =  -8.46156478218063E-12  5.97344296601987E-02
 cg2d: Sum(rhs),rhsMax =  -8.47077963328502E-12  5.97351053487284E-02
 cg2d: Sum(rhs),rhsMax =  -8.39361913307357E-12  5.97162394161290E-02
 cg2d: Sum(rhs),rhsMax =  -8.42192982020151E-12  5.96773664747864E-02
 cg2d: Sum(rhs),rhsMax =  -8.45779002389691E-12  5.96191061971319E-02
 cg2d: Sum(rhs),rhsMax =  -8.51951842406606E-12  5.95414445975370E-02
 cg2d: Sum(rhs),rhsMax =  -8.51896331255375E-12  5.94439139823191E-02
 cg2d: Sum(rhs),rhsMax =  -8.46989145486532E-12  5.93270992516150E-02
 cg2d: Sum(rhs),rhsMax =  -8.51896331255375E-12  5.91909775314578E-02
 cg2d: Sum(rhs),rhsMax =  -8.55104875796542E-12  5.90350919170118E-02
 cg2d: Sum(rhs),rhsMax =  -8.55626680618116E-12  5.88599514333881E-02
 cg2d: Sum(rhs),rhsMax =  -8.68216609717365E-12  5.86652252391773E-02
 cg2d: Sum(rhs),rhsMax =  -8.75743921824323E-12  5.84514660467743E-02
 cg2d: Sum(rhs),rhsMax =  -8.86801743149590E-12  5.82186059079396E-02
 cg2d: Sum(rhs),rhsMax =  -8.97526497567469E-12  5.79661777279421E-02
 cg2d: Sum(rhs),rhsMax =  -9.09206043786526E-12  5.76947224655325E-02
 cg2d: Sum(rhs),rhsMax =  -9.13469300201086E-12  5.74039174360479E-02
 cg2d: Sum(rhs),rhsMax =  -9.15545417257135E-12  5.70943267107745E-02
 cg2d: Sum(rhs),rhsMax =  -9.24005316704779E-12  5.67659879705970E-02
 cg2d: Sum(rhs),rhsMax =  -9.34730071122658E-12  5.64185995772546E-02
 cg2d: Sum(rhs),rhsMax =  -9.42468325604295E-12  5.60528313204877E-02
 cg2d: Sum(rhs),rhsMax =  -9.54247791895568E-12  5.56685407792010E-02
 cg2d: Sum(rhs),rhsMax =  -9.64339719189411E-12  5.52664296494668E-02
 cg2d: Sum(rhs),rhsMax =  -9.76063674329453E-12  5.48463814427284E-02
 cg2d: Sum(rhs),rhsMax =  -9.86166703853542E-12  5.44091179134576E-02
 cg2d: Sum(rhs),rhsMax =  -9.98967575327470E-12  5.39545701367726E-02
 cg2d: Sum(rhs),rhsMax =  -1.01271213637233E-11  5.34834872427767E-02
 cg2d: Sum(rhs),rhsMax =  -1.02440278482163E-11  5.29958352884943E-02
 cg2d: Sum(rhs),rhsMax =  -1.04101172127002E-11  5.24923594349337E-02
 cg2d: Sum(rhs),rhsMax =  -1.05433439756553E-11  5.19730193919932E-02
 cg2d: Sum(rhs),rhsMax =  -1.07479580790937E-11  5.14385228548405E-02
 cg2d: Sum(rhs),rhsMax =  -1.08502096196617E-11  5.08888007094990E-02
 cg2d: Sum(rhs),rhsMax =  -1.09875442078078E-11  5.03245104175412E-02
 cg2d: Sum(rhs),rhsMax =  -1.11015641124368E-11  4.97455504530568E-02
 cg2d: Sum(rhs),rhsMax =  -1.13292708547874E-11  4.91525358048159E-02
 cg2d: Sum(rhs),rhsMax =  -1.15075726725422E-11  4.85909855659373E-02
 cg2d: Sum(rhs),rhsMax =  -1.15893961094571E-11  4.82178423720602E-02
 cg2d: Sum(rhs),rhsMax =  -1.17165166457767E-11  4.78367765240101E-02
 cg2d: Sum(rhs),rhsMax =  -1.18837162332852E-11  4.74479767916747E-02
 cg2d: Sum(rhs),rhsMax =  -1.20309318063505E-11  4.70516329680294E-02
 cg2d: Sum(rhs),rhsMax =  -1.20924381619147E-11  4.66479263663546E-02
 cg2d: Sum(rhs),rhsMax =  -1.22249987910550E-11  4.62370207511638E-02
(PID.TID 0000.0001)      cg2d_init_res =   1.30259049119716E-01
(PID.TID 0000.0001)      cg2d_iters(min,last) =      -1      38
(PID.TID 0000.0001)      cg2d_last_res =   4.20709980808044E-14
(PID.TID 0000.0001) // =======================================================
(PID.TID 0000.0001) // Begin MONITOR dynamic field statistics
(PID.TID 0000.0001) // =======================================================
(PID.TID 0000.0001) %MON time_tsnumber                =                  7200
(PID.TID 0000.0001) %MON time_secondsf                =   1.0800000000000E+05
(PID.TID 0000.0001) %MON dynstat_eta_max              =   1.0647870875620E-02
(PID.TID 0000.0001) %MON dynstat_eta_min              =  -1.3688418290853E-02
(PID.TID 0000.0001) %MON dynstat_eta_mean             =   1.2163307368250E-15
(PID.TID 0000.0001) %MON dynstat_eta_sd               =   9.3915993326979E-03
(PID.TID 0000.0001) %MON dynstat_eta_del2             =   2.5628933542891E-05
(PID.TID 0000.0001) %MON dynstat_uvel_max             =   1.2961512796658E+00
(PID.TID 0000.0001) %MON dynstat_uvel_min             =  -9.1926427980317E-01
(PID.TID 0000.0001) %MON dynstat_uvel_mean            =   3.3935036896231E-01
(PID.TID 0000.0001) %MON dynstat_uvel_sd              =   1.7680118799052E-01
(PID.TID 0000.0001) %MON dynstat_uvel_del2            =   7.2691789324435E-04
(PID.TID 0000.0001) %MON dynstat_vvel_max             =   0.0000000000000E+00
(PID.TID 0000.0001) %MON dynstat_vvel_min             =   0.0000000000000E+00
(PID.TID 0000.0001) %MON dynstat_vvel_mean            =   0.0000000000000E+00
(PID.TID 0000.0001) %MON dynstat_vvel_sd              =   0.0000000000000E+00
(PID.TID 0000.0001) %MON dynstat_vvel_del2            =   0.0000000000000E+00
(PID.TID 0000.0001) %MON dynstat_wvel_max             =   2.7159210325276E-02
(PID.TID 0000.0001) %MON dynstat_wvel_min             =  -2.6934516161529E-02
(PID.TID 0000.0001) %MON dynstat_wvel_mean            =  -1.5750146742656E-20
(PID.TID 0000.0001) %MON dynstat_wvel_sd              =   2.0351344084964E-03
(PID.TID 0000.0001) %MON dynstat_wvel_del2            =   5.4390474781669E-05
(PID.TID 0000.0001) %MON dynstat_theta_max            =   1.5000000000011E+01
(PID.TID 0000.0001) %MON dynstat_theta_min            =   9.9999999999901E+00
(PID.TID 0000.0001) %MON dynstat_theta_mean           =   1.3159747362079E+01
(PID.TID 0000.0001) %MON dynstat_theta_sd             =   2.2613676556469E+00
(PID.TID 0000.0001) %MON dynstat_theta_del2           =   1.1376202067653E-03
(PID.TID 0000.0001) %MON dynstat_salt_max             =   3.5000000000000E+01
(PID.TID 0000.0001) %MON dynstat_salt_min             =   3.5000000000000E+01
(PID.TID 0000.0001) %MON dynstat_salt_mean            =   3.5000000000000E+01
(PID.TID 0000.0001) %MON dynstat_salt_sd              =   2.1316282072803E-14
(PID.TID 0000.0001) %MON dynstat_salt_del2            =   0.0000000000000E+00
(PID.TID 0000.0001) %MON dynstat_sst_max              =   1.5000000000000E+01
(PID.TID 0000.0001) %MON dynstat_sst_min              =   1.4999999999985E+01
(PID.TID 0000.0001) %MON dynstat_sst_mean             =   1.4999999999994E+01
(PID.TID 0000.0001) %MON dynstat_sst_sd               =   4.6487862570688E-12
(PID.TID 0000.0001) %MON dynstat_sst_del2             =   2.2641220192832E-14
(PID.TID 0000.0001) %MON dynstat_sss_max              =   3.5000000000000E+01
(PID.TID 0000.0001) %MON dynstat_sss_min              =   3.5000000000000E+01
(PID.TID 0000.0001) %MON dynstat_sss_mean             =   3.5000000000000E+01
(PID.TID 0000.0001) %MON dynstat_sss_sd               =   7.8159700933611E-14
(PID.TID 0000.0001) %MON dynstat_sss_del2             =   0.0000000000000E+00
(PID.TID 0000.0001) %MON forcing_qnet_max             =   0.0000000000000E+00
(PID.TID 0000.0001) %MON forcing_qnet_min             =   0.0000000000000E+00
(PID.TID 0000.0001) %MON forcing_qnet_mean            =   0.0000000000000E+00
(PID.TID 0000.0001) %MON forcing_qnet_sd              =   0.0000000000000E+00
(PID.TID 0000.0001) %MON forcing_qnet_del2            =   0.0000000000000E+00
(PID.TID 0000.0001) %MON forcing_qsw_max              =   0.0000000000000E+00
(PID.TID 0000.0001) %MON forcing_qsw_min              =   0.0000000000000E+00
(PID.TID 0000.0001) %MON forcing_qsw_mean             =   0.0000000000000E+00
(PID.TID 0000.0001) %MON forcing_qsw_sd               =   0.0000000000000E+00
(PID.TID 0000.0001) %MON forcing_qsw_del2             =   0.0000000000000E+00
(PID.TID 0000.0001) %MON forcing_empmr_max            =   0.0000000000000E+00
(PID.TID 0000.0001) %MON forcing_empmr_min            =   0.0000000000000E+00
(PID.TID 0000.0001) %MON forcing_empmr_mean           =   0.0000000000000E+00
(PID.TID 0000.0001) %MON forcing_empmr_sd             =   0.0000000000000E+00
(PID.TID 0000.0001) %MON forcing_empmr_del2           =   0.0000000000000E+00
(PID.TID 0000.0001) %MON forcing_fu_max               =   0.0000000000000E+00
(PID.TID 0000.0001) %MON forcing_fu_min               =   0.0000000000000E+00
(PID.TID 0000.0001) %MON forcing_fu_mean              =   0.0000000000000E+00
(PID.TID 0000.0001) %MON forcing_fu_sd                =   0.0000000000000E+00
(PID.TID 0000.0001) %MON forcing_fu_del2              =   0.0000000000000E+00
(PID.TID 0000.0001) %MON forcing_fv_max               =   0.0000000000000E+00
(PID.TID 0000.0001) %MON forcing_fv_min               =   0.0000000000000E+00
(PID.TID 0000.0001) %MON forcing_fv_mean              =   0.0000000000000E+00
(PID.TID 0000.0001) %MON forcing_fv_sd                =   0.0000000000000E+00
(PID.TID 0000.0001) %MON forcing_fv_del2              =   0.0000000000000E+00
(PID.TID 0000.0001) %MON advcfl_uvel_max              =   9.7211345974936E-02
(PID.TID 0000.0001) %MON advcfl_vvel_max              =   0.0000000000000E+00
(PID.TID 0000.0001) %MON advcfl_wvel_max              =   3.3865733891400E-01
(PID.TID 0000.0001) %MON advcfl_W_hf_max              =   3.4299004659160E-01
(PID.TID 0000.0001) %MON pe_b_mean                    =   2.2035646720722E-06
(PID.TID 0000.0001) %MON ke_max                       =   5.0929339110545E-01
(PID.TID 0000.0001) %MON ke_mean                      =   7.3369732639751E-02
(PID.TID 0000.0001) %MON ke_vol                       =   9.5889217545975E+10
(PID.TID 0000.0001) %MON vort_r_min                   =   0.0000000000000E+00
(PID.TID 0000.0001) %MON vort_r_max                   =   0.0000000000000E+00
(PID.TID 0000.0001) %MON vort_a_mean                  =   0.0000000000000E+00
(PID.TID 0000.0001) %MON vort_a_sd                    =   0.0000000000000E+00
(PID.TID 0000.0001) %MON vort_p_mean                  =   0.0000000000000E+00
(PID.TID 0000.0001) %MON vort_p_sd                    =   0.0000000000000E+00
(PID.TID 0000.0001) %MON surfExpan_theta_mean         =   2.5964206571980E-17
(PID.TID 0000.0001) %MON surfExpan_salt_mean          =  -2.0651626790261E-18
(PID.TID 0000.0001) // =======================================================
(PID.TID 0000.0001) // End MONITOR dynamic field statistics
(PID.TID 0000.0001) // =======================================================
(PID.TID 0000.0001) // =======================================================
(PID.TID 0000.0001) // Begin OBCS MONITOR field statistics
(PID.TID 0000.0001) // =======================================================
(PID.TID 0000.0001) %MON obc_E_uVel_max               =   3.3404902334837E-01
(PID.TID 0000.0001) %MON obc_E_uVel_min               =   3.3404902334837E-01
(PID.TID 0000.0001) %MON obc_E_uVel_mean              =   3.3404902334837E-01
(PID.TID 0000.0001) %MON obc_E_uVel_sd                =   8.3300023432813E-09
(PID.TID 0000.0001) %MON obc_E_uVel_Int               =   3.3404902334837E+05
(PID.TID 0000.0001) %MON obc_W_uVel_max               =   3.3404902334837E-01
(PID.TID 0000.0001) %MON obc_W_uVel_min               =   3.3404902334837E-01
(PID.TID 0000.0001) %MON obc_W_uVel_mean              =   3.3404902334837E-01
(PID.TID 0000.0001) %MON obc_W_uVel_sd                =   8.3300023432813E-09
(PID.TID 0000.0001) %MON obc_W_uVel_Int               =   3.3404902334837E+05
(PID.TID 0000.0001) // =======================================================
(PID.TID 0000.0001) // End OBCS MONITOR field statistics
(PID.TID 0000.0001) // =======================================================
(PID.TID 0000.0001) %CHECKPOINT      7200 0000007200
(PID.TID 0000.0001)   Seconds in section "ALL                    [THE_MODEL_MAIN]":
(PID.TID 0000.0001)           User time:   273.49000000000001
(PID.TID 0000.0001)         System time:  0.38000000000000000
(PID.TID 0000.0001)     Wall clock time:   274.62982988357544
(PID.TID 0000.0001)          No. starts:           1
(PID.TID 0000.0001)           No. stops:           1
(PID.TID 0000.0001)   Seconds in section "INITIALISE_FIXED       [THE_MODEL_MAIN]":
(PID.TID 0000.0001)           User time:   4.0000000000000001E-002
(PID.TID 0000.0001)         System time:   0.0000000000000000
(PID.TID 0000.0001)     Wall clock time:   6.8632125854492188E-002
(PID.TID 0000.0001)          No. starts:           1
(PID.TID 0000.0001)           No. stops:           1
(PID.TID 0000.0001)   Seconds in section "THE_MAIN_LOOP          [THE_MODEL_MAIN]":
(PID.TID 0000.0001)           User time:   273.44999999999999
(PID.TID 0000.0001)         System time:  0.38000000000000000
(PID.TID 0000.0001)     Wall clock time:   274.56115794181824
(PID.TID 0000.0001)          No. starts:           1
(PID.TID 0000.0001)           No. stops:           1
(PID.TID 0000.0001)   Seconds in section "INITIALISE_VARIA    [THE_MAIN_LOOP]":
(PID.TID 0000.0001)           User time:   1.9999999999999997E-002
(PID.TID 0000.0001)         System time:   0.0000000000000000
(PID.TID 0000.0001)     Wall clock time:   2.8740882873535156E-002
(PID.TID 0000.0001)          No. starts:           1
(PID.TID 0000.0001)           No. stops:           1
(PID.TID 0000.0001)   Seconds in section "MAIN LOOP           [THE_MAIN_LOOP]":
(PID.TID 0000.0001)           User time:   273.43000000000001
(PID.TID 0000.0001)         System time:  0.38000000000000000
(PID.TID 0000.0001)     Wall clock time:   274.53238010406494
(PID.TID 0000.0001)          No. starts:           1
(PID.TID 0000.0001)           No. stops:           1
(PID.TID 0000.0001)   Seconds in section "MAIN_DO_LOOP        [THE_MAIN_LOOP]":
(PID.TID 0000.0001)           User time:   273.38999999999572
(PID.TID 0000.0001)         System time:  0.38000000000000045
(PID.TID 0000.0001)     Wall clock time:   274.46849036216736
(PID.TID 0000.0001)          No. starts:        7200
(PID.TID 0000.0001)           No. stops:        7200
(PID.TID 0000.0001)   Seconds in section "FORWARD_STEP        [MAIN_DO_LOOP]":
(PID.TID 0000.0001)           User time:   273.30999999999557
(PID.TID 0000.0001)         System time:  0.38000000000000045
(PID.TID 0000.0001)     Wall clock time:   274.33825969696045
(PID.TID 0000.0001)          No. starts:        7200
(PID.TID 0000.0001)           No. stops:        7200
(PID.TID 0000.0001)   Seconds in section "LOAD_FIELDS_DRIVER  [FORWARD_STEP]":
(PID.TID 0000.0001)           User time:  0.11999999999994770
(PID.TID 0000.0001)         System time:   0.0000000000000000
(PID.TID 0000.0001)     Wall clock time:  0.19555282592773438
(PID.TID 0000.0001)          No. starts:        7200
(PID.TID 0000.0001)           No. stops:        7200
(PID.TID 0000.0001)   Seconds in section "EXTERNAL_FLDS_LOAD [LOAD_FLDS_DRIVER]":
(PID.TID 0000.0001)           User time:   3.9999999999963620E-002
(PID.TID 0000.0001)         System time:   0.0000000000000000
(PID.TID 0000.0001)     Wall clock time:   6.5330505371093750E-002
(PID.TID 0000.0001)          No. starts:        7200
(PID.TID 0000.0001)           No. stops:        7200
(PID.TID 0000.0001)   Seconds in section "DO_ATMOSPHERIC_PHYS [FORWARD_STEP]":
(PID.TID 0000.0001)           User time:   6.9999999999993179E-002
(PID.TID 0000.0001)         System time:   0.0000000000000000
(PID.TID 0000.0001)     Wall clock time:   6.5110445022583008E-002
(PID.TID 0000.0001)          No. starts:        7200
(PID.TID 0000.0001)           No. stops:        7200
(PID.TID 0000.0001)   Seconds in section "DO_OCEANIC_PHYS     [FORWARD_STEP]":
(PID.TID 0000.0001)           User time:   97.490000000002453
(PID.TID 0000.0001)         System time:  0.11000000000000004
(PID.TID 0000.0001)     Wall clock time:   97.635356664657593
(PID.TID 0000.0001)          No. starts:        7200
(PID.TID 0000.0001)           No. stops:        7200
(PID.TID 0000.0001)   Seconds in section "DYNAMICS            [FORWARD_STEP]":
(PID.TID 0000.0001)           User time:   83.779999999997585
(PID.TID 0000.0001)         System time:   4.0000000000000036E-002
(PID.TID 0000.0001)     Wall clock time:   83.547747850418091
(PID.TID 0000.0001)          No. starts:        7200
(PID.TID 0000.0001)           No. stops:        7200
(PID.TID 0000.0001)   Seconds in section "SOLVE_FOR_PRESSURE  [FORWARD_STEP]":
(PID.TID 0000.0001)           User time:   3.0899999999988381
(PID.TID 0000.0001)         System time:   1.0000000000000009E-002
(PID.TID 0000.0001)     Wall clock time:   3.1115520000457764
(PID.TID 0000.0001)          No. starts:        7200
(PID.TID 0000.0001)           No. stops:        7200
(PID.TID 0000.0001)   Seconds in section "MOM_CORRECTION_STEP [FORWARD_STEP]":
(PID.TID 0000.0001)           User time:   3.0499999999985903
(PID.TID 0000.0001)         System time:   0.0000000000000000
(PID.TID 0000.0001)     Wall clock time:   2.9586141109466553
(PID.TID 0000.0001)          No. starts:        7200
(PID.TID 0000.0001)           No. stops:        7200
(PID.TID 0000.0001)   Seconds in section "INTEGR_CONTINUITY   [FORWARD_STEP]":
(PID.TID 0000.0001)           User time:   1.3699999999994930
(PID.TID 0000.0001)         System time:   0.0000000000000000
(PID.TID 0000.0001)     Wall clock time:   1.4639108180999756
(PID.TID 0000.0001)          No. starts:        7200
(PID.TID 0000.0001)           No. stops:        7200
(PID.TID 0000.0001)   Seconds in section "BLOCKING_EXCHANGES  [FORWARD_STEP]":
(PID.TID 0000.0001)           User time:   7.6199999999930128
(PID.TID 0000.0001)         System time:   5.0000000000000044E-002
(PID.TID 0000.0001)     Wall clock time:   7.7448656558990479
(PID.TID 0000.0001)          No. starts:       14400
(PID.TID 0000.0001)           No. stops:       14400
(PID.TID 0000.0001)   Seconds in section "THERMODYNAMICS      [FORWARD_STEP]":
(PID.TID 0000.0001)           User time:   75.159999999994056
(PID.TID 0000.0001)         System time:   7.0000000000000062E-002
(PID.TID 0000.0001)     Wall clock time:   75.301111459732056
(PID.TID 0000.0001)          No. starts:        7200
(PID.TID 0000.0001)           No. stops:        7200
(PID.TID 0000.0001)   Seconds in section "TRC_CORRECTION_STEP [FORWARD_STEP]":
(PID.TID 0000.0001)           User time:   7.9999999999984084E-002
(PID.TID 0000.0001)         System time:   0.0000000000000000
(PID.TID 0000.0001)     Wall clock time:   6.5278530120849609E-002
(PID.TID 0000.0001)          No. starts:        7200
(PID.TID 0000.0001)           No. stops:        7200
(PID.TID 0000.0001)   Seconds in section "MONITOR             [FORWARD_STEP]":
(PID.TID 0000.0001)           User time:  0.10999999999995680
(PID.TID 0000.0001)         System time:   0.0000000000000000
(PID.TID 0000.0001)     Wall clock time:  0.11138963699340820
(PID.TID 0000.0001)          No. starts:        7200
(PID.TID 0000.0001)           No. stops:        7200
(PID.TID 0000.0001)   Seconds in section "DO_THE_MODEL_IO     [FORWARD_STEP]":
(PID.TID 0000.0001)           User time:  0.25000000000000000
(PID.TID 0000.0001)         System time:   8.0000000000000016E-002
(PID.TID 0000.0001)     Wall clock time:  0.96262073516845703
(PID.TID 0000.0001)          No. starts:        7200
(PID.TID 0000.0001)           No. stops:        7200
(PID.TID 0000.0001)   Seconds in section "DO_WRITE_PICKUP     [FORWARD_STEP]":
(PID.TID 0000.0001)           User time:   4.9999999999954525E-002
(PID.TID 0000.0001)         System time:   2.0000000000000018E-002
(PID.TID 0000.0001)     Wall clock time:  0.18286776542663574
(PID.TID 0000.0001)          No. starts:        7200
(PID.TID 0000.0001)           No. stops:        7200
(PID.TID 0000.0001) // ======================================================
(PID.TID 0000.0001) // Tile <-> Tile communication statistics
(PID.TID 0000.0001) // ======================================================
(PID.TID 0000.0001) // o Tile number: 000001
(PID.TID 0000.0001) //         No. X exchanges =              0
(PID.TID 0000.0001) //            Max. X spins =              0
(PID.TID 0000.0001) //            Min. X spins =     1000000000
(PID.TID 0000.0001) //          Total. X spins =              0
(PID.TID 0000.0001) //            Avg. X spins =       0.00E+00
(PID.TID 0000.0001) //         No. Y exchanges =              0
(PID.TID 0000.0001) //            Max. Y spins =              0
(PID.TID 0000.0001) //            Min. Y spins =     1000000000
(PID.TID 0000.0001) //          Total. Y spins =              0
(PID.TID 0000.0001) //            Avg. Y spins =       0.00E+00
(PID.TID 0000.0001) // o Thread number: 000001
(PID.TID 0000.0001) //            No. barriers =        1693152
(PID.TID 0000.0001) //      Max. barrier spins =              1
(PID.TID 0000.0001) //      Min. barrier spins =              1
(PID.TID 0000.0001) //     Total barrier spins =        1693152
(PID.TID 0000.0001) //      Avg. barrier spins =       1.00E+00
PROGRAM MAIN: Execution ended Normally
