(PID.TID 0000.0001) 
(PID.TID 0000.0001) // ======================================================
(PID.TID 0000.0001) //                      MITgcm UV
(PID.TID 0000.0001) //                      =========
(PID.TID 0000.0001) // ======================================================
(PID.TID 0000.0001) // execution environment starting up...
(PID.TID 0000.0001) 
(PID.TID 0000.0001) // MITgcmUV version:  checkpoint65d
(PID.TID 0000.0001) // Build user:        hugke729
(PID.TID 0000.0001) // Build host:        hugke729
(PID.TID 0000.0001) // Build date:        Mon Apr 10 14:21:54 PDT 2017
(PID.TID 0000.0001) 
(PID.TID 0000.0001) // =======================================================
(PID.TID 0000.0001) // Execution Environment parameter file "eedata"
(PID.TID 0000.0001) // =======================================================
(PID.TID 0000.0001) ># Example "eedata" file
(PID.TID 0000.0001) ># Lines beginning "#" are comments
(PID.TID 0000.0001) ># nTx - No. threads per process in X
(PID.TID 0000.0001) ># nTy - No. threads per process in Y
(PID.TID 0000.0001) > &EEPARMS
(PID.TID 0000.0001) > /
(PID.TID 0000.0001) ># Note: Some systems use & as the
(PID.TID 0000.0001) ># namelist terminator. Other systems
(PID.TID 0000.0001) ># use a / character (as shown here).
(PID.TID 0000.0001) 
(PID.TID 0000.0001) // =======================================================
(PID.TID 0000.0001) // Computational Grid Specification ( see files "SIZE.h" )
(PID.TID 0000.0001) //                                  ( and "eedata"       )
(PID.TID 0000.0001) // =======================================================
(PID.TID 0000.0001)      nPx =    1 ; /* No. processes in X */
(PID.TID 0000.0001)      nPy =    1 ; /* No. processes in Y */
(PID.TID 0000.0001)      nSx =    1 ; /* No. tiles in X per process */
(PID.TID 0000.0001)      nSy =    1 ; /* No. tiles in Y per process */
(PID.TID 0000.0001)      sNx =  200 ; /* Tile size in X */
(PID.TID 0000.0001)      sNy =    1 ; /* Tile size in Y */
(PID.TID 0000.0001)      OLx =    2 ; /* Tile overlap distance in X */
(PID.TID 0000.0001)      OLy =    2 ; /* Tile overlap distance in Y */
(PID.TID 0000.0001)      nTx =    1 ; /* No. threads in X per process */
(PID.TID 0000.0001)      nTy =    1 ; /* No. threads in Y per process */
(PID.TID 0000.0001)       Nr =  100 ; /* No. levels in the vertical   */
(PID.TID 0000.0001)       Nx =  200 ; /* Total domain size in X ( = nPx*nSx*sNx ) */
(PID.TID 0000.0001)       Ny =    1 ; /* Total domain size in Y ( = nPy*nSy*sNy ) */
(PID.TID 0000.0001)   nTiles =    1 ; /* Total no. tiles per process ( = nSx*nSy ) */
(PID.TID 0000.0001)   nProcs =    1 ; /* Total no. processes ( = nPx*nPy ) */
(PID.TID 0000.0001) nThreads =    1 ; /* Total no. threads per process ( = nTx*nTy ) */
(PID.TID 0000.0001) usingMPI =    F ; /* Flag used to control whether MPI is in use */
(PID.TID 0000.0001)                   /*  note: To execute a program with MPI calls */
(PID.TID 0000.0001)                   /*  it must be launched appropriately e.g     */
(PID.TID 0000.0001)                   /*  "mpirun -np 64 ......"                    */
(PID.TID 0000.0001) useCoupler=    F ;/* Flag used to control communications with   */
(PID.TID 0000.0001)                   /*  other model components, through a coupler */
(PID.TID 0000.0001) debugMode =    F ; /* print debug msg. (sequence of S/R calls)  */
(PID.TID 0000.0001) printMapIncludesZeros=    F ; /* print zeros in Std.Output maps */
(PID.TID 0000.0001) maxLengthPrt1D=   65 /* maxLength of 1D array printed to StdOut */
(PID.TID 0000.0001) 
(PID.TID 0000.0001) // ======================================================
(PID.TID 0000.0001) // Mapping of tiles to threads
(PID.TID 0000.0001) // ======================================================
(PID.TID 0000.0001) // -o- Thread   1, tiles (   1:   1,   1:   1)
(PID.TID 0000.0001) 
(PID.TID 0000.0001) // ======================================================
(PID.TID 0000.0001) // Tile <-> Tile connectvity table
(PID.TID 0000.0001) // ======================================================
(PID.TID 0000.0001) // Tile number: 000001 (process no. = 000000)
(PID.TID 0000.0001) //        WEST: Tile = 000001, Process = 000000, Comm = put
(PID.TID 0000.0001) //                bi = 000001, bj = 000001
(PID.TID 0000.0001) //        EAST: Tile = 000001, Process = 000000, Comm = put
(PID.TID 0000.0001) //                bi = 000001, bj = 000001
(PID.TID 0000.0001) //       SOUTH: Tile = 000001, Process = 000000, Comm = put
(PID.TID 0000.0001) //                bi = 000001, bj = 000001
(PID.TID 0000.0001) //       NORTH: Tile = 000001, Process = 000000, Comm = put
(PID.TID 0000.0001) //                bi = 000001, bj = 000001
(PID.TID 0000.0001) 
(PID.TID 0000.0001)  INI_PARMS: opening model parameter file "data"
(PID.TID 0000.0001)  OPEN_COPY_DATA_FILE: opening file data
(PID.TID 0000.0001) // =======================================================
(PID.TID 0000.0001) // Parameter file "data"
(PID.TID 0000.0001) // =======================================================
(PID.TID 0000.0001) ># ====================
(PID.TID 0000.0001) ># | Model parameters |
(PID.TID 0000.0001) ># ====================
(PID.TID 0000.0001) >#
(PID.TID 0000.0001) ># See src/ini_parms.F for possible parameters.
(PID.TID 0000.0001) >#
(PID.TID 0000.0001) ># Continuous equation parameters
(PID.TID 0000.0001) > &PARM01
(PID.TID 0000.0001) > tRefFile='Tref.bin'
(PID.TID 0000.0001) > sRef= 25*35.,
(PID.TID 0000.0001) > viscAz=1.E-5,
(PID.TID 0000.0001) > viscAh=1.E-4,
(PID.TID 0000.0001) > no_slip_sides=.FALSE.,
(PID.TID 0000.0001) > no_slip_bottom=.FALSE.,
(PID.TID 0000.0001) > viscA4=0.E12,
(PID.TID 0000.0001) > diffKhT=1.E-4,
(PID.TID 0000.0001) > diffKzT=1.E-5,
(PID.TID 0000.0001) > diffKhS=1.E3,
(PID.TID 0000.0001) > diffKzS=1.E-5,
(PID.TID 0000.0001) > f0=0.E-4,
(PID.TID 0000.0001) > beta=0.0E-11,
(PID.TID 0000.0001) > tAlpha=2.E-4,
(PID.TID 0000.0001) > sBeta =0.E-4,
(PID.TID 0000.0001) > gravity=9.81,
(PID.TID 0000.0001) > gBaro=9.81,
(PID.TID 0000.0001) > rigidLid=.FALSE.,
(PID.TID 0000.0001) > implicitFreeSurface=.TRUE.,
(PID.TID 0000.0001) > eosType='LINEAR',
(PID.TID 0000.0001) > nonHydrostatic=.FALSE.,
(PID.TID 0000.0001) > readBinaryPrec=64,
(PID.TID 0000.0001) > useSingleCpuIO=.TRUE.
(PID.TID 0000.0001) > writeBinaryPrec=64,
(PID.TID 0000.0001) > writeStatePrec=64,
(PID.TID 0000.0001) > saltStepping=.FALSE.,
(PID.TID 0000.0001) ># minimum cell fraction.  This reduces steppiness..
(PID.TID 0000.0001) >  hFacMin=0.1,
(PID.TID 0000.0001) >  exactConserv=.FALSE.,
(PID.TID 0000.0001) >  implicitDiffusion=.TRUE.
(PID.TID 0000.0001) >  implicitViscosity=.TRUE.
(PID.TID 0000.0001) ># Superbee on:
(PID.TID 0000.0001) > tempAdvScheme=77,
(PID.TID 0000.0001) > staggerTimeStep=.TRUE.,
(PID.TID 0000.0001) >/
(PID.TID 0000.0001) >
(PID.TID 0000.0001) ># Elliptic solver parameters
(PID.TID 0000.0001) > &PARM02
(PID.TID 0000.0001) > cg2dMaxIters=1000,
(PID.TID 0000.0001) > cg2dTargetResidual=1.E-13,
(PID.TID 0000.0001) > cg3dMaxIters=400,
(PID.TID 0000.0001) > cg3dTargetResidual=1.E-13,
(PID.TID 0000.0001) >/
(PID.TID 0000.0001) >
(PID.TID 0000.0001) ># Time stepping parameters
(PID.TID 0000.0001) > &PARM03
(PID.TID 0000.0001) > niter0=0,
(PID.TID 0000.0001) ># times are in s
(PID.TID 0000.0001) > startTime=0,
(PID.TID 0000.0001) > endTime=108000,
(PID.TID 0000.0001) > deltaT=15,
(PID.TID 0000.0001) > abEps=0.1,
(PID.TID 0000.0001) ># once per tide checkpoint...
(PID.TID 0000.0001) > pChkptFreq=21600,
(PID.TID 0000.0001) > chkptFreq=0.0,
(PID.TID 0000.0001) > dumpFreq=7200,
(PID.TID 0000.0001) > monitorFreq=7200,
(PID.TID 0000.0001) ># Forcing for boundary condition files
(PID.TID 0000.0001) > periodicExternalForcing=.FALSE.,
(PID.TID 0000.0001) >/
(PID.TID 0000.0001) >
(PID.TID 0000.0001) ># Gridding parameters
(PID.TID 0000.0001) > &PARM04
(PID.TID 0000.0001) > usingCartesianGrid=.TRUE.,
(PID.TID 0000.0001) > usingSphericalPolarGrid=.FALSE.,
(PID.TID 0000.0001) > delXfile='delXvar.bin',
(PID.TID 0000.0001) > delY=5.e3,
(PID.TID 0000.0001) > delRfile = 'delZvar.bin',
(PID.TID 0000.0001) >/
(PID.TID 0000.0001) >
(PID.TID 0000.0001) ># Input datasets
(PID.TID 0000.0001) > &PARM05
(PID.TID 0000.0001) > bathyFile='topo.bin',
(PID.TID 0000.0001) > hydrogThetaFile='T0.bin',
(PID.TID 0000.0001) > checkIniTemp=.FALSE.,
(PID.TID 0000.0001) > uVelInitFile='U0.bin',
(PID.TID 0000.0001) > /
(PID.TID 0000.0001) 
(PID.TID 0000.0001)  INI_PARMS ; starts to read PARM01
(PID.TID 0000.0001)  INI_PARMS ; read PARM01 : OK
(PID.TID 0000.0001)  INI_PARMS ; starts to read PARM02
(PID.TID 0000.0001)  INI_PARMS ; read PARM02 : OK
(PID.TID 0000.0001)  INI_PARMS ; starts to read PARM03
(PID.TID 0000.0001)  INI_PARMS ; read PARM03 : OK
(PID.TID 0000.0001)  INI_PARMS ; starts to read PARM04
(PID.TID 0000.0001)  INI_PARMS ; read PARM04 : OK
(PID.TID 0000.0001)  INI_PARMS ; starts to read PARM05
(PID.TID 0000.0001)  INI_PARMS ; read PARM05 : OK
(PID.TID 0000.0001)  INI_PARMS: finished reading file "data"
(PID.TID 0000.0001)  PACKAGES_BOOT: opening data.pkg
(PID.TID 0000.0001)  OPEN_COPY_DATA_FILE: opening file data.pkg
(PID.TID 0000.0001) // =======================================================
(PID.TID 0000.0001) // Parameter file "data.pkg"
(PID.TID 0000.0001) // =======================================================
(PID.TID 0000.0001) ># Packages
(PID.TID 0000.0001) > &PACKAGES
(PID.TID 0000.0001) > useOBCS=.TRUE.,
(PID.TID 0000.0001) > useKL10=.TRUE.,
(PID.TID 0000.0001) > useDIAGNOSTICS=.FALSE.,
(PID.TID 0000.0001) > useMNC=.FALSE.,
(PID.TID 0000.0001) > /
(PID.TID 0000.0001) 
(PID.TID 0000.0001)  PACKAGES_BOOT: finished reading data.pkg
(PID.TID 0000.0001)  PACKAGES_BOOT: On/Off package Summary
 --------  pkgs with a standard "usePKG" On/Off switch in "data.pkg":  --------
 pkg/obcs                 compiled   and   used ( useOBCS                  = T )
 pkg/kl10                 compiled   and   used ( useKL10                  = T )
 -------- pkgs without standard "usePKG" On/Off switch in "data.pkg":  --------
 pkg/generic_advdiff      compiled   and   used ( useGAD                   = T )
 pkg/mom_common           compiled   and   used ( momStepping              = T )
 pkg/mom_vecinv           compiled but not used ( +vectorInvariantMomentum = F )
 pkg/mom_fluxform         compiled   and   used ( & not vectorInvariantMom = T )
 pkg/monitor              compiled   and   used ( monitorFreq > 0.         = T )
 pkg/debug                compiled but not used ( debugMode                = F )
 pkg/rw                   compiled   and   used
 pkg/mdsio                compiled   and   used
(PID.TID 0000.0001)  PACKAGES_BOOT: End of package Summary
(PID.TID 0000.0001) 
(PID.TID 0000.0001)  OBCS_READPARMS: opening data.obcs
(PID.TID 0000.0001)  OPEN_COPY_DATA_FILE: opening file data.obcs
(PID.TID 0000.0001) // =======================================================
(PID.TID 0000.0001) // Parameter file "data.obcs"
(PID.TID 0000.0001) // =======================================================
(PID.TID 0000.0001) ># Open-boundaries
(PID.TID 0000.0001) > &OBCS_PARM01
(PID.TID 0000.0001) > OB_Iwest=1*1,
(PID.TID 0000.0001) > OB_Ieast=1*-1,
(PID.TID 0000.0001) > OB_Jnorth=100*0,
(PID.TID 0000.0001) > OB_Jsouth=100*0,
(PID.TID 0000.0001) > useOBCSsponge=.TRUE.,
(PID.TID 0000.0001) > OBEuFile='U_in.bin',
(PID.TID 0000.0001) > OBWuFile='U_in.bin',
(PID.TID 0000.0001) > OBEtFile='TE.bin',
(PID.TID 0000.0001) > OBWtFile='TW.bin',
(PID.TID 0000.0001) > useOBCSprescribe=.TRUE.,
(PID.TID 0000.0001) > /
(PID.TID 0000.0001) >
(PID.TID 0000.0001) ># Orlanski parameters
(PID.TID 0000.0001) > &OBCS_PARM02
(PID.TID 0000.0001) >/
(PID.TID 0000.0001) >
(PID.TID 0000.0001) ># Sponge layer parameters
(PID.TID 0000.0001) > &OBCS_PARM03
(PID.TID 0000.0001) > Urelaxobcsinner=1000.,
(PID.TID 0000.0001) > Urelaxobcsbound=100.,
(PID.TID 0000.0001) > Vrelaxobcsinner=1000.0,
(PID.TID 0000.0001) > Vrelaxobcsbound=100.0,
(PID.TID 0000.0001) > spongeThickness=10,
(PID.TID 0000.0001) > /
(PID.TID 0000.0001) 
(PID.TID 0000.0001)  OBCS_READPARMS: finished reading data.obcs
(PID.TID 0000.0001)  OB_indexUnset = /* unset OB index value (i.e. no OB) */
(PID.TID 0000.0001)                       0
(PID.TID 0000.0001)     ;
(PID.TID 0000.0001)  Northern OB global indices : OB_Jnorth =
(PID.TID 0000.0001)   200 @        0                            /* I =  1:200 */
(PID.TID 0000.0001)  Southern OB global indices : OB_Jsouth =
(PID.TID 0000.0001)   200 @        0                            /* I =  1:200 */
(PID.TID 0000.0001)  Eastern  OB global indices : OB_Ieast =
(PID.TID 0000.0001)                     200                     /* J =  1 */
(PID.TID 0000.0001)  Western  OB global indices : OB_Iwest =
(PID.TID 0000.0001)                       1                     /* J =  1 */
(PID.TID 0000.0001) 
(PID.TID 0000.0001)  KL10_READPARMS: opening data.kl10
(PID.TID 0000.0001)  OPEN_COPY_DATA_FILE: opening file data.kl10
(PID.TID 0000.0001) // =======================================================
(PID.TID 0000.0001) // Parameter file "data.kl10"
(PID.TID 0000.0001) // =======================================================
(PID.TID 0000.0001) ># =====================================================================
(PID.TID 0000.0001) ># | Parameters for Klymak and Legg (2010) vertical mixing scheme      |
(PID.TID 0000.0001) ># =====================================================================
(PID.TID 0000.0001) > &KL10_PARM01
(PID.TID 0000.0001) > KLwriteState=.TRUE.,
(PID.TID 0000.0001) >/
(PID.TID 0000.0001) 
(PID.TID 0000.0001)  KL10_READPARMS: finished reading data.kl10
(PID.TID 0000.0001) SET_PARMS: done
(PID.TID 0000.0001)  MDS_READVEC_LOC: open file: delXvar.bin
(PID.TID 0000.0001) S/R LOAD_GRID_SPACING: delX loaded from file: delXvar.bin
(PID.TID 0000.0001)  MDS_READVEC_LOC: open file: delZvar.bin
(PID.TID 0000.0001) S/R LOAD_GRID_SPACING: delR loaded from file: delZvar.bin
(PID.TID 0000.0001) Enter INI_VERTICAL_GRID: setInterFDr=    T ; setCenterDr=    F
(PID.TID 0000.0001) %MON XC_max                       =   9.9471849328752E+04
(PID.TID 0000.0001) %MON XC_min                       =   6.3164731900833E+02
(PID.TID 0000.0001) %MON XC_mean                      =   5.2906107272275E+04
(PID.TID 0000.0001) %MON XC_sd                        =   2.2139310392762E+04
(PID.TID 0000.0001) %MON XG_max                       =   9.8943698657505E+04
(PID.TID 0000.0001) %MON XG_min                       =   0.0000000000000E+00
(PID.TID 0000.0001) %MON XG_mean                      =   5.2656107272275E+04
(PID.TID 0000.0001) %MON XG_sd                        =   2.2172561685063E+04
(PID.TID 0000.0001) %MON DXC_max                      =   1.2503953509116E+03
(PID.TID 0000.0001) %MON DXC_min                      =   2.0000000000000E+02
(PID.TID 0000.0001) %MON DXC_mean                     =   5.0000000000000E+02
(PID.TID 0000.0001) %MON DXC_sd                       =   2.8531736750525E+02
(PID.TID 0000.0001) %MON DXF_max                      =   1.2632946380167E+03
(PID.TID 0000.0001) %MON DXF_min                      =   2.0000000000000E+02
(PID.TID 0000.0001) %MON DXF_mean                     =   5.0000000000000E+02
(PID.TID 0000.0001) %MON DXF_sd                       =   2.8547066202794E+02
(PID.TID 0000.0001) %MON DXG_max                      =   1.2632946380167E+03
(PID.TID 0000.0001) %MON DXG_min                      =   2.0000000000000E+02
(PID.TID 0000.0001) %MON DXG_mean                     =   5.0000000000000E+02
(PID.TID 0000.0001) %MON DXG_sd                       =   2.8547066202794E+02
(PID.TID 0000.0001) %MON DXV_max                      =   1.2503953509116E+03
(PID.TID 0000.0001) %MON DXV_min                      =   2.0000000000000E+02
(PID.TID 0000.0001) %MON DXV_mean                     =   5.0000000000000E+02
(PID.TID 0000.0001) %MON DXV_sd                       =   2.8531736750525E+02
(PID.TID 0000.0001) %MON YC_max                       =   2.5000000000000E+03
(PID.TID 0000.0001) %MON YC_min                       =   2.5000000000000E+03
(PID.TID 0000.0001) %MON YC_mean                      =   2.5000000000000E+03
(PID.TID 0000.0001) %MON YC_sd                        =   0.0000000000000E+00
(PID.TID 0000.0001) %MON YG_max                       =   0.0000000000000E+00
(PID.TID 0000.0001) %MON YG_min                       =   0.0000000000000E+00
(PID.TID 0000.0001) %MON YG_mean                      =   0.0000000000000E+00
(PID.TID 0000.0001) %MON YG_sd                        =   0.0000000000000E+00
(PID.TID 0000.0001) %MON DYC_max                      =   5.0000000000000E+03
(PID.TID 0000.0001) %MON DYC_min                      =   5.0000000000000E+03
(PID.TID 0000.0001) %MON DYC_mean                     =   5.0000000000000E+03
(PID.TID 0000.0001) %MON DYC_sd                       =   0.0000000000000E+00
(PID.TID 0000.0001) %MON DYF_max                      =   5.0000000000000E+03
(PID.TID 0000.0001) %MON DYF_min                      =   5.0000000000000E+03
(PID.TID 0000.0001) %MON DYF_mean                     =   5.0000000000000E+03
(PID.TID 0000.0001) %MON DYF_sd                       =   0.0000000000000E+00
(PID.TID 0000.0001) %MON DYG_max                      =   5.0000000000000E+03
(PID.TID 0000.0001) %MON DYG_min                      =   5.0000000000000E+03
(PID.TID 0000.0001) %MON DYG_mean                     =   5.0000000000000E+03
(PID.TID 0000.0001) %MON DYG_sd                       =   0.0000000000000E+00
(PID.TID 0000.0001) %MON DYU_max                      =   5.0000000000000E+03
(PID.TID 0000.0001) %MON DYU_min                      =   5.0000000000000E+03
(PID.TID 0000.0001) %MON DYU_mean                     =   5.0000000000000E+03
(PID.TID 0000.0001) %MON DYU_sd                       =   0.0000000000000E+00
(PID.TID 0000.0001) %MON RA_max                       =   6.3164731900833E+06
(PID.TID 0000.0001) %MON RA_min                       =   1.0000000000000E+06
(PID.TID 0000.0001) %MON RA_mean                      =   2.5000000000000E+06
(PID.TID 0000.0001) %MON RA_sd                        =   1.4273533101397E+06
(PID.TID 0000.0001) %MON RAW_max                      =   6.2519767545581E+06
(PID.TID 0000.0001) %MON RAW_min                      =   1.0000000000000E+06
(PID.TID 0000.0001) %MON RAW_mean                     =   2.5000000000000E+06
(PID.TID 0000.0001) %MON RAW_sd                       =   1.4265868375263E+06
(PID.TID 0000.0001) %MON RAS_max                      =   6.3164731900833E+06
(PID.TID 0000.0001) %MON RAS_min                      =   1.0000000000000E+06
(PID.TID 0000.0001) %MON RAS_mean                     =   2.5000000000000E+06
(PID.TID 0000.0001) %MON RAS_sd                       =   1.4273533101397E+06
(PID.TID 0000.0001) %MON RAZ_max                      =   6.2519767545581E+06
(PID.TID 0000.0001) %MON RAZ_min                      =   1.0000000000000E+06
(PID.TID 0000.0001) %MON RAZ_mean                     =   2.5000000000000E+06
(PID.TID 0000.0001) %MON RAZ_sd                       =   1.4265868375263E+06
(PID.TID 0000.0001) %MON AngleCS_max                  =   1.0000000000000E+00
(PID.TID 0000.0001) %MON AngleCS_min                  =   1.0000000000000E+00
(PID.TID 0000.0001) %MON AngleCS_mean                 =   1.0000000000000E+00
(PID.TID 0000.0001) %MON AngleCS_sd                   =   0.0000000000000E+00
(PID.TID 0000.0001) %MON AngleSN_max                  =   0.0000000000000E+00
(PID.TID 0000.0001) %MON AngleSN_min                  =   0.0000000000000E+00
(PID.TID 0000.0001) %MON AngleSN_mean                 =   0.0000000000000E+00
(PID.TID 0000.0001) %MON AngleSN_sd                   =   0.0000000000000E+00
(PID.TID 0000.0001)  MDS_READVEC_LOC: open file: Tref.bin
(PID.TID 0000.0001) S/R LOAD_REF_FILES: tRef loaded from file: Tref.bin
(PID.TID 0000.0001)  MDS_READ_FIELD: opening global file: topo.bin
(PID.TID 0000.0001) // =======================================================
(PID.TID 0000.0001) // Field Model R_low (ini_masks_etc)
(PID.TID 0000.0001) // CMIN =         -1.999999999999999E+02
(PID.TID 0000.0001) // CMAX =         -1.300874453352793E+02
(PID.TID 0000.0001) // CINT =          2.589353876471134E+00
(PID.TID 0000.0001) // SYMBOLS (CMIN->CMAX): -abcdefghijklmnopqrstuvwxyz+
(PID.TID 0000.0001) //                  0.0: .
(PID.TID 0000.0001) // RANGE I (Lo:Hi:Step):(    -1:   202:     1)
(PID.TID 0000.0001) // RANGE J (Lo:Hi:Step):(     3:    -1:    -1)
(PID.TID 0000.0001) // RANGE K (Lo:Hi:Step):(   1:   1:   1)
(PID.TID 0000.0001) // =======================================================
(PID.TID 0000.0001) K =   1
(PID.TID 0000.0001) //                I=8       I=18      I=28      I=38      I=48      I=58      I=68      I=78      I=88      I=98      I=108     I=118     I=128     I=138     I=148     I=158     I=168     I=178     I=188     I=198
(PID.TID 0000.0001) // |--J--|101234567|901234567|901234567|901234567|901234567|901234567|901234567|901234567|901234567|901234567|901234567|901234567|901234567|901234567|901234567|901234567|901234567|901234567|901234567|901234567|9012
(PID.TID 0000.0001) //      3 --------------------------------------------------------------------------aaaabbccdefghiklnpqstvwxyz++++zyxwvtsqpnlkihgfedccbbaaaa--------------------------------------------------------------------------
(PID.TID 0000.0001) //      2 --------------------------------------------------------------------------aaaabbccdefghiklnpqstvwxyz++++zyxwvtsqpnlkihgfedccbbaaaa--------------------------------------------------------------------------
(PID.TID 0000.0001) //      1 --------------------------------------------------------------------------aaaabbccdefghiklnpqstvwxyz++++zyxwvtsqpnlkihgfedccbbaaaa--------------------------------------------------------------------------
(PID.TID 0000.0001) //      0 --------------------------------------------------------------------------aaaabbccdefghiklnpqstvwxyz++++zyxwvtsqpnlkihgfedccbbaaaa--------------------------------------------------------------------------
(PID.TID 0000.0001) //     -1 --------------------------------------------------------------------------aaaabbccdefghiklnpqstvwxyz++++zyxwvtsqpnlkihgfedccbbaaaa--------------------------------------------------------------------------
(PID.TID 0000.0001) // =======================================================
(PID.TID 0000.0001) // END OF FIELD                                          =
(PID.TID 0000.0001) // =======================================================
(PID.TID 0000.0001) 
(PID.TID 0000.0001) // =======================================================
(PID.TID 0000.0001) // Field Model Ro_surf (ini_masks_etc)
(PID.TID 0000.0001) // CMIN =         -3.153033389935445E-14
(PID.TID 0000.0001) // CMAX =          1.105782132526656E-13
(PID.TID 0000.0001) // CINT =          5.263279524148890E-15
(PID.TID 0000.0001) // SYMBOLS (CMIN->CMAX): -abcdefghijklmnopqrstuvwxyz+
(PID.TID 0000.0001) //                  0.0: .
(PID.TID 0000.0001) // RANGE I (Lo:Hi:Step):(    -1:   202:     1)
(PID.TID 0000.0001) // RANGE J (Lo:Hi:Step):(     3:    -1:    -1)
(PID.TID 0000.0001) // RANGE K (Lo:Hi:Step):(   1:   1:   1)
(PID.TID 0000.0001) // =======================================================
(PID.TID 0000.0001) K =   1
(PID.TID 0000.0001) //                I=8       I=18      I=28      I=38      I=48      I=58      I=68      I=78      I=88      I=98      I=108     I=118     I=128     I=138     I=148     I=158     I=168     I=178     I=188     I=198
(PID.TID 0000.0001) // |--J--|101234567|901234567|901234567|901234567|901234567|901234567|901234567|901234567|901234567|901234567|901234567|901234567|901234567|901234567|901234567|901234567|901234567|901234567|901234567|901234567|9012
(PID.TID 0000.0001) //      3 vvvvvvvvvvvvvvvvvpvvppvvpvvvpvvppvppvpvvvpvvpvppppppvvvvvpppvvpppvpvvvvvpppvpv+vvvpvvvvkpkkke-kkekkvppppvkkekk-ekkkpkvvvvpvvv+vpvpppvvvvvpvpppvvpppvvvvvppppppvpvvpvvvpvppvppvvpvvvpvvppvvpvvvvvvvvvvvvvvvvv
(PID.TID 0000.0001) //      2 vvvvvvvvvvvvvvvvvpvvppvvpvvvpvvppvppvpvvvpvvpvppppppvvvvvpppvvpppvpvvvvvpppvpv+vvvpvvvvkpkkke-kkekkvppppvkkekk-ekkkpkvvvvpvvv+vpvpppvvvvvpvpppvvpppvvvvvppppppvpvvpvvvpvppvppvvpvvvpvvppvvpvvvvvvvvvvvvvvvvv
(PID.TID 0000.0001) //      1 vvvvvvvvvvvvvvvvvpvvppvvpvvvpvvppvppvpvvvpvvpvppppppvvvvvpppvvpppvpvvvvvpppvpv+vvvpvvvvkpkkke-kkekkvppppvkkekk-ekkkpkvvvvpvvv+vpvpppvvvvvpvpppvvpppvvvvvppppppvpvvpvvvpvppvppvvpvvvpvvppvvpvvvvvvvvvvvvvvvvv
(PID.TID 0000.0001) //      0 vvvvvvvvvvvvvvvvvpvvppvvpvvvpvvppvppvpvvvpvvpvppppppvvvvvpppvvpppvpvvvvvpppvpv+vvvpvvvvkpkkke-kkekkvppppvkkekk-ekkkpkvvvvpvvv+vpvpppvvvvvpvpppvvpppvvvvvppppppvpvvpvvvpvppvppvvpvvvpvvppvvpvvvvvvvvvvvvvvvvv
(PID.TID 0000.0001) //     -1 vvvvvvvvvvvvvvvvvpvvppvvpvvvpvvppvppvpvvvpvvpvppppppvvvvvpppvvpppvpvvvvvpppvpv+vvvpvvvvkpkkke-kkekkvppppvkkekk-ekkkpkvvvvpvvv+vpvpppvvvvvpvpppvvpppvvvvvppppppvpvvpvvvpvppvppvvpvvvpvvppvvpvvvvvvvvvvvvvvvvv
(PID.TID 0000.0001) // =======================================================
(PID.TID 0000.0001) // END OF FIELD                                          =
(PID.TID 0000.0001) // =======================================================
(PID.TID 0000.0001) 
(PID.TID 0000.0001) // =======================================================
(PID.TID 0000.0001) // Field hFacC at iteration          0
(PID.TID 0000.0001) // CMIN =          1.000000000000000E+00
(PID.TID 0000.0001) // CMAX =          1.000000000000000E+00
(PID.TID 0000.0001) // CINT =          0.000000000000000E+00
(PID.TID 0000.0001) // SYMBOLS (CMIN->CMAX): -abcdefghijklmnopqrstuvwxyz+
(PID.TID 0000.0001) //                  0.0: .
(PID.TID 0000.0001) // RANGE I (Lo:Hi:Step):(    -1:   202:     1)
(PID.TID 0000.0001) // RANGE J (Lo:Hi:Step):(     3:    -1:    -1)
(PID.TID 0000.0001) // RANGE K (Lo:Hi:Step):(   1:   1:   1)
(PID.TID 0000.0001) // =======================================================
(PID.TID 0000.0001) // =======================================================
(PID.TID 0000.0001) // END OF FIELD                                          =
(PID.TID 0000.0001) // =======================================================
(PID.TID 0000.0001) 
(PID.TID 0000.0001) // =======================================================
(PID.TID 0000.0001) // Field hFacW at iteration          0
(PID.TID 0000.0001) // CMIN =          1.000000000000000E+00
(PID.TID 0000.0001) // CMAX =          1.000000000000000E+00
(PID.TID 0000.0001) // CINT =          0.000000000000000E+00
(PID.TID 0000.0001) // SYMBOLS (CMIN->CMAX): -abcdefghijklmnopqrstuvwxyz+
(PID.TID 0000.0001) //                  0.0: .
(PID.TID 0000.0001) // RANGE I (Lo:Hi:Step):(    -1:   202:     1)
(PID.TID 0000.0001) // RANGE J (Lo:Hi:Step):(     3:    -1:    -1)
(PID.TID 0000.0001) // RANGE K (Lo:Hi:Step):(   1:   1:   1)
(PID.TID 0000.0001) // =======================================================
(PID.TID 0000.0001) // =======================================================
(PID.TID 0000.0001) // END OF FIELD                                          =
(PID.TID 0000.0001) // =======================================================
(PID.TID 0000.0001) 
(PID.TID 0000.0001) // =======================================================
(PID.TID 0000.0001) // Field hFacS at iteration          0
(PID.TID 0000.0001) // CMIN =          1.000000000000000E+00
(PID.TID 0000.0001) // CMAX =          1.000000000000000E+00
(PID.TID 0000.0001) // CINT =          0.000000000000000E+00
(PID.TID 0000.0001) // SYMBOLS (CMIN->CMAX): -abcdefghijklmnopqrstuvwxyz+
(PID.TID 0000.0001) //                  0.0: .
(PID.TID 0000.0001) // RANGE I (Lo:Hi:Step):(    -1:   202:     1)
(PID.TID 0000.0001) // RANGE J (Lo:Hi:Step):(     3:    -1:    -1)
(PID.TID 0000.0001) // RANGE K (Lo:Hi:Step):(   1:   1:   1)
(PID.TID 0000.0001) // =======================================================
(PID.TID 0000.0001) // =======================================================
(PID.TID 0000.0001) // END OF FIELD                                          =
(PID.TID 0000.0001) // =======================================================
(PID.TID 0000.0001) 
(PID.TID 0000.0001) GAD_INIT_FIXED: GAD_OlMinSize=  2  0  1
(PID.TID 0000.0001) 
(PID.TID 0000.0001) // ===================================
(PID.TID 0000.0001) // GAD parameters :
(PID.TID 0000.0001) // ===================================
(PID.TID 0000.0001) tempAdvScheme =   /* Temp. Horiz.Advection scheme selector */
(PID.TID 0000.0001)                      77
(PID.TID 0000.0001)     ;
(PID.TID 0000.0001) tempVertAdvScheme =   /* Temp. Vert. Advection scheme selector */
(PID.TID 0000.0001)                      77
(PID.TID 0000.0001)     ;
(PID.TID 0000.0001) tempMultiDimAdvec =   /* use Muti-Dim Advec method for Temp */
(PID.TID 0000.0001)                   T
(PID.TID 0000.0001)     ;
(PID.TID 0000.0001) tempSOM_Advection = /* use 2nd Order Moment Advection for Temp */
(PID.TID 0000.0001)                   F
(PID.TID 0000.0001)     ;
(PID.TID 0000.0001) AdamsBashforthGt = /* apply Adams-Bashforth extrapolation on Gt */
(PID.TID 0000.0001)                   F
(PID.TID 0000.0001)     ;
(PID.TID 0000.0001) AdamsBashforth_T = /* apply Adams-Bashforth extrapolation on Temp */
(PID.TID 0000.0001)                   F
(PID.TID 0000.0001)     ;
(PID.TID 0000.0001) saltAdvScheme =   /* Salt. Horiz.advection scheme selector */
(PID.TID 0000.0001)                       2
(PID.TID 0000.0001)     ;
(PID.TID 0000.0001) saltVertAdvScheme =   /* Salt. Vert. Advection scheme selector */
(PID.TID 0000.0001)                       2
(PID.TID 0000.0001)     ;
(PID.TID 0000.0001) saltMultiDimAdvec =   /* use Muti-Dim Advec method for Salt */
(PID.TID 0000.0001)                   F
(PID.TID 0000.0001)     ;
(PID.TID 0000.0001) saltSOM_Advection = /* use 2nd Order Moment Advection for Salt */
(PID.TID 0000.0001)                   F
(PID.TID 0000.0001)     ;
(PID.TID 0000.0001) AdamsBashforthGs = /* apply Adams-Bashforth extrapolation on Gs */
(PID.TID 0000.0001)                   F
(PID.TID 0000.0001)     ;
(PID.TID 0000.0001) AdamsBashforth_S = /* apply Adams-Bashforth extrapolation on Salt */
(PID.TID 0000.0001)                   F
(PID.TID 0000.0001)     ;
(PID.TID 0000.0001) // ===================================
(PID.TID 0000.0001) %MON fCori_max                    =   0.0000000000000E+00
(PID.TID 0000.0001) %MON fCori_min                    =   0.0000000000000E+00
(PID.TID 0000.0001) %MON fCori_mean                   =   0.0000000000000E+00
(PID.TID 0000.0001) %MON fCori_sd                     =   0.0000000000000E+00
(PID.TID 0000.0001) %MON fCoriG_max                   =   0.0000000000000E+00
(PID.TID 0000.0001) %MON fCoriG_min                   =   0.0000000000000E+00
(PID.TID 0000.0001) %MON fCoriG_mean                  =   0.0000000000000E+00
(PID.TID 0000.0001) %MON fCoriG_sd                    =   0.0000000000000E+00
(PID.TID 0000.0001) %MON fCoriCos_max                 =   0.0000000000000E+00
(PID.TID 0000.0001) %MON fCoriCos_min                 =   0.0000000000000E+00
(PID.TID 0000.0001) %MON fCoriCos_mean                =   0.0000000000000E+00
(PID.TID 0000.0001) %MON fCoriCos_sd                  =   0.0000000000000E+00
(PID.TID 0000.0001) INI_CG2D: CG2D normalisation factor =  2.1495624220097895E-04
(PID.TID 0000.0001) 
(PID.TID 0000.0001) // =======================================================
(PID.TID 0000.0001) // Model configuration
(PID.TID 0000.0001) // =======================================================
(PID.TID 0000.0001) //
(PID.TID 0000.0001) // "Physical" paramters ( PARM01 in namelist )
(PID.TID 0000.0001) //
(PID.TID 0000.0001) buoyancyRelation = /* Type of relation to get Buoyancy */
(PID.TID 0000.0001)               'OCEANIC'
(PID.TID 0000.0001)     ;
(PID.TID 0000.0001) fluidIsAir   =  /* fluid major constituent is Air */
(PID.TID 0000.0001)                   F
(PID.TID 0000.0001)     ;
(PID.TID 0000.0001) fluidIsWater =  /* fluid major constituent is Water */
(PID.TID 0000.0001)                   T
(PID.TID 0000.0001)     ;
(PID.TID 0000.0001) usingPCoords =  /* use p (or p*) vertical coordinate */
(PID.TID 0000.0001)                   F
(PID.TID 0000.0001)     ;
(PID.TID 0000.0001) usingZCoords =  /* use z (or z*) vertical coordinate */
(PID.TID 0000.0001)                   T
(PID.TID 0000.0001)     ;
(PID.TID 0000.0001) tRef =   /* Reference temperature profile ( oC or K ) */
(PID.TID 0000.0001)    75 @  1.500000000000000E+01,             /* K =  1: 75 */
(PID.TID 0000.0001)                 1.499933084687693E+01,      /* K = 76 */
(PID.TID 0000.0001)                 1.497717153877677E+01,      /* K = 77 */
(PID.TID 0000.0001)                 1.470721590167325E+01,      /* K = 78 */
(PID.TID 0000.0001)                 1.349735867339025E+01,      /* K = 79 */
(PID.TID 0000.0001)                 1.150264132660976E+01,      /* K = 80 */
(PID.TID 0000.0001)                 1.029278409832675E+01,      /* K = 81 */
(PID.TID 0000.0001)                 1.002282846122323E+01,      /* K = 82 */
(PID.TID 0000.0001)                 1.000066915312308E+01,      /* K = 83 */
(PID.TID 0000.0001)    17 @  1.000000000000000E+01              /* K = 84:100 */
(PID.TID 0000.0001)     ;
(PID.TID 0000.0001) sRef =   /* Reference salinity profile ( psu ) */
(PID.TID 0000.0001)   100 @  3.500000000000000E+01              /* K =  1:100 */
(PID.TID 0000.0001)     ;
(PID.TID 0000.0001) useStrainTensionVisc= /* Use StrainTension Form of Viscous Operator */
(PID.TID 0000.0001)                   F
(PID.TID 0000.0001)     ;
(PID.TID 0000.0001) useVariableVisc = /* Use variable horizontal viscosity */
(PID.TID 0000.0001)                   F
(PID.TID 0000.0001)     ;
(PID.TID 0000.0001) useHarmonicVisc = /* Use harmonic horizontal viscosity */
(PID.TID 0000.0001)                   T
(PID.TID 0000.0001)     ;
(PID.TID 0000.0001) useBiharmonicVisc= /* Use biharmonic horiz.  viscosity */
(PID.TID 0000.0001)                   F
(PID.TID 0000.0001)     ;
(PID.TID 0000.0001) useSmag3D = /* Use isotropic 3-D Smagorinsky viscosity */
(PID.TID 0000.0001)                   F
(PID.TID 0000.0001)     ;
(PID.TID 0000.0001) viscAh  =   /* Lateral harmonic viscosity ( m^2/s ) */
(PID.TID 0000.0001)                 1.000000000000000E-04
(PID.TID 0000.0001)     ;
(PID.TID 0000.0001) viscA4  =   /* Lateral biharmonic viscosity ( m^4/s ) */
(PID.TID 0000.0001)                 0.000000000000000E+00
(PID.TID 0000.0001)     ;
(PID.TID 0000.0001) no_slip_sides =  /* Viscous BCs: No-slip sides */
(PID.TID 0000.0001)                   F
(PID.TID 0000.0001)     ;
(PID.TID 0000.0001) sideDragFactor = /* side-drag scaling factor (non-dim) */
(PID.TID 0000.0001)                 2.000000000000000E+00
(PID.TID 0000.0001)     ;
(PID.TID 0000.0001) viscArNr = /* vertical profile of vertical viscosity ( m^2/s )*/
(PID.TID 0000.0001)   100 @  1.000000000000000E-05              /* K =  1:100 */
(PID.TID 0000.0001)     ;
(PID.TID 0000.0001) no_slip_bottom =  /* Viscous BCs: No-slip bottom */
(PID.TID 0000.0001)                   F
(PID.TID 0000.0001)     ;
(PID.TID 0000.0001) bottomDragLinear = /* linear bottom-drag coefficient ( m/s ) */
(PID.TID 0000.0001)                 0.000000000000000E+00
(PID.TID 0000.0001)     ;
(PID.TID 0000.0001) bottomDragQuadratic = /* quadratic bottom-drag coefficient (-) */
(PID.TID 0000.0001)                 0.000000000000000E+00
(PID.TID 0000.0001)     ;
(PID.TID 0000.0001) diffKhT =   /* Laplacian diffusion of heat laterally ( m^2/s ) */
(PID.TID 0000.0001)                 1.000000000000000E-04
(PID.TID 0000.0001)     ;
(PID.TID 0000.0001) diffK4T =   /* Biharmonic diffusion of heat laterally ( m^4/s ) */
(PID.TID 0000.0001)                 0.000000000000000E+00
(PID.TID 0000.0001)     ;
(PID.TID 0000.0001) diffKhS =   /* Laplacian diffusion of salt laterally ( m^2/s ) */
(PID.TID 0000.0001)                 1.000000000000000E+03
(PID.TID 0000.0001)     ;
(PID.TID 0000.0001) diffK4S =   /* Biharmonic diffusion of salt laterally ( m^4/s ) */
(PID.TID 0000.0001)                 0.000000000000000E+00
(PID.TID 0000.0001)     ;
(PID.TID 0000.0001) diffKrNrT = /* vertical profile of vertical diffusion of Temp ( m^2/s )*/
(PID.TID 0000.0001)   100 @  1.000000000000000E-05              /* K =  1:100 */
(PID.TID 0000.0001)     ;
(PID.TID 0000.0001) diffKrNrS = /* vertical profile of vertical diffusion of Salt ( m^2/s )*/
(PID.TID 0000.0001)   100 @  1.000000000000000E-05              /* K =  1:100 */
(PID.TID 0000.0001)     ;
(PID.TID 0000.0001) diffKrBL79surf = /* Surface diffusion for Bryan and Lewis 79 ( m^2/s ) */
(PID.TID 0000.0001)                 0.000000000000000E+00
(PID.TID 0000.0001)     ;
(PID.TID 0000.0001) diffKrBL79deep = /* Deep diffusion for Bryan and Lewis 1979 ( m^2/s ) */
(PID.TID 0000.0001)                 0.000000000000000E+00
(PID.TID 0000.0001)     ;
(PID.TID 0000.0001) diffKrBL79scl = /* Depth scale for Bryan and Lewis 1979 ( m ) */
(PID.TID 0000.0001)                 2.000000000000000E+02
(PID.TID 0000.0001)     ;
(PID.TID 0000.0001) diffKrBL79Ho = /* Turning depth for Bryan and Lewis 1979 ( m ) */
(PID.TID 0000.0001)                -2.000000000000000E+03
(PID.TID 0000.0001)     ;
(PID.TID 0000.0001) ivdc_kappa = /* Implicit Vertical Diffusivity for Convection ( m^2/s) */
(PID.TID 0000.0001)                 0.000000000000000E+00
(PID.TID 0000.0001)     ;
(PID.TID 0000.0001) hMixCriteria=  /* Criteria for mixed-layer diagnostic */
(PID.TID 0000.0001)                -8.000000000000000E-01
(PID.TID 0000.0001)     ;
(PID.TID 0000.0001) dRhoSmall =  /* Parameter for mixed-layer diagnostic */
(PID.TID 0000.0001)                 1.000000000000000E-06
(PID.TID 0000.0001)     ;
(PID.TID 0000.0001) hMixSmooth=  /* Smoothing parameter for mixed-layer diagnostic */
(PID.TID 0000.0001)                 0.000000000000000E+00
(PID.TID 0000.0001)     ;
(PID.TID 0000.0001) eosType =  /* Type of Equation of State */
(PID.TID 0000.0001)               'LINEAR'
(PID.TID 0000.0001)     ;
(PID.TID 0000.0001) tAlpha = /* Linear EOS thermal expansion coefficient ( 1/oC ) */
(PID.TID 0000.0001)                 2.000000000000000E-04
(PID.TID 0000.0001)     ;
(PID.TID 0000.0001) sBeta  = /* Linear EOS haline contraction coefficient ( 1/psu ) */
(PID.TID 0000.0001)                 0.000000000000000E+00
(PID.TID 0000.0001)     ;
(PID.TID 0000.0001) rhoNil    = /* Reference density for Linear EOS ( kg/m^3 ) */
(PID.TID 0000.0001)                 9.998000000000000E+02
(PID.TID 0000.0001)     ;
(PID.TID 0000.0001) HeatCapacity_Cp =  /* Specific heat capacity ( J/kg/K ) */
(PID.TID 0000.0001)                 3.994000000000000E+03
(PID.TID 0000.0001)     ;
(PID.TID 0000.0001) celsius2K = /* 0 degree Celsius converted to Kelvin ( K ) */
(PID.TID 0000.0001)                 2.731500000000000E+02
(PID.TID 0000.0001)     ;
(PID.TID 0000.0001) rhoConst  = /* Reference density (Boussinesq)  ( kg/m^3 ) */
(PID.TID 0000.0001)                 9.998000000000000E+02
(PID.TID 0000.0001)     ;
(PID.TID 0000.0001) rhoFacC = /* normalized Reference density @ cell-Center (-) */
(PID.TID 0000.0001)   100 @  1.000000000000000E+00              /* K =  1:100 */
(PID.TID 0000.0001)     ;
(PID.TID 0000.0001) rhoFacF = /* normalized Reference density @ W-Interface (-) */
(PID.TID 0000.0001)   101 @  1.000000000000000E+00              /* K =  1:101 */
(PID.TID 0000.0001)     ;
(PID.TID 0000.0001) rhoConstFresh = /* Fresh-water reference density ( kg/m^3 ) */
(PID.TID 0000.0001)                 9.998000000000000E+02
(PID.TID 0000.0001)     ;
(PID.TID 0000.0001) gravity =   /* Gravitational acceleration ( m/s^2 ) */
(PID.TID 0000.0001)                 9.810000000000000E+00
(PID.TID 0000.0001)     ;
(PID.TID 0000.0001) gBaro =   /* Barotropic gravity ( m/s^2 ) */
(PID.TID 0000.0001)                 9.810000000000000E+00
(PID.TID 0000.0001)     ;
(PID.TID 0000.0001) rotationPeriod =   /* Rotation Period ( s ) */
(PID.TID 0000.0001)                 8.616400000000000E+04
(PID.TID 0000.0001)     ;
(PID.TID 0000.0001) omega =   /* Angular velocity ( rad/s ) */
(PID.TID 0000.0001)                 7.292123516990375E-05
(PID.TID 0000.0001)     ;
(PID.TID 0000.0001) f0 =   /* Reference coriolis parameter ( 1/s ) */
(PID.TID 0000.0001)                 0.000000000000000E+00
(PID.TID 0000.0001)     ;
(PID.TID 0000.0001) beta =   /* Beta ( 1/(m.s) ) */
(PID.TID 0000.0001)                 0.000000000000000E+00
(PID.TID 0000.0001)     ;
(PID.TID 0000.0001) fPrime =   /* Second coriolis parameter ( 1/s ) */
(PID.TID 0000.0001)                 0.000000000000000E+00
(PID.TID 0000.0001)     ;
(PID.TID 0000.0001) rigidLid =   /* Rigid lid on/off flag */
(PID.TID 0000.0001)                   F
(PID.TID 0000.0001)     ;
(PID.TID 0000.0001) implicitFreeSurface =   /* Implicit free surface on/off flag */
(PID.TID 0000.0001)                   T
(PID.TID 0000.0001)     ;
(PID.TID 0000.0001) freeSurfFac =   /* Implicit free surface factor */
(PID.TID 0000.0001)                 1.000000000000000E+00
(PID.TID 0000.0001)     ;
(PID.TID 0000.0001) implicSurfPress =  /* Surface Pressure implicit factor (0-1)*/
(PID.TID 0000.0001)                 1.000000000000000E+00
(PID.TID 0000.0001)     ;
(PID.TID 0000.0001) implicDiv2Dflow =  /* Barot. Flow Div. implicit factor (0-1)*/
(PID.TID 0000.0001)                 1.000000000000000E+00
(PID.TID 0000.0001)     ;
(PID.TID 0000.0001) uniformLin_PhiSurf = /* use uniform Bo_surf on/off flag*/
(PID.TID 0000.0001)                   T
(PID.TID 0000.0001)     ;
(PID.TID 0000.0001) uniformFreeSurfLev = /* free-surface level-index is uniform */
(PID.TID 0000.0001)                   T
(PID.TID 0000.0001)     ;
(PID.TID 0000.0001) hFacMin =   /* minimum partial cell factor (hFac) */
(PID.TID 0000.0001)                 1.000000000000000E-01
(PID.TID 0000.0001)     ;
(PID.TID 0000.0001) hFacMinDr = /* minimum partial cell thickness ( m) */
(PID.TID 0000.0001)                 0.000000000000000E+00
(PID.TID 0000.0001)     ;
(PID.TID 0000.0001) exactConserv =  /* Exact Volume Conservation on/off flag*/
(PID.TID 0000.0001)                   F
(PID.TID 0000.0001)     ;
(PID.TID 0000.0001) linFSConserveTr = /* Tracer correction for Lin Free Surface on/off flag*/
(PID.TID 0000.0001)                   F
(PID.TID 0000.0001)     ;
(PID.TID 0000.0001) nonlinFreeSurf = /* Non-linear Free Surf. options (-1,0,1,2,3)*/
(PID.TID 0000.0001)                       0
(PID.TID 0000.0001)      -1,0= Off ; 1,2,3= On, 2=+rescale gU,gV, 3=+update cg2d solv.
(PID.TID 0000.0001)     ;
(PID.TID 0000.0001) hFacInf =   /* lower threshold for hFac (nonlinFreeSurf only)*/
(PID.TID 0000.0001)                 2.000000000000000E-01
(PID.TID 0000.0001)     ;
(PID.TID 0000.0001) hFacSup =   /* upper threshold for hFac (nonlinFreeSurf only)*/
(PID.TID 0000.0001)                 2.000000000000000E+00
(PID.TID 0000.0001)     ;
(PID.TID 0000.0001) select_rStar = /* r* Vertical coord. options (=0 r coord.; >0 uses r*)*/
(PID.TID 0000.0001)                       0
(PID.TID 0000.0001)     ;
(PID.TID 0000.0001) useRealFreshWaterFlux = /* Real Fresh Water Flux on/off flag*/
(PID.TID 0000.0001)                   F
(PID.TID 0000.0001)     ;
(PID.TID 0000.0001) temp_EvPrRn = /* Temp. of Evap/Prec/R (UNSET=use local T)(oC)*/
(PID.TID 0000.0001)                 1.234567000000000E+05
(PID.TID 0000.0001)     ;
(PID.TID 0000.0001) salt_EvPrRn = /* Salin. of Evap/Prec/R (UNSET=use local S)(psu)*/
(PID.TID 0000.0001)                 0.000000000000000E+00
(PID.TID 0000.0001)     ;
(PID.TID 0000.0001) selectAddFluid = /* option for mass source/sink of fluid (=0: off) */
(PID.TID 0000.0001)                       0
(PID.TID 0000.0001)     ;
(PID.TID 0000.0001) temp_addMass = /* Temp. of addMass array (UNSET=use local T)(oC)*/
(PID.TID 0000.0001)                 1.234567000000000E+05
(PID.TID 0000.0001)     ;
(PID.TID 0000.0001) salt_addMass = /* Salin. of addMass array (UNSET=use local S)(psu)*/
(PID.TID 0000.0001)                 0.000000000000000E+00
(PID.TID 0000.0001)     ;
(PID.TID 0000.0001) convertFW2Salt = /* convert F.W. Flux to Salt Flux (-1=use local S)(psu)*/
(PID.TID 0000.0001)                 3.500000000000000E+01
(PID.TID 0000.0001)     ;
(PID.TID 0000.0001) use3Dsolver = /* use 3-D pressure solver on/off flag */
(PID.TID 0000.0001)                   F
(PID.TID 0000.0001)     ;
(PID.TID 0000.0001) nonHydrostatic =  /* Non-Hydrostatic on/off flag */
(PID.TID 0000.0001)                   F
(PID.TID 0000.0001)     ;
(PID.TID 0000.0001) nh_Am2 = /* Non-Hydrostatic terms scaling factor */
(PID.TID 0000.0001)                 1.000000000000000E+00
(PID.TID 0000.0001)     ;
(PID.TID 0000.0001) implicitNHPress = /* Non-Hyd Pressure implicit factor (0-1)*/
(PID.TID 0000.0001)                 1.000000000000000E+00
(PID.TID 0000.0001)     ;
(PID.TID 0000.0001) selectNHfreeSurf = /* Non-Hyd (free-)Surface option */
(PID.TID 0000.0001)                       0
(PID.TID 0000.0001)     ;
(PID.TID 0000.0001) quasiHydrostatic = /* Quasi-Hydrostatic on/off flag */
(PID.TID 0000.0001)                   F
(PID.TID 0000.0001)     ;
(PID.TID 0000.0001) calc_wVelocity = /* vertical velocity calculation on/off flag */
(PID.TID 0000.0001)                   T
(PID.TID 0000.0001)     ;
(PID.TID 0000.0001) momStepping =  /* Momentum equation on/off flag */
(PID.TID 0000.0001)                   T
(PID.TID 0000.0001)     ;
(PID.TID 0000.0001) vectorInvariantMomentum= /* Vector-Invariant Momentum on/off */
(PID.TID 0000.0001)                   F
(PID.TID 0000.0001)     ;
(PID.TID 0000.0001) momAdvection =  /* Momentum advection on/off flag */
(PID.TID 0000.0001)                   T
(PID.TID 0000.0001)     ;
(PID.TID 0000.0001) momViscosity =  /* Momentum viscosity on/off flag */
(PID.TID 0000.0001)                   T
(PID.TID 0000.0001)     ;
(PID.TID 0000.0001) momImplVertAdv= /* Momentum implicit vert. advection on/off*/
(PID.TID 0000.0001)                   F
(PID.TID 0000.0001)     ;
(PID.TID 0000.0001) implicitViscosity = /* Implicit viscosity on/off flag */
(PID.TID 0000.0001)                   T
(PID.TID 0000.0001)     ;
(PID.TID 0000.0001) metricTerms =  /* metric-Terms on/off flag */
(PID.TID 0000.0001)                   F
(PID.TID 0000.0001)     ;
(PID.TID 0000.0001) useNHMTerms = /* Non-Hydrostatic Metric-Terms on/off */
(PID.TID 0000.0001)                   F
(PID.TID 0000.0001)     ;
(PID.TID 0000.0001) selectCoriMap = /* Coriolis Map options (0,1,2,3)*/
(PID.TID 0000.0001)                       1
(PID.TID 0000.0001)     0= f-Plane ; 1= Beta-Plane ; 2= Spherical ; 3= read from file
(PID.TID 0000.0001)     ;
(PID.TID 0000.0001) use3dCoriolis = /* 3-D Coriolis on/off flag */
(PID.TID 0000.0001)                   F
(PID.TID 0000.0001)     ;
(PID.TID 0000.0001) useCoriolis =  /* Coriolis on/off flag */
(PID.TID 0000.0001)                   T
(PID.TID 0000.0001)     ;
(PID.TID 0000.0001) useCDscheme =  /* CD scheme on/off flag */
(PID.TID 0000.0001)                   F
(PID.TID 0000.0001)     ;
(PID.TID 0000.0001) useEnergyConservingCoriolis= /* Flx-Form Coriolis scheme flag */
(PID.TID 0000.0001)                   F
(PID.TID 0000.0001)     ;
(PID.TID 0000.0001) useJamartWetPoints= /* Coriolis WetPoints method flag */
(PID.TID 0000.0001)                   F
(PID.TID 0000.0001)     ;
(PID.TID 0000.0001) useJamartMomAdv= /* V.I Non-linear terms Jamart flag */
(PID.TID 0000.0001)                   F
(PID.TID 0000.0001)     ;
(PID.TID 0000.0001) useAbsVorticity= /* V.I Works with f+zeta in Coriolis */
(PID.TID 0000.0001)                   F
(PID.TID 0000.0001)     ;
(PID.TID 0000.0001) selectVortScheme= /* V.I Scheme selector for Vorticity-Term */
(PID.TID 0000.0001)               123456789
(PID.TID 0000.0001)    = 0 : enstrophy (Shallow-Water Eq.) conserving scheme by Sadourny, JAS 75
(PID.TID 0000.0001)    = 1 : same as 0 with modified hFac
(PID.TID 0000.0001)    = 2 : energy conserving scheme (used by Sadourny in JAS 75 paper)
(PID.TID 0000.0001)    = 3 : energy (general) and enstrophy (2D, nonDiv.) conserving scheme
(PID.TID 0000.0001)          from Sadourny (Burridge & Haseler, ECMWF Rep.4, 1977)
(PID.TID 0000.0001)     ;
(PID.TID 0000.0001) upwindVorticity= /* V.I Upwind bias vorticity flag */
(PID.TID 0000.0001)                   F
(PID.TID 0000.0001)     ;
(PID.TID 0000.0001) highOrderVorticity= /* V.I High order vort. advect. flag */
(PID.TID 0000.0001)                   F
(PID.TID 0000.0001)     ;
(PID.TID 0000.0001) upwindShear= /* V.I Upwind vertical Shear advection flag */
(PID.TID 0000.0001)                   F
(PID.TID 0000.0001)     ;
(PID.TID 0000.0001) selectKEscheme= /* V.I Kinetic Energy scheme selector */
(PID.TID 0000.0001)                       0
(PID.TID 0000.0001)     ;
(PID.TID 0000.0001) momForcing =  /* Momentum forcing on/off flag */
(PID.TID 0000.0001)                   T
(PID.TID 0000.0001)     ;
(PID.TID 0000.0001) momPressureForcing =  /* Momentum pressure term on/off flag */
(PID.TID 0000.0001)                   T
(PID.TID 0000.0001)     ;
(PID.TID 0000.0001) implicitIntGravWave= /* Implicit Internal Gravity Wave flag */
(PID.TID 0000.0001)                   F
(PID.TID 0000.0001)     ;
(PID.TID 0000.0001) staggerTimeStep =    /* Stagger time stepping on/off flag */
(PID.TID 0000.0001)                   T
(PID.TID 0000.0001)     ;
(PID.TID 0000.0001) doResetHFactors = /* reset thickness factors @ each time-step */
(PID.TID 0000.0001)                   F
(PID.TID 0000.0001)     ;
(PID.TID 0000.0001) multiDimAdvection =  /* enable/disable Multi-Dim Advection */
(PID.TID 0000.0001)                   T
(PID.TID 0000.0001)     ;
(PID.TID 0000.0001) useMultiDimAdvec =   /* Multi-Dim Advection is/is-not used */
(PID.TID 0000.0001)                   T
(PID.TID 0000.0001)     ;
(PID.TID 0000.0001) implicitDiffusion = /* Implicit Diffusion on/off flag */
(PID.TID 0000.0001)                   T
(PID.TID 0000.0001)     ;
(PID.TID 0000.0001) tempStepping =  /* Temperature equation on/off flag */
(PID.TID 0000.0001)                   T
(PID.TID 0000.0001)     ;
(PID.TID 0000.0001) tempAdvection = /* Temperature advection on/off flag */
(PID.TID 0000.0001)                   T
(PID.TID 0000.0001)     ;
(PID.TID 0000.0001) tempImplVertAdv = /* Temp. implicit vert. advection on/off */
(PID.TID 0000.0001)                   F
(PID.TID 0000.0001)     ;
(PID.TID 0000.0001) tempForcing  =  /* Temperature forcing on/off flag */
(PID.TID 0000.0001)                   T
(PID.TID 0000.0001)     ;
(PID.TID 0000.0001) doThetaClimRelax = /* apply SST relaxation on/off flag */
(PID.TID 0000.0001)                   F
(PID.TID 0000.0001)     ;
(PID.TID 0000.0001) tempIsActiveTr = /* Temp. is a dynamically Active Tracer */
(PID.TID 0000.0001)                   T
(PID.TID 0000.0001)     ;
(PID.TID 0000.0001) saltStepping =  /* Salinity equation on/off flag */
(PID.TID 0000.0001)                   F
(PID.TID 0000.0001)     ;
(PID.TID 0000.0001) saltAdvection = /* Salinity advection on/off flag */
(PID.TID 0000.0001)                   F
(PID.TID 0000.0001)     ;
(PID.TID 0000.0001) saltImplVertAdv = /* Sali. implicit vert. advection on/off */
(PID.TID 0000.0001)                   F
(PID.TID 0000.0001)     ;
(PID.TID 0000.0001) saltForcing  =  /* Salinity forcing on/off flag */
(PID.TID 0000.0001)                   F
(PID.TID 0000.0001)     ;
(PID.TID 0000.0001) doSaltClimRelax = /* apply SSS relaxation on/off flag */
(PID.TID 0000.0001)                   F
(PID.TID 0000.0001)     ;
(PID.TID 0000.0001) saltIsActiveTr = /* Salt  is a dynamically Active Tracer */
(PID.TID 0000.0001)                   F
(PID.TID 0000.0001)     ;
(PID.TID 0000.0001)  readBinaryPrec = /* Precision used for reading binary files */
(PID.TID 0000.0001)                      64
(PID.TID 0000.0001)     ;
(PID.TID 0000.0001) writeBinaryPrec = /* Precision used for writing binary files */
(PID.TID 0000.0001)                      64
(PID.TID 0000.0001)     ;
(PID.TID 0000.0001)  globalFiles = /* write "global" (=not per tile) files */
(PID.TID 0000.0001)                   F
(PID.TID 0000.0001)     ;
(PID.TID 0000.0001)  useSingleCpuIO = /* only master MPI process does I/O */
(PID.TID 0000.0001)                   T
(PID.TID 0000.0001)     ;
(PID.TID 0000.0001)  useSingleCpuInput = /* only master process reads input */
(PID.TID 0000.0001)                   T
(PID.TID 0000.0001)     ;
(PID.TID 0000.0001) /* debLev[*]  : level of debug & auxiliary message printing */
(PID.TID 0000.0001) debLevZero =  0 ; /* level of disabled aux. msg printing */
(PID.TID 0000.0001)    debLevA =  1 ; /* level of minimum  aux. msg printing */
(PID.TID 0000.0001)    debLevB =  2 ; /* level of low aux. print (report read-file opening)*/
(PID.TID 0000.0001)    debLevC =  3 ; /* level of moderate debug prt (most pkgs debug msg) */
(PID.TID 0000.0001)    debLevD =  4 ; /* level of enhanced debug prt (add DEBUG_STATS prt) */
(PID.TID 0000.0001)    debLevE =  5 ; /* level of extensive debug printing */
(PID.TID 0000.0001) debugLevel =  /* select debug printing level */
(PID.TID 0000.0001)                       2
(PID.TID 0000.0001)     ;
(PID.TID 0000.0001) //
(PID.TID 0000.0001) // Elliptic solver(s) paramters ( PARM02 in namelist )
(PID.TID 0000.0001) //
(PID.TID 0000.0001) cg2dMaxIters =   /* Upper limit on 2d con. grad iterations  */
(PID.TID 0000.0001)                    1000
(PID.TID 0000.0001)     ;
(PID.TID 0000.0001) cg2dChkResFreq =   /* 2d con. grad convergence test frequency */
(PID.TID 0000.0001)                       1
(PID.TID 0000.0001)     ;
(PID.TID 0000.0001) cg2dUseMinResSol= /* use cg2d last-iter(=0) / min-resid.(=1) solution */
(PID.TID 0000.0001)                       0
(PID.TID 0000.0001)     ;
(PID.TID 0000.0001) cg2dTargetResidual =   /* 2d con. grad target residual  */
(PID.TID 0000.0001)                 1.000000000000000E-13
(PID.TID 0000.0001)     ;
(PID.TID 0000.0001) cg2dTargetResWunit =   /* CG2d target residual [W units] */
(PID.TID 0000.0001)                -1.000000000000000E+00
(PID.TID 0000.0001)     ;
(PID.TID 0000.0001) cg2dPreCondFreq =   /* Freq. for updating cg2d preconditioner */
(PID.TID 0000.0001)                       1
(PID.TID 0000.0001)     ;
(PID.TID 0000.0001) useSRCGSolver =  /* use single reduction CG solver(s) */
(PID.TID 0000.0001)                   F
(PID.TID 0000.0001)     ;
(PID.TID 0000.0001) printResidualFreq = /* Freq. for printing CG residual */
(PID.TID 0000.0001)                       0
(PID.TID 0000.0001)     ;
(PID.TID 0000.0001) //
(PID.TID 0000.0001) // Time stepping paramters ( PARM03 in namelist )
(PID.TID 0000.0001) //
(PID.TID 0000.0001) deltaTMom =   /* Momentum equation timestep ( s ) */
(PID.TID 0000.0001)                 1.500000000000000E+01
(PID.TID 0000.0001)     ;
(PID.TID 0000.0001) deltaTFreeSurf = /* FreeSurface equation timestep ( s ) */
(PID.TID 0000.0001)                 1.500000000000000E+01
(PID.TID 0000.0001)     ;
(PID.TID 0000.0001) dTtracerLev =  /* Tracer equation timestep ( s ) */
(PID.TID 0000.0001)   100 @  1.500000000000000E+01              /* K =  1:100 */
(PID.TID 0000.0001)     ;
(PID.TID 0000.0001) deltaTClock  =   /* Model clock timestep ( s ) */
(PID.TID 0000.0001)                 1.500000000000000E+01
(PID.TID 0000.0001)     ;
(PID.TID 0000.0001) cAdjFreq =   /* Convective adjustment interval ( s ) */
(PID.TID 0000.0001)                 0.000000000000000E+00
(PID.TID 0000.0001)     ;
(PID.TID 0000.0001) momForcingOutAB = /* =1: take Momentum Forcing out of Adams-Bash. stepping */
(PID.TID 0000.0001)                       0
(PID.TID 0000.0001)     ;
(PID.TID 0000.0001) tracForcingOutAB = /* =1: take T,S,pTr Forcing out of Adams-Bash. stepping */
(PID.TID 0000.0001)                       0
(PID.TID 0000.0001)     ;
(PID.TID 0000.0001) momDissip_In_AB = /* put Dissipation Tendency in Adams-Bash. stepping */
(PID.TID 0000.0001)                   T
(PID.TID 0000.0001)     ;
(PID.TID 0000.0001) doAB_onGtGs = /* apply AB on Tendencies (rather than on T,S)*/
(PID.TID 0000.0001)                   T
(PID.TID 0000.0001)     ;
(PID.TID 0000.0001) abEps =   /* Adams-Bashforth-2 stabilizing weight */
(PID.TID 0000.0001)                 1.000000000000000E-01
(PID.TID 0000.0001)     ;
(PID.TID 0000.0001) pickupStrictlyMatch= /* stop if pickup do not strictly match */
(PID.TID 0000.0001)                   T
(PID.TID 0000.0001)     ;
(PID.TID 0000.0001) nIter0   =   /* Run starting timestep number */
(PID.TID 0000.0001)                       0
(PID.TID 0000.0001)     ;
(PID.TID 0000.0001) nTimeSteps = /* Number of timesteps */
(PID.TID 0000.0001)                    7200
(PID.TID 0000.0001)     ;
(PID.TID 0000.0001) nEndIter =   /* Run ending timestep number */
(PID.TID 0000.0001)                    7200
(PID.TID 0000.0001)     ;
(PID.TID 0000.0001) baseTime =   /* Model base time ( s ) */
(PID.TID 0000.0001)                 0.000000000000000E+00
(PID.TID 0000.0001)     ;
(PID.TID 0000.0001) startTime =  /* Run start time ( s ) */
(PID.TID 0000.0001)                 0.000000000000000E+00
(PID.TID 0000.0001)     ;
(PID.TID 0000.0001) endTime  =   /* Integration ending time ( s ) */
(PID.TID 0000.0001)                 1.080000000000000E+05
(PID.TID 0000.0001)     ;
(PID.TID 0000.0001) pChkPtFreq = /* Permanent restart/pickup file interval ( s ) */
(PID.TID 0000.0001)                 2.160000000000000E+04
(PID.TID 0000.0001)     ;
(PID.TID 0000.0001) chkPtFreq  = /* Rolling restart/pickup file interval ( s ) */
(PID.TID 0000.0001)                 0.000000000000000E+00
(PID.TID 0000.0001)     ;
(PID.TID 0000.0001) pickup_write_mdsio =   /* Model IO flag. */
(PID.TID 0000.0001)                   T
(PID.TID 0000.0001)     ;
(PID.TID 0000.0001) pickup_read_mdsio =   /* Model IO flag. */
(PID.TID 0000.0001)                   T
(PID.TID 0000.0001)     ;
(PID.TID 0000.0001) pickup_write_immed =   /* Model IO flag. */
(PID.TID 0000.0001)                   F
(PID.TID 0000.0001)     ;
(PID.TID 0000.0001) writePickupAtEnd =   /* Model IO flag. */
(PID.TID 0000.0001)                   T
(PID.TID 0000.0001)     ;
(PID.TID 0000.0001) dumpFreq =   /* Model state write out interval ( s ). */
(PID.TID 0000.0001)                 7.200000000000000E+03
(PID.TID 0000.0001)     ;
(PID.TID 0000.0001) dumpInitAndLast= /* write out Initial & Last iter. model state */
(PID.TID 0000.0001)                   T
(PID.TID 0000.0001)     ;
(PID.TID 0000.0001) snapshot_mdsio =   /* Model IO flag. */
(PID.TID 0000.0001)                   T
(PID.TID 0000.0001)     ;
(PID.TID 0000.0001) monitorFreq =   /* Monitor output interval ( s ). */
(PID.TID 0000.0001)                 7.200000000000000E+03
(PID.TID 0000.0001)     ;
(PID.TID 0000.0001) monitorSelect = /* select group of variables to monitor */
(PID.TID 0000.0001)                       3
(PID.TID 0000.0001)     ;
(PID.TID 0000.0001) monitor_stdio =   /* Model IO flag. */
(PID.TID 0000.0001)                   T
(PID.TID 0000.0001)     ;
(PID.TID 0000.0001) externForcingPeriod =   /* forcing period (s) */
(PID.TID 0000.0001)                 0.000000000000000E+00
(PID.TID 0000.0001)     ;
(PID.TID 0000.0001) externForcingCycle =   /* period of the cyle (s). */
(PID.TID 0000.0001)                 0.000000000000000E+00
(PID.TID 0000.0001)     ;
(PID.TID 0000.0001) tauThetaClimRelax =   /* relaxation time scale (s) */
(PID.TID 0000.0001)                 0.000000000000000E+00
(PID.TID 0000.0001)     ;
(PID.TID 0000.0001) tauSaltClimRelax =   /* relaxation time scale (s) */
(PID.TID 0000.0001)                 0.000000000000000E+00
(PID.TID 0000.0001)     ;
(PID.TID 0000.0001) latBandClimRelax =   /* max. Lat. where relaxation */
(PID.TID 0000.0001)                 1.500000000000000E+04
(PID.TID 0000.0001)     ;
(PID.TID 0000.0001) //
(PID.TID 0000.0001) // Gridding paramters ( PARM04 in namelist )
(PID.TID 0000.0001) //
(PID.TID 0000.0001) usingCartesianGrid = /* Cartesian coordinates flag ( True/False ) */
(PID.TID 0000.0001)                   T
(PID.TID 0000.0001)     ;
(PID.TID 0000.0001) usingCylindricalGrid = /* Cylindrical coordinates flag ( True/False ) */
(PID.TID 0000.0001)                   F
(PID.TID 0000.0001)     ;
(PID.TID 0000.0001) usingSphericalPolarGrid = /* Spherical coordinates flag ( True/False ) */
(PID.TID 0000.0001)                   F
(PID.TID 0000.0001)     ;
(PID.TID 0000.0001) usingCurvilinearGrid = /* Curvilinear coordinates flag ( True/False ) */
(PID.TID 0000.0001)                   F
(PID.TID 0000.0001)     ;
(PID.TID 0000.0001) selectSigmaCoord = /* Hybrid-Sigma Vert. Coordinate option */
(PID.TID 0000.0001)                       0
(PID.TID 0000.0001)     ;
(PID.TID 0000.0001) Ro_SeaLevel = /* r(1) ( units of r ==  m ) */
(PID.TID 0000.0001)                 0.000000000000000E+00
(PID.TID 0000.0001)     ;
(PID.TID 0000.0001) rSigmaBnd = /* r/sigma transition ( units of r ==  m ) */
(PID.TID 0000.0001)                 1.234567000000000E+05
(PID.TID 0000.0001)     ;
(PID.TID 0000.0001) rkSign =   /* index orientation relative to vertical coordinate */
(PID.TID 0000.0001)                -1.000000000000000E+00
(PID.TID 0000.0001)     ;
(PID.TID 0000.0001) gravitySign = /* gravity orientation relative to vertical coordinate */
(PID.TID 0000.0001)                -1.000000000000000E+00
(PID.TID 0000.0001)     ;
(PID.TID 0000.0001) mass2rUnit = /* convert mass per unit area [kg/m2] to r-units [m] */
(PID.TID 0000.0001)                 1.000200040008002E-03
(PID.TID 0000.0001)     ;
(PID.TID 0000.0001) rUnit2mass = /* convert r-units [m] to mass per unit area [kg/m2] */
(PID.TID 0000.0001)                 9.998000000000000E+02
(PID.TID 0000.0001)     ;
(PID.TID 0000.0001) drC =   /* C spacing ( units of r ) */
(PID.TID 0000.0001)                 1.353562536445951E+00,      /* K =  1 */
(PID.TID 0000.0001)                 2.673354807502220E+00,      /* K =  2 */
(PID.TID 0000.0001)                 2.606656816903882E+00,      /* K =  3 */
(PID.TID 0000.0001)                 2.541622885987175E+00,      /* K =  4 */
(PID.TID 0000.0001)                 2.478211497839832E+00,      /* K =  5 */
(PID.TID 0000.0001)                 2.416382171362196E+00,      /* K =  6 */
(PID.TID 0000.0001)                 2.356095435424556E+00,      /* K =  7 */
(PID.TID 0000.0001)                 2.297312803669231E+00,      /* K =  8 */
(PID.TID 0000.0001)                 2.239996749941318E+00,      /* K =  9 */
(PID.TID 0000.0001)                 2.184110684332436E+00,      /* K = 10 */
(PID.TID 0000.0001)                 2.129618929822139E+00,      /* K = 11 */
(PID.TID 0000.0001)                 2.076486699502127E+00,      /* K = 12 */
(PID.TID 0000.0001)                 2.024680074368680E+00,      /* K = 13 */
(PID.TID 0000.0001)                 1.974165981669157E+00,      /* K = 14 */
(PID.TID 0000.0001)                 1.924912173788732E+00,      /* K = 15 */
(PID.TID 0000.0001)                 1.876887207663887E+00,      /* K = 16 */
(PID.TID 0000.0001)                 1.830060424709525E+00,      /* K = 17 */
(PID.TID 0000.0001)                 1.784401931246882E+00,      /* K = 18 */
(PID.TID 0000.0001)                 1.739882579419745E+00,      /* K = 19 */
(PID.TID 0000.0001)                 1.696473948586798E+00,      /* K = 20 */
(PID.TID 0000.0001)                 1.654148327178210E+00,      /* K = 21 */
(PID.TID 0000.0001)                 1.612878695004893E+00,      /* K = 22 */
(PID.TID 0000.0001)                 1.572638706009116E+00,      /* K = 23 */
(PID.TID 0000.0001)                 1.533402671445496E+00,      /* K = 24 */
(PID.TID 0000.0001)                 1.495145543481590E+00,      /* K = 25 */
(PID.TID 0000.0001)                 1.457842899207651E+00,      /* K = 26 */
(PID.TID 0000.0001)                 1.421470925045323E+00,      /* K = 27 */
(PID.TID 0000.0001)                 1.386006401545330E+00,      /* K = 28 */
(PID.TID 0000.0001)                 1.351426688564441E+00,      /* K = 29 */
(PID.TID 0000.0001)                 1.317709710812270E+00,      /* K = 30 */
(PID.TID 0000.0001)                 1.284833943758659E+00,      /* K = 31 */
(PID.TID 0000.0001)                 1.252778399892670E+00,      /* K = 32 */
(PID.TID 0000.0001)                 1.221522615324399E+00,      /* K = 33 */
(PID.TID 0000.0001)                 1.191046636721063E+00,      /* K = 34 */
(PID.TID 0000.0001)                 1.161331008569023E+00,      /* K = 35 */
(PID.TID 0000.0001)                 1.132356760753611E+00,      /* K = 36 */
(PID.TID 0000.0001)                 1.104105396448821E+00,      /* K = 37 */
(PID.TID 0000.0001)                 1.076558880309153E+00,      /* K = 38 */
(PID.TID 0000.0001)                 1.049699626956059E+00,      /* K = 39 */
(PID.TID 0000.0001)                 1.018219822785758E+00,      /* K = 40 */
(PID.TID 0000.0001)     3 @  1.000000000000000E+00,             /* K = 41: 43 */
(PID.TID 0000.0001)                 1.008367036018186E+00,      /* K = 44 */
(PID.TID 0000.0001)                 1.029741944637383E+00,      /* K = 45 */
(PID.TID 0000.0001)                 1.056090529574512E+00,      /* K = 46 */
(PID.TID 0000.0001)                 1.083113310538912E+00,      /* K = 47 */
(PID.TID 0000.0001)                 1.110827538562632E+00,      /* K = 48 */
(PID.TID 0000.0001)                 1.139250906089557E+00,      /* K = 49 */
(PID.TID 0000.0001)                 1.168401558270063E+00,      /* K = 50 */
(PID.TID 0000.0001)                 1.198298104544667E+00,      /* K = 51 */
(PID.TID 0000.0001)                 1.228959630524085E+00,      /* K = 52 */
(PID.TID 0000.0001)                 1.260405710173262E+00,      /* K = 53 */
(PID.TID 0000.0001)                 1.292656418307170E+00,      /* K = 54 */
(PID.TID 0000.0001)                 1.325732343406332E+00,      /* K = 55 */
(PID.TID 0000.0001)                 1.359654600760276E+00,      /* K = 56 */
(PID.TID 0000.0001)                 1.394444845947293E+00,      /* K = 57 */
(PID.TID 0000.0001)                 1.430125288659104E+00,      /* K = 58 */
(PID.TID 0000.0001)                 1.466718706879278E+00,      /* K = 59 */
(PID.TID 0000.0001)                 1.504248461424425E+00,      /* K = 60 */
(PID.TID 0000.0001)                 1.542738510857484E+00,      /* K = 61 */
(PID.TID 0000.0001)                 1.582213426782582E+00,      /* K = 62 */
(PID.TID 0000.0001)                 1.622698409531272E+00,      /* K = 63 */
(PID.TID 0000.0001)                 1.664219304250127E+00,      /* K = 64 */
(PID.TID 0000.0001)                 1.706802617399992E+00,      /* K = 65 */
(PID.TID 0000.0001)                 1.750475533677393E+00,      /* K = 66 */
(PID.TID 0000.0001)                 1.795265933368946E+00,      /* K = 67 */
(PID.TID 0000.0001)                 1.841202410149798E+00,      /* K = 68 */
(PID.TID 0000.0001)                 1.888314289337512E+00,      /* K = 69 */
(PID.TID 0000.0001)                 1.936631646613004E+00,      /* K = 70 */
(PID.TID 0000.0001)                 1.986185327220511E+00,      /* K = 71 */
(PID.TID 0000.0001)                 2.037006965658845E+00,      /* K = 72 */
(PID.TID 0000.0001)                 2.089129005876489E+00,      /* K = 73 */
(PID.TID 0000.0001)                 2.142584721983441E+00,      /* K = 74 */
(PID.TID 0000.0001)                 2.197408239493019E+00,      /* K = 75 */
(PID.TID 0000.0001)                 2.253634557107203E+00,      /* K = 76 */
(PID.TID 0000.0001)                 2.311299569059395E+00,      /* K = 77 */
(PID.TID 0000.0001)                 2.370440088028889E+00,      /* K = 78 */
(PID.TID 0000.0001)                 2.431093868641659E+00,      /* K = 79 */
(PID.TID 0000.0001)                 2.493299631572482E+00,      /* K = 80 */
(PID.TID 0000.0001)                 2.557097088263764E+00,      /* K = 81 */
(PID.TID 0000.0001)                 2.622526966276870E+00,      /* K = 82 */
(PID.TID 0000.0001)                 2.689631035292131E+00,      /* K = 83 */
(PID.TID 0000.0001)                 2.758452133774128E+00,      /* K = 84 */
(PID.TID 0000.0001)                 2.829034196319270E+00,      /* K = 85 */
(PID.TID 0000.0001)                 2.901422281703137E+00,      /* K = 86 */
(PID.TID 0000.0001)                 2.975662601645483E+00,      /* K = 87 */
(PID.TID 0000.0001)                 3.051802550311265E+00,      /* K = 88 */
(PID.TID 0000.0001)                 3.129890734566534E+00,      /* K = 89 */
(PID.TID 0000.0001)                 3.209977005008493E+00,      /* K = 90 */
(PID.TID 0000.0001)                 3.292112487789551E+00,      /* K = 91 */
(PID.TID 0000.0001)                 3.376349617255663E+00,      /* K = 92 */
(PID.TID 0000.0001)                 3.462742169419818E+00,      /* K = 93 */
(PID.TID 0000.0001)                 3.551345296292022E+00,      /* K = 94 */
(PID.TID 0000.0001)                 3.642215561087707E+00,      /* K = 95 */
(PID.TID 0000.0001)                 3.735410974337039E+00,      /* K = 96 */
(PID.TID 0000.0001)                 3.830991030918167E+00,      /* K = 97 */
(PID.TID 0000.0001)                 3.929016748038072E+00,      /* K = 98 */
(PID.TID 0000.0001)                 4.029550704185248E+00,      /* K = 99 */
(PID.TID 0000.0001)                 4.132657079079086E+00,      /* K =100 */
(PID.TID 0000.0001)                 2.092430747509357E+00       /* K =101 */
(PID.TID 0000.0001)     ;
(PID.TID 0000.0001) drF =   /* W spacing ( units of r ) */
(PID.TID 0000.0001)                 2.707125072891902E+00,      /* K =  1 */
(PID.TID 0000.0001)                 2.639584542112537E+00,      /* K =  2 */
(PID.TID 0000.0001)                 2.573729091695228E+00,      /* K =  3 */
(PID.TID 0000.0001)                 2.509516680279123E+00,      /* K =  4 */
(PID.TID 0000.0001)                 2.446906315400540E+00,      /* K =  5 */
(PID.TID 0000.0001)                 2.385858027323851E+00,      /* K =  6 */
(PID.TID 0000.0001)                 2.326332843525261E+00,      /* K =  7 */
(PID.TID 0000.0001)                 2.268292763813200E+00,      /* K =  8 */
(PID.TID 0000.0001)                 2.211700736069437E+00,      /* K =  9 */
(PID.TID 0000.0001)                 2.156520632595434E+00,      /* K = 10 */
(PID.TID 0000.0001)                 2.102717227048843E+00,      /* K = 11 */
(PID.TID 0000.0001)                 2.050256171955411E+00,      /* K = 12 */
(PID.TID 0000.0001)                 1.999103976781950E+00,      /* K = 13 */
(PID.TID 0000.0001)                 1.949227986556365E+00,      /* K = 14 */
(PID.TID 0000.0001)                 1.900596361021098E+00,      /* K = 15 */
(PID.TID 0000.0001)                 1.853178054306675E+00,      /* K = 16 */
(PID.TID 0000.0001)                 1.806942795112376E+00,      /* K = 17 */
(PID.TID 0000.0001)                 1.761861067381389E+00,      /* K = 18 */
(PID.TID 0000.0001)                 1.717904091458102E+00,      /* K = 19 */
(PID.TID 0000.0001)                 1.675043805715495E+00,      /* K = 20 */
(PID.TID 0000.0001)                 1.633252848640927E+00,      /* K = 21 */
(PID.TID 0000.0001)                 1.592504541368859E+00,      /* K = 22 */
(PID.TID 0000.0001)                 1.552772870649374E+00,      /* K = 23 */
(PID.TID 0000.0001)                 1.514032472241619E+00,      /* K = 24 */
(PID.TID 0000.0001)                 1.476258614721562E+00,      /* K = 25 */
(PID.TID 0000.0001)                 1.439427183693740E+00,      /* K = 26 */
(PID.TID 0000.0001)                 1.403514666396906E+00,      /* K = 27 */
(PID.TID 0000.0001)                 1.368498136693753E+00,      /* K = 28 */
(PID.TID 0000.0001)                 1.334355240435129E+00,      /* K = 29 */
(PID.TID 0000.0001)                 1.301064181189410E+00,      /* K = 30 */
(PID.TID 0000.0001)                 1.268603706327907E+00,      /* K = 31 */
(PID.TID 0000.0001)                 1.236953093457433E+00,      /* K = 32 */
(PID.TID 0000.0001)                 1.206092137191365E+00,      /* K = 33 */
(PID.TID 0000.0001)                 1.176001136250761E+00,      /* K = 34 */
(PID.TID 0000.0001)                 1.146660880887286E+00,      /* K = 35 */
(PID.TID 0000.0001)                 1.118052640619935E+00,      /* K = 36 */
(PID.TID 0000.0001)                 1.090158152277706E+00,      /* K = 37 */
(PID.TID 0000.0001)                 1.062959608340601E+00,      /* K = 38 */
(PID.TID 0000.0001)                 1.036439645571516E+00,      /* K = 39 */
(PID.TID 0000.0001)     4 @  1.000000000000000E+00,             /* K = 40: 43 */
(PID.TID 0000.0001)                 1.016734072036371E+00,      /* K = 44 */
(PID.TID 0000.0001)                 1.042749817238396E+00,      /* K = 45 */
(PID.TID 0000.0001)                 1.069431241910629E+00,      /* K = 46 */
(PID.TID 0000.0001)                 1.096795379167196E+00,      /* K = 47 */
(PID.TID 0000.0001)                 1.124859697958069E+00,      /* K = 48 */
(PID.TID 0000.0001)                 1.153642114221046E+00,      /* K = 49 */
(PID.TID 0000.0001)                 1.183161002319080E+00,      /* K = 50 */
(PID.TID 0000.0001)                 1.213435206770255E+00,      /* K = 51 */
(PID.TID 0000.0001)                 1.244484054277915E+00,      /* K = 52 */
(PID.TID 0000.0001)                 1.276327366068610E+00,      /* K = 53 */
(PID.TID 0000.0001)                 1.308985470545730E+00,      /* K = 54 */
(PID.TID 0000.0001)                 1.342479216266933E+00,      /* K = 55 */
(PID.TID 0000.0001)                 1.376829985253619E+00,      /* K = 56 */
(PID.TID 0000.0001)                 1.412059706640966E+00,      /* K = 57 */
(PID.TID 0000.0001)                 1.448190870677242E+00,      /* K = 58 */
(PID.TID 0000.0001)                 1.485246543081313E+00,      /* K = 59 */
(PID.TID 0000.0001)                 1.523250379767538E+00,      /* K = 60 */
(PID.TID 0000.0001)                 1.562226641947430E+00,      /* K = 61 */
(PID.TID 0000.0001)                 1.602200211617735E+00,      /* K = 62 */
(PID.TID 0000.0001)                 1.643196607444809E+00,      /* K = 63 */
(PID.TID 0000.0001)                 1.685242001055446E+00,      /* K = 64 */
(PID.TID 0000.0001)                 1.728363233744537E+00,      /* K = 65 */
(PID.TID 0000.0001)                 1.772587833610249E+00,      /* K = 66 */
(PID.TID 0000.0001)                 1.817944033127642E+00,      /* K = 67 */
(PID.TID 0000.0001)                 1.864460787171955E+00,      /* K = 68 */
(PID.TID 0000.0001)                 1.912167791503070E+00,      /* K = 69 */
(PID.TID 0000.0001)                 1.961095501722937E+00,      /* K = 70 */
(PID.TID 0000.0001)                 2.011275152718084E+00,      /* K = 71 */
(PID.TID 0000.0001)                 2.062738778599606E+00,      /* K = 72 */
(PID.TID 0000.0001)                 2.115519233153373E+00,      /* K = 73 */
(PID.TID 0000.0001)                 2.169650210813509E+00,      /* K = 74 */
(PID.TID 0000.0001)                 2.225166268172530E+00,      /* K = 75 */
(PID.TID 0000.0001)                 2.282102846041876E+00,      /* K = 76 */
(PID.TID 0000.0001)                 2.340496292076914E+00,      /* K = 77 */
(PID.TID 0000.0001)                 2.400383883980863E+00,      /* K = 78 */
(PID.TID 0000.0001)                 2.461803853302456E+00,      /* K = 79 */
(PID.TID 0000.0001)                 2.524795409842509E+00,      /* K = 80 */
(PID.TID 0000.0001)                 2.589398766685018E+00,      /* K = 81 */
(PID.TID 0000.0001)                 2.655655165868721E+00,      /* K = 82 */
(PID.TID 0000.0001)                 2.723606904715541E+00,      /* K = 83 */
(PID.TID 0000.0001)                 2.793297362832715E+00,      /* K = 84 */
(PID.TID 0000.0001)                 2.864771029805825E+00,      /* K = 85 */
(PID.TID 0000.0001)                 2.938073533600448E+00,      /* K = 86 */
(PID.TID 0000.0001)                 3.013251669690518E+00,      /* K = 87 */
(PID.TID 0000.0001)                 3.090353430932014E+00,      /* K = 88 */
(PID.TID 0000.0001)                 3.169428038201054E+00,      /* K = 89 */
(PID.TID 0000.0001)                 3.250525971815932E+00,      /* K = 90 */
(PID.TID 0000.0001)                 3.333699003763170E+00,      /* K = 91 */
(PID.TID 0000.0001)                 3.419000230748157E+00,      /* K = 92 */
(PID.TID 0000.0001)                 3.506484108091479E+00,      /* K = 93 */
(PID.TID 0000.0001)                 3.596206484492564E+00,      /* K = 94 */
(PID.TID 0000.0001)                 3.688224637682850E+00,      /* K = 95 */
(PID.TID 0000.0001)                 3.782597310991227E+00,      /* K = 96 */
(PID.TID 0000.0001)                 3.879384750845106E+00,      /* K = 97 */
(PID.TID 0000.0001)                 3.978648745231038E+00,      /* K = 98 */
(PID.TID 0000.0001)                 4.080452663139458E+00,      /* K = 99 */
(PID.TID 0000.0001)                 4.184861495018715E+00       /* K =100 */
(PID.TID 0000.0001)     ;
(PID.TID 0000.0001) delX = /* U spacing ( m - cartesian, degrees - spherical ) */
(PID.TID 0000.0001)                 1.263294638016668E+03,      /* I =  1 */
(PID.TID 0000.0001)                 1.237496063806571E+03,      /* I =  2 */
(PID.TID 0000.0001)                 1.212224339320398E+03,      /* I =  3 */
(PID.TID 0000.0001)      . . .
(PID.TID 0000.0001)                 4.790113490274632E+02,      /* I = 48 */
(PID.TID 0000.0001)                 4.692291418815790E+02,      /* I = 49 */
(PID.TID 0000.0001)                 4.596467036489769E+02,      /* I = 50 */
(PID.TID 0000.0001)                 4.502599547167311E+02,      /* I = 51 */
(PID.TID 0000.0001)                 4.410648987843862E+02,      /* I = 52 */
(PID.TID 0000.0001)                 4.320576211625778E+02,      /* I = 53 */
(PID.TID 0000.0001)      . . .
(PID.TID 0000.0001)                 2.000000000000000E+02,      /* I = 98 */
(PID.TID 0000.0001)                 2.000000000000000E+02,      /* I = 99 */
(PID.TID 0000.0001)                 2.000000000000000E+02,      /* I =100 */
(PID.TID 0000.0001)                 2.000000000000000E+02,      /* I =101 */
(PID.TID 0000.0001)                 2.000000000000000E+02,      /* I =102 */
(PID.TID 0000.0001)                 2.000000000000000E+02,      /* I =103 */
(PID.TID 0000.0001)      . . .
(PID.TID 0000.0001)                 3.612641354876311E+02,      /* I =148 */
(PID.TID 0000.0001)                 3.687955530665730E+02,      /* I =149 */
(PID.TID 0000.0001)                 3.764839811128614E+02,      /* I =150 */
(PID.TID 0000.0001)                 3.843326928863569E+02,      /* I =151 */
(PID.TID 0000.0001)                 3.923450298858749E+02,      /* I =152 */
(PID.TID 0000.0001)                 4.005244032717896E+02,      /* I =153 */
(PID.TID 0000.0001)      . . .
(PID.TID 0000.0001)                 1.013599012055986E+03,      /* I =198 */
(PID.TID 0000.0001)                 1.034729915092050E+03,      /* I =199 */
(PID.TID 0000.0001)                 1.056301342495056E+03       /* I =200 */
(PID.TID 0000.0001)     ;
(PID.TID 0000.0001) delY = /* V spacing ( m - cartesian, degrees - spherical ) */
(PID.TID 0000.0001)                 5.000000000000000E+03       /* J =  1 */
(PID.TID 0000.0001)     ;
(PID.TID 0000.0001) xgOrigin = /* X-axis origin of West  edge (cartesian: m, lat-lon: deg) */
(PID.TID 0000.0001)                 0.000000000000000E+00
(PID.TID 0000.0001)     ;
(PID.TID 0000.0001) ygOrigin = /* Y-axis origin of South edge (cartesian: m, lat-lon: deg) */
(PID.TID 0000.0001)                 0.000000000000000E+00
(PID.TID 0000.0001)     ;
(PID.TID 0000.0001) rSphere =  /* Radius ( ignored - cartesian, m - spherical ) */
(PID.TID 0000.0001)                 6.370000000000000E+06
(PID.TID 0000.0001)     ;
(PID.TID 0000.0001) deepAtmosphere = /* Deep/Shallow Atmosphere flag (True/False) */
(PID.TID 0000.0001)                   F
(PID.TID 0000.0001)     ;
(PID.TID 0000.0001) xC =  /* xC(:,1,:,1) : P-point X coord ( deg. or m if cartesian) */
(PID.TID 0000.0001)                 6.316473190083342E+02,      /* I =  1 */
(PID.TID 0000.0001)                 1.882042669919954E+03,      /* I =  2 */
(PID.TID 0000.0001)                 3.106902871483439E+03,      /* I =  3 */
(PID.TID 0000.0001)      . . .
(PID.TID 0000.0001)                 3.864398747251778E+04,      /* I = 48 */
(PID.TID 0000.0001)                 3.911810771797229E+04,      /* I = 49 */
(PID.TID 0000.0001)                 3.958254564073758E+04,      /* I = 50 */
(PID.TID 0000.0001)                 4.003749896992043E+04,      /* I = 51 */
(PID.TID 0000.0001)                 4.048316139667099E+04,      /* I = 52 */
(PID.TID 0000.0001)                 4.091972265664447E+04,      /* I = 53 */
(PID.TID 0000.0001)      . . .
(PID.TID 0000.0001)                 5.369999999999999E+04,      /* I = 98 */
(PID.TID 0000.0001)                 5.389999999999999E+04,      /* I = 99 */
(PID.TID 0000.0001)                 5.409999999999999E+04,      /* I =100 */
(PID.TID 0000.0001)                 5.429999999999999E+04,      /* I =101 */
(PID.TID 0000.0001)                 5.449999999999999E+04,      /* I =102 */
(PID.TID 0000.0001)                 5.469999999999999E+04,      /* I =103 */
(PID.TID 0000.0001)      . . .
(PID.TID 0000.0001)                 6.578505387737689E+04,      /* I =148 */
(PID.TID 0000.0001)                 6.615008372165399E+04,      /* I =149 */
(PID.TID 0000.0001)                 6.652272348874371E+04,      /* I =150 */
(PID.TID 0000.0001)                 6.690313182574332E+04,      /* I =151 */
(PID.TID 0000.0001)                 6.729147068712943E+04,      /* I =152 */
(PID.TID 0000.0001)                 6.768790540370827E+04,      /* I =153 */
(PID.TID 0000.0001)      . . .
(PID.TID 0000.0001)                 9.740216923638493E+04,      /* I =198 */
(PID.TID 0000.0001)                 9.842633369995895E+04,      /* I =199 */
(PID.TID 0000.0001)                 9.947184932875249E+04       /* I =200 */
(PID.TID 0000.0001)     ;
(PID.TID 0000.0001) yC =  /* yC(1,:,1,:) : P-point Y coord ( deg. or m if cartesian) */
(PID.TID 0000.0001)                 2.500000000000000E+03       /* J =  1 */
(PID.TID 0000.0001)     ;
(PID.TID 0000.0001) rcoord = /* P-point R coordinate (  units of r ) */
(PID.TID 0000.0001)                -1.353562536445951E+00,      /* K =  1 */
(PID.TID 0000.0001)                -4.026917343948170E+00,      /* K =  2 */
(PID.TID 0000.0001)                -6.633574160852053E+00,      /* K =  3 */
(PID.TID 0000.0001)                -9.175197046839228E+00,      /* K =  4 */
(PID.TID 0000.0001)                -1.165340854467906E+01,      /* K =  5 */
(PID.TID 0000.0001)                -1.406979071604126E+01,      /* K =  6 */
(PID.TID 0000.0001)                -1.642588615146581E+01,      /* K =  7 */
(PID.TID 0000.0001)                -1.872319895513504E+01,      /* K =  8 */
(PID.TID 0000.0001)                -2.096319570507636E+01,      /* K =  9 */
(PID.TID 0000.0001)                -2.314730638940879E+01,      /* K = 10 */
(PID.TID 0000.0001)                -2.527692531923093E+01,      /* K = 11 */
(PID.TID 0000.0001)                -2.735341201873306E+01,      /* K = 12 */
(PID.TID 0000.0001)                -2.937809209310174E+01,      /* K = 13 */
(PID.TID 0000.0001)                -3.135225807477090E+01,      /* K = 14 */
(PID.TID 0000.0001)                -3.327717024855963E+01,      /* K = 15 */
(PID.TID 0000.0001)                -3.515405745622351E+01,      /* K = 16 */
(PID.TID 0000.0001)                -3.698411788093303E+01,      /* K = 17 */
(PID.TID 0000.0001)                -3.876851981217992E+01,      /* K = 18 */
(PID.TID 0000.0001)                -4.050840239159966E+01,      /* K = 19 */
(PID.TID 0000.0001)                -4.220487634018646E+01,      /* K = 20 */
(PID.TID 0000.0001)                -4.385902466736467E+01,      /* K = 21 */
(PID.TID 0000.0001)                -4.547190336236957E+01,      /* K = 22 */
(PID.TID 0000.0001)                -4.704454206837868E+01,      /* K = 23 */
(PID.TID 0000.0001)                -4.857794473982418E+01,      /* K = 24 */
(PID.TID 0000.0001)                -5.007309028330577E+01,      /* K = 25 */
(PID.TID 0000.0001)                -5.153093318251342E+01,      /* K = 26 */
(PID.TID 0000.0001)                -5.295240410755873E+01,      /* K = 27 */
(PID.TID 0000.0001)                -5.433841050910407E+01,      /* K = 28 */
(PID.TID 0000.0001)                -5.568983719766851E+01,      /* K = 29 */
(PID.TID 0000.0001)                -5.700754690848078E+01,      /* K = 30 */
(PID.TID 0000.0001)                -5.829238085223943E+01,      /* K = 31 */
(PID.TID 0000.0001)                -5.954515925213210E+01,      /* K = 32 */
(PID.TID 0000.0001)                -6.076668186745650E+01,      /* K = 33 */
(PID.TID 0000.0001)                -6.195772850417756E+01,      /* K = 34 */
(PID.TID 0000.0001)                -6.311905951274658E+01,      /* K = 35 */
(PID.TID 0000.0001)                -6.425141627350020E+01,      /* K = 36 */
(PID.TID 0000.0001)                -6.535552166994901E+01,      /* K = 37 */
(PID.TID 0000.0001)                -6.643208055025816E+01,      /* K = 38 */
(PID.TID 0000.0001)                -6.748178017721422E+01,      /* K = 39 */
(PID.TID 0000.0001)                -6.849999999999997E+01,      /* K = 40 */
(PID.TID 0000.0001)                -6.949999999999997E+01,      /* K = 41 */
(PID.TID 0000.0001)                -7.049999999999997E+01,      /* K = 42 */
(PID.TID 0000.0001)                -7.149999999999997E+01,      /* K = 43 */
(PID.TID 0000.0001)                -7.250836703601816E+01,      /* K = 44 */
(PID.TID 0000.0001)                -7.353810898065554E+01,      /* K = 45 */
(PID.TID 0000.0001)                -7.459419951023006E+01,      /* K = 46 */
(PID.TID 0000.0001)                -7.567731282076896E+01,      /* K = 47 */
(PID.TID 0000.0001)                -7.678814035933159E+01,      /* K = 48 */
(PID.TID 0000.0001)                -7.792739126542115E+01,      /* K = 49 */
(PID.TID 0000.0001)                -7.909579282369121E+01,      /* K = 50 */
(PID.TID 0000.0001)                -8.029409092823587E+01,      /* K = 51 */
(PID.TID 0000.0001)                -8.152305055875996E+01,      /* K = 52 */
(PID.TID 0000.0001)                -8.278345626893322E+01,      /* K = 53 */
(PID.TID 0000.0001)                -8.407611268724040E+01,      /* K = 54 */
(PID.TID 0000.0001)                -8.540184503064673E+01,      /* K = 55 */
(PID.TID 0000.0001)                -8.676149963140701E+01,      /* K = 56 */
(PID.TID 0000.0001)                -8.815594447735430E+01,      /* K = 57 */
(PID.TID 0000.0001)                -8.958606976601340E+01,      /* K = 58 */
(PID.TID 0000.0001)                -9.105278847289267E+01,      /* K = 59 */
(PID.TID 0000.0001)                -9.255703693431710E+01,      /* K = 60 */
(PID.TID 0000.0001)                -9.409977544517459E+01,      /* K = 61 */
(PID.TID 0000.0001)                -9.568198887195717E+01,      /* K = 62 */
(PID.TID 0000.0001)                -9.730468728148844E+01,      /* K = 63 */
(PID.TID 0000.0001)                -9.896890658573857E+01,      /* K = 64 */
(PID.TID 0000.0001)                -1.006757092031386E+02,      /* K = 65 */
(PID.TID 0000.0001)                -1.024261847368159E+02,      /* K = 66 */
(PID.TID 0000.0001)                -1.042214506701849E+02,      /* K = 67 */
(PID.TID 0000.0001)                -1.060626530803347E+02,      /* K = 68 */
(PID.TID 0000.0001)                -1.079509673696722E+02,      /* K = 69 */
(PID.TID 0000.0001)                -1.098875990162852E+02,      /* K = 70 */
(PID.TID 0000.0001)                -1.118737843435057E+02,      /* K = 71 */
(PID.TID 0000.0001)                -1.139107913091646E+02,      /* K = 72 */
(PID.TID 0000.0001)                -1.159999203150411E+02,      /* K = 73 */
(PID.TID 0000.0001)                -1.181425050370245E+02,      /* K = 74 */
(PID.TID 0000.0001)                -1.203399132765175E+02,      /* K = 75 */
(PID.TID 0000.0001)                -1.225935478336247E+02,      /* K = 76 */
(PID.TID 0000.0001)                -1.249048474026841E+02,      /* K = 77 */
(PID.TID 0000.0001)                -1.272752874907130E+02,      /* K = 78 */
(PID.TID 0000.0001)                -1.297063813593547E+02,      /* K = 79 */
(PID.TID 0000.0001)                -1.321996809909272E+02,      /* K = 80 */
(PID.TID 0000.0001)                -1.347567780791909E+02,      /* K = 81 */
(PID.TID 0000.0001)                -1.373793050454678E+02,      /* K = 82 */
(PID.TID 0000.0001)                -1.400689360807599E+02,      /* K = 83 */
(PID.TID 0000.0001)                -1.428273882145340E+02,      /* K = 84 */
(PID.TID 0000.0001)                -1.456564224108533E+02,      /* K = 85 */
(PID.TID 0000.0001)                -1.485578446925564E+02,      /* K = 86 */
(PID.TID 0000.0001)                -1.515335072942019E+02,      /* K = 87 */
(PID.TID 0000.0001)                -1.545853098445132E+02,      /* K = 88 */
(PID.TID 0000.0001)                -1.577152005790797E+02,      /* K = 89 */
(PID.TID 0000.0001)                -1.609251775840882E+02,      /* K = 90 */
(PID.TID 0000.0001)                -1.642172900718778E+02,      /* K = 91 */
(PID.TID 0000.0001)                -1.675936396891335E+02,      /* K = 92 */
(PID.TID 0000.0001)                -1.710563818585533E+02,      /* K = 93 */
(PID.TID 0000.0001)                -1.746077271548453E+02,      /* K = 94 */
(PID.TID 0000.0001)                -1.782499427159330E+02,      /* K = 95 */
(PID.TID 0000.0001)                -1.819853536902700E+02,      /* K = 96 */
(PID.TID 0000.0001)                -1.858163447211882E+02,      /* K = 97 */
(PID.TID 0000.0001)                -1.897453614692263E+02,      /* K = 98 */
(PID.TID 0000.0001)                -1.937749121734115E+02,      /* K = 99 */
(PID.TID 0000.0001)                -1.979075692524906E+02       /* K =100 */
(PID.TID 0000.0001)     ;
(PID.TID 0000.0001) rF =   /* W-Interf. R coordinate (  units of r ) */
(PID.TID 0000.0001)                 0.000000000000000E+00,      /* K =  1 */
(PID.TID 0000.0001)                -2.707125072891902E+00,      /* K =  2 */
(PID.TID 0000.0001)                -5.346709615004439E+00,      /* K =  3 */
(PID.TID 0000.0001)                -7.920438706699667E+00,      /* K =  4 */
(PID.TID 0000.0001)                -1.042995538697879E+01,      /* K =  5 */
(PID.TID 0000.0001)                -1.287686170237933E+01,      /* K =  6 */
(PID.TID 0000.0001)                -1.526271972970318E+01,      /* K =  7 */
(PID.TID 0000.0001)                -1.758905257322844E+01,      /* K =  8 */
(PID.TID 0000.0001)                -1.985734533704164E+01,      /* K =  9 */
(PID.TID 0000.0001)                -2.206904607311108E+01,      /* K = 10 */
(PID.TID 0000.0001)                -2.422556670570651E+01,      /* K = 11 */
(PID.TID 0000.0001)                -2.632828393275535E+01,      /* K = 12 */
(PID.TID 0000.0001)                -2.837854010471077E+01,      /* K = 13 */
(PID.TID 0000.0001)                -3.037764408149271E+01,      /* K = 14 */
(PID.TID 0000.0001)                -3.232687206804908E+01,      /* K = 15 */
(PID.TID 0000.0001)                -3.422746842907018E+01,      /* K = 16 */
(PID.TID 0000.0001)                -3.608064648337685E+01,      /* K = 17 */
(PID.TID 0000.0001)                -3.788758927848923E+01,      /* K = 18 */
(PID.TID 0000.0001)                -3.964945034587062E+01,      /* K = 19 */
(PID.TID 0000.0001)                -4.136735443732872E+01,      /* K = 20 */
(PID.TID 0000.0001)                -4.304239824304422E+01,      /* K = 21 */
(PID.TID 0000.0001)                -4.467565109168515E+01,      /* K = 22 */
(PID.TID 0000.0001)                -4.626815563305401E+01,      /* K = 23 */
(PID.TID 0000.0001)                -4.782092850370339E+01,      /* K = 24 */
(PID.TID 0000.0001)                -4.933496097594500E+01,      /* K = 25 */
(PID.TID 0000.0001)                -5.081121959066656E+01,      /* K = 26 */
(PID.TID 0000.0001)                -5.225064677436030E+01,      /* K = 27 */
(PID.TID 0000.0001)                -5.365416144075721E+01,      /* K = 28 */
(PID.TID 0000.0001)                -5.502265957745096E+01,      /* K = 29 */
(PID.TID 0000.0001)                -5.635701481788609E+01,      /* K = 30 */
(PID.TID 0000.0001)                -5.765807899907550E+01,      /* K = 31 */
(PID.TID 0000.0001)                -5.892668270540341E+01,      /* K = 32 */
(PID.TID 0000.0001)                -6.016363579886084E+01,      /* K = 33 */
(PID.TID 0000.0001)                -6.136972793605220E+01,      /* K = 34 */
(PID.TID 0000.0001)                -6.254572907230296E+01,      /* K = 35 */
(PID.TID 0000.0001)                -6.369238995319025E+01,      /* K = 36 */
(PID.TID 0000.0001)                -6.481044259381018E+01,      /* K = 37 */
(PID.TID 0000.0001)                -6.590060074608789E+01,      /* K = 38 */
(PID.TID 0000.0001)                -6.696356035442849E+01,      /* K = 39 */
(PID.TID 0000.0001)                -6.800000000000001E+01,      /* K = 40 */
(PID.TID 0000.0001)                -6.900000000000001E+01,      /* K = 41 */
(PID.TID 0000.0001)                -7.000000000000001E+01,      /* K = 42 */
(PID.TID 0000.0001)                -7.100000000000001E+01,      /* K = 43 */
(PID.TID 0000.0001)                -7.200000000000001E+01,      /* K = 44 */
(PID.TID 0000.0001)                -7.301673407203639E+01,      /* K = 45 */
(PID.TID 0000.0001)                -7.405948388927479E+01,      /* K = 46 */
(PID.TID 0000.0001)                -7.512891513118542E+01,      /* K = 47 */
(PID.TID 0000.0001)                -7.622571051035261E+01,      /* K = 48 */
(PID.TID 0000.0001)                -7.735057020831069E+01,      /* K = 49 */
(PID.TID 0000.0001)                -7.850421232253173E+01,      /* K = 50 */
(PID.TID 0000.0001)                -7.968737332485081E+01,      /* K = 51 */
(PID.TID 0000.0001)                -8.090080853162107E+01,      /* K = 52 */
(PID.TID 0000.0001)                -8.214529258589899E+01,      /* K = 53 */
(PID.TID 0000.0001)                -8.342161995196760E+01,      /* K = 54 */
(PID.TID 0000.0001)                -8.473060542251334E+01,      /* K = 55 */
(PID.TID 0000.0001)                -8.607308463878027E+01,      /* K = 56 */
(PID.TID 0000.0001)                -8.744991462403389E+01,      /* K = 57 */
(PID.TID 0000.0001)                -8.886197433067485E+01,      /* K = 58 */
(PID.TID 0000.0001)                -9.031016520135209E+01,      /* K = 59 */
(PID.TID 0000.0001)                -9.179541174443341E+01,      /* K = 60 */
(PID.TID 0000.0001)                -9.331866212420094E+01,      /* K = 61 */
(PID.TID 0000.0001)                -9.488088876614837E+01,      /* K = 62 */
(PID.TID 0000.0001)                -9.648308897776610E+01,      /* K = 63 */
(PID.TID 0000.0001)                -9.812628558521091E+01,      /* K = 64 */
(PID.TID 0000.0001)                -9.981152758626635E+01,      /* K = 65 */
(PID.TID 0000.0001)                -1.015398908200109E+02,      /* K = 66 */
(PID.TID 0000.0001)                -1.033124786536211E+02,      /* K = 67 */
(PID.TID 0000.0001)                -1.051304226867488E+02,      /* K = 68 */
(PID.TID 0000.0001)                -1.069948834739207E+02,      /* K = 69 */
(PID.TID 0000.0001)                -1.089070512654238E+02,      /* K = 70 */
(PID.TID 0000.0001)                -1.108681467671467E+02,      /* K = 71 */
(PID.TID 0000.0001)                -1.128794219198648E+02,      /* K = 72 */
(PID.TID 0000.0001)                -1.149421606984644E+02,      /* K = 73 */
(PID.TID 0000.0001)                -1.170576799316178E+02,      /* K = 74 */
(PID.TID 0000.0001)                -1.192273301424313E+02,      /* K = 75 */
(PID.TID 0000.0001)                -1.214524964106038E+02,      /* K = 76 */
(PID.TID 0000.0001)                -1.237345992566457E+02,      /* K = 77 */
(PID.TID 0000.0001)                -1.260750955487226E+02,      /* K = 78 */
(PID.TID 0000.0001)                -1.284754794327035E+02,      /* K = 79 */
(PID.TID 0000.0001)                -1.309372832860059E+02,      /* K = 80 */
(PID.TID 0000.0001)                -1.334620786958484E+02,      /* K = 81 */
(PID.TID 0000.0001)                -1.360514774625335E+02,      /* K = 82 */
(PID.TID 0000.0001)                -1.387071326284022E+02,      /* K = 83 */
(PID.TID 0000.0001)                -1.414307395331177E+02,      /* K = 84 */
(PID.TID 0000.0001)                -1.442240368959504E+02,      /* K = 85 */
(PID.TID 0000.0001)                -1.470888079257563E+02,      /* K = 86 */
(PID.TID 0000.0001)                -1.500268814593567E+02,      /* K = 87 */
(PID.TID 0000.0001)                -1.530401331290472E+02,      /* K = 88 */
(PID.TID 0000.0001)                -1.561304865599793E+02,      /* K = 89 */
(PID.TID 0000.0001)                -1.592999145981803E+02,      /* K = 90 */
(PID.TID 0000.0001)                -1.625504405699963E+02,      /* K = 91 */
(PID.TID 0000.0001)                -1.658841395737594E+02,      /* K = 92 */
(PID.TID 0000.0001)                -1.693031398045076E+02,      /* K = 93 */
(PID.TID 0000.0001)                -1.728096239125991E+02,      /* K = 94 */
(PID.TID 0000.0001)                -1.764058303970916E+02,      /* K = 95 */
(PID.TID 0000.0001)                -1.800940550347745E+02,      /* K = 96 */
(PID.TID 0000.0001)                -1.838766523457657E+02,      /* K = 97 */
(PID.TID 0000.0001)                -1.877560370966108E+02,      /* K = 98 */
(PID.TID 0000.0001)                -1.917346858418419E+02,      /* K = 99 */
(PID.TID 0000.0001)                -1.958151385049813E+02,      /* K =100 */
(PID.TID 0000.0001)                -2.000000000000000E+02       /* K =101 */
(PID.TID 0000.0001)     ;
(PID.TID 0000.0001) deepFacC = /* deep-model grid factor @ cell-Center (-) */
(PID.TID 0000.0001)   100 @  1.000000000000000E+00              /* K =  1:100 */
(PID.TID 0000.0001)     ;
(PID.TID 0000.0001) deepFacF = /* deep-model grid factor @ W-Interface (-) */
(PID.TID 0000.0001)   101 @  1.000000000000000E+00              /* K =  1:101 */
(PID.TID 0000.0001)     ;
(PID.TID 0000.0001) rVel2wUnit = /* convert units: rVel -> wSpeed (=1 if z-coord)*/
(PID.TID 0000.0001)   101 @  1.000000000000000E+00              /* K =  1:101 */
(PID.TID 0000.0001)     ;
(PID.TID 0000.0001) wUnit2rVel = /* convert units: wSpeed -> rVel (=1 if z-coord)*/
(PID.TID 0000.0001)   101 @  1.000000000000000E+00              /* K =  1:101 */
(PID.TID 0000.0001)     ;
(PID.TID 0000.0001) dBdrRef = /* Vertical grad. of reference buoyancy [(m/s/r)^2] */
(PID.TID 0000.0001)    75 @  0.000000000000000E+00,             /* K =  1: 75 */
(PID.TID 0000.0001)                 5.825604791735191E-07,      /* K = 76 */
(PID.TID 0000.0001)                 1.881044027114069E-05,      /* K = 77 */
(PID.TID 0000.0001)                 2.234407706281814E-04,      /* K = 78 */
(PID.TID 0000.0001)                 9.764081562253908E-04,      /* K = 79 */
(PID.TID 0000.0001)                 1.569661096815331E-03,      /* K = 80 */
(PID.TID 0000.0001)                 9.282947811351950E-04,      /* K = 81 */
(PID.TID 0000.0001)                 2.019628270015629E-04,      /* K = 82 */
(PID.TID 0000.0001)                 1.616450803921616E-05,      /* K = 83 */
(PID.TID 0000.0001)                 4.759475110681318E-07,      /* K = 84 */
(PID.TID 0000.0001)    16 @  0.000000000000000E+00              /* K = 85:100 */
(PID.TID 0000.0001)     ;
(PID.TID 0000.0001) rotateGrid = /* use rotated grid ( True/False ) */
(PID.TID 0000.0001)                   F
(PID.TID 0000.0001)     ;
(PID.TID 0000.0001) phiEuler = /* Euler angle, rotation about original z-coordinate [rad] */
(PID.TID 0000.0001)                 0.000000000000000E+00
(PID.TID 0000.0001)     ;
(PID.TID 0000.0001) thetaEuler = /* Euler angle, rotation about new x-coordinate [rad] */
(PID.TID 0000.0001)                 0.000000000000000E+00
(PID.TID 0000.0001)     ;
(PID.TID 0000.0001) psiEuler = /* Euler angle, rotation about new z-coordinate [rad] */
(PID.TID 0000.0001)                 0.000000000000000E+00
(PID.TID 0000.0001)     ;
(PID.TID 0000.0001) dxF =  /* dxF(:,1,:,1) ( units: m ) */
(PID.TID 0000.0001)                 1.263294638016668E+03,      /* I =  1 */
(PID.TID 0000.0001)                 1.237496063806571E+03,      /* I =  2 */
(PID.TID 0000.0001)                 1.212224339320398E+03,      /* I =  3 */
(PID.TID 0000.0001)      . . .
(PID.TID 0000.0001)                 4.790113490274632E+02,      /* I = 48 */
(PID.TID 0000.0001)                 4.692291418815790E+02,      /* I = 49 */
(PID.TID 0000.0001)                 4.596467036489769E+02,      /* I = 50 */
(PID.TID 0000.0001)                 4.502599547167311E+02,      /* I = 51 */
(PID.TID 0000.0001)                 4.410648987843862E+02,      /* I = 52 */
(PID.TID 0000.0001)                 4.320576211625778E+02,      /* I = 53 */
(PID.TID 0000.0001)      . . .
(PID.TID 0000.0001)                 2.000000000000000E+02,      /* I = 98 */
(PID.TID 0000.0001)                 2.000000000000000E+02,      /* I = 99 */
(PID.TID 0000.0001)                 2.000000000000000E+02,      /* I =100 */
(PID.TID 0000.0001)                 2.000000000000000E+02,      /* I =101 */
(PID.TID 0000.0001)                 2.000000000000000E+02,      /* I =102 */
(PID.TID 0000.0001)                 2.000000000000000E+02,      /* I =103 */
(PID.TID 0000.0001)      . . .
(PID.TID 0000.0001)                 3.612641354876311E+02,      /* I =148 */
(PID.TID 0000.0001)                 3.687955530665730E+02,      /* I =149 */
(PID.TID 0000.0001)                 3.764839811128614E+02,      /* I =150 */
(PID.TID 0000.0001)                 3.843326928863569E+02,      /* I =151 */
(PID.TID 0000.0001)                 3.923450298858749E+02,      /* I =152 */
(PID.TID 0000.0001)                 4.005244032717896E+02,      /* I =153 */
(PID.TID 0000.0001)      . . .
(PID.TID 0000.0001)                 1.013599012055986E+03,      /* I =198 */
(PID.TID 0000.0001)                 1.034729915092050E+03,      /* I =199 */
(PID.TID 0000.0001)                 1.056301342495056E+03       /* I =200 */
(PID.TID 0000.0001)     ;
(PID.TID 0000.0001) dxF =  /* dxF(1,:,1,:) ( units: m ) */
(PID.TID 0000.0001)                 1.263294638016668E+03       /* J =  1 */
(PID.TID 0000.0001)     ;
(PID.TID 0000.0001) dyF =  /* dyF(:,1,:,1) ( units: m ) */
(PID.TID 0000.0001)   200 @  5.000000000000000E+03              /* I =  1:200 */
(PID.TID 0000.0001)     ;
(PID.TID 0000.0001) dyF =  /* dyF(1,:,1,:) ( units: m ) */
(PID.TID 0000.0001)                 5.000000000000000E+03       /* J =  1 */
(PID.TID 0000.0001)     ;
(PID.TID 0000.0001) dxG =  /* dxG(:,1,:,1) ( units: m ) */
(PID.TID 0000.0001)                 1.263294638016668E+03,      /* I =  1 */
(PID.TID 0000.0001)                 1.237496063806571E+03,      /* I =  2 */
(PID.TID 0000.0001)                 1.212224339320398E+03,      /* I =  3 */
(PID.TID 0000.0001)      . . .
(PID.TID 0000.0001)                 4.790113490274632E+02,      /* I = 48 */
(PID.TID 0000.0001)                 4.692291418815790E+02,      /* I = 49 */
(PID.TID 0000.0001)                 4.596467036489769E+02,      /* I = 50 */
(PID.TID 0000.0001)                 4.502599547167311E+02,      /* I = 51 */
(PID.TID 0000.0001)                 4.410648987843862E+02,      /* I = 52 */
(PID.TID 0000.0001)                 4.320576211625778E+02,      /* I = 53 */
(PID.TID 0000.0001)      . . .
(PID.TID 0000.0001)                 2.000000000000000E+02,      /* I = 98 */
(PID.TID 0000.0001)                 2.000000000000000E+02,      /* I = 99 */
(PID.TID 0000.0001)                 2.000000000000000E+02,      /* I =100 */
(PID.TID 0000.0001)                 2.000000000000000E+02,      /* I =101 */
(PID.TID 0000.0001)                 2.000000000000000E+02,      /* I =102 */
(PID.TID 0000.0001)                 2.000000000000000E+02,      /* I =103 */
(PID.TID 0000.0001)      . . .
(PID.TID 0000.0001)                 3.612641354876311E+02,      /* I =148 */
(PID.TID 0000.0001)                 3.687955530665730E+02,      /* I =149 */
(PID.TID 0000.0001)                 3.764839811128614E+02,      /* I =150 */
(PID.TID 0000.0001)                 3.843326928863569E+02,      /* I =151 */
(PID.TID 0000.0001)                 3.923450298858749E+02,      /* I =152 */
(PID.TID 0000.0001)                 4.005244032717896E+02,      /* I =153 */
(PID.TID 0000.0001)      . . .
(PID.TID 0000.0001)                 1.013599012055986E+03,      /* I =198 */
(PID.TID 0000.0001)                 1.034729915092050E+03,      /* I =199 */
(PID.TID 0000.0001)                 1.056301342495056E+03       /* I =200 */
(PID.TID 0000.0001)     ;
(PID.TID 0000.0001) dxG =  /* dxG(1,:,1,:) ( units: m ) */
(PID.TID 0000.0001)                 1.263294638016668E+03       /* J =  1 */
(PID.TID 0000.0001)     ;
(PID.TID 0000.0001) dyG =  /* dyG(:,1,:,1) ( units: m ) */
(PID.TID 0000.0001)   200 @  5.000000000000000E+03              /* I =  1:200 */
(PID.TID 0000.0001)     ;
(PID.TID 0000.0001) dyG =  /* dyG(1,:,1,:) ( units: m ) */
(PID.TID 0000.0001)                 5.000000000000000E+03       /* J =  1 */
(PID.TID 0000.0001)     ;
(PID.TID 0000.0001) dxC =  /* dxC(:,1,:,1) ( units: m ) */
(PID.TID 0000.0001)                 1.159797990255862E+03,      /* I =  1 */
(PID.TID 0000.0001)                 1.250395350911620E+03,      /* I =  2 */
(PID.TID 0000.0001)                 1.224860201563485E+03,      /* I =  3 */
(PID.TID 0000.0001)      . . .
(PID.TID 0000.0001)                 4.840044193881684E+02,      /* I = 48 */
(PID.TID 0000.0001)                 4.741202454545211E+02,      /* I = 49 */
(PID.TID 0000.0001)                 4.644379227652780E+02,      /* I = 50 */
(PID.TID 0000.0001)                 4.549533291828540E+02,      /* I = 51 */
(PID.TID 0000.0001)                 4.456624267505587E+02,      /* I = 52 */
(PID.TID 0000.0001)                 4.365612599734820E+02,      /* I = 53 */
(PID.TID 0000.0001)      . . .
(PID.TID 0000.0001)                 2.000000000000000E+02,      /* I = 98 */
(PID.TID 0000.0001)                 2.000000000000000E+02,      /* I = 99 */
(PID.TID 0000.0001)                 2.000000000000000E+02,      /* I =100 */
(PID.TID 0000.0001)                 2.000000000000000E+02,      /* I =101 */
(PID.TID 0000.0001)                 2.000000000000000E+02,      /* I =102 */
(PID.TID 0000.0001)                 2.000000000000000E+02,      /* I =103 */
(PID.TID 0000.0001)      . . .
(PID.TID 0000.0001)                 3.575753287246037E+02,      /* I =148 */
(PID.TID 0000.0001)                 3.650298442771020E+02,      /* I =149 */
(PID.TID 0000.0001)                 3.726397670897172E+02,      /* I =150 */
(PID.TID 0000.0001)                 3.804083369996092E+02,      /* I =151 */
(PID.TID 0000.0001)                 3.883388613861159E+02,      /* I =152 */
(PID.TID 0000.0001)                 3.964347165788323E+02,      /* I =153 */
(PID.TID 0000.0001)      . . .
(PID.TID 0000.0001)                 1.003249324601893E+03,      /* I =198 */
(PID.TID 0000.0001)                 1.024164463574018E+03,      /* I =199 */
(PID.TID 0000.0001)                 1.045515628793553E+03       /* I =200 */
(PID.TID 0000.0001)     ;
(PID.TID 0000.0001) dxC =  /* dxC(1,:,1,:) ( units: m ) */
(PID.TID 0000.0001)                 1.159797990255862E+03       /* J =  1 */
(PID.TID 0000.0001)     ;
(PID.TID 0000.0001) dyC =  /* dyC(:,1,:,1) ( units: m ) */
(PID.TID 0000.0001)   200 @  5.000000000000000E+03              /* I =  1:200 */
(PID.TID 0000.0001)     ;
(PID.TID 0000.0001) dyC =  /* dyC(1,:,1,:) ( units: m ) */
(PID.TID 0000.0001)                 5.000000000000000E+03       /* J =  1 */
(PID.TID 0000.0001)     ;
(PID.TID 0000.0001) dxV =  /* dxV(:,1,:,1) ( units: m ) */
(PID.TID 0000.0001)                 1.159797990255862E+03,      /* I =  1 */
(PID.TID 0000.0001)                 1.250395350911620E+03,      /* I =  2 */
(PID.TID 0000.0001)                 1.224860201563485E+03,      /* I =  3 */
(PID.TID 0000.0001)      . . .
(PID.TID 0000.0001)                 4.840044193881684E+02,      /* I = 48 */
(PID.TID 0000.0001)                 4.741202454545211E+02,      /* I = 49 */
(PID.TID 0000.0001)                 4.644379227652780E+02,      /* I = 50 */
(PID.TID 0000.0001)                 4.549533291828540E+02,      /* I = 51 */
(PID.TID 0000.0001)                 4.456624267505587E+02,      /* I = 52 */
(PID.TID 0000.0001)                 4.365612599734820E+02,      /* I = 53 */
(PID.TID 0000.0001)      . . .
(PID.TID 0000.0001)                 2.000000000000000E+02,      /* I = 98 */
(PID.TID 0000.0001)                 2.000000000000000E+02,      /* I = 99 */
(PID.TID 0000.0001)                 2.000000000000000E+02,      /* I =100 */
(PID.TID 0000.0001)                 2.000000000000000E+02,      /* I =101 */
(PID.TID 0000.0001)                 2.000000000000000E+02,      /* I =102 */
(PID.TID 0000.0001)                 2.000000000000000E+02,      /* I =103 */
(PID.TID 0000.0001)      . . .
(PID.TID 0000.0001)                 3.575753287246037E+02,      /* I =148 */
(PID.TID 0000.0001)                 3.650298442771020E+02,      /* I =149 */
(PID.TID 0000.0001)                 3.726397670897172E+02,      /* I =150 */
(PID.TID 0000.0001)                 3.804083369996092E+02,      /* I =151 */
(PID.TID 0000.0001)                 3.883388613861159E+02,      /* I =152 */
(PID.TID 0000.0001)                 3.964347165788323E+02,      /* I =153 */
(PID.TID 0000.0001)      . . .
(PID.TID 0000.0001)                 1.003249324601893E+03,      /* I =198 */
(PID.TID 0000.0001)                 1.024164463574018E+03,      /* I =199 */
(PID.TID 0000.0001)                 1.045515628793553E+03       /* I =200 */
(PID.TID 0000.0001)     ;
(PID.TID 0000.0001) dxV =  /* dxV(1,:,1,:) ( units: m ) */
(PID.TID 0000.0001)                 1.159797990255862E+03       /* J =  1 */
(PID.TID 0000.0001)     ;
(PID.TID 0000.0001) dyU =  /* dyU(:,1,:,1) ( units: m ) */
(PID.TID 0000.0001)   200 @  5.000000000000000E+03              /* I =  1:200 */
(PID.TID 0000.0001)     ;
(PID.TID 0000.0001) dyU =  /* dyU(1,:,1,:) ( units: m ) */
(PID.TID 0000.0001)                 5.000000000000000E+03       /* J =  1 */
(PID.TID 0000.0001)     ;
(PID.TID 0000.0001) rA  =  /* rA (:,1,:,1) ( units: m^2 ) */
(PID.TID 0000.0001)                 6.316473190083342E+06,      /* I =  1 */
(PID.TID 0000.0001)                 6.187480319032855E+06,      /* I =  2 */
(PID.TID 0000.0001)                 6.061121696601991E+06,      /* I =  3 */
(PID.TID 0000.0001)      . . .
(PID.TID 0000.0001)                 2.395056745137316E+06,      /* I = 48 */
(PID.TID 0000.0001)                 2.346145709407895E+06,      /* I = 49 */
(PID.TID 0000.0001)                 2.298233518244884E+06,      /* I = 50 */
(PID.TID 0000.0001)                 2.251299773583656E+06,      /* I = 51 */
(PID.TID 0000.0001)                 2.205324493921931E+06,      /* I = 52 */
(PID.TID 0000.0001)                 2.160288105812889E+06,      /* I = 53 */
(PID.TID 0000.0001)      . . .
(PID.TID 0000.0001)                 1.000000000000000E+06,      /* I = 98 */
(PID.TID 0000.0001)                 1.000000000000000E+06,      /* I = 99 */
(PID.TID 0000.0001)                 1.000000000000000E+06,      /* I =100 */
(PID.TID 0000.0001)                 1.000000000000000E+06,      /* I =101 */
(PID.TID 0000.0001)                 1.000000000000000E+06,      /* I =102 */
(PID.TID 0000.0001)                 1.000000000000000E+06,      /* I =103 */
(PID.TID 0000.0001)      . . .
(PID.TID 0000.0001)                 1.806320677438155E+06,      /* I =148 */
(PID.TID 0000.0001)                 1.843977765332865E+06,      /* I =149 */
(PID.TID 0000.0001)                 1.882419905564307E+06,      /* I =150 */
(PID.TID 0000.0001)                 1.921663464431785E+06,      /* I =151 */
(PID.TID 0000.0001)                 1.961725149429375E+06,      /* I =152 */
(PID.TID 0000.0001)                 2.002622016358948E+06,      /* I =153 */
(PID.TID 0000.0001)      . . .
(PID.TID 0000.0001)                 5.067995060279928E+06,      /* I =198 */
(PID.TID 0000.0001)                 5.173649575460250E+06,      /* I =199 */
(PID.TID 0000.0001)                 5.281506712475282E+06       /* I =200 */
(PID.TID 0000.0001)     ;
(PID.TID 0000.0001) rA  =  /* rA (1,:,1,:) ( units: m^2 ) */
(PID.TID 0000.0001)                 6.316473190083342E+06       /* J =  1 */
(PID.TID 0000.0001)     ;
(PID.TID 0000.0001) rAw =  /* rAw(:,1,:,1) ( units: m^2 ) */
(PID.TID 0000.0001)                 5.798989951279311E+06,      /* I =  1 */
(PID.TID 0000.0001)                 6.251976754558099E+06,      /* I =  2 */
(PID.TID 0000.0001)                 6.124301007817423E+06,      /* I =  3 */
(PID.TID 0000.0001)      . . .
(PID.TID 0000.0001)                 2.420022096940842E+06,      /* I = 48 */
(PID.TID 0000.0001)                 2.370601227272606E+06,      /* I = 49 */
(PID.TID 0000.0001)                 2.322189613826390E+06,      /* I = 50 */
(PID.TID 0000.0001)                 2.274766645914270E+06,      /* I = 51 */
(PID.TID 0000.0001)                 2.228312133752794E+06,      /* I = 52 */
(PID.TID 0000.0001)                 2.182806299867410E+06,      /* I = 53 */
(PID.TID 0000.0001)      . . .
(PID.TID 0000.0001)                 1.000000000000000E+06,      /* I = 98 */
(PID.TID 0000.0001)                 1.000000000000000E+06,      /* I = 99 */
(PID.TID 0000.0001)                 1.000000000000000E+06,      /* I =100 */
(PID.TID 0000.0001)                 1.000000000000000E+06,      /* I =101 */
(PID.TID 0000.0001)                 1.000000000000000E+06,      /* I =102 */
(PID.TID 0000.0001)                 1.000000000000000E+06,      /* I =103 */
(PID.TID 0000.0001)      . . .
(PID.TID 0000.0001)                 1.787876643623018E+06,      /* I =148 */
(PID.TID 0000.0001)                 1.825149221385510E+06,      /* I =149 */
(PID.TID 0000.0001)                 1.863198835448586E+06,      /* I =150 */
(PID.TID 0000.0001)                 1.902041684998046E+06,      /* I =151 */
(PID.TID 0000.0001)                 1.941694306930580E+06,      /* I =152 */
(PID.TID 0000.0001)                 1.982173582894161E+06,      /* I =153 */
(PID.TID 0000.0001)      . . .
(PID.TID 0000.0001)                 5.016246623009465E+06,      /* I =198 */
(PID.TID 0000.0001)                 5.120822317870088E+06,      /* I =199 */
(PID.TID 0000.0001)                 5.227578143967765E+06       /* I =200 */
(PID.TID 0000.0001)     ;
(PID.TID 0000.0001) rAw =  /* rAw(1,:,1,:) ( units: m^2 ) */
(PID.TID 0000.0001)                 5.798989951279311E+06       /* J =  1 */
(PID.TID 0000.0001)     ;
(PID.TID 0000.0001) rAs =  /* rAs(:,1,:,1) ( units: m^2 ) */
(PID.TID 0000.0001)                 6.316473190083342E+06,      /* I =  1 */
(PID.TID 0000.0001)                 6.187480319032855E+06,      /* I =  2 */
(PID.TID 0000.0001)                 6.061121696601991E+06,      /* I =  3 */
(PID.TID 0000.0001)      . . .
(PID.TID 0000.0001)                 2.395056745137316E+06,      /* I = 48 */
(PID.TID 0000.0001)                 2.346145709407895E+06,      /* I = 49 */
(PID.TID 0000.0001)                 2.298233518244884E+06,      /* I = 50 */
(PID.TID 0000.0001)                 2.251299773583656E+06,      /* I = 51 */
(PID.TID 0000.0001)                 2.205324493921931E+06,      /* I = 52 */
(PID.TID 0000.0001)                 2.160288105812889E+06,      /* I = 53 */
(PID.TID 0000.0001)      . . .
(PID.TID 0000.0001)                 1.000000000000000E+06,      /* I = 98 */
(PID.TID 0000.0001)                 1.000000000000000E+06,      /* I = 99 */
(PID.TID 0000.0001)                 1.000000000000000E+06,      /* I =100 */
(PID.TID 0000.0001)                 1.000000000000000E+06,      /* I =101 */
(PID.TID 0000.0001)                 1.000000000000000E+06,      /* I =102 */
(PID.TID 0000.0001)                 1.000000000000000E+06,      /* I =103 */
(PID.TID 0000.0001)      . . .
(PID.TID 0000.0001)                 1.806320677438155E+06,      /* I =148 */
(PID.TID 0000.0001)                 1.843977765332865E+06,      /* I =149 */
(PID.TID 0000.0001)                 1.882419905564307E+06,      /* I =150 */
(PID.TID 0000.0001)                 1.921663464431785E+06,      /* I =151 */
(PID.TID 0000.0001)                 1.961725149429375E+06,      /* I =152 */
(PID.TID 0000.0001)                 2.002622016358948E+06,      /* I =153 */
(PID.TID 0000.0001)      . . .
(PID.TID 0000.0001)                 5.067995060279928E+06,      /* I =198 */
(PID.TID 0000.0001)                 5.173649575460250E+06,      /* I =199 */
(PID.TID 0000.0001)                 5.281506712475282E+06       /* I =200 */
(PID.TID 0000.0001)     ;
(PID.TID 0000.0001) rAs =  /* rAs(1,:,1,:) ( units: m^2 ) */
(PID.TID 0000.0001)                 6.316473190083342E+06       /* J =  1 */
(PID.TID 0000.0001)     ;
(PID.TID 0000.0001) globalArea = /* Integrated horizontal Area (m^2) */
(PID.TID 0000.0001)                 4.884020200974414E+08
(PID.TID 0000.0001)     ;
(PID.TID 0000.0001) // =======================================================
(PID.TID 0000.0001) // End of Model config. summary
(PID.TID 0000.0001) // =======================================================
(PID.TID 0000.0001) 
(PID.TID 0000.0001) == Packages configuration : Check & print summary ==
(PID.TID 0000.0001) 
(PID.TID 0000.0001) OBCS_CHECK: #define ALLOW_OBCS
(PID.TID 0000.0001) OBCS_CHECK: start summary:
(PID.TID 0000.0001) useOBCSprescribe = /* prescribe OB values */
(PID.TID 0000.0001)                   T
(PID.TID 0000.0001)     ;
(PID.TID 0000.0001) useOBCSbalance = /* balance the flow through OB */
(PID.TID 0000.0001)                   F
(PID.TID 0000.0001)     ;
(PID.TID 0000.0001) OBCS_uvApplyFac = /* Factor to apply to U,V 2nd column/row */
(PID.TID 0000.0001)                 1.000000000000000E+00
(PID.TID 0000.0001)     ;
(PID.TID 0000.0001) OBCS_u1_adv_T = /* Temp uses upwind adv-scheme @ OB */
(PID.TID 0000.0001)                       0
(PID.TID 0000.0001)     ;
(PID.TID 0000.0001) OBCS_u1_adv_S = /* Salt uses upwind adv-scheme @ OB */
(PID.TID 0000.0001)                       0
(PID.TID 0000.0001)     ;
(PID.TID 0000.0001) OBCS_monitorFreq = /* monitor output frequency [s] */
(PID.TID 0000.0001)                 7.200000000000000E+03
(PID.TID 0000.0001)     ;
(PID.TID 0000.0001) OBCS_monSelect = /* select group of variables to monitor */
(PID.TID 0000.0001)                       0
(PID.TID 0000.0001)     ;
(PID.TID 0000.0001) useOBCStides = /* apply tidal forcing through OB */
(PID.TID 0000.0001)                   F
(PID.TID 0000.0001)     ;
(PID.TID 0000.0001) tidalPeriod = /* (s) */
(PID.TID 0000.0001)    10 @  0.000000000000000E+00              /* I =  1: 10 */
(PID.TID 0000.0001)     ;
(PID.TID 0000.0001) OB_indexNone = /* null value for OB index (i.e. no OB) */
(PID.TID 0000.0001)                     -99
(PID.TID 0000.0001)     ;
(PID.TID 0000.0001) ======== Tile bi=   1 , bj=   1 ========
(PID.TID 0000.0001)  OB_Jn = /* Northern OB local indices */
(PID.TID 0000.0001)   204 @      -99                            /* I = -1:202 */
(PID.TID 0000.0001)  OB_Js = /* Southern OB local indices */
(PID.TID 0000.0001)   204 @      -99                            /* I = -1:202 */
(PID.TID 0000.0001)  OB_Ie = /* Eastern OB local indices */
(PID.TID 0000.0001)     5 @      200                            /* J = -1:  3 */
(PID.TID 0000.0001)  OB_Iw = /* Western OB local indices */
(PID.TID 0000.0001)     5 @        1                            /* J = -1:  3 */
(PID.TID 0000.0001) OBCS_CHECK: end summary.
(PID.TID 0000.0001) OBCS_CHECK: set-up OK
(PID.TID 0000.0001) OBCS_CHECK: check Inside Mask and OB locations: OK
(PID.TID 0000.0001) KL10_CHECK: #define ALLOW_KL10
(PID.TID 0000.0001) GAD_CHECK: #define ALLOW_GENERIC_ADVDIFF
(PID.TID 0000.0001) // =======================================================
(PID.TID 0000.0001) // Check Model config. (CONFIG_CHECK):
(PID.TID 0000.0001) // CONFIG_CHECK : Normal End
(PID.TID 0000.0001) // =======================================================
(PID.TID 0000.0001) 
(PID.TID 0000.0001)  MDS_READ_FIELD: opening global file: U0.bin
(PID.TID 0000.0001)  MDS_READ_FIELD: opening global file: T0.bin
(PID.TID 0000.0001) Start initial hydrostatic pressure computation
(PID.TID 0000.0001) Pressure is predetermined for buoyancyRelation OCEANIC
(PID.TID 0000.0001) 
(PID.TID 0000.0001)  OBCS_FIELDS_LOAD: Reading initial data:         0  0.000000000000E+00
(PID.TID 0000.0001)  MDS_READ_SEC_YZ: opening global file: U_in.bin
(PID.TID 0000.0001)  MDS_READ_SEC_YZ: opening global file: TE.bin
(PID.TID 0000.0001)  MDS_READ_SEC_YZ: opening global file: U_in.bin
(PID.TID 0000.0001)  MDS_READ_SEC_YZ: opening global file: TW.bin
(PID.TID 0000.0001) // =======================================================
(PID.TID 0000.0001) // Model current state
(PID.TID 0000.0001) // =======================================================
(PID.TID 0000.0001) 
(PID.TID 0000.0001) // =======================================================
(PID.TID 0000.0001) // Begin MONITOR dynamic field statistics
(PID.TID 0000.0001) // =======================================================
(PID.TID 0000.0001) %MON time_tsnumber                =                     0
(PID.TID 0000.0001) %MON time_secondsf                =   0.0000000000000E+00
(PID.TID 0000.0001) %MON dynstat_eta_max              =   0.0000000000000E+00
(PID.TID 0000.0001) %MON dynstat_eta_min              =   0.0000000000000E+00
(PID.TID 0000.0001) %MON dynstat_eta_mean             =   0.0000000000000E+00
(PID.TID 0000.0001) %MON dynstat_eta_sd               =   0.0000000000000E+00
(PID.TID 0000.0001) %MON dynstat_eta_del2             =   0.0000000000000E+00
(PID.TID 0000.0001) %MON dynstat_uvel_max             =   6.6809804669674E-02
(PID.TID 0000.0001) %MON dynstat_uvel_min             =   6.6809804669674E-02
(PID.TID 0000.0001) %MON dynstat_uvel_mean            =   6.6809804669675E-02
(PID.TID 0000.0001) %MON dynstat_uvel_sd              =   4.8572257327351E-16
(PID.TID 0000.0001) %MON dynstat_uvel_del2            =   0.0000000000000E+00
(PID.TID 0000.0001) %MON dynstat_vvel_max             =   0.0000000000000E+00
(PID.TID 0000.0001) %MON dynstat_vvel_min             =   0.0000000000000E+00
(PID.TID 0000.0001) %MON dynstat_vvel_mean            =   0.0000000000000E+00
(PID.TID 0000.0001) %MON dynstat_vvel_sd              =   0.0000000000000E+00
(PID.TID 0000.0001) %MON dynstat_vvel_del2            =   0.0000000000000E+00
(PID.TID 0000.0001) %MON dynstat_wvel_max             =   1.4170953673272E-03
(PID.TID 0000.0001) %MON dynstat_wvel_min             =  -1.4170953673272E-03
(PID.TID 0000.0001) %MON dynstat_wvel_mean            =   1.9934983003935E-21
(PID.TID 0000.0001) %MON dynstat_wvel_sd              =   2.8204951587113E-04
(PID.TID 0000.0001) %MON dynstat_wvel_del2            =   2.6535580277239E-07
(PID.TID 0000.0001) %MON dynstat_theta_max            =   1.5000000000000E+01
(PID.TID 0000.0001) %MON dynstat_theta_min            =   1.0000000000000E+01
(PID.TID 0000.0001) %MON dynstat_theta_mean           =   1.3335043390653E+01
(PID.TID 0000.0001) %MON dynstat_theta_sd             =   2.3199864738194E+00
(PID.TID 0000.0001) %MON dynstat_theta_del2           =   0.0000000000000E+00
(PID.TID 0000.0001) %MON dynstat_salt_max             =   3.5000000000000E+01
(PID.TID 0000.0001) %MON dynstat_salt_min             =   3.5000000000000E+01
(PID.TID 0000.0001) %MON dynstat_salt_mean            =   3.5000000000000E+01
(PID.TID 0000.0001) %MON dynstat_salt_sd              =   2.1316282072803E-14
(PID.TID 0000.0001) %MON dynstat_salt_del2            =   0.0000000000000E+00
(PID.TID 0000.0001) %MON dynstat_sst_max              =   1.5000000000000E+01
(PID.TID 0000.0001) %MON dynstat_sst_min              =   1.5000000000000E+01
(PID.TID 0000.0001) %MON dynstat_sst_mean             =   1.5000000000000E+01
(PID.TID 0000.0001) %MON dynstat_sst_sd               =   3.5527136788005E-14
(PID.TID 0000.0001) %MON dynstat_sst_del2             =   0.0000000000000E+00
(PID.TID 0000.0001) %MON dynstat_sss_max              =   3.5000000000000E+01
(PID.TID 0000.0001) %MON dynstat_sss_min              =   3.5000000000000E+01
(PID.TID 0000.0001) %MON dynstat_sss_mean             =   3.5000000000000E+01
(PID.TID 0000.0001) %MON dynstat_sss_sd               =   7.8159700933611E-14
(PID.TID 0000.0001) %MON dynstat_sss_del2             =   0.0000000000000E+00
(PID.TID 0000.0001) %MON forcing_qnet_max             =   0.0000000000000E+00
(PID.TID 0000.0001) %MON forcing_qnet_min             =   0.0000000000000E+00
(PID.TID 0000.0001) %MON forcing_qnet_mean            =   0.0000000000000E+00
(PID.TID 0000.0001) %MON forcing_qnet_sd              =   0.0000000000000E+00
(PID.TID 0000.0001) %MON forcing_qnet_del2            =   0.0000000000000E+00
(PID.TID 0000.0001) %MON forcing_qsw_max              =   0.0000000000000E+00
(PID.TID 0000.0001) %MON forcing_qsw_min              =   0.0000000000000E+00
(PID.TID 0000.0001) %MON forcing_qsw_mean             =   0.0000000000000E+00
(PID.TID 0000.0001) %MON forcing_qsw_sd               =   0.0000000000000E+00
(PID.TID 0000.0001) %MON forcing_qsw_del2             =   0.0000000000000E+00
(PID.TID 0000.0001) %MON forcing_empmr_max            =   0.0000000000000E+00
(PID.TID 0000.0001) %MON forcing_empmr_min            =   0.0000000000000E+00
(PID.TID 0000.0001) %MON forcing_empmr_mean           =   0.0000000000000E+00
(PID.TID 0000.0001) %MON forcing_empmr_sd             =   0.0000000000000E+00
(PID.TID 0000.0001) %MON forcing_empmr_del2           =   0.0000000000000E+00
(PID.TID 0000.0001) %MON forcing_fu_max               =   0.0000000000000E+00
(PID.TID 0000.0001) %MON forcing_fu_min               =   0.0000000000000E+00
(PID.TID 0000.0001) %MON forcing_fu_mean              =   0.0000000000000E+00
(PID.TID 0000.0001) %MON forcing_fu_sd                =   0.0000000000000E+00
(PID.TID 0000.0001) %MON forcing_fu_del2              =   0.0000000000000E+00
(PID.TID 0000.0001) %MON forcing_fv_max               =   0.0000000000000E+00
(PID.TID 0000.0001) %MON forcing_fv_min               =   0.0000000000000E+00
(PID.TID 0000.0001) %MON forcing_fv_mean              =   0.0000000000000E+00
(PID.TID 0000.0001) %MON forcing_fv_sd                =   0.0000000000000E+00
(PID.TID 0000.0001) %MON forcing_fv_del2              =   0.0000000000000E+00
(PID.TID 0000.0001) %MON advcfl_uvel_max              =   5.0107353502256E-03
(PID.TID 0000.0001) %MON advcfl_vvel_max              =   0.0000000000000E+00
(PID.TID 0000.0001) %MON advcfl_wvel_max              =   2.1256430509908E-02
(PID.TID 0000.0001) %MON advcfl_W_hf_max              =   2.1256430509908E-02
(PID.TID 0000.0001) %MON pe_b_mean                    =   0.0000000000000E+00
(PID.TID 0000.0001) %MON ke_max                       =   2.2473034033971E-03
(PID.TID 0000.0001) %MON ke_mean                      =   2.2303296314253E-03
(PID.TID 0000.0001) %MON ke_vol                       =   9.5889217545975E+10
(PID.TID 0000.0001) %MON vort_r_min                   =   0.0000000000000E+00
(PID.TID 0000.0001) %MON vort_r_max                   =   0.0000000000000E+00
(PID.TID 0000.0001) %MON vort_a_mean                  =   0.0000000000000E+00
(PID.TID 0000.0001) %MON vort_a_sd                    =   0.0000000000000E+00
(PID.TID 0000.0001) %MON vort_p_mean                  =   0.0000000000000E+00
(PID.TID 0000.0001) %MON vort_p_sd                    =   0.0000000000000E+00
(PID.TID 0000.0001) %MON surfExpan_theta_mean         =   2.8687387824729E-20
(PID.TID 0000.0001) %MON surfExpan_salt_mean          =  -2.8583135189198E-19
(PID.TID 0000.0001) // =======================================================
(PID.TID 0000.0001) // End MONITOR dynamic field statistics
(PID.TID 0000.0001) // =======================================================
(PID.TID 0000.0001) // =======================================================
(PID.TID 0000.0001) // Begin OBCS MONITOR field statistics
(PID.TID 0000.0001) // =======================================================
(PID.TID 0000.0001) %MON obc_E_uVel_max               =   6.6809804669674E-02
(PID.TID 0000.0001) %MON obc_E_uVel_min               =   6.6809804669674E-02
(PID.TID 0000.0001) %MON obc_E_uVel_mean              =   6.6809804669674E-02
(PID.TID 0000.0001) %MON obc_E_uVel_sd                =  -1.7347234759768E-18
(PID.TID 0000.0001) %MON obc_E_uVel_Int               =   6.6809804669674E+04
(PID.TID 0000.0001) %MON obc_W_uVel_max               =   6.6809804669674E-02
(PID.TID 0000.0001) %MON obc_W_uVel_min               =   6.6809804669674E-02
(PID.TID 0000.0001) %MON obc_W_uVel_mean              =   6.6809804669674E-02
(PID.TID 0000.0001) %MON obc_W_uVel_sd                =  -1.7347234759768E-18
(PID.TID 0000.0001) %MON obc_W_uVel_Int               =   6.6809804669674E+04
(PID.TID 0000.0001) // =======================================================
(PID.TID 0000.0001) // End OBCS MONITOR field statistics
(PID.TID 0000.0001) // =======================================================
(PID.TID 0000.0001) SOLVE_FOR_PRESSURE: putPmEinXvector =    F
 cg2d: Sum(rhs),rhsMax =   6.75230459290455E-15  2.03275931971480E-02
 cg2d: Sum(rhs),rhsMax =  -6.15870937892905E-15  3.51768624615359E-02
 cg2d: Sum(rhs),rhsMax =   4.30721662201315E-14  4.48861175408507E-02
 cg2d: Sum(rhs),rhsMax =   8.44737972608226E-14  5.08980606622487E-02
 cg2d: Sum(rhs),rhsMax =   1.88492608403913E-13  5.44552518511831E-02
 cg2d: Sum(rhs),rhsMax =   8.72127002379759E-14  5.67514335163966E-02
 cg2d: Sum(rhs),rhsMax =   1.56494802137908E-13  5.84718195463769E-02
 cg2d: Sum(rhs),rhsMax =   2.68300894378611E-13  6.01155850841946E-02
 cg2d: Sum(rhs),rhsMax =   4.40194331779296E-13  6.16520657518539E-02
 cg2d: Sum(rhs),rhsMax =   4.66838394967779E-13  6.31212049881779E-02
 cg2d: Sum(rhs),rhsMax =   5.28992409168545E-13  6.46602220172645E-02
 cg2d: Sum(rhs),rhsMax =   5.20051101147308E-13  6.61603498375218E-02
 cg2d: Sum(rhs),rhsMax =   4.66586631881027E-13  6.76232501953819E-02
 cg2d: Sum(rhs),rhsMax =   4.56587423344102E-13  6.90477654235864E-02
 cg2d: Sum(rhs),rhsMax =   3.72528029380298E-13  7.04206317795017E-02
 cg2d: Sum(rhs),rhsMax =   2.63439564969770E-13  7.18456463001858E-02
 cg2d: Sum(rhs),rhsMax =   2.05914653469270E-13  7.32638376660959E-02
 cg2d: Sum(rhs),rhsMax =   1.60374542561928E-13  7.45887041302280E-02
 cg2d: Sum(rhs),rhsMax =   1.60896613595369E-13  7.58843071350372E-02
 cg2d: Sum(rhs),rhsMax =   1.26325248562134E-13  7.72585217277180E-02
 cg2d: Sum(rhs),rhsMax =   1.06323860202584E-13  7.84454028031486E-02
 cg2d: Sum(rhs),rhsMax =   9.52431073766825E-14  7.98270500736170E-02
 cg2d: Sum(rhs),rhsMax =   1.83542861750386E-13  8.10129629251585E-02
 cg2d: Sum(rhs),rhsMax =   3.01012905056492E-13  8.22947810094972E-02
 cg2d: Sum(rhs),rhsMax =   4.54994666931129E-13  8.35498617583599E-02
 cg2d: Sum(rhs),rhsMax =   5.61362896704723E-13  8.46512843847365E-02
 cg2d: Sum(rhs),rhsMax =   6.07727692336160E-13  8.59087450741621E-02
 cg2d: Sum(rhs),rhsMax =   6.98987704570136E-13  8.71474153206038E-02
 cg2d: Sum(rhs),rhsMax =   7.32934277878565E-13  8.82941286925977E-02
 cg2d: Sum(rhs),rhsMax =   7.65621015885861E-13  8.93707829718381E-02
 cg2d: Sum(rhs),rhsMax =   9.13098769365255E-13  9.04453861392742E-02
 cg2d: Sum(rhs),rhsMax =   1.01089031893584E-12  9.16585032522479E-02
 cg2d: Sum(rhs),rhsMax =   1.05382682560797E-12  9.28258171273392E-02
 cg2d: Sum(rhs),rhsMax =   1.11649345367962E-12  9.39587806975419E-02
 cg2d: Sum(rhs),rhsMax =   1.23424192957980E-12  9.50666179798700E-02
 cg2d: Sum(rhs),rhsMax =   1.35020662185570E-12  9.61562694706560E-02
 cg2d: Sum(rhs),rhsMax =   1.44192665620102E-12  9.72323458871753E-02
 cg2d: Sum(rhs),rhsMax =   1.52272769046724E-12  9.82970845138178E-02
 cg2d: Sum(rhs),rhsMax =   1.56428949654730E-12  9.93503042221985E-02
 cg2d: Sum(rhs),rhsMax =   1.64095213112114E-12  1.00389357807039E-01
 cg2d: Sum(rhs),rhsMax =   1.71357632944291E-12  1.01409082307758E-01
 cg2d: Sum(rhs),rhsMax =   1.78479800383435E-12  1.02401750139087E-01
 cg2d: Sum(rhs),rhsMax =   1.89749951862161E-12  1.03357025973737E-01
 cg2d: Sum(rhs),rhsMax =   2.00421623741676E-12  1.04261936478945E-01
 cg2d: Sum(rhs),rhsMax =   2.09574718690320E-12  1.05262107413030E-01
 cg2d: Sum(rhs),rhsMax =   2.14830930822529E-12  1.06375777709249E-01
 cg2d: Sum(rhs),rhsMax =   2.19851914451397E-12  1.07441917260573E-01
 cg2d: Sum(rhs),rhsMax =   2.26067775610517E-12  1.08438668634620E-01
 cg2d: Sum(rhs),rhsMax =   2.26960117366559E-12  1.09341335807456E-01
 cg2d: Sum(rhs),rhsMax =   2.35728103703536E-12  1.10122531526928E-01
 cg2d: Sum(rhs),rhsMax =   2.44379516622928E-12  1.11141493687267E-01
 cg2d: Sum(rhs),rhsMax =   2.27134977492938E-12  1.12245907131774E-01
 cg2d: Sum(rhs),rhsMax =   2.24553708960684E-12  1.13201230009254E-01
 cg2d: Sum(rhs),rhsMax =   2.09826600539031E-12  1.13971938214850E-01
 cg2d: Sum(rhs),rhsMax =   2.11153317053459E-12  1.14852037489078E-01
 cg2d: Sum(rhs),rhsMax =   2.08666417478298E-12  1.16003797516060E-01
 cg2d: Sum(rhs),rhsMax =   2.08111305965986E-12  1.18287259969654E-01
 cg2d: Sum(rhs),rhsMax =   2.14928075337184E-12  1.22228101972336E-01
 cg2d: Sum(rhs),rhsMax =   2.20512497151049E-12  1.27703273292192E-01
 cg2d: Sum(rhs),rhsMax =   2.16904272321017E-12  1.35345974270300E-01
 cg2d: Sum(rhs),rhsMax =   2.06412664738309E-12  1.46578607001926E-01
 cg2d: Sum(rhs),rhsMax =   1.91868743115720E-12  1.61045526953256E-01
 cg2d: Sum(rhs),rhsMax =   1.90958360235527E-12  1.75925207046610E-01
 cg2d: Sum(rhs),rhsMax =   1.86961557346876E-12  1.89683180071036E-01
 cg2d: Sum(rhs),rhsMax =   1.82032167117541E-12  2.01916200589665E-01
 cg2d: Sum(rhs),rhsMax =   1.78046466459136E-12  2.12263548092623E-01
 cg2d: Sum(rhs),rhsMax =   1.85429449572894E-12  2.20425865655133E-01
 cg2d: Sum(rhs),rhsMax =   1.93867144560045E-12  2.26180327155469E-01
 cg2d: Sum(rhs),rhsMax =   2.05746530923534E-12  2.29391045587616E-01
 cg2d: Sum(rhs),rhsMax =   2.16004991671070E-12  2.30014061008879E-01
 cg2d: Sum(rhs),rhsMax =   2.26607621556241E-12  2.28096722076205E-01
 cg2d: Sum(rhs),rhsMax =   2.37621033960522E-12  2.23771746961365E-01
 cg2d: Sum(rhs),rhsMax =   2.45437004053883E-12  2.17246668250215E-01
 cg2d: Sum(rhs),rhsMax =   2.54640752928026E-12  2.08789692421150E-01
 cg2d: Sum(rhs),rhsMax =   2.60946819707897E-12  1.98713211140440E-01
 cg2d: Sum(rhs),rhsMax =   2.44915199232310E-12  2.07980793123568E-01
 cg2d: Sum(rhs),rhsMax =   2.24087415290342E-12  2.20501102062332E-01
 cg2d: Sum(rhs),rhsMax =   2.05524486318609E-12  2.31321200582926E-01
 cg2d: Sum(rhs),rhsMax =   1.87916349148054E-12  2.40170605772532E-01
 cg2d: Sum(rhs),rhsMax =   1.69675384853463E-12  2.46835985164077E-01
 cg2d: Sum(rhs),rhsMax =   1.51884060883845E-12  2.51170193571316E-01
 cg2d: Sum(rhs),rhsMax =   1.46133105616286E-12  2.53097817500093E-01
 cg2d: Sum(rhs),rhsMax =   1.37873046313075E-12  2.52616948420825E-01
 cg2d: Sum(rhs),rhsMax =   1.30262467479270E-12  2.49797183867388E-01
 cg2d: Sum(rhs),rhsMax =   1.21813670261872E-12  2.44774122677074E-01
 cg2d: Sum(rhs),rhsMax =   1.13564713188907E-12  2.37740853511005E-01
 cg2d: Sum(rhs),rhsMax =   1.06842312774802E-12  2.28937115964629E-01
 cg2d: Sum(rhs),rhsMax =   1.03228536829647E-12  2.18636927918907E-01
 cg2d: Sum(rhs),rhsMax =   1.02176600513815E-12  2.07135516447311E-01
 cg2d: Sum(rhs),rhsMax =   1.00530694879808E-12  1.94736366147122E-01
 cg2d: Sum(rhs),rhsMax =   9.88514825550624E-13  1.81739112692400E-01
 cg2d: Sum(rhs),rhsMax =   9.64395230340642E-13  1.68428878063734E-01
 cg2d: Sum(rhs),rhsMax =   9.90874049477952E-13  1.55067483673697E-01
 cg2d: Sum(rhs),rhsMax =   1.01244013173130E-12  1.41886803213029E-01
 cg2d: Sum(rhs),rhsMax =   1.04038999637623E-12  1.29084343510402E-01
 cg2d: Sum(rhs),rhsMax =   1.00108810130450E-12  1.16820987736361E-01
 cg2d: Sum(rhs),rhsMax =   9.63062962711092E-13  1.05220707780586E-01
 cg2d: Sum(rhs),rhsMax =   9.94065940673750E-13  9.82894581823509E-02
 cg2d: Sum(rhs),rhsMax =   9.56873469348807E-13  9.55789958210240E-02
 cg2d: Sum(rhs),rhsMax =   9.13824571568966E-13  9.33569302178640E-02
 cg2d: Sum(rhs),rhsMax =   8.66265392751586E-13  9.14845210260707E-02
 cg2d: Sum(rhs),rhsMax =   8.42798053568572E-13  8.98928950603349E-02
 cg2d: Sum(rhs),rhsMax =   7.54868390018260E-13  8.82990106307509E-02
 cg2d: Sum(rhs),rhsMax =   7.18161641266590E-13  8.66064209947776E-02
 cg2d: Sum(rhs),rhsMax =   6.77222167233538E-13  8.51799725034188E-02
 cg2d: Sum(rhs),rhsMax =   6.39432951032859E-13  8.37161280087911E-02
 cg2d: Sum(rhs),rhsMax =   6.20503648463000E-13  8.21502317231665E-02
 cg2d: Sum(rhs),rhsMax =   5.60357316103932E-13  8.07682943031631E-02
 cg2d: Sum(rhs),rhsMax =   5.27272669970102E-13  7.93783783319690E-02
 cg2d: Sum(rhs),rhsMax =   4.77111405938757E-13  7.79059019417131E-02
 cg2d: Sum(rhs),rhsMax =   4.39211167435616E-13  7.64989655050204E-02
 cg2d: Sum(rhs),rhsMax =   3.59295926344316E-13  7.51734747844033E-02
 cg2d: Sum(rhs),rhsMax =   3.25295346215171E-13  7.37850409965251E-02
 cg2d: Sum(rhs),rhsMax =   2.61665689116342E-13  7.23520610220076E-02
 cg2d: Sum(rhs),rhsMax =   2.82898704462298E-13  7.10456439562235E-02
 cg2d: Sum(rhs),rhsMax =   2.17367790433798E-13  6.97339852996506E-02
 cg2d: Sum(rhs),rhsMax =   1.69107783332123E-13  6.83886815453751E-02
 cg2d: Sum(rhs),rhsMax =   1.43857148415805E-13  6.70217204856361E-02
 cg2d: Sum(rhs),rhsMax =  -7.63972218820186E-15  6.57113989002445E-02
 cg2d: Sum(rhs),rhsMax =  -7.48359707536395E-14  6.44398658896799E-02
 cg2d: Sum(rhs),rhsMax =  -5.03347363789430E-14  6.31501022995443E-02
 cg2d: Sum(rhs),rhsMax =  -8.35095881335235E-14  6.18489565327471E-02
 cg2d: Sum(rhs),rhsMax =  -1.31936128688892E-13  6.05414483486466E-02
 cg2d: Sum(rhs),rhsMax =  -7.75976505273945E-14  5.92337834466300E-02
 cg2d: Sum(rhs),rhsMax =  -9.46673295310063E-14  5.79849772738046E-02
 cg2d: Sum(rhs),rhsMax =  -5.53446177775641E-14  5.67225098851982E-02
 cg2d: Sum(rhs),rhsMax =  -1.83603132697385E-14  5.54457757354494E-02
 cg2d: Sum(rhs),rhsMax =   2.00048311249645E-14  5.41517916743131E-02
 cg2d: Sum(rhs),rhsMax =   1.29875277199432E-13  5.28349617622206E-02
 cg2d: Sum(rhs),rhsMax =   2.33368879776208E-13  5.14868398397685E-02
 cg2d: Sum(rhs),rhsMax =   3.62446184176690E-13  5.00959380027863E-02
 cg2d: Sum(rhs),rhsMax =   4.18429180193414E-13  4.86867985944046E-02
 cg2d: Sum(rhs),rhsMax =   4.60728677431632E-13  4.72121285586816E-02
 cg2d: Sum(rhs),rhsMax =   4.95756213858556E-13  4.56450043313645E-02
 cg2d: Sum(rhs),rhsMax =   5.49019163464948E-13  4.39642498278893E-02
 cg2d: Sum(rhs),rhsMax =   6.18810558350447E-13  4.21647734010274E-02
 cg2d: Sum(rhs),rhsMax =   7.23851534267794E-13  4.02654514698194E-02
 cg2d: Sum(rhs),rhsMax =   7.97334420710172E-13  3.81893764593254E-02
 cg2d: Sum(rhs),rhsMax =   9.00099439427038E-13  3.59661911834172E-02
 cg2d: Sum(rhs),rhsMax =   1.06127606702699E-12  3.35787714198115E-02
 cg2d: Sum(rhs),rhsMax =   1.15135678768752E-12  3.10207081911849E-02
 cg2d: Sum(rhs),rhsMax =   1.32888144932508E-12  2.82941242779832E-02
 cg2d: Sum(rhs),rhsMax =   1.52822199339653E-12  2.54241430980681E-02
 cg2d: Sum(rhs),rhsMax =   1.79503634178957E-12  2.23913270644444E-02
 cg2d: Sum(rhs),rhsMax =   2.22391549620227E-12  1.92400673630116E-02
 cg2d: Sum(rhs),rhsMax =   2.80170331379281E-12  1.59866556230856E-02
 cg2d: Sum(rhs),rhsMax =   3.76237929700096E-12  1.26430510888967E-02
 cg2d: Sum(rhs),rhsMax =   5.27727861410199E-12  9.24375052446025E-03
 cg2d: Sum(rhs),rhsMax =   8.45690184547720E-12  5.83094737674558E-03
 cg2d: Sum(rhs),rhsMax =   1.04907194042880E-11  4.76683929829987E-03
 cg2d: Sum(rhs),rhsMax =   1.03914654658865E-11  4.83270908400148E-03
 cg2d: Sum(rhs),rhsMax =   1.02489128295247E-11  4.92029265372083E-03
 cg2d: Sum(rhs),rhsMax =   6.63635812969687E-12  7.62169974749658E-03
 cg2d: Sum(rhs),rhsMax =   4.76968464724337E-12  1.07577665238039E-02
 cg2d: Sum(rhs),rhsMax =   3.77631259596001E-12  1.37615331061593E-02
 cg2d: Sum(rhs),rhsMax =   3.17512682812549E-12  1.66110387754539E-02
 cg2d: Sum(rhs),rhsMax =   2.72754041574785E-12  1.92974714256863E-02
 cg2d: Sum(rhs),rhsMax =   2.48912002120960E-12  2.18260437679192E-02
 cg2d: Sum(rhs),rhsMax =   2.32652785925325E-12  2.41600544765487E-02
 cg2d: Sum(rhs),rhsMax =   2.18003393115396E-12  2.63232844160813E-02
 cg2d: Sum(rhs),rhsMax =   2.08288941649926E-12  2.83114642956612E-02
 cg2d: Sum(rhs),rhsMax =   2.00262029181886E-12  3.01327442618446E-02
 cg2d: Sum(rhs),rhsMax =   1.94042004686423E-12  3.17857494092240E-02
 cg2d: Sum(rhs),rhsMax =   1.93087212885246E-12  3.33207641579234E-02
 cg2d: Sum(rhs),rhsMax =   1.91943683169882E-12  3.47075586445196E-02
 cg2d: Sum(rhs),rhsMax =   1.91122118131659E-12  3.59674174411028E-02
 cg2d: Sum(rhs),rhsMax =   1.92454385761209E-12  3.71628548410116E-02
 cg2d: Sum(rhs),rhsMax =   1.92373894591924E-12  3.82680238848945E-02
 cg2d: Sum(rhs),rhsMax =   1.93048355079384E-12  3.92959044318479E-02
 cg2d: Sum(rhs),rhsMax =   1.91791027503996E-12  4.02594877715280E-02
 cg2d: Sum(rhs),rhsMax =   1.94119720298147E-12  4.11691837044815E-02
 cg2d: Sum(rhs),rhsMax =   1.99240623999231E-12  4.20330737847511E-02
 cg2d: Sum(rhs),rhsMax =   1.96498373128406E-12  4.28902533263632E-02
 cg2d: Sum(rhs),rhsMax =   1.98199789913645E-12  4.37189403897865E-02
 cg2d: Sum(rhs),rhsMax =   1.94863569724646E-12  4.45200719370570E-02
 cg2d: Sum(rhs),rhsMax =   1.98072114265813E-12  4.52962279752637E-02
 cg2d: Sum(rhs),rhsMax =   2.00608973877081E-12  4.60488517896763E-02
 cg2d: Sum(rhs),rhsMax =   1.92740268190050E-12  4.67783999490305E-02
 cg2d: Sum(rhs),rhsMax =   1.85390591767032E-12  4.75030006032810E-02
 cg2d: Sum(rhs),rhsMax =   1.80394588156219E-12  4.82504492462005E-02
 cg2d: Sum(rhs),rhsMax =   1.76222925141190E-12  4.89810100158047E-02
 cg2d: Sum(rhs),rhsMax =   1.72720171498497E-12  4.96932822348194E-02
 cg2d: Sum(rhs),rhsMax =   1.65403801766217E-12  5.03856544419752E-02
 cg2d: Sum(rhs),rhsMax =   1.60954582995032E-12  5.10802393956713E-02
 cg2d: Sum(rhs),rhsMax =   1.53826951176939E-12  5.18258849533179E-02
 cg2d: Sum(rhs),rhsMax =   1.44823042447229E-12  5.25594518117030E-02
 cg2d: Sum(rhs),rhsMax =   1.37337363703693E-12  5.32823342645717E-02
 cg2d: Sum(rhs),rhsMax =   1.32940880526178E-12  5.39983594775716E-02
 cg2d: Sum(rhs),rhsMax =   1.24664167877597E-12  5.48121919082521E-02
 cg2d: Sum(rhs),rhsMax =   1.17117426867708E-12  5.56567126850995E-02
 cg2d: Sum(rhs),rhsMax =   1.07408526517361E-12  5.65333837342413E-02
 cg2d: Sum(rhs),rhsMax =   1.03253516847701E-12  5.74655950265380E-02
 cg2d: Sum(rhs),rhsMax =   9.66920987721664E-13  5.84870987503790E-02
 cg2d: Sum(rhs),rhsMax =   8.70983840606243E-13  5.97126644842513E-02
 cg2d: Sum(rhs),rhsMax =   8.05189248609395E-13  6.11078104628248E-02
 cg2d: Sum(rhs),rhsMax =   7.43080076637259E-13  6.27386982316262E-02
 cg2d: Sum(rhs),rhsMax =   6.65880545147601E-13  6.47478624729187E-02
 cg2d: Sum(rhs),rhsMax =   5.98840421695002E-13  6.69697485815924E-02
 cg2d: Sum(rhs),rhsMax =   4.92869633994530E-13  6.95388032186701E-02
 cg2d: Sum(rhs),rhsMax =   4.39481784297868E-13  7.25412498665619E-02
 cg2d: Sum(rhs),rhsMax =   3.50774964630318E-13  7.60577703076280E-02
 cg2d: Sum(rhs),rhsMax =   3.10307335382731E-13  8.01504283165081E-02
 cg2d: Sum(rhs),rhsMax =   2.42139641670747E-13  8.49950017281224E-02
 cg2d: Sum(rhs),rhsMax =   1.83297821365613E-13  9.05701056534534E-02
 cg2d: Sum(rhs),rhsMax =   4.92939022933570E-14  9.63075541097022E-02
 cg2d: Sum(rhs),rhsMax =  -4.68514116391816E-14  1.01936812689113E-01
 cg2d: Sum(rhs),rhsMax =  -1.38111744263369E-13  1.07405893504428E-01
 cg2d: Sum(rhs),rhsMax =  -2.14273043752655E-13  1.12662522553093E-01
 cg2d: Sum(rhs),rhsMax =  -2.80442336020315E-13  1.17655018810216E-01
 cg2d: Sum(rhs),rhsMax =  -3.26905169600877E-13  1.22333194307468E-01
 cg2d: Sum(rhs),rhsMax =  -3.58435503500232E-13  1.26649252754570E-01
 cg2d: Sum(rhs),rhsMax =  -3.98236998933044E-13  1.30558663632858E-01
 cg2d: Sum(rhs),rhsMax =  -4.32320845789036E-13  1.34020988787762E-01
 cg2d: Sum(rhs),rhsMax =  -4.85278484063656E-13  1.37000639441828E-01
 cg2d: Sum(rhs),rhsMax =  -5.59774449016004E-13  1.39467543208729E-01
 cg2d: Sum(rhs),rhsMax =  -6.49147402498329E-13  1.41397703064604E-01
 cg2d: Sum(rhs),rhsMax =  -7.41295913542217E-13  1.42773633238561E-01
 cg2d: Sum(rhs),rhsMax =  -8.33111357678717E-13  1.43584660505559E-01
 cg2d: Sum(rhs),rhsMax =  -9.29478716216181E-13  1.43827083297011E-01
 cg2d: Sum(rhs),rhsMax =  -1.03084207836446E-12  1.43504185184573E-01
 cg2d: Sum(rhs),rhsMax =  -1.09945386128629E-12  1.42626103524926E-01
 cg2d: Sum(rhs),rhsMax =  -1.18671739102183E-12  1.41209558276245E-01
 cg2d: Sum(rhs),rhsMax =  -1.21425092203253E-12  1.39277449993324E-01
 cg2d: Sum(rhs),rhsMax =  -1.27686750062139E-12  1.36858339409983E-01
 cg2d: Sum(rhs),rhsMax =  -1.36046729437567E-12  1.33985824263939E-01
 cg2d: Sum(rhs),rhsMax =  -1.42919009959996E-12  1.30697831449921E-01
 cg2d: Sum(rhs),rhsMax =  -1.55753188124663E-12  1.27035844599462E-01
 cg2d: Sum(rhs),rhsMax =  -1.62925228863742E-12  1.26950702003094E-01
 cg2d: Sum(rhs),rhsMax =  -1.66833213910422E-12  1.27983325809486E-01
 cg2d: Sum(rhs),rhsMax =  -1.70197189675036E-12  1.28539350993813E-01
 cg2d: Sum(rhs),rhsMax =  -1.72184488889116E-12  1.28617670445869E-01
 cg2d: Sum(rhs),rhsMax =  -1.75759407028409E-12  1.28222105133409E-01
 cg2d: Sum(rhs),rhsMax =  -1.76791914441310E-12  1.27361302217888E-01
 cg2d: Sum(rhs),rhsMax =  -1.81099579776856E-12  1.26048548990643E-01
 cg2d: Sum(rhs),rhsMax =  -1.93700611106351E-12  1.24301507670740E-01
 cg2d: Sum(rhs),rhsMax =  -2.11175521513951E-12  1.22141878136863E-01
 cg2d: Sum(rhs),rhsMax =  -2.29849472788146E-12  1.19594997340395E-01
 cg2d: Sum(rhs),rhsMax =  -2.50122145217802E-12  1.16689385619858E-01
 cg2d: Sum(rhs),rhsMax =  -2.69007038866675E-12  1.13456251128806E-01
 cg2d: Sum(rhs),rhsMax =  -2.85405032940389E-12  1.09928964524783E-01
 cg2d: Sum(rhs),rhsMax =  -3.00959257515387E-12  1.06142516279369E-01
 cg2d: Sum(rhs),rhsMax =  -3.20532489439529E-12  1.02132968693505E-01
 cg2d: Sum(rhs),rhsMax =  -3.51607631898787E-12  9.79369146613354E-02
 cg2d: Sum(rhs),rhsMax =  -3.66828789566398E-12  9.35909543958748E-02
 cg2d: Sum(rhs),rhsMax =  -3.73223674188239E-12  8.91312001813501E-02
 cg2d: Sum(rhs),rhsMax =  -3.82915921193216E-12  8.45928180548407E-02
 cg2d: Sum(rhs),rhsMax =  -4.01401134553225E-12  8.00096138658766E-02
 cg2d: Sum(rhs),rhsMax =  -4.17477163949798E-12  7.54136694411411E-02
 cg2d: Sum(rhs),rhsMax =  -4.40503189480523E-12  7.08350330636599E-02
 cg2d: Sum(rhs),rhsMax =  -4.63862281918637E-12  6.63014668048508E-02
 cg2d: Sum(rhs),rhsMax =  -4.92883511782338E-12  6.18382516842076E-02
 cg2d: Sum(rhs),rhsMax =  -5.21493959126929E-12  5.74680500754758E-02
 cg2d: Sum(rhs),rhsMax =  -5.55511192601443E-12  5.32108234526988E-02
 cg2d: Sum(rhs),rhsMax =  -5.89250870319802E-12  4.90838023343624E-02
 cg2d: Sum(rhs),rhsMax =  -6.33570973462838E-12  4.51015044249125E-02
 cg2d: Sum(rhs),rhsMax =  -6.73083810909247E-12  4.14443392147266E-02
 cg2d: Sum(rhs),rhsMax =  -6.79833966898968E-12  4.01862142211505E-02
 cg2d: Sum(rhs),rhsMax =  -6.87083723249771E-12  3.90554727348243E-02
 cg2d: Sum(rhs),rhsMax =  -6.88615831023753E-12  3.80248508647684E-02
 cg2d: Sum(rhs),rhsMax =  -6.96664947952286E-12  3.70614923531874E-02
 cg2d: Sum(rhs),rhsMax =  -7.00262070552071E-12  3.61491199846242E-02
 cg2d: Sum(rhs),rhsMax =  -7.01483315879159E-12  3.52805669582534E-02
 cg2d: Sum(rhs),rhsMax =  -7.05602243300518E-12  3.44423542156253E-02
 cg2d: Sum(rhs),rhsMax =  -7.09798886333601E-12  3.36271007816768E-02
 cg2d: Sum(rhs),rhsMax =  -7.12363501520485E-12  3.28293271370069E-02
 cg2d: Sum(rhs),rhsMax =  -7.14067693863285E-12  3.20448994921964E-02
 cg2d: Sum(rhs),rhsMax =  -7.18636261609618E-12  3.12706021378790E-02
 cg2d: Sum(rhs),rhsMax =  -7.26879667567459E-12  3.05038099429491E-02
 cg2d: Sum(rhs),rhsMax =  -7.34096117227523E-12  2.97422377873921E-02
 cg2d: Sum(rhs),rhsMax =  -7.41465222553472E-12  2.91336071648023E-02
 cg2d: Sum(rhs),rhsMax =  -7.43441419537305E-12  2.85407845838559E-02
 cg2d: Sum(rhs),rhsMax =  -7.47289730096412E-12  2.79397587561281E-02
 cg2d: Sum(rhs),rhsMax =  -7.52993500885424E-12  2.73250024192629E-02
 cg2d: Sum(rhs),rhsMax =  -7.60456975168466E-12  2.67025676294305E-02
 cg2d: Sum(rhs),rhsMax =  -7.73761610339818E-12  2.60591412891561E-02
 cg2d: Sum(rhs),rhsMax =  -7.88801662876537E-12  2.53838944016824E-02
 cg2d: Sum(rhs),rhsMax =  -7.98826282899512E-12  2.46700873065248E-02
 cg2d: Sum(rhs),rhsMax =  -8.19354306624831E-12  2.39298375939246E-02
 cg2d: Sum(rhs),rhsMax =  -8.59790016960460E-12  2.31446068441966E-02
 cg2d: Sum(rhs),rhsMax =  -8.80942541137131E-12  2.23070188085231E-02
 cg2d: Sum(rhs),rhsMax =  -9.08678687849829E-12  2.14327289521589E-02
 cg2d: Sum(rhs),rhsMax =  -9.49398892835518E-12  2.04951698780702E-02
 cg2d: Sum(rhs),rhsMax =  -9.88675807889194E-12  1.95166431985195E-02
 cg2d: Sum(rhs),rhsMax =  -1.03862474176708E-11  1.84775160687438E-02
 cg2d: Sum(rhs),rhsMax =  -1.10193520974633E-11  1.73838065408920E-02
 cg2d: Sum(rhs),rhsMax =  -1.16887610701610E-11  1.62435462266269E-02
 cg2d: Sum(rhs),rhsMax =  -1.24908416943015E-11  1.50482726238845E-02
 cg2d: Sum(rhs),rhsMax =  -1.35809696821809E-11  1.38026222742585E-02
 cg2d: Sum(rhs),rhsMax =  -1.49351642164675E-11  1.25112128176995E-02
 cg2d: Sum(rhs),rhsMax =  -1.66673341794876E-11  1.11786119953414E-02
 cg2d: Sum(rhs),rhsMax =  -1.89231963432235E-11  9.80931399340179E-03
 cg2d: Sum(rhs),rhsMax =  -2.21114238030395E-11  8.40772316509008E-03
 cg2d: Sum(rhs),rhsMax =  -2.44053666165200E-11  7.64596184079575E-03
 cg2d: Sum(rhs),rhsMax =  -2.40443220889119E-11  7.79277728805523E-03
 cg2d: Sum(rhs),rhsMax =  -2.37263542146593E-11  7.92914302941929E-03
 cg2d: Sum(rhs),rhsMax =  -2.34599006887493E-11  8.05694470655229E-03
 cg2d: Sum(rhs),rhsMax =  -2.32267538535780E-11  8.17799601979561E-03
 cg2d: Sum(rhs),rhsMax =  -2.30162555681090E-11  8.29406050869868E-03
 cg2d: Sum(rhs),rhsMax =  -2.28341789920705E-11  8.40687311566058E-03
 cg2d: Sum(rhs),rhsMax =  -2.26485497023532E-11  8.51816150173521E-03
 cg2d: Sum(rhs),rhsMax =  -2.24660290371048E-11  8.62966708167897E-03
 cg2d: Sum(rhs),rhsMax =  -2.22781793013382E-11  8.74316571536817E-03
 cg2d: Sum(rhs),rhsMax =  -2.21438423153586E-11  8.86048797412044E-03
 cg2d: Sum(rhs),rhsMax =  -2.01387795328856E-11  9.79514755312243E-03
 cg2d: Sum(rhs),rhsMax =  -1.76916259420068E-11  1.12036627019175E-02
 cg2d: Sum(rhs),rhsMax =  -1.58851820586392E-11  1.25848672963192E-02
 cg2d: Sum(rhs),rhsMax =  -1.44243506028374E-11  1.39325145074674E-02
 cg2d: Sum(rhs),rhsMax =  -1.33032473925709E-11  1.52549792869421E-02
 cg2d: Sum(rhs),rhsMax =  -1.23607790669666E-11  1.65406754198865E-02
 cg2d: Sum(rhs),rhsMax =  -1.15608633777242E-11  1.77908445346657E-02
 cg2d: Sum(rhs),rhsMax =  -1.08487663297296E-11  1.90134880823158E-02
 cg2d: Sum(rhs),rhsMax =  -1.04100061903978E-11  2.01988892838040E-02
 cg2d: Sum(rhs),rhsMax =  -9.86921655510287E-12  2.13504362708022E-02
 cg2d: Sum(rhs),rhsMax =  -9.47131262307721E-12  2.24803698864229E-02
 cg2d: Sum(rhs),rhsMax =  -9.05059360789551E-12  2.35793706871466E-02
 cg2d: Sum(rhs),rhsMax =  -8.76432260099591E-12  2.46499502176646E-02
 cg2d: Sum(rhs),rhsMax =  -8.51957393521730E-12  2.56945775794200E-02
 cg2d: Sum(rhs),rhsMax =  -8.39051050860462E-12  2.67262415800599E-02
 cg2d: Sum(rhs),rhsMax =  -8.22841794700935E-12  2.77377588176221E-02
 cg2d: Sum(rhs),rhsMax =  -8.12339084887981E-12  2.87296745159869E-02
 cg2d: Sum(rhs),rhsMax =  -7.88258347483861E-12  2.97031601726533E-02
 cg2d: Sum(rhs),rhsMax =  -7.66620100733917E-12  3.06588679703346E-02
 cg2d: Sum(rhs),rhsMax =  -7.44648787076585E-12  3.16006765351316E-02
 cg2d: Sum(rhs),rhsMax =  -7.31670279918717E-12  3.25362093904828E-02
 cg2d: Sum(rhs),rhsMax =  -7.22510939965559E-12  3.34553386060056E-02
 cg2d: Sum(rhs),rhsMax =  -7.05424607616578E-12  3.43572776174704E-02
 cg2d: Sum(rhs),rhsMax =  -7.00395297315026E-12  3.52409335572707E-02
 cg2d: Sum(rhs),rhsMax =  -6.92546020530926E-12  3.61076654155303E-02
 cg2d: Sum(rhs),rhsMax =  -6.84663437056088E-12  3.69744558371011E-02
 cg2d: Sum(rhs),rhsMax =  -6.76780853581249E-12  3.78219265903837E-02
 cg2d: Sum(rhs),rhsMax =  -6.73117117599986E-12  3.86485748607397E-02
 cg2d: Sum(rhs),rhsMax =  -6.61204424545758E-12  3.94528362925552E-02
 cg2d: Sum(rhs),rhsMax =  -6.55353549205984E-12  4.02594079054416E-02
 cg2d: Sum(rhs),rhsMax =  -6.47160103284250E-12  4.10501198172142E-02
 cg2d: Sum(rhs),rhsMax =  -6.44750919320813E-12  4.18180710737461E-02
 cg2d: Sum(rhs),rhsMax =  -6.37812025416906E-12  4.25621537217317E-02
 cg2d: Sum(rhs),rhsMax =  -6.47404352349668E-12  4.33198372967249E-02
 cg2d: Sum(rhs),rhsMax =  -6.43618491835696E-12  4.40588438366237E-02
 cg2d: Sum(rhs),rhsMax =  -6.21414031343193E-12  4.47770980148383E-02
 cg2d: Sum(rhs),rhsMax =  -6.05704375544747E-12  4.54853871023936E-02
 cg2d: Sum(rhs),rhsMax =  -5.96389604368142E-12  4.64181991467388E-02
 cg2d: Sum(rhs),rhsMax =  -5.71520608616538E-12  4.88449214296384E-02
 cg2d: Sum(rhs),rhsMax =  -5.54112311590416E-12  5.15267059604707E-02
 cg2d: Sum(rhs),rhsMax =  -5.34838839882923E-12  5.42733049865666E-02
 cg2d: Sum(rhs),rhsMax =  -5.13533660040366E-12  5.70749550639632E-02
 cg2d: Sum(rhs),rhsMax =  -4.89797091773880E-12  5.99209360695243E-02
 cg2d: Sum(rhs),rhsMax =  -4.66005012356163E-12  6.27996304865255E-02
 cg2d: Sum(rhs),rhsMax =  -4.37472280623297E-12  6.56985970725095E-02
 cg2d: Sum(rhs),rhsMax =  -4.08717504285505E-12  6.86046584487492E-02
 cg2d: Sum(rhs),rhsMax =  -3.84137166520304E-12  7.15040018827092E-02
 cg2d: Sum(rhs),rhsMax =  -3.60822483003176E-12  7.43822922673541E-02
 cg2d: Sum(rhs),rhsMax =  -3.33777450123307E-12  7.72247960399972E-02
 cg2d: Sum(rhs),rhsMax =  -3.11217718262924E-12  8.00165145426226E-02
 cg2d: Sum(rhs),rhsMax =  -2.87125878628558E-12  8.27423251110021E-02
 cg2d: Sum(rhs),rhsMax =  -2.64821498063839E-12  8.53871279834564E-02
 cg2d: Sum(rhs),rhsMax =  -2.48001619240767E-12  8.79359969607797E-02
 cg2d: Sum(rhs),rhsMax =  -2.31503705094838E-12  9.03743316324607E-02
 cg2d: Sum(rhs),rhsMax =  -2.16293649657473E-12  9.26880089000670E-02
 cg2d: Sum(rhs),rhsMax =  -2.04658512359401E-12  9.48635314973161E-02
 cg2d: Sum(rhs),rhsMax =  -1.94533278374820E-12  9.68881712154029E-02
 cg2d: Sum(rhs),rhsMax =  -1.84618986764917E-12  9.87501046023976E-02
 cg2d: Sum(rhs),rhsMax =  -1.79867232219522E-12  1.00438539008771E-01
 cg2d: Sum(rhs),rhsMax =  -1.75470749042006E-12  1.01943826998414E-01
 cg2d: Sum(rhs),rhsMax =  -1.69597669241739E-12  1.03257567337794E-01
 cg2d: Sum(rhs),rhsMax =  -1.65156777143238E-12  1.04372690997848E-01
 cg2d: Sum(rhs),rhsMax =  -1.55742085894417E-12  1.05283530866188E-01
 cg2d: Sum(rhs),rhsMax =  -1.65800706497521E-12  1.06701131766934E-01
 cg2d: Sum(rhs),rhsMax =  -1.77691195091256E-12  1.10090747122258E-01
 cg2d: Sum(rhs),rhsMax =  -1.86806126123429E-12  1.13327887259579E-01
 cg2d: Sum(rhs),rhsMax =  -1.92290627865077E-12  1.16395101255985E-01
 cg2d: Sum(rhs),rhsMax =  -1.97863947448695E-12  1.19275782790650E-01
 cg2d: Sum(rhs),rhsMax =  -1.98574490184455E-12  1.21954326153371E-01
 cg2d: Sum(rhs),rhsMax =  -1.96309635214220E-12  1.24416273376348E-01
 cg2d: Sum(rhs),rhsMax =  -1.96220817372250E-12  1.26648450471396E-01
 cg2d: Sum(rhs),rhsMax =  -1.94977367584670E-12  1.28639090891174E-01
 cg2d: Sum(rhs),rhsMax =  -1.91779925273750E-12  1.30377944508737E-01
 cg2d: Sum(rhs),rhsMax =  -1.94433358302604E-12  1.31856370616916E-01
 cg2d: Sum(rhs),rhsMax =  -1.95166105498856E-12  1.33067413689591E-01
 cg2d: Sum(rhs),rhsMax =  -1.98208116586329E-12  1.34005860920623E-01
 cg2d: Sum(rhs),rhsMax =  -2.02204919474980E-12  1.34668280836915E-01
 cg2d: Sum(rhs),rhsMax =  -2.03526084874284E-12  1.35053042523452E-01
 cg2d: Sum(rhs),rhsMax =  -2.05546690779101E-12  1.35160315376295E-01
 cg2d: Sum(rhs),rhsMax =  -2.10076400719572E-12  1.34992049516914E-01
 cg2d: Sum(rhs),rhsMax =  -2.14994688718662E-12  1.34551937330107E-01
 cg2d: Sum(rhs),rhsMax =  -2.20290452546124E-12  1.33845356897172E-01
 cg2d: Sum(rhs),rhsMax =  -2.28828067605491E-12  1.32879298324712E-01
 cg2d: Sum(rhs),rhsMax =  -2.34312569347139E-12  1.31662274212944E-01
 cg2d: Sum(rhs),rhsMax =  -2.45381492902652E-12  1.30204215767359E-01
 cg2d: Sum(rhs),rhsMax =  -2.54873899763197E-12  1.28516356161048E-01
 cg2d: Sum(rhs),rhsMax =  -2.66320299147083E-12  1.26611103001397E-01
 cg2d: Sum(rhs),rhsMax =  -2.77222689248902E-12  1.24501901741084E-01
 cg2d: Sum(rhs),rhsMax =  -2.91422441733857E-12  1.22203092205489E-01
 cg2d: Sum(rhs),rhsMax =  -3.06266123573096E-12  1.19729760228917E-01
 cg2d: Sum(rhs),rhsMax =  -3.19910764545739E-12  1.17097586396174E-01
 cg2d: Sum(rhs),rhsMax =  -3.38096217689099E-12  1.14322693886975E-01
 cg2d: Sum(rhs),rhsMax =  -3.56081830688026E-12  1.11421497507595E-01
 cg2d: Sum(rhs),rhsMax =  -3.73390207641933E-12  1.08410555721091E-01
 cg2d: Sum(rhs),rhsMax =  -3.87712084659597E-12  1.05306427458974E-01
 cg2d: Sum(rhs),rhsMax =  -4.06097377947390E-12  1.02125535220257E-01
 cg2d: Sum(rhs),rhsMax =  -4.25193213970942E-12  9.88840359050035E-02
 cg2d: Sum(rhs),rhsMax =  -4.44777548125330E-12  9.55977007071075E-02
 cg2d: Sum(rhs),rhsMax =  -4.67104133150542E-12  9.22818050785274E-02
 cg2d: Sum(rhs),rhsMax =  -4.90241180983730E-12  8.89510295930289E-02
 cg2d: Sum(rhs),rhsMax =  -5.17563769619755E-12  8.56193723356703E-02
 cg2d: Sum(rhs),rhsMax =  -5.38891153922805E-12  8.23000732408631E-02
 cg2d: Sum(rhs),rhsMax =  -5.72031311207866E-12  7.90055505920092E-02
 cg2d: Sum(rhs),rhsMax =  -6.02273786398655E-12  7.57473497373350E-02
 cg2d: Sum(rhs),rhsMax =  -6.34359231810322E-12  7.25361038526898E-02
 cg2d: Sum(rhs),rhsMax =  -6.74615918683230E-12  6.93815064252304E-02
 cg2d: Sum(rhs),rhsMax =  -7.10120851010743E-12  6.62922950260384E-02
 cg2d: Sum(rhs),rhsMax =  -7.50044470976263E-12  6.32762457641474E-02
 cg2d: Sum(rhs),rhsMax =  -7.93243248864428E-12  6.03401776854438E-02
 cg2d: Sum(rhs),rhsMax =  -8.39328606616618E-12  5.74899663147826E-02
 cg2d: Sum(rhs),rhsMax =  -8.89532891790168E-12  5.47305654692584E-02
 cg2d: Sum(rhs),rhsMax =  -9.37239175158311E-12  5.20660364187431E-02
 cg2d: Sum(rhs),rhsMax =  -9.87054882273242E-12  4.94995834340476E-02
 cg2d: Sum(rhs),rhsMax =  -1.04881658913314E-11  4.70335947502303E-02
 cg2d: Sum(rhs),rhsMax =  -1.09999787056836E-11  4.56974431247412E-02
 cg2d: Sum(rhs),rhsMax =  -1.13241638288741E-11  4.47173076945442E-02
 cg2d: Sum(rhs),rhsMax =  -1.15252252186338E-11  4.37648494069331E-02
 cg2d: Sum(rhs),rhsMax =  -1.17315046566091E-11  4.28146904900897E-02
 cg2d: Sum(rhs),rhsMax =  -1.18689502670577E-11  4.18674780634208E-02
 cg2d: Sum(rhs),rhsMax =  -1.20985998997014E-11  4.09348733842333E-02
 cg2d: Sum(rhs),rhsMax =  -1.24328880524160E-11  3.99763602503336E-02
 cg2d: Sum(rhs),rhsMax =  -1.26991750448724E-11  3.90228300793509E-02
 cg2d: Sum(rhs),rhsMax =  -1.29755095557016E-11  3.80415786778767E-02
 cg2d: Sum(rhs),rhsMax =  -1.32523436668919E-11  3.70470957053304E-02
 cg2d: Sum(rhs),rhsMax =  -1.36295974506595E-11  3.60228242707863E-02
 cg2d: Sum(rhs),rhsMax =  -1.39757094785864E-11  3.49804390985587E-02
 cg2d: Sum(rhs),rhsMax =  -1.44271261603990E-11  3.38961362810268E-02
 cg2d: Sum(rhs),rhsMax =  -1.48652756770673E-11  3.28000343449121E-02
 cg2d: Sum(rhs),rhsMax =  -1.53969059724091E-11  3.16580740232854E-02
 cg2d: Sum(rhs),rhsMax =  -1.59445789904566E-11  3.04883231288438E-02
 cg2d: Sum(rhs),rhsMax =  -1.65382152417237E-11  2.92901005649207E-02
 cg2d: Sum(rhs),rhsMax =  -1.72040159895914E-11  2.80511223978118E-02
 cg2d: Sum(rhs),rhsMax =  -1.79567472002873E-11  2.67782918879883E-02
 cg2d: Sum(rhs),rhsMax =  -1.88086213270822E-11  2.54839490210032E-02
 cg2d: Sum(rhs),rhsMax =  -1.98586702637726E-11  2.41548466633508E-02
 cg2d: Sum(rhs),rhsMax =  -2.09191552968946E-11  2.27945038593923E-02
 cg2d: Sum(rhs),rhsMax =  -2.21929141730470E-11  2.14064335727820E-02
 cg2d: Sum(rhs),rhsMax =  -2.36833885836063E-11  1.99941320278271E-02
 cg2d: Sum(rhs),rhsMax =  -2.54615217798460E-11  1.85610699354415E-02
 cg2d: Sum(rhs),rhsMax =  -2.76182410274828E-11  1.71111276433591E-02
 cg2d: Sum(rhs),rhsMax =  -3.01342284458883E-11  1.56463791046289E-02
 cg2d: Sum(rhs),rhsMax =  -3.32600613717204E-11  1.41715094043666E-02
 cg2d: Sum(rhs),rhsMax =  -3.54525298007502E-11  1.32875837786177E-02
 cg2d: Sum(rhs),rhsMax =  -3.54720697259836E-11  1.32557847671671E-02
 cg2d: Sum(rhs),rhsMax =  -3.54414275705039E-11  1.32378672873306E-02
 cg2d: Sum(rhs),rhsMax =  -3.54027918092470E-11  1.32325168906564E-02
 cg2d: Sum(rhs),rhsMax =  -3.53224116622641E-11  1.32383401072443E-02
 cg2d: Sum(rhs),rhsMax =  -3.52660123326132E-11  1.32538559670463E-02
 cg2d: Sum(rhs),rhsMax =  -3.51398909970158E-11  1.32774878359200E-02
 cg2d: Sum(rhs),rhsMax =  -3.50108830815543E-11  1.33075556715815E-02
 cg2d: Sum(rhs),rhsMax =  -3.48414630479965E-11  1.33422688112001E-02
 cg2d: Sum(rhs),rhsMax =  -3.47069040174119E-11  1.33797193996476E-02
 cg2d: Sum(rhs),rhsMax =  -3.45630191134205E-11  1.34178765748308E-02
 cg2d: Sum(rhs),rhsMax =  -3.44296813281630E-11  1.34545815326263E-02
 cg2d: Sum(rhs),rhsMax =  -3.42715855694564E-11  1.34875435984624E-02
 cg2d: Sum(rhs),rhsMax =  -3.41451311669516E-11  1.35143374350033E-02
 cg2d: Sum(rhs),rhsMax =  -3.40600880832653E-11  1.35324015155499E-02
 cg2d: Sum(rhs),rhsMax =  -3.39910322111336E-11  1.35390379907397E-02
 cg2d: Sum(rhs),rhsMax =  -3.39567263196727E-11  1.35314140718724E-02
 cg2d: Sum(rhs),rhsMax =  -3.39720473974126E-11  1.35065650479658E-02
 cg2d: Sum(rhs),rhsMax =  -3.40207861881936E-11  1.34613990442160E-02
 cg2d: Sum(rhs),rhsMax =  -3.41688899396786E-11  1.33927036192264E-02
 cg2d: Sum(rhs),rhsMax =  -3.31165095346364E-11  1.37959523652626E-02
 cg2d: Sum(rhs),rhsMax =  -3.08922887271024E-11  1.47608430352664E-02
 cg2d: Sum(rhs),rhsMax =  -2.90174551054179E-11  1.56974830307805E-02
 cg2d: Sum(rhs),rhsMax =  -2.73908673520395E-11  1.65845081200543E-02
 cg2d: Sum(rhs),rhsMax =  -2.59945398539685E-11  1.74483904773116E-02
 cg2d: Sum(rhs),rhsMax =  -2.47453169066603E-11  1.82702122600897E-02
 cg2d: Sum(rhs),rhsMax =  -2.36020092359013E-11  1.90688876446658E-02
 cg2d: Sum(rhs),rhsMax =  -2.26347829368478E-11  1.98330215870648E-02
 cg2d: Sum(rhs),rhsMax =  -2.17036388860947E-11  2.05845880627389E-02
 cg2d: Sum(rhs),rhsMax =  -2.09284811703014E-11  2.13035491782829E-02
 cg2d: Sum(rhs),rhsMax =  -2.01759720042105E-11  2.20256650501217E-02
 cg2d: Sum(rhs),rhsMax =  -1.95272131797708E-11  2.27343679002506E-02
 cg2d: Sum(rhs),rhsMax =  -1.89042115295024E-11  2.34363657281826E-02
 cg2d: Sum(rhs),rhsMax =  -1.84509074685479E-11  2.41518842805625E-02
 cg2d: Sum(rhs),rhsMax =  -1.79495862617784E-11  2.48904906018724E-02
(PID.TID 0000.0001)      cg2d_init_res =   3.14804832790576E-01
(PID.TID 0000.0001)      cg2d_iters(min,last) =      -1      38
(PID.TID 0000.0001)      cg2d_last_res =   8.01281068380700E-14
(PID.TID 0000.0001) // =======================================================
(PID.TID 0000.0001) // Begin MONITOR dynamic field statistics
(PID.TID 0000.0001) // =======================================================
(PID.TID 0000.0001) %MON time_tsnumber                =                   480
(PID.TID 0000.0001) %MON time_secondsf                =   7.2000000000000E+03
(PID.TID 0000.0001) %MON dynstat_eta_max              =   7.0176096914163E-03
(PID.TID 0000.0001) %MON dynstat_eta_min              =  -6.3221335847393E-03
(PID.TID 0000.0001) %MON dynstat_eta_mean             =   9.6285696018347E-16
(PID.TID 0000.0001) %MON dynstat_eta_sd               =   4.5923487186903E-03
(PID.TID 0000.0001) %MON dynstat_eta_del2             =   8.9913663190393E-07
(PID.TID 0000.0001) %MON dynstat_uvel_max             =   3.1046352741471E-01
(PID.TID 0000.0001) %MON dynstat_uvel_min             =  -2.9471947977755E-02
(PID.TID 0000.0001) %MON dynstat_uvel_mean            =   6.9625825821350E-02
(PID.TID 0000.0001) %MON dynstat_uvel_sd              =   9.5833712767351E-03
(PID.TID 0000.0001) %MON dynstat_uvel_del2            =   2.0041431968642E-05
(PID.TID 0000.0001) %MON dynstat_vvel_max             =   0.0000000000000E+00
(PID.TID 0000.0001) %MON dynstat_vvel_min             =   0.0000000000000E+00
(PID.TID 0000.0001) %MON dynstat_vvel_mean            =   0.0000000000000E+00
(PID.TID 0000.0001) %MON dynstat_vvel_sd              =   0.0000000000000E+00
(PID.TID 0000.0001) %MON dynstat_vvel_del2            =   0.0000000000000E+00
(PID.TID 0000.0001) %MON dynstat_wvel_max             =   1.2768115347096E-03
(PID.TID 0000.0001) %MON dynstat_wvel_min             =  -2.8988119247229E-03
(PID.TID 0000.0001) %MON dynstat_wvel_mean            =   1.0811310276949E-21
(PID.TID 0000.0001) %MON dynstat_wvel_sd              =   1.4959126606267E-04
(PID.TID 0000.0001) %MON dynstat_wvel_del2            =   1.5981767405716E-06
(PID.TID 0000.0001) %MON dynstat_theta_max            =   1.5000000000002E+01
(PID.TID 0000.0001) %MON dynstat_theta_min            =   9.9999999999991E+00
(PID.TID 0000.0001) %MON dynstat_theta_mean           =   1.3335042951876E+01
(PID.TID 0000.0001) %MON dynstat_theta_sd             =   2.3194010281741E+00
(PID.TID 0000.0001) %MON dynstat_theta_del2           =   1.7706203992781E-04
(PID.TID 0000.0001) %MON dynstat_salt_max             =   3.5000000000000E+01
(PID.TID 0000.0001) %MON dynstat_salt_min             =   3.5000000000000E+01
(PID.TID 0000.0001) %MON dynstat_salt_mean            =   3.5000000000000E+01
(PID.TID 0000.0001) %MON dynstat_salt_sd              =   2.1316282072803E-14
(PID.TID 0000.0001) %MON dynstat_salt_del2            =   0.0000000000000E+00
(PID.TID 0000.0001) %MON dynstat_sst_max              =   1.5000000000000E+01
(PID.TID 0000.0001) %MON dynstat_sst_min              =   1.4999999999999E+01
(PID.TID 0000.0001) %MON dynstat_sst_mean             =   1.4999999999999E+01
(PID.TID 0000.0001) %MON dynstat_sst_sd               =   2.9523242071569E-13
(PID.TID 0000.0001) %MON dynstat_sst_del2             =   2.6795511716129E-15
(PID.TID 0000.0001) %MON dynstat_sss_max              =   3.5000000000000E+01
(PID.TID 0000.0001) %MON dynstat_sss_min              =   3.5000000000000E+01
(PID.TID 0000.0001) %MON dynstat_sss_mean             =   3.5000000000000E+01
(PID.TID 0000.0001) %MON dynstat_sss_sd               =   7.8159700933611E-14
(PID.TID 0000.0001) %MON dynstat_sss_del2             =   0.0000000000000E+00
(PID.TID 0000.0001) %MON forcing_qnet_max             =   0.0000000000000E+00
(PID.TID 0000.0001) %MON forcing_qnet_min             =   0.0000000000000E+00
(PID.TID 0000.0001) %MON forcing_qnet_mean            =   0.0000000000000E+00
(PID.TID 0000.0001) %MON forcing_qnet_sd              =   0.0000000000000E+00
(PID.TID 0000.0001) %MON forcing_qnet_del2            =   0.0000000000000E+00
(PID.TID 0000.0001) %MON forcing_qsw_max              =   0.0000000000000E+00
(PID.TID 0000.0001) %MON forcing_qsw_min              =   0.0000000000000E+00
(PID.TID 0000.0001) %MON forcing_qsw_mean             =   0.0000000000000E+00
(PID.TID 0000.0001) %MON forcing_qsw_sd               =   0.0000000000000E+00
(PID.TID 0000.0001) %MON forcing_qsw_del2             =   0.0000000000000E+00
(PID.TID 0000.0001) %MON forcing_empmr_max            =   0.0000000000000E+00
(PID.TID 0000.0001) %MON forcing_empmr_min            =   0.0000000000000E+00
(PID.TID 0000.0001) %MON forcing_empmr_mean           =   0.0000000000000E+00
(PID.TID 0000.0001) %MON forcing_empmr_sd             =   0.0000000000000E+00
(PID.TID 0000.0001) %MON forcing_empmr_del2           =   0.0000000000000E+00
(PID.TID 0000.0001) %MON forcing_fu_max               =   0.0000000000000E+00
(PID.TID 0000.0001) %MON forcing_fu_min               =   0.0000000000000E+00
(PID.TID 0000.0001) %MON forcing_fu_mean              =   0.0000000000000E+00
(PID.TID 0000.0001) %MON forcing_fu_sd                =   0.0000000000000E+00
(PID.TID 0000.0001) %MON forcing_fu_del2              =   0.0000000000000E+00
(PID.TID 0000.0001) %MON forcing_fv_max               =   0.0000000000000E+00
(PID.TID 0000.0001) %MON forcing_fv_min               =   0.0000000000000E+00
(PID.TID 0000.0001) %MON forcing_fv_mean              =   0.0000000000000E+00
(PID.TID 0000.0001) %MON forcing_fv_sd                =   0.0000000000000E+00
(PID.TID 0000.0001) %MON forcing_fv_del2              =   0.0000000000000E+00
(PID.TID 0000.0001) %MON advcfl_uvel_max              =   2.3284764556103E-02
(PID.TID 0000.0001) %MON advcfl_vvel_max              =   0.0000000000000E+00
(PID.TID 0000.0001) %MON advcfl_wvel_max              =   1.6580259966811E-02
(PID.TID 0000.0001) %MON advcfl_W_hf_max              =   2.1265785902517E-02
(PID.TID 0000.0001) %MON pe_b_mean                    =   5.2688569285420E-07
(PID.TID 0000.0001) %MON ke_max                       =   3.8848749047525E-02
(PID.TID 0000.0001) %MON ke_mean                      =   2.4710483331972E-03
(PID.TID 0000.0001) %MON ke_vol                       =   9.5889217545975E+10
(PID.TID 0000.0001) %MON vort_r_min                   =   0.0000000000000E+00
(PID.TID 0000.0001) %MON vort_r_max                   =   0.0000000000000E+00
(PID.TID 0000.0001) %MON vort_a_mean                  =   0.0000000000000E+00
(PID.TID 0000.0001) %MON vort_a_sd                    =   0.0000000000000E+00
(PID.TID 0000.0001) %MON vort_p_mean                  =   0.0000000000000E+00
(PID.TID 0000.0001) %MON vort_p_sd                    =   0.0000000000000E+00
(PID.TID 0000.0001) %MON surfExpan_theta_mean         =  -7.0250912593560E-19
(PID.TID 0000.0001) %MON surfExpan_salt_mean          =   1.7132097968476E-19
(PID.TID 0000.0001) // =======================================================
(PID.TID 0000.0001) // End MONITOR dynamic field statistics
(PID.TID 0000.0001) // =======================================================
(PID.TID 0000.0001) // =======================================================
(PID.TID 0000.0001) // Begin OBCS MONITOR field statistics
(PID.TID 0000.0001) // =======================================================
(PID.TID 0000.0001) %MON obc_E_uVel_max               =   6.6809804669674E-02
(PID.TID 0000.0001) %MON obc_E_uVel_min               =   6.6809804669674E-02
(PID.TID 0000.0001) %MON obc_E_uVel_mean              =   6.6809804669674E-02
(PID.TID 0000.0001) %MON obc_E_uVel_sd                =  -1.7347234759768E-18
(PID.TID 0000.0001) %MON obc_E_uVel_Int               =   6.6809804669674E+04
(PID.TID 0000.0001) %MON obc_W_uVel_max               =   6.6809804669674E-02
(PID.TID 0000.0001) %MON obc_W_uVel_min               =   6.6809804669674E-02
(PID.TID 0000.0001) %MON obc_W_uVel_mean              =   6.6809804669674E-02
(PID.TID 0000.0001) %MON obc_W_uVel_sd                =  -1.7347234759768E-18
(PID.TID 0000.0001) %MON obc_W_uVel_Int               =   6.6809804669674E+04
(PID.TID 0000.0001) // =======================================================
(PID.TID 0000.0001) // End OBCS MONITOR field statistics
(PID.TID 0000.0001) // =======================================================
 cg2d: Sum(rhs),rhsMax =  -1.75345293840223E-11  2.56563177725699E-02
 cg2d: Sum(rhs),rhsMax =  -1.69852465425890E-11  2.64652149495869E-02
 cg2d: Sum(rhs),rhsMax =  -1.64661062562743E-11  2.73348400226014E-02
 cg2d: Sum(rhs),rhsMax =  -1.58583007836555E-11  2.82989333058385E-02
 cg2d: Sum(rhs),rhsMax =  -1.53003998359935E-11  2.93871753038791E-02
 cg2d: Sum(rhs),rhsMax =  -1.46307740228613E-11  3.06936635338429E-02
 cg2d: Sum(rhs),rhsMax =  -1.40730829767399E-11  3.20919707576789E-02
 cg2d: Sum(rhs),rhsMax =  -1.35102623533001E-11  3.36144817431581E-02
 cg2d: Sum(rhs),rhsMax =  -1.29199706488947E-11  3.52711785045414E-02
 cg2d: Sum(rhs),rhsMax =  -1.23457355449830E-11  3.70961477059048E-02
 cg2d: Sum(rhs),rhsMax =  -1.17909293440022E-11  3.91155713623357E-02
 cg2d: Sum(rhs),rhsMax =  -1.12316267397716E-11  4.13776778409070E-02
 cg2d: Sum(rhs),rhsMax =  -1.06935016397358E-11  4.36527263605073E-02
 cg2d: Sum(rhs),rhsMax =  -1.02572950133606E-11  4.59336911407985E-02
 cg2d: Sum(rhs),rhsMax =  -9.84412551474634E-12  4.82132539167490E-02
 cg2d: Sum(rhs),rhsMax =  -9.47214529034568E-12  5.04838460470766E-02
 cg2d: Sum(rhs),rhsMax =  -9.13058517681975E-12  5.27376941397886E-02
 cg2d: Sum(rhs),rhsMax =  -8.85164164188268E-12  5.49668688198929E-02
 cg2d: Sum(rhs),rhsMax =  -8.56498205692446E-12  5.71633362088883E-02
 cg2d: Sum(rhs),rhsMax =  -8.32667268468867E-12  5.93190116350224E-02
 cg2d: Sum(rhs),rhsMax =  -8.09707856319619E-12  6.14258150555072E-02
 cg2d: Sum(rhs),rhsMax =  -7.90467691302865E-12  6.34757276350649E-02
 cg2d: Sum(rhs),rhsMax =  -7.71482877581775E-12  6.54608489019010E-02
 cg2d: Sum(rhs),rhsMax =  -7.55462359336434E-12  6.73734538782178E-02
 cg2d: Sum(rhs),rhsMax =  -7.43072270381617E-12  6.92060495702877E-02
 cg2d: Sum(rhs),rhsMax =  -7.29938332000302E-12  7.09514302007262E-02
 cg2d: Sum(rhs),rhsMax =  -7.16948722612187E-12  7.26027305733750E-02
 cg2d: Sum(rhs),rhsMax =  -7.08799685611439E-12  7.41534769770476E-02
 cg2d: Sum(rhs),rhsMax =  -7.00317581703302E-12  7.55976350589464E-02
 cg2d: Sum(rhs),rhsMax =  -6.93012314201269E-12  7.69296541318158E-02
 cg2d: Sum(rhs),rhsMax =  -6.84552414753625E-12  7.81445074162486E-02
 cg2d: Sum(rhs),rhsMax =  -6.78090916750307E-12  7.92377277808345E-02
 cg2d: Sum(rhs),rhsMax =  -6.77569111928733E-12  8.02054385899415E-02
 cg2d: Sum(rhs),rhsMax =  -6.76392275522630E-12  8.10443793301857E-02
 cg2d: Sum(rhs),rhsMax =  -6.80366873950788E-12  8.17519257572051E-02
 cg2d: Sum(rhs),rhsMax =  -6.81266154600735E-12  8.23261043605903E-02
 cg2d: Sum(rhs),rhsMax =  -6.83164635972844E-12  8.27656010364269E-02
 cg2d: Sum(rhs),rhsMax =  -6.87461199078143E-12  8.30697639333163E-02
 cg2d: Sum(rhs),rhsMax =  -6.94488910824020E-12  8.32386004987896E-02
 cg2d: Sum(rhs),rhsMax =  -7.00517421847735E-12  8.32727688288535E-02
 cg2d: Sum(rhs),rhsMax =  -7.08300085250357E-12  8.31735634920147E-02
 cg2d: Sum(rhs),rhsMax =  -7.15916215199286E-12  8.29428960761035E-02
 cg2d: Sum(rhs),rhsMax =  -7.21755988308814E-12  8.25832707642394E-02
 cg2d: Sum(rhs),rhsMax =  -7.29061255810848E-12  8.20977552877032E-02
 cg2d: Sum(rhs),rhsMax =  -7.40496552964487E-12  8.14899476729580E-02
 cg2d: Sum(rhs),rhsMax =  -7.49056372484347E-12  8.07639392520557E-02
 cg2d: Sum(rhs),rhsMax =  -7.56483764519089E-12  7.99242744095825E-02
 cg2d: Sum(rhs),rhsMax =  -7.54829532212398E-12  8.03720248665494E-02
 cg2d: Sum(rhs),rhsMax =  -7.48834327879422E-12  8.07127800605712E-02
 cg2d: Sum(rhs),rhsMax =  -7.48734407807206E-12  8.09017607577214E-02
 cg2d: Sum(rhs),rhsMax =  -7.53752615878511E-12  8.09394413767165E-02
 cg2d: Sum(rhs),rhsMax =  -7.59770024671980E-12  8.08269987604673E-02
 cg2d: Sum(rhs),rhsMax =  -7.68174412968392E-12  8.05662954378258E-02
 cg2d: Sum(rhs),rhsMax =  -7.77533593065982E-12  8.01598579053757E-02
 cg2d: Sum(rhs),rhsMax =  -7.87547804748101E-12  7.96108502001032E-02
 cg2d: Sum(rhs),rhsMax =  -7.97795163265391E-12  7.89230430807442E-02
 cg2d: Sum(rhs),rhsMax =  -8.09841083082574E-12  7.81007792187630E-02
 cg2d: Sum(rhs),rhsMax =  -8.26738677517369E-12  7.71489347663074E-02
 cg2d: Sum(rhs),rhsMax =  -8.54016857232409E-12  7.60728777513232E-02
 cg2d: Sum(rhs),rhsMax =  -8.83537687457192E-12  7.48784237461169E-02
 cg2d: Sum(rhs),rhsMax =  -8.88700224521699E-12  7.35717892524228E-02
 cg2d: Sum(rhs),rhsMax =  -9.04643027155316E-12  7.21595433058318E-02
 cg2d: Sum(rhs),rhsMax =  -9.14013309483153E-12  7.06485578104813E-02
 cg2d: Sum(rhs),rhsMax =  -9.25870491386149E-12  6.90459571105811E-02
 cg2d: Sum(rhs),rhsMax =  -9.42945721504884E-12  6.73590671999877E-02
 cg2d: Sum(rhs),rhsMax =  -9.65305613220835E-12  6.55953650584731E-02
 cg2d: Sum(rhs),rhsMax =  -9.86322135076989E-12  6.37624285838189E-02
 cg2d: Sum(rhs),rhsMax =  -1.00637276290172E-11  6.18678875414079E-02
 cg2d: Sum(rhs),rhsMax =  -1.03133057649529E-11  5.99193759015450E-02
 cg2d: Sum(rhs),rhsMax =  -1.06091802010155E-11  5.79244860091846E-02
 cg2d: Sum(rhs),rhsMax =  -1.08834052880979E-11  5.58907248460440E-02
 cg2d: Sum(rhs),rhsMax =  -1.12022613407703E-11  5.38254726877466E-02
 cg2d: Sum(rhs),rhsMax =  -1.15526477273420E-11  5.17359444153037E-02
 cg2d: Sum(rhs),rhsMax =  -1.19300125334121E-11  4.96291537137883E-02
 cg2d: Sum(rhs),rhsMax =  -1.24295018721909E-11  4.75118803402051E-02
 cg2d: Sum(rhs),rhsMax =  -1.29266597426181E-11  4.53906405832458E-02
 cg2d: Sum(rhs),rhsMax =  -1.34735556045484E-11  4.32716610133635E-02
 cg2d: Sum(rhs),rhsMax =  -1.41204825609975E-11  4.11608555969357E-02
 cg2d: Sum(rhs),rhsMax =  -1.47586387555521E-11  3.90638061457042E-02
 cg2d: Sum(rhs),rhsMax =  -1.55383483857463E-11  3.69857461006001E-02
 cg2d: Sum(rhs),rhsMax =  -1.63288271792794E-11  3.49315476377043E-02
 cg2d: Sum(rhs),rhsMax =  -1.72771796869142E-11  3.29057119819244E-02
 cg2d: Sum(rhs),rhsMax =  -1.83090209660008E-11  3.09123628135233E-02
 cg2d: Sum(rhs),rhsMax =  -1.94225746596999E-11  2.89552426321037E-02
 cg2d: Sum(rhs),rhsMax =  -2.06951122905252E-11  2.70377119054127E-02
 cg2d: Sum(rhs),rhsMax =  -2.21670459765733E-11  2.51627508497990E-02
 cg2d: Sum(rhs),rhsMax =  -2.38198349933327E-11  2.33329636343661E-02
 cg2d: Sum(rhs),rhsMax =  -2.56654697494696E-11  2.15505848103702E-02
 cg2d: Sum(rhs),rhsMax =  -2.78318479374207E-11  1.98174877859699E-02
 cg2d: Sum(rhs),rhsMax =  -2.96984659087229E-11  1.85491885762232E-02
 cg2d: Sum(rhs),rhsMax =  -3.05513392362400E-11  1.79949552832269E-02
 cg2d: Sum(rhs),rhsMax =  -3.13920001104862E-11  1.75117305038921E-02
 cg2d: Sum(rhs),rhsMax =  -3.22917248496424E-11  1.70088133313133E-02
 cg2d: Sum(rhs),rhsMax =  -3.32558425242269E-11  1.64984639364001E-02
 cg2d: Sum(rhs),rhsMax =  -3.42540440456673E-11  1.59634933674327E-02
 cg2d: Sum(rhs),rhsMax =  -3.54644091871137E-11  1.54179871743658E-02
 cg2d: Sum(rhs),rhsMax =  -3.67356145503095E-11  1.48488338763831E-02
 cg2d: Sum(rhs),rhsMax =  -3.81897291568123E-11  1.42548061259805E-02
 cg2d: Sum(rhs),rhsMax =  -3.98397981271614E-11  1.36432910520538E-02
 cg2d: Sum(rhs),rhsMax =  -4.16863765728692E-11  1.30089580274869E-02
 cg2d: Sum(rhs),rhsMax =  -4.38797331803187E-11  1.23497021098639E-02
 cg2d: Sum(rhs),rhsMax =  -4.63845906129023E-11  1.16661848093861E-02
 cg2d: Sum(rhs),rhsMax =  -4.93622087649470E-11  1.09590736648490E-02
 cg2d: Sum(rhs),rhsMax =  -5.28082048575906E-11  1.02290425922248E-02
 cg2d: Sum(rhs),rhsMax =  -5.69605057565425E-11  9.47677295304879E-03
 cg2d: Sum(rhs),rhsMax =  -6.20064832812517E-11  8.70295530281573E-03
 cg2d: Sum(rhs),rhsMax =  -6.82217615732839E-11  7.90829176891190E-03
 cg2d: Sum(rhs),rhsMax =  -7.60643215080847E-11  7.09349899779172E-03
 cg2d: Sum(rhs),rhsMax =  -8.62048210592548E-11  6.25931160208402E-03
 cg2d: Sum(rhs),rhsMax =  -9.98044979994006E-11  5.40722458845277E-03
 cg2d: Sum(rhs),rhsMax =  -9.43498612571148E-11  5.72071953790744E-03
 cg2d: Sum(rhs),rhsMax =  -8.40569835958149E-11  6.42434714616376E-03
 cg2d: Sum(rhs),rhsMax =  -7.60993490445117E-11  7.10489317584357E-03
 cg2d: Sum(rhs),rhsMax =  -6.97366608903849E-11  7.76487447385252E-03
 cg2d: Sum(rhs),rhsMax =  -6.45143938271531E-11  8.40682792523136E-03
 cg2d: Sum(rhs),rhsMax =  -6.01727556670539E-11  9.03330357990937E-03
 cg2d: Sum(rhs),rhsMax =  -5.64694957461143E-11  9.64685814764313E-03
 cg2d: Sum(rhs),rhsMax =  -5.32551780452195E-11  1.02500487916913E-02
 cg2d: Sum(rhs),rhsMax =  -5.04640773613119E-11  1.08454271508767E-02
 cg2d: Sum(rhs),rhsMax =  -4.79720707602382E-11  1.14355335195419E-02
 cg2d: Sum(rhs),rhsMax =  -4.57336390979890E-11  1.20228911158371E-02
 cg2d: Sum(rhs),rhsMax =  -4.37365699212933E-11  1.26100003709466E-02
 cg2d: Sum(rhs),rhsMax =  -4.18891588083170E-11  1.31993331752494E-02
 cg2d: Sum(rhs),rhsMax =  -4.01751965029007E-11  1.37933270218495E-02
 cg2d: Sum(rhs),rhsMax =  -3.85922405143901E-11  1.43943789933168E-02
 cg2d: Sum(rhs),rhsMax =  -3.71676023291911E-11  1.50048395388608E-02
 cg2d: Sum(rhs),rhsMax =  -3.57751606117063E-11  1.56270060165214E-02
 cg2d: Sum(rhs),rhsMax =  -3.44808626095983E-11  1.62631159542444E-02
 cg2d: Sum(rhs),rhsMax =  -3.32716076911765E-11  1.69153400067044E-02
 cg2d: Sum(rhs),rhsMax =  -3.20654613972238E-11  1.75857745950102E-02
 cg2d: Sum(rhs),rhsMax =  -3.09325898228963E-11  1.82764342266962E-02
 cg2d: Sum(rhs),rhsMax =  -2.98796543063418E-11  1.89892435023454E-02
 cg2d: Sum(rhs),rhsMax =  -2.88458146258108E-11  1.97260288182902E-02
 cg2d: Sum(rhs),rhsMax =  -2.78687073418382E-11  2.04885098004158E-02
 cg2d: Sum(rhs),rhsMax =  -2.68869371211622E-11  2.12782905052088E-02
 cg2d: Sum(rhs),rhsMax =  -2.59925414525242E-11  2.20968504350026E-02
 cg2d: Sum(rhs),rhsMax =  -2.50981457838861E-11  2.29455354249815E-02
 cg2d: Sum(rhs),rhsMax =  -2.42244002635061E-11  2.38255484696104E-02
 cg2d: Sum(rhs),rhsMax =  -2.34439134771947E-11  2.47379405655355E-02
 cg2d: Sum(rhs),rhsMax =  -2.27349250536690E-11  2.56836016563421E-02
 cg2d: Sum(rhs),rhsMax =  -2.20192752919957E-11  2.66632517704620E-02
 cg2d: Sum(rhs),rhsMax =  -2.13566941908994E-11  2.76774324604856E-02
 cg2d: Sum(rhs),rhsMax =  -2.06883399300750E-11  2.87264986379735E-02
 cg2d: Sum(rhs),rhsMax =  -1.99862348893021E-11  2.98106109146488E-02
 cg2d: Sum(rhs),rhsMax =  -1.93695059991228E-11  3.09297285619435E-02
 cg2d: Sum(rhs),rhsMax =  -1.87281301577968E-11  3.20836031994637E-02
 cg2d: Sum(rhs),rhsMax =  -1.80881976064029E-11  3.32717733198788E-02
 cg2d: Sum(rhs),rhsMax =  -1.75470749042006E-11  3.44935597533381E-02
 cg2d: Sum(rhs),rhsMax =  -1.69029235053131E-11  3.57480621685366E-02
 cg2d: Sum(rhs),rhsMax =  -1.63342672721001E-11  3.70341566998552E-02
 cg2d: Sum(rhs),rhsMax =  -1.57189816718528E-11  3.83504947807429E-02
 cg2d: Sum(rhs),rhsMax =  -1.53135282232597E-11  3.96955032530225E-02
 cg2d: Sum(rhs),rhsMax =  -1.48197010219064E-11  4.10673858107275E-02
 cg2d: Sum(rhs),rhsMax =  -1.43898226667716E-11  4.24641258271445E-02
 cg2d: Sum(rhs),rhsMax =  -1.39768197016110E-11  4.38834906007385E-02
 cg2d: Sum(rhs),rhsMax =  -1.35798039480051E-11  4.53230370435871E-02
 cg2d: Sum(rhs),rhsMax =  -1.31579191986475E-11  4.67801188264207E-02
 cg2d: Sum(rhs),rhsMax =  -1.28369537222284E-11  4.82518949875132E-02
 cg2d: Sum(rhs),rhsMax =  -1.25139898443649E-11  4.97353399954402E-02
 cg2d: Sum(rhs),rhsMax =  -1.22790666523542E-11  5.12272552483732E-02
 cg2d: Sum(rhs),rhsMax =  -1.20308207840480E-11  5.27242819788285E-02
 cg2d: Sum(rhs),rhsMax =  -1.18611787058853E-11  5.42229155183791E-02
 cg2d: Sum(rhs),rhsMax =  -1.16200382649367E-11  5.57195208619864E-02
 cg2d: Sum(rhs),rhsMax =  -1.14215303881338E-11  5.72103494612334E-02
 cg2d: Sum(rhs),rhsMax =  -1.12453379941257E-11  5.86915571558234E-02
 cg2d: Sum(rhs),rhsMax =  -1.10764730720803E-11  6.01592231368158E-02
 cg2d: Sum(rhs),rhsMax =  -1.09217079824475E-11  6.16093698196138E-02
 cg2d: Sum(rhs),rhsMax =  -1.07553965733587E-11  6.30379834899812E-02
 cg2d: Sum(rhs),rhsMax =  -1.06417097356371E-11  6.44410355728184E-02
 cg2d: Sum(rhs),rhsMax =  -1.05364605929026E-11  6.58145043616252E-02
 cg2d: Sum(rhs),rhsMax =  -1.04249942012302E-11  6.71543970370395E-02
 cg2d: Sum(rhs),rhsMax =  -1.03330677347913E-11  6.84567717958846E-02
 cg2d: Sum(rhs),rhsMax =  -1.02233776999583E-11  6.97177599079101E-02
 cg2d: Sum(rhs),rhsMax =  -1.01398889285065E-11  7.09335875158681E-02
 cg2d: Sum(rhs),rhsMax =  -1.00841557326703E-11  7.21005969956531E-02
 cg2d: Sum(rhs),rhsMax =  -1.00146557713288E-11  7.32152676967900E-02
 cg2d: Sum(rhs),rhsMax =  -9.94448967617245E-12  7.42742358920347E-02
 cg2d: Sum(rhs),rhsMax =  -9.78517267213874E-12  7.61259899774719E-02
 cg2d: Sum(rhs),rhsMax =  -9.59532453492784E-12  7.83393324063443E-02
 cg2d: Sum(rhs),rhsMax =  -9.42323996611094E-12  8.05141205160515E-02
 cg2d: Sum(rhs),rhsMax =  -9.24649246059062E-12  8.26437925427204E-02
 cg2d: Sum(rhs),rhsMax =  -9.09028408102586E-12  8.47218526834253E-02
 cg2d: Sum(rhs),rhsMax =  -8.92985685396752E-12  8.67419052534903E-02
 cg2d: Sum(rhs),rhsMax =  -8.82738326879462E-12  8.86976885938808E-02
 cg2d: Sum(rhs),rhsMax =  -8.69737615261101E-12  9.05831084747348E-02
 cg2d: Sum(rhs),rhsMax =  -8.60111981637601E-12  9.23922707430175E-02
 cg2d: Sum(rhs),rhsMax =  -8.47144576709979E-12  9.41195129583092E-02
 cg2d: Sum(rhs),rhsMax =  -8.34776692215655E-12  9.57594347896521E-02
 cg2d: Sum(rhs),rhsMax =  -8.28470625435784E-12  9.73069269277823E-02
 cg2d: Sum(rhs),rhsMax =  -8.21509527071385E-12  9.87571982894892E-02
 cg2d: Sum(rhs),rhsMax =  -8.21098744552273E-12  1.00105801305243E-01
 cg2d: Sum(rhs),rhsMax =  -8.19888601455432E-12  1.01348655104798E-01
 cg2d: Sum(rhs),rhsMax =  -8.16702261374758E-12  1.02482066419549E-01
 cg2d: Sum(rhs),rhsMax =  -8.14204259569351E-12  1.03502748060332E-01
 cg2d: Sum(rhs),rhsMax =  -8.07587330342585E-12  1.04407834840681E-01
 cg2d: Sum(rhs),rhsMax =  -8.03790367598367E-12  1.05194896820617E-01
 cg2d: Sum(rhs),rhsMax =  -7.98827670678293E-12  1.05861949793967E-01
 cg2d: Sum(rhs),rhsMax =  -7.95263854769246E-12  1.06407462961640E-01
 cg2d: Sum(rhs),rhsMax =  -7.92355070444728E-12  1.06830363757291E-01
 cg2d: Sum(rhs),rhsMax =  -7.97084620529631E-12  1.07130039810056E-01
 cg2d: Sum(rhs),rhsMax =  -7.98683341685091E-12  1.07306338057503E-01
 cg2d: Sum(rhs),rhsMax =  -8.01436694786162E-12  1.07359561046911E-01
 cg2d: Sum(rhs),rhsMax =  -8.08986211353613E-12  1.07290460479453E-01
 cg2d: Sum(rhs),rhsMax =  -8.14392997483537E-12  1.07100228084359E-01
 cg2d: Sum(rhs),rhsMax =  -8.22408807721331E-12  1.06790483935586E-01
 cg2d: Sum(rhs),rhsMax =  -8.29969426519028E-12  1.06363262304656E-01
 cg2d: Sum(rhs),rhsMax =  -8.40927327772079E-12  1.05820995214843E-01
 cg2d: Sum(rhs),rhsMax =  -8.52584669530643E-12  1.05166493859272E-01
 cg2d: Sum(rhs),rhsMax =  -8.66218208273040E-12  1.04402928017231E-01
 cg2d: Sum(rhs),rhsMax =  -8.78497274925394E-12  1.03533803717005E-01
 cg2d: Sum(rhs),rhsMax =  -8.88533691068005E-12  1.02562939308259E-01
 cg2d: Sum(rhs),rhsMax =  -9.03921382189310E-12  1.01494440159811E-01
 cg2d: Sum(rhs),rhsMax =  -9.18243259206974E-12  1.00332672153156E-01
 cg2d: Sum(rhs),rhsMax =  -9.35207467023247E-12  9.90822342058116E-02
 cg2d: Sum(rhs),rhsMax =  -9.54392120888770E-12  9.77479300646413E-02
 cg2d: Sum(rhs),rhsMax =  -9.70157287838447E-12  9.63347395809740E-02
 cg2d: Sum(rhs),rhsMax =  -9.93904958335179E-12  9.48477897222342E-02
 cg2d: Sum(rhs),rhsMax =  -1.01231245608346E-11  9.32923254842816E-02
 cg2d: Sum(rhs),rhsMax =  -1.03829167485969E-11  9.16736809121313E-02
 cg2d: Sum(rhs),rhsMax =  -1.06327169291376E-11  8.99972504314578E-02
 cg2d: Sum(rhs),rhsMax =  -1.08886233363137E-11  8.82684607042675E-02
 cg2d: Sum(rhs),rhsMax =  -1.11529674384769E-11  8.64927431382584E-02
 cg2d: Sum(rhs),rhsMax =  -1.14799281192290E-11  8.46755072438821E-02
 cg2d: Sum(rhs),rhsMax =  -1.17634790797183E-11  8.28221149979056E-02
 cg2d: Sum(rhs),rhsMax =  -1.20941034964517E-11  8.09378563558837E-02
 cg2d: Sum(rhs),rhsMax =  -1.24242838239752E-11  7.90279260279061E-02
 cg2d: Sum(rhs),rhsMax =  -1.27727828314050E-11  7.70974016180834E-02
 cg2d: Sum(rhs),rhsMax =  -1.31482602583333E-11  7.51512232036548E-02
 cg2d: Sum(rhs),rhsMax =  -1.35647049148702E-11  7.31941744561154E-02
 cg2d: Sum(rhs),rhsMax =  -1.40353284550088E-11  7.12308653507375E-02
 cg2d: Sum(rhs),rhsMax =  -1.45216061397946E-11  6.92657165013067E-02
 cg2d: Sum(rhs),rhsMax =  -1.49397161308684E-11  6.73029451400728E-02
 cg2d: Sum(rhs),rhsMax =  -1.54679602459851E-11  6.53465527700497E-02
 cg2d: Sum(rhs),rhsMax =  -1.58441038067281E-11  6.34003144934973E-02
 cg2d: Sum(rhs),rhsMax =  -1.62756474963999E-11  6.14677700051838E-02
 cg2d: Sum(rhs),rhsMax =  -1.67458269473286E-11  5.95522162268673E-02
 cg2d: Sum(rhs),rhsMax =  -1.72654113228532E-11  5.76567015495236E-02
 cg2d: Sum(rhs),rhsMax =  -1.78310699538997E-11  5.57840216439015E-02
 cg2d: Sum(rhs),rhsMax =  -1.84015025439521E-11  5.39367167758215E-02
 cg2d: Sum(rhs),rhsMax =  -1.90449878090249E-11  5.21170705746448E-02
 cg2d: Sum(rhs),rhsMax =  -1.96944682784306E-11  5.03271101892019E-02
 cg2d: Sum(rhs),rhsMax =  -2.03738137471987E-11  4.85686077540768E-02
 cg2d: Sum(rhs),rhsMax =  -2.10830242153293E-11  4.68430830722083E-02
 cg2d: Sum(rhs),rhsMax =  -2.18908224880465E-11  4.51518074594048E-02
 cg2d: Sum(rhs),rhsMax =  -2.27284857601262E-11  4.34958086431376E-02
 cg2d: Sum(rhs),rhsMax =  -2.34855468406181E-11  4.18758766155322E-02
 cg2d: Sum(rhs),rhsMax =  -2.43988163006748E-11  4.02925703513507E-02
 cg2d: Sum(rhs),rhsMax =  -2.53077558909354E-11  3.87462252994736E-02
 cg2d: Sum(rhs),rhsMax =  -2.62805333051119E-11  3.72369615599670E-02
 cg2d: Sum(rhs),rhsMax =  -2.72961653280390E-11  3.57646926567425E-02
 cg2d: Sum(rhs),rhsMax =  -2.83538748035994E-11  3.43291348162743E-02
 cg2d: Sum(rhs),rhsMax =  -2.95264923622085E-11  3.29298166795890E-02
 cg2d: Sum(rhs),rhsMax =  -3.08073566657185E-11  3.15660893623028E-02
 cg2d: Sum(rhs),rhsMax =  -3.20471427173175E-11  3.02371367914731E-02
 cg2d: Sum(rhs),rhsMax =  -3.34676730773253E-11  2.89419862557275E-02
 cg2d: Sum(rhs),rhsMax =  -3.49530404619713E-11  2.76795191118581E-02
 cg2d: Sum(rhs),rhsMax =  -3.65045771388850E-11  2.64484815967368E-02
 cg2d: Sum(rhs),rhsMax =  -3.82197606896284E-11  2.52474956978390E-02
 cg2d: Sum(rhs),rhsMax =  -4.00400823608038E-11  2.40750700507844E-02
 cg2d: Sum(rhs),rhsMax =  -4.19483336955295E-11  2.29296108196093E-02
 cg2d: Sum(rhs),rhsMax =  -4.40595337991567E-11  2.18094325249521E-02
 cg2d: Sum(rhs),rhsMax =  -4.58560966976052E-11  2.09159528127659E-02
 cg2d: Sum(rhs),rhsMax =  -4.66602312343412E-11  2.05172472443217E-02
 cg2d: Sum(rhs),rhsMax =  -4.75210981676355E-11  2.01304052928883E-02
 cg2d: Sum(rhs),rhsMax =  -4.83053597122307E-11  1.97539100539364E-02
 cg2d: Sum(rhs),rhsMax =  -4.91355844900454E-11  1.93861875344239E-02
 cg2d: Sum(rhs),rhsMax =  -5.00499641731267E-11  1.90256089725127E-02
 cg2d: Sum(rhs),rhsMax =  -5.08697528545099E-11  1.86704934329303E-02
 cg2d: Sum(rhs),rhsMax =  -5.17684783929440E-11  1.83191107018269E-02
 cg2d: Sum(rhs),rhsMax =  -5.26965138192281E-11  1.79696845049019E-02
 cg2d: Sum(rhs),rhsMax =  -5.37132560651798E-11  1.76203960787298E-02
 cg2d: Sum(rhs),rhsMax =  -5.47537570838585E-11  1.72693881063816E-02
 cg2d: Sum(rhs),rhsMax =  -5.58582069487557E-11  1.69147690331711E-02
 cg2d: Sum(rhs),rhsMax =  -5.70588021275853E-11  1.65546177820613E-02
 cg2d: Sum(rhs),rhsMax =  -5.83177950375102E-11  1.61869888798346E-02
 cg2d: Sum(rhs),rhsMax =  -5.96536153807392E-11  1.58099180012760E-02
 cg2d: Sum(rhs),rhsMax =  -6.11204420408740E-11  1.54214279370861E-02
 cg2d: Sum(rhs),rhsMax =  -6.27129459473963E-11  1.50195349797439E-02
 cg2d: Sum(rhs),rhsMax =  -6.44697628615631E-11  1.46022557218939E-02
 cg2d: Sum(rhs),rhsMax =  -6.64123200877498E-11  1.41676142570963E-02
 cg2d: Sum(rhs),rhsMax =  -6.85718148929482E-11  1.37136497677063E-02
 cg2d: Sum(rhs),rhsMax =  -7.09898806405818E-11  1.32384244794672E-02
 cg2d: Sum(rhs),rhsMax =  -7.37218064372769E-11  1.27400319573407E-02
 cg2d: Sum(rhs),rhsMax =  -7.68267671702461E-11  1.22166057121673E-02
 cg2d: Sum(rhs),rhsMax =  -8.04072364246622E-11  1.16663280829522E-02
 cg2d: Sum(rhs),rhsMax =  -8.45550296446618E-11  1.10874393549012E-02
 cg2d: Sum(rhs),rhsMax =  -8.94134766227239E-11  1.04782470688406E-02
 cg2d: Sum(rhs),rhsMax =  -9.52147249932978E-11  9.83713547343328E-03
 cg2d: Sum(rhs),rhsMax =  -9.72908420493468E-11  9.62034110876045E-03
 cg2d: Sum(rhs),rhsMax =  -8.87934170634708E-11  1.05413936856001E-02
 cg2d: Sum(rhs),rhsMax =  -8.15237877205277E-11  1.14728127677821E-02
 cg2d: Sum(rhs),rhsMax =  -7.52298223716252E-11  1.24230652690930E-02
 cg2d: Sum(rhs),rhsMax =  -6.95114521498397E-11  1.34242259617947E-02
 cg2d: Sum(rhs),rhsMax =  -6.44920783443581E-11  1.44454739186257E-02
 cg2d: Sum(rhs),rhsMax =  -6.01332317273773E-11  1.54778835870285E-02
 cg2d: Sum(rhs),rhsMax =  -5.62076496457564E-11  1.65337259222304E-02
 cg2d: Sum(rhs),rhsMax =  -5.26236276776615E-11  1.76257030420650E-02
 cg2d: Sum(rhs),rhsMax =  -4.93973473236764E-11  1.87463458548529E-02
 cg2d: Sum(rhs),rhsMax =  -4.64050950443884E-11  1.99020666415697E-02
 cg2d: Sum(rhs),rhsMax =  -4.38161798510528E-11  2.10987767264543E-02
 cg2d: Sum(rhs),rhsMax =  -4.13799133847093E-11  2.23427317168587E-02
 cg2d: Sum(rhs),rhsMax =  -3.90820986684304E-11  2.36898233286645E-02
 cg2d: Sum(rhs),rhsMax =  -3.69624053586648E-11  2.50807926690959E-02
 cg2d: Sum(rhs),rhsMax =  -3.50427464823611E-11  2.64799866889402E-02
 cg2d: Sum(rhs),rhsMax =  -3.33256200413246E-11  2.78854871618406E-02
 cg2d: Sum(rhs),rhsMax =  -3.17429971197214E-11  2.92952552516706E-02
 cg2d: Sum(rhs),rhsMax =  -3.03257419176362E-11  3.07071392753210E-02
 cg2d: Sum(rhs),rhsMax =  -2.90353852072656E-11  3.21188831402618E-02
 cg2d: Sum(rhs),rhsMax =  -2.78272960230197E-11  3.35281354208089E-02
 cg2d: Sum(rhs),rhsMax =  -2.67027511213769E-11  3.49324590313382E-02
 cg2d: Sum(rhs),rhsMax =  -2.56694665523582E-11  3.63293414494373E-02
 cg2d: Sum(rhs),rhsMax =  -2.47712961254365E-11  3.77162054370105E-02
 cg2d: Sum(rhs),rhsMax =  -2.39056552331363E-11  3.90904202026228E-02
 cg2d: Sum(rhs),rhsMax =  -2.31539232231626E-11  4.04493129448829E-02
 cg2d: Sum(rhs),rhsMax =  -2.24232854506567E-11  4.17901807132887E-02
 cg2d: Sum(rhs),rhsMax =  -2.18365325821424E-11  4.31103025200796E-02
 cg2d: Sum(rhs),rhsMax =  -2.12547757172388E-11  4.44069516343147E-02
 cg2d: Sum(rhs),rhsMax =  -2.07123207474069E-11  4.56774079876514E-02
 cg2d: Sum(rhs),rhsMax =  -2.01739736027662E-11  4.69189706200443E-02
 cg2d: Sum(rhs),rhsMax =  -1.96798133345055E-11  4.81289700927778E-02
 cg2d: Sum(rhs),rhsMax =  -1.92587057412652E-11  4.93047807957917E-02
 cg2d: Sum(rhs),rhsMax =  -1.88896676078798E-11  5.04438330761634E-02
 cg2d: Sum(rhs),rhsMax =  -1.85382820205859E-11  5.15436251148671E-02
 cg2d: Sum(rhs),rhsMax =  -1.82481807442514E-11  5.26017344795889E-02
 cg2d: Sum(rhs),rhsMax =  -1.79621872931079E-11  5.36158292824858E-02
 cg2d: Sum(rhs),rhsMax =  -1.77109438226353E-11  5.45836788734095E-02
 cg2d: Sum(rhs),rhsMax =  -1.74825709464699E-11  5.55031640013380E-02
 cg2d: Sum(rhs),rhsMax =  -1.72619696314769E-11  5.63722863796165E-02
 cg2d: Sum(rhs),rhsMax =  -1.70244929265095E-11  5.71891775942954E-02
 cg2d: Sum(rhs),rhsMax =  -1.68740577066728E-11  5.79521072989946E-02
 cg2d: Sum(rhs),rhsMax =  -1.67027502939732E-11  5.86594906454570E-02
 cg2d: Sum(rhs),rhsMax =  -1.65369939963966E-11  5.93098949040035E-02
 cg2d: Sum(rhs),rhsMax =  -1.63854485535353E-11  5.99020452347174E-02
 cg2d: Sum(rhs),rhsMax =  -1.62491131661113E-11  6.04348295776611E-02
 cg2d: Sum(rhs),rhsMax =  -1.61435309564695E-11  6.09073026380688E-02
 cg2d: Sum(rhs),rhsMax =  -1.60815805116954E-11  6.13186889503717E-02
 cg2d: Sum(rhs),rhsMax =  -1.59695590085107E-11  6.16683850129569E-02
 cg2d: Sum(rhs),rhsMax =  -1.59270374666676E-11  6.19559604939734E-02
 cg2d: Sum(rhs),rhsMax =  -1.58746349399053E-11  6.21811585186491E-02
 cg2d: Sum(rhs),rhsMax =  -1.58792978766087E-11  6.23438950463035E-02
 cg2d: Sum(rhs),rhsMax =  -1.58663082672206E-11  6.24442573617188E-02
 cg2d: Sum(rhs),rhsMax =  -1.58616453305171E-11  6.24825017154670E-02
 cg2d: Sum(rhs),rhsMax =  -1.58922874859968E-11  6.24590501479545E-02
 cg2d: Sum(rhs),rhsMax =  -1.58725255161585E-11  6.23744865378911E-02
 cg2d: Sum(rhs),rhsMax =  -1.59493529494625E-11  6.22295519154101E-02
 cg2d: Sum(rhs),rhsMax =  -1.59807722610594E-11  6.20251390881041E-02
 cg2d: Sum(rhs),rhsMax =  -1.60412794159015E-11  6.18321840927390E-02
 cg2d: Sum(rhs),rhsMax =  -1.60202962007361E-11  6.21300241854150E-02
 cg2d: Sum(rhs),rhsMax =  -1.59996460524781E-11  6.23479389699371E-02
 cg2d: Sum(rhs),rhsMax =  -1.60167434870573E-11  6.24858365618898E-02
 cg2d: Sum(rhs),rhsMax =  -1.60713664598688E-11  6.25438688720920E-02
 cg2d: Sum(rhs),rhsMax =  -1.61870516990348E-11  6.25224283166963E-02
 cg2d: Sum(rhs),rhsMax =  -1.62966307115653E-11  6.24221433325105E-02
 cg2d: Sum(rhs),rhsMax =  -1.64435132177232E-11  6.22438727635860E-02
 cg2d: Sum(rhs),rhsMax =  -1.65933933260476E-11  6.19886991544585E-02
 cg2d: Sum(rhs),rhsMax =  -1.67836855524683E-11  6.16579210088518E-02
 cg2d: Sum(rhs),rhsMax =  -1.69790848048024E-11  6.12530440864940E-02
 cg2d: Sum(rhs),rhsMax =  -1.71571645779522E-11  6.07757717987493E-02
 cg2d: Sum(rhs),rhsMax =  -1.74105174721717E-11  6.02279947842888E-02
 cg2d: Sum(rhs),rhsMax =  -1.77087233765860E-11  5.96117797476610E-02
 cg2d: Sum(rhs),rhsMax =  -1.78665970906877E-11  5.89293576248096E-02
 cg2d: Sum(rhs),rhsMax =  -1.81081816208462E-11  5.81831111998571E-02
 cg2d: Sum(rhs),rhsMax =  -1.83244530660431E-11  5.73755622200630E-02
 cg2d: Sum(rhs),rhsMax =  -1.85143012032540E-11  5.65093580887882E-02
 cg2d: Sum(rhs),rhsMax =  -1.87057036526994E-11  5.55872582186521E-02
 cg2d: Sum(rhs),rhsMax =  -1.89875892786517E-11  5.46121201361228E-02
 cg2d: Sum(rhs),rhsMax =  -1.93053351082995E-11  5.35868853772277E-02
 cg2d: Sum(rhs),rhsMax =  -1.96344052127984E-11  5.25145652747164E-02
 cg2d: Sum(rhs),rhsMax =  -2.00297556318674E-11  5.13982267073700E-02
 cg2d: Sum(rhs),rhsMax =  -2.04158911998320E-11  5.02409778783171E-02
 cg2d: Sum(rhs),rhsMax =  -2.08484340902260E-11  4.90459541895825E-02
 cg2d: Sum(rhs),rhsMax =  -2.13431494699989E-11  4.78163042738331E-02
 cg2d: Sum(rhs),rhsMax =  -2.17990070439100E-11  4.65551763016715E-02
 cg2d: Sum(rhs),rhsMax =  -2.23121521258918E-11  4.52657046160130E-02
 cg2d: Sum(rhs),rhsMax =  -2.29419816477616E-11  4.39509967634596E-02
 cg2d: Sum(rhs),rhsMax =  -2.35718111696315E-11  4.26141210096631E-02
 cg2d: Sum(rhs),rhsMax =  -2.41983100224274E-11  4.12580944305195E-02
 cg2d: Sum(rhs),rhsMax =  -2.49877896152384E-11  3.98858716480130E-02
 cg2d: Sum(rhs),rhsMax =  -2.57993626462394E-11  3.85003342538588E-02
 cg2d: Sum(rhs),rhsMax =  -2.66511257507318E-11  3.71042810131660E-02
 cg2d: Sum(rhs),rhsMax =  -2.76286771239143E-11  3.57004188781386E-02
 cg2d: Sum(rhs),rhsMax =  -2.86690671202905E-11  3.42913548504739E-02
 cg2d: Sum(rhs),rhsMax =  -2.98951974286865E-11  3.28795886955047E-02
 cg2d: Sum(rhs),rhsMax =  -3.11765058214064E-11  3.14675064937592E-02
 cg2d: Sum(rhs),rhsMax =  -3.26362270541836E-11  3.00573750175372E-02
 cg2d: Sum(rhs),rhsMax =  -3.42360584326684E-11  2.86513369153540E-02
 cg2d: Sum(rhs),rhsMax =  -3.60320662196045E-11  2.72514066577975E-02
 cg2d: Sum(rhs),rhsMax =  -3.79162257146959E-11  2.58594672392459E-02
 cg2d: Sum(rhs),rhsMax =  -4.00331989780511E-11  2.44772675760928E-02
 cg2d: Sum(rhs),rhsMax =  -4.23771018276398E-11  2.31064205478239E-02
 cg2d: Sum(rhs),rhsMax =  -4.49039694316866E-11  2.17484016541870E-02
 cg2d: Sum(rhs),rhsMax =  -4.77836659129593E-11  2.04045482614211E-02
 cg2d: Sum(rhs),rhsMax =  -5.09927655656384E-11  1.90760594133775E-02
 cg2d: Sum(rhs),rhsMax =  -5.46938050405288E-11  1.77639961863322E-02
 cg2d: Sum(rhs),rhsMax =  -5.78019854202694E-11  1.67756027689205E-02
 cg2d: Sum(rhs),rhsMax =  -6.09012840158130E-11  1.58771700700999E-02
 cg2d: Sum(rhs),rhsMax =  -6.43459729943174E-11  1.49972162279282E-02
 cg2d: Sum(rhs),rhsMax =  -6.81676937119846E-11  1.41357113631742E-02
 cg2d: Sum(rhs),rhsMax =  -7.23842097372085E-11  1.32925385544714E-02
 cg2d: Sum(rhs),rhsMax =  -7.71215313832840E-11  1.24674948034993E-02
 cg2d: Sum(rhs),rhsMax =  -8.23563439666941E-11  1.16602921431716E-02
 cg2d: Sum(rhs),rhsMax =  -8.83383366456769E-11  1.08705588817019E-02
 cg2d: Sum(rhs),rhsMax =  -9.50197698301736E-11  1.00978409601062E-02
 cg2d: Sum(rhs),rhsMax =  -1.02654662548218E-10  9.34160342488335E-03
 cg2d: Sum(rhs),rhsMax =  -1.11489373288975E-10  8.60123200986335E-03
 cg2d: Sum(rhs),rhsMax =  -1.21736565272812E-10  7.87603482457551E-03
 cg2d: Sum(rhs),rhsMax =  -1.33783095712658E-10  7.16524415084101E-03
 cg2d: Sum(rhs),rhsMax =  -1.48339784900031E-10  6.46801835403648E-03
 cg2d: Sum(rhs),rhsMax =  -1.65848959565729E-10  5.78344391996050E-03
 cg2d: Sum(rhs),rhsMax =  -1.87685547659022E-10  5.11053763205101E-03
 cg2d: Sum(rhs),rhsMax =  -2.15761686295224E-10  4.44824890661534E-03
 cg2d: Sum(rhs),rhsMax =  -2.53002507832889E-10  3.79546230561886E-03
 cg2d: Sum(rhs),rhsMax =  -2.56430654488327E-10  3.74590084851720E-03
 cg2d: Sum(rhs),rhsMax =  -2.06925143686476E-10  4.64376405643839E-03
 cg2d: Sum(rhs),rhsMax =  -1.73347225462805E-10  5.54537286758535E-03
 cg2d: Sum(rhs),rhsMax =  -1.49481427236253E-10  6.43691096364452E-03
 cg2d: Sum(rhs),rhsMax =  -1.31487376542339E-10  7.32610061673830E-03
 cg2d: Sum(rhs),rhsMax =  -1.17366560914434E-10  8.21574599034209E-03
 cg2d: Sum(rhs),rhsMax =  -1.05996988963852E-10  9.10564149686671E-03
 cg2d: Sum(rhs),rhsMax =  -9.66515756317676E-11  9.99858871393702E-03
 cg2d: Sum(rhs),rhsMax =  -8.89086582134269E-11  1.08858249225790E-02
 cg2d: Sum(rhs),rhsMax =  -8.23265899896342E-11  1.17684595306195E-02
 cg2d: Sum(rhs),rhsMax =  -7.67494956477321E-11  1.26475920160102E-02
 cg2d: Sum(rhs),rhsMax =  -7.18478609940121E-11  1.35243058766528E-02
 cg2d: Sum(rhs),rhsMax =  -6.75663969218476E-11  1.43996627055877E-02
 cg2d: Sum(rhs),rhsMax =  -6.37982999762698E-11  1.52746964081696E-02
 cg2d: Sum(rhs),rhsMax =  -6.04039041007809E-11  1.61504075733126E-02
 cg2d: Sum(rhs),rhsMax =  -5.73736613773690E-11  1.70277580109171E-02
 cg2d: Sum(rhs),rhsMax =  -5.46340750418040E-11  1.79076654687278E-02
 cg2d: Sum(rhs),rhsMax =  -5.21752641091666E-11  1.87909985432741E-02
 cg2d: Sum(rhs),rhsMax =  -4.99158492317520E-11  1.96785718008786E-02
 cg2d: Sum(rhs),rhsMax =  -4.77611283855595E-11  2.05711411241214E-02
 cg2d: Sum(rhs),rhsMax =  -4.58388882407235E-11  2.14693993045970E-02
 cg2d: Sum(rhs),rhsMax =  -4.40660841150020E-11  2.23739719019551E-02
 cg2d: Sum(rhs),rhsMax =  -4.23807655636210E-11  2.32854133813793E-02
 cg2d: Sum(rhs),rhsMax =  -4.08406641838610E-11  2.42042035481945E-02
 cg2d: Sum(rhs),rhsMax =  -3.94526633584746E-11  2.51307442972658E-02
 cg2d: Sum(rhs),rhsMax =  -3.81423781448120E-11  2.60653566943227E-02
 cg2d: Sum(rhs),rhsMax =  -3.69710928538325E-11  2.70082784008173E-02
 cg2d: Sum(rhs),rhsMax =  -3.57830431951811E-11  2.79596614564137E-02
 cg2d: Sum(rhs),rhsMax =  -3.47730733096796E-11  2.89195704317768E-02
 cg2d: Sum(rhs),rhsMax =  -3.37518901716294E-11  2.98879809611490E-02
 cg2d: Sum(rhs),rhsMax =  -3.27771143560085E-11  3.08647786631443E-02
 cg2d: Sum(rhs),rhsMax =  -3.18776116614572E-11  3.18497584571339E-02
 cg2d: Sum(rhs),rhsMax =  -3.09596792646971E-11  3.28426242801187E-02
 cg2d: Sum(rhs),rhsMax =  -3.01672020697197E-11  3.38429892112344E-02
 cg2d: Sum(rhs),rhsMax =  -2.93569613063482E-11  3.48503760081117E-02
 cg2d: Sum(rhs),rhsMax =  -2.85407253386438E-11  3.58642180496077E-02
 cg2d: Sum(rhs),rhsMax =  -2.78503886619319E-11  3.68838606861191E-02
 cg2d: Sum(rhs),rhsMax =  -2.71640487881086E-11  3.79085629956067E-02
 cg2d: Sum(rhs),rhsMax =  -2.64614996581258E-11  3.89374999401055E-02
 cg2d: Sum(rhs),rhsMax =  -2.58508769945820E-11  3.99697649147342E-02
 cg2d: Sum(rhs),rhsMax =  -2.51842990905971E-11  4.10043726792154E-02
 cg2d: Sum(rhs),rhsMax =  -2.46083153854215E-11  4.20402626604222E-02
 cg2d: Sum(rhs),rhsMax =  -2.40834019393787E-11  4.30763026131520E-02
 cg2d: Sum(rhs),rhsMax =  -2.35212960220110E-11  4.41112926250604E-02
 cg2d: Sum(rhs),rhsMax =  -2.30144792112696E-11  4.51439694504113E-02
 cg2d: Sum(rhs),rhsMax =  -2.24771312673511E-11  4.61730111560170E-02
 cg2d: Sum(rhs),rhsMax =  -2.20161666675267E-11  4.71970420610399E-02
 cg2d: Sum(rhs),rhsMax =  -2.15409912129871E-11  4.82146379526127E-02
 cg2d: Sum(rhs),rhsMax =  -2.11244355341478E-11  4.92243315554758E-02
 cg2d: Sum(rhs),rhsMax =  -2.07394101892078E-11  5.02246182330284E-02
 cg2d: Sum(rhs),rhsMax =  -2.03895789141484E-11  5.12139618960132E-02
 cg2d: Sum(rhs),rhsMax =  -1.99824601310183E-11  5.21908010932255E-02
 cg2d: Sum(rhs),rhsMax =  -1.97154514935960E-11  5.31535552565602E-02
 cg2d: Sum(rhs),rhsMax =  -1.94156912769472E-11  5.41006310724661E-02
 cg2d: Sum(rhs),rhsMax =  -1.91189286624649E-11  5.50304289441954E-02
 cg2d: Sum(rhs),rhsMax =  -1.88651316790356E-11  5.59413495179432E-02
 cg2d: Sum(rhs),rhsMax =  -1.85056414636620E-11  5.72071999637425E-02
 cg2d: Sum(rhs),rhsMax =  -1.80437886854179E-11  5.88491468669521E-02
 cg2d: Sum(rhs),rhsMax =  -1.76135772633756E-11  6.04826335431588E-02
 cg2d: Sum(rhs),rhsMax =  -1.72151182198377E-11  6.21045468957314E-02
 cg2d: Sum(rhs),rhsMax =  -1.68413061274464E-11  6.37117360413205E-02
 cg2d: Sum(rhs),rhsMax =  -1.64729341278758E-11  6.53010238819448E-02
 cg2d: Sum(rhs),rhsMax =  -1.61498592277098E-11  6.68692189077450E-02
 cg2d: Sum(rhs),rhsMax =  -1.58365542901606E-11  6.84131271732991E-02
 cg2d: Sum(rhs),rhsMax =  -1.55574442217699E-11  6.99295643885072E-02
 cg2d: Sum(rhs),rhsMax =  -1.52888812721130E-11  7.14153680634426E-02
 cg2d: Sum(rhs),rhsMax =  -1.50329748649369E-11  7.28674096452822E-02
 cg2d: Sum(rhs),rhsMax =  -1.48030476765371E-11  7.42826065845952E-02
(PID.TID 0000.0001)      cg2d_init_res =   5.95522944220466E-02
(PID.TID 0000.0001)      cg2d_iters(min,last) =      -1      37
(PID.TID 0000.0001)      cg2d_last_res =   5.01381808833092E-14
(PID.TID 0000.0001) // =======================================================
(PID.TID 0000.0001) // Begin MONITOR dynamic field statistics
(PID.TID 0000.0001) // =======================================================
(PID.TID 0000.0001) %MON time_tsnumber                =                   960
(PID.TID 0000.0001) %MON time_secondsf                =   1.4400000000000E+04
(PID.TID 0000.0001) %MON dynstat_eta_max              =   1.2645869320194E-02
(PID.TID 0000.0001) %MON dynstat_eta_min              =  -1.3122702031811E-02
(PID.TID 0000.0001) %MON dynstat_eta_mean             =   2.3584141642537E-15
(PID.TID 0000.0001) %MON dynstat_eta_sd               =   9.1587310322576E-03
(PID.TID 0000.0001) %MON dynstat_eta_del2             =   1.4987628510883E-06
(PID.TID 0000.0001) %MON dynstat_uvel_max             =   3.7606348002657E-01
(PID.TID 0000.0001) %MON dynstat_uvel_min             =  -2.1014103054768E-01
(PID.TID 0000.0001) %MON dynstat_uvel_mean            =   6.7418540312486E-02
(PID.TID 0000.0001) %MON dynstat_uvel_sd              =   1.7329024665531E-02
(PID.TID 0000.0001) %MON dynstat_uvel_del2            =   5.2910701129659E-05
(PID.TID 0000.0001) %MON dynstat_vvel_max             =   0.0000000000000E+00
(PID.TID 0000.0001) %MON dynstat_vvel_min             =   0.0000000000000E+00
(PID.TID 0000.0001) %MON dynstat_vvel_mean            =   0.0000000000000E+00
(PID.TID 0000.0001) %MON dynstat_vvel_sd              =   0.0000000000000E+00
(PID.TID 0000.0001) %MON dynstat_vvel_del2            =   0.0000000000000E+00
(PID.TID 0000.0001) %MON dynstat_wvel_max             =   2.2965273130379E-03
(PID.TID 0000.0001) %MON dynstat_wvel_min             =  -5.3688113134050E-03
(PID.TID 0000.0001) %MON dynstat_wvel_mean            =   3.2054140442931E-21
(PID.TID 0000.0001) %MON dynstat_wvel_sd              =   2.3473805092515E-04
(PID.TID 0000.0001) %MON dynstat_wvel_del2            =   4.0057698263983E-06
(PID.TID 0000.0001) %MON dynstat_theta_max            =   1.5000000000003E+01
(PID.TID 0000.0001) %MON dynstat_theta_min            =   9.9999999999983E+00
(PID.TID 0000.0001) %MON dynstat_theta_mean           =   1.3335043028720E+01
(PID.TID 0000.0001) %MON dynstat_theta_sd             =   2.3182207756702E+00
(PID.TID 0000.0001) %MON dynstat_theta_del2           =   2.9790850106015E-04
(PID.TID 0000.0001) %MON dynstat_salt_max             =   3.5000000000000E+01
(PID.TID 0000.0001) %MON dynstat_salt_min             =   3.5000000000000E+01
(PID.TID 0000.0001) %MON dynstat_salt_mean            =   3.5000000000000E+01
(PID.TID 0000.0001) %MON dynstat_salt_sd              =   2.1316282072803E-14
(PID.TID 0000.0001) %MON dynstat_salt_del2            =   0.0000000000000E+00
(PID.TID 0000.0001) %MON dynstat_sst_max              =   1.5000000000000E+01
(PID.TID 0000.0001) %MON dynstat_sst_min              =   1.4999999999998E+01
(PID.TID 0000.0001) %MON dynstat_sst_mean             =   1.4999999999999E+01
(PID.TID 0000.0001) %MON dynstat_sst_sd               =   6.4048003782092E-13
(PID.TID 0000.0001) %MON dynstat_sst_del2             =   1.6169414399944E-14
(PID.TID 0000.0001) %MON dynstat_sss_max              =   3.5000000000000E+01
(PID.TID 0000.0001) %MON dynstat_sss_min              =   3.5000000000000E+01
(PID.TID 0000.0001) %MON dynstat_sss_mean             =   3.5000000000000E+01
(PID.TID 0000.0001) %MON dynstat_sss_sd               =   7.8159700933611E-14
(PID.TID 0000.0001) %MON dynstat_sss_del2             =   0.0000000000000E+00
(PID.TID 0000.0001) %MON forcing_qnet_max             =   0.0000000000000E+00
(PID.TID 0000.0001) %MON forcing_qnet_min             =   0.0000000000000E+00
(PID.TID 0000.0001) %MON forcing_qnet_mean            =   0.0000000000000E+00
(PID.TID 0000.0001) %MON forcing_qnet_sd              =   0.0000000000000E+00
(PID.TID 0000.0001) %MON forcing_qnet_del2            =   0.0000000000000E+00
(PID.TID 0000.0001) %MON forcing_qsw_max              =   0.0000000000000E+00
(PID.TID 0000.0001) %MON forcing_qsw_min              =   0.0000000000000E+00
(PID.TID 0000.0001) %MON forcing_qsw_mean             =   0.0000000000000E+00
(PID.TID 0000.0001) %MON forcing_qsw_sd               =   0.0000000000000E+00
(PID.TID 0000.0001) %MON forcing_qsw_del2             =   0.0000000000000E+00
(PID.TID 0000.0001) %MON forcing_empmr_max            =   0.0000000000000E+00
(PID.TID 0000.0001) %MON forcing_empmr_min            =   0.0000000000000E+00
(PID.TID 0000.0001) %MON forcing_empmr_mean           =   0.0000000000000E+00
(PID.TID 0000.0001) %MON forcing_empmr_sd             =   0.0000000000000E+00
(PID.TID 0000.0001) %MON forcing_empmr_del2           =   0.0000000000000E+00
(PID.TID 0000.0001) %MON forcing_fu_max               =   0.0000000000000E+00
(PID.TID 0000.0001) %MON forcing_fu_min               =   0.0000000000000E+00
(PID.TID 0000.0001) %MON forcing_fu_mean              =   0.0000000000000E+00
(PID.TID 0000.0001) %MON forcing_fu_sd                =   0.0000000000000E+00
(PID.TID 0000.0001) %MON forcing_fu_del2              =   0.0000000000000E+00
(PID.TID 0000.0001) %MON forcing_fv_max               =   0.0000000000000E+00
(PID.TID 0000.0001) %MON forcing_fv_min               =   0.0000000000000E+00
(PID.TID 0000.0001) %MON forcing_fv_mean              =   0.0000000000000E+00
(PID.TID 0000.0001) %MON forcing_fv_sd                =   0.0000000000000E+00
(PID.TID 0000.0001) %MON forcing_fv_del2              =   0.0000000000000E+00
(PID.TID 0000.0001) %MON advcfl_uvel_max              =   2.8204761001993E-02
(PID.TID 0000.0001) %MON advcfl_vvel_max              =   0.0000000000000E+00
(PID.TID 0000.0001) %MON advcfl_wvel_max              =   4.7860233217468E-02
(PID.TID 0000.0001) %MON advcfl_W_hf_max              =   4.8260681512638E-02
(PID.TID 0000.0001) %MON pe_b_mean                    =   2.0956429888068E-06
(PID.TID 0000.0001) %MON ke_max                       =   4.7127333068200E-02
(PID.TID 0000.0001) %MON ke_mean                      =   2.4234948888670E-03
(PID.TID 0000.0001) %MON ke_vol                       =   9.5889217545975E+10
(PID.TID 0000.0001) %MON vort_r_min                   =   0.0000000000000E+00
(PID.TID 0000.0001) %MON vort_r_max                   =   0.0000000000000E+00
(PID.TID 0000.0001) %MON vort_a_mean                  =   0.0000000000000E+00
(PID.TID 0000.0001) %MON vort_a_sd                    =   0.0000000000000E+00
(PID.TID 0000.0001) %MON vort_p_mean                  =   0.0000000000000E+00
(PID.TID 0000.0001) %MON vort_p_sd                    =   0.0000000000000E+00
(PID.TID 0000.0001) %MON surfExpan_theta_mean         =   1.5591140243594E-18
(PID.TID 0000.0001) %MON surfExpan_salt_mean          =   1.4338821125790E-19
(PID.TID 0000.0001) // =======================================================
(PID.TID 0000.0001) // End MONITOR dynamic field statistics
(PID.TID 0000.0001) // =======================================================
(PID.TID 0000.0001) // =======================================================
(PID.TID 0000.0001) // Begin OBCS MONITOR field statistics
(PID.TID 0000.0001) // =======================================================
(PID.TID 0000.0001) %MON obc_E_uVel_max               =   6.6809804669674E-02
(PID.TID 0000.0001) %MON obc_E_uVel_min               =   6.6809804669674E-02
(PID.TID 0000.0001) %MON obc_E_uVel_mean              =   6.6809804669674E-02
(PID.TID 0000.0001) %MON obc_E_uVel_sd                =  -1.7347234759768E-18
(PID.TID 0000.0001) %MON obc_E_uVel_Int               =   6.6809804669674E+04
(PID.TID 0000.0001) %MON obc_W_uVel_max               =   6.6809804669674E-02
(PID.TID 0000.0001) %MON obc_W_uVel_min               =   6.6809804669674E-02
(PID.TID 0000.0001) %MON obc_W_uVel_mean              =   6.6809804669674E-02
(PID.TID 0000.0001) %MON obc_W_uVel_sd                =  -1.7347234759768E-18
(PID.TID 0000.0001) %MON obc_W_uVel_Int               =   6.6809804669674E+04
(PID.TID 0000.0001) // =======================================================
(PID.TID 0000.0001) // End OBCS MONITOR field statistics
(PID.TID 0000.0001) // =======================================================
 cg2d: Sum(rhs),rhsMax =  -1.45586875888171E-11  7.56579342674487E-02
 cg2d: Sum(rhs),rhsMax =  -1.43648426487175E-11  7.69904377502308E-02
 cg2d: Sum(rhs),rhsMax =  -1.41581191215323E-11  7.82772432346126E-02
 cg2d: Sum(rhs),rhsMax =  -1.39628308915007E-11  7.95155692189433E-02
 cg2d: Sum(rhs),rhsMax =  -1.37996281068808E-11  8.07027372706079E-02
 cg2d: Sum(rhs),rhsMax =  -1.37064803951148E-11  8.18361823600331E-02
 cg2d: Sum(rhs),rhsMax =  -1.35754740782090E-11  8.29134626998015E-02
 cg2d: Sum(rhs),rhsMax =  -1.34461330958402E-11  8.39322690352283E-02
 cg2d: Sum(rhs),rhsMax =  -1.33879574093498E-11  8.48904333380839E-02
 cg2d: Sum(rhs),rhsMax =  -1.32898136939730E-11  8.57859368588269E-02
 cg2d: Sum(rhs),rhsMax =  -1.31774591238809E-11  8.66169174964842E-02
 cg2d: Sum(rhs),rhsMax =  -1.30814248322508E-11  8.73816764492956E-02
 cg2d: Sum(rhs),rhsMax =  -1.30094823802551E-11  8.80786841134715E-02
 cg2d: Sum(rhs),rhsMax =  -1.29144472893472E-11  8.87065852019149E-02
 cg2d: Sum(rhs),rhsMax =  -1.28922428288547E-11  8.92642030594872E-02
 cg2d: Sum(rhs),rhsMax =  -1.27944321803852E-11  8.97505431561357E-02
 cg2d: Sum(rhs),rhsMax =  -1.27423627205303E-11  9.01647957439923E-02
 cg2d: Sum(rhs),rhsMax =  -1.26564314584243E-11  9.05063376694303E-02
 cg2d: Sum(rhs),rhsMax =  -1.26071375561310E-11  9.07747333360157E-02
 cg2d: Sum(rhs),rhsMax =  -1.26129107158590E-11  9.09697348192818E-02
 cg2d: Sum(rhs),rhsMax =  -1.25780497128858E-11  9.10912811448003E-02
 cg2d: Sum(rhs),rhsMax =  -1.25631727243558E-11  9.11394967258405E-02
 cg2d: Sum(rhs),rhsMax =  -1.26157972957230E-11  9.11146889843155E-02
 cg2d: Sum(rhs),rhsMax =  -1.26770816066823E-11  9.10173451798193E-02
 cg2d: Sum(rhs),rhsMax =  -1.27400312521786E-11  9.08481284732432E-02
 cg2d: Sum(rhs),rhsMax =  -1.28228538898156E-11  9.06078732434926E-02
 cg2d: Sum(rhs),rhsMax =  -1.29404265081234E-11  9.02975797070008E-02
 cg2d: Sum(rhs),rhsMax =  -1.30073729565083E-11  8.99184078805447E-02
 cg2d: Sum(rhs),rhsMax =  -1.31084032517492E-11  8.94716709088417E-02
 cg2d: Sum(rhs),rhsMax =  -1.32555078025121E-11  8.89588278239142E-02
 cg2d: Sum(rhs),rhsMax =  -1.33977273719665E-11  8.83814757604456E-02
 cg2d: Sum(rhs),rhsMax =  -1.35389477406989E-11  8.77413416859734E-02
 cg2d: Sum(rhs),rhsMax =  -1.36871625144863E-11  8.70402737143515E-02
 cg2d: Sum(rhs),rhsMax =  -1.38773437186046E-11  8.62802320538331E-02
 cg2d: Sum(rhs),rhsMax =  -1.40955025429434E-11  8.54632796413599E-02
 cg2d: Sum(rhs),rhsMax =  -1.43031142485484E-11  8.45915725157019E-02
 cg2d: Sum(rhs),rhsMax =  -1.45231604520291E-11  8.36673499737593E-02
 cg2d: Sum(rhs),rhsMax =  -1.47467593691886E-11  8.26929245865319E-02
 cg2d: Sum(rhs),rhsMax =  -1.50102152929321E-11  8.16706721239817E-02
 cg2d: Sum(rhs),rhsMax =  -1.53582702111521E-11  8.06030214266262E-02
 cg2d: Sum(rhs),rhsMax =  -1.56901158732126E-11  7.94924442743374E-02
 cg2d: Sum(rhs),rhsMax =  -1.59923185805155E-11  7.83414453053629E-02
 cg2d: Sum(rhs),rhsMax =  -1.63793423268999E-11  7.71525520374419E-02
 cg2d: Sum(rhs),rhsMax =  -1.65651936612221E-11  7.59283050463767E-02
 cg2d: Sum(rhs),rhsMax =  -1.67540425977108E-11  7.46712483167806E-02
 cg2d: Sum(rhs),rhsMax =  -1.69467773147858E-11  7.33839198090774E-02
 cg2d: Sum(rhs),rhsMax =  -1.71792580161423E-11  7.20688422967292E-02
 cg2d: Sum(rhs),rhsMax =  -1.74267267283312E-11  7.07285145238226E-02
 cg2d: Sum(rhs),rhsMax =  -1.76876291391181E-11  6.93654026904629E-02
 cg2d: Sum(rhs),rhsMax =  -1.80235826263697E-11  6.79819322971049E-02
 cg2d: Sum(rhs),rhsMax =  -1.83356663185918E-11  6.65804803781083E-02
 cg2d: Sum(rhs),rhsMax =  -1.88038473680763E-11  6.51633681566406E-02
 cg2d: Sum(rhs),rhsMax =  -1.91986426756330E-11  6.37328541379553E-02
 cg2d: Sum(rhs),rhsMax =  -1.96448413092298E-11  6.22911276716451E-02
 cg2d: Sum(rhs),rhsMax =  -2.00967020802523E-11  6.08403030024251E-02
 cg2d: Sum(rhs),rhsMax =  -2.05747641146559E-11  5.93824138270307E-02
 cg2d: Sum(rhs),rhsMax =  -2.10776951448111E-11  5.79194083710486E-02
 cg2d: Sum(rhs),rhsMax =  -2.16096029959090E-11  5.64531449914092E-02
 cg2d: Sum(rhs),rhsMax =  -2.21503926312039E-11  5.49853883225625E-02
 cg2d: Sum(rhs),rhsMax =  -2.27180496636947E-11  5.35178059706529E-02
 cg2d: Sum(rhs),rhsMax =  -2.33345565092691E-11  5.20519657562338E-02
 cg2d: Sum(rhs),rhsMax =  -2.39670505663980E-11  5.05893335027967E-02
 cg2d: Sum(rhs),rhsMax =  -2.46392906078086E-11  4.91312713651860E-02
 cg2d: Sum(rhs),rhsMax =  -2.53571608155312E-11  4.76790366884874E-02
 cg2d: Sum(rhs),rhsMax =  -2.61081156693876E-11  4.62337813845300E-02
 cg2d: Sum(rhs),rhsMax =  -2.68960409499641E-11  4.47965518089724E-02
 cg2d: Sum(rhs),rhsMax =  -2.77352585342783E-11  4.33682891135300E-02
 cg2d: Sum(rhs),rhsMax =  -2.86216605971390E-11  4.19498300634326E-02
 cg2d: Sum(rhs),rhsMax =  -2.95826696472545E-11  4.05419082950465E-02
 cg2d: Sum(rhs),rhsMax =  -3.05478975448636E-11  3.91451559806559E-02
 cg2d: Sum(rhs),rhsMax =  -3.16271453471018E-11  3.77601058749956E-02
 cg2d: Sum(rhs),rhsMax =  -3.27651239473425E-11  3.63871937202680E-02
 cg2d: Sum(rhs),rhsMax =  -3.39630545909131E-11  3.50267609879970E-02
 cg2d: Sum(rhs),rhsMax =  -3.52129436720361E-11  3.36790579358900E-02
 cg2d: Sum(rhs),rhsMax =  -3.65895092002688E-11  3.23442469580874E-02
 cg2d: Sum(rhs),rhsMax =  -3.80575571057307E-11  3.10224062078240E-02
 cg2d: Sum(rhs),rhsMax =  -3.97276656016743E-11  2.97135334730376E-02
 cg2d: Sum(rhs),rhsMax =  -4.14785983338106E-11  2.84175502864338E-02
 cg2d: Sum(rhs),rhsMax =  -4.33650892972537E-11  2.71343062518391E-02
 cg2d: Sum(rhs),rhsMax =  -4.54754012224612E-11  2.58635835689137E-02
 cg2d: Sum(rhs),rhsMax =  -4.69912997402844E-11  2.49900112417097E-02
 cg2d: Sum(rhs),rhsMax =  -4.81757966852570E-11  2.43625116278092E-02
 cg2d: Sum(rhs),rhsMax =  -4.93569629611557E-11  2.37377296811017E-02
 cg2d: Sum(rhs),rhsMax =  -5.06552577661523E-11  2.31148079447698E-02
 cg2d: Sum(rhs),rhsMax =  -5.19846388158385E-11  2.24928553883823E-02
 cg2d: Sum(rhs),rhsMax =  -5.33941779679026E-11  2.18709508988708E-02
 cg2d: Sum(rhs),rhsMax =  -5.48772138841969E-11  2.12481468997319E-02
 cg2d: Sum(rhs),rhsMax =  -5.64754909504472E-11  2.06234730902060E-02
 cg2d: Sum(rhs),rhsMax =  -5.81688031076055E-11  1.99959402982951E-02
 cg2d: Sum(rhs),rhsMax =  -6.00159921759769E-11  1.93645444443643E-02
 cg2d: Sum(rhs),rhsMax =  -6.19837514648225E-11  1.87282706155150E-02
 cg2d: Sum(rhs),rhsMax =  -6.41047215310664E-11  1.80860972545800E-02
 cg2d: Sum(rhs),rhsMax =  -6.63940014078435E-11  1.74370004709660E-02
 cg2d: Sum(rhs),rhsMax =  -6.88973322837683E-11  1.67799584822016E-02
 cg2d: Sum(rhs),rhsMax =  -7.17053083576502E-11  1.61139561964052E-02
 cg2d: Sum(rhs),rhsMax =  -7.47371053932966E-11  1.54379899437714E-02
 cg2d: Sum(rhs),rhsMax =  -7.81352760270693E-11  1.47510723601906E-02
 cg2d: Sum(rhs),rhsMax =  -8.19011525265978E-11  1.40522374183439E-02
 cg2d: Sum(rhs),rhsMax =  -8.62327986794753E-11  1.33405455913477E-02
 cg2d: Sum(rhs),rhsMax =  -9.11581921059224E-11  1.26150891219421E-02
 cg2d: Sum(rhs),rhsMax =  -9.68003455170674E-11  1.18749973574394E-02
 cg2d: Sum(rhs),rhsMax =  -1.03340669355134E-10  1.11194420962199E-02
 cg2d: Sum(rhs),rhsMax =  -1.11012865566806E-10  1.03476428884488E-02
 cg2d: Sum(rhs),rhsMax =  -1.20132792602590E-10  9.55887222643307E-03
 cg2d: Sum(rhs),rhsMax =  -1.31152866345019E-10  8.75246054678099E-03
 cg2d: Sum(rhs),rhsMax =  -1.44718681482914E-10  7.92780098023408E-03
 cg2d: Sum(rhs),rhsMax =  -1.61878732640730E-10  7.08435379395380E-03
 cg2d: Sum(rhs),rhsMax =  -1.55683133051809E-10  7.36359625621133E-03
 cg2d: Sum(rhs),rhsMax =  -1.36992750476850E-10  8.36500086705832E-03
 cg2d: Sum(rhs),rhsMax =  -1.22125476398338E-10  9.37845418267058E-03
 cg2d: Sum(rhs),rhsMax =  -1.10229048111421E-10  1.03898532006637E-02
 cg2d: Sum(rhs),rhsMax =  -1.00177144357616E-10  1.14222506756264E-02
 cg2d: Sum(rhs),rhsMax =  -9.17488862661742E-11  1.24530420978858E-02
 cg2d: Sum(rhs),rhsMax =  -8.45516850978001E-11  1.35042742752925E-02
 cg2d: Sum(rhs),rhsMax =  -7.83356296496507E-11  1.45594992436174E-02
 cg2d: Sum(rhs),rhsMax =  -7.28948706951726E-11  1.56351111317328E-02
 cg2d: Sum(rhs),rhsMax =  -6.79402367698145E-11  1.67433839997428E-02
 cg2d: Sum(rhs),rhsMax =  -6.35853869557224E-11  1.78658648270338E-02
 cg2d: Sum(rhs),rhsMax =  -5.97197291618556E-11  1.89862821386100E-02
 cg2d: Sum(rhs),rhsMax =  -5.63484814364301E-11  2.01040211562786E-02
 cg2d: Sum(rhs),rhsMax =  -5.33199040475552E-11  2.12184076812594E-02
 cg2d: Sum(rhs),rhsMax =  -5.05628872105035E-11  2.23287100735902E-02
 cg2d: Sum(rhs),rhsMax =  -4.82192064055198E-11  2.34341416082832E-02
 cg2d: Sum(rhs),rhsMax =  -4.61497506876185E-11  2.45338631948515E-02
 cg2d: Sum(rhs),rhsMax =  -4.42242353848599E-11  2.56269864384752E-02
 cg2d: Sum(rhs),rhsMax =  -4.24421053857316E-11  2.67125770135438E-02
 cg2d: Sum(rhs),rhsMax =  -4.08508227245363E-11  2.77896583141151E-02
 cg2d: Sum(rhs),rhsMax =  -3.93923782482375E-11  2.88572153413186E-02
 cg2d: Sum(rhs),rhsMax =  -3.80281361955781E-11  2.99141987851537E-02
 cg2d: Sum(rhs),rhsMax =  -3.67661456834867E-11  3.09595292575315E-02
 cg2d: Sum(rhs),rhsMax =  -3.56279450386410E-11  3.19921016346828E-02
 cg2d: Sum(rhs),rhsMax =  -3.45443673666068E-11  3.30107894699246E-02
 cg2d: Sum(rhs),rhsMax =  -3.35769190229485E-11  3.40144494420453E-02
 cg2d: Sum(rhs),rhsMax =  -3.26814131312858E-11  3.50019258094739E-02
 cg2d: Sum(rhs),rhsMax =  -3.18454151937431E-11  3.59720548457022E-02
 cg2d: Sum(rhs),rhsMax =  -3.09876568849177E-11  3.69236692364976E-02
 cg2d: Sum(rhs),rhsMax =  -3.02688984987753E-11  3.78556024241641E-02
 cg2d: Sum(rhs),rhsMax =  -2.95484747780961E-11  3.87666928885005E-02
 cg2d: Sum(rhs),rhsMax =  -2.89440693634901E-11  3.96557883571162E-02
 cg2d: Sum(rhs),rhsMax =  -2.83187917560213E-11  4.05217499396993E-02
 cg2d: Sum(rhs),rhsMax =  -2.77334821774389E-11  4.13634561817862E-02
 cg2d: Sum(rhs),rhsMax =  -2.71836997356445E-11  4.21798070336893E-02
 cg2d: Sum(rhs),rhsMax =  -2.66922040026429E-11  4.29697277295455E-02
 cg2d: Sum(rhs),rhsMax =  -2.62361243841269E-11  4.37321725702807E-02
 cg2d: Sum(rhs),rhsMax =  -2.57917021073695E-11  4.44661286033271E-02
 cg2d: Sum(rhs),rhsMax =  -2.53779219860917E-11  4.51706191888495E-02
 cg2d: Sum(rhs),rhsMax =  -2.50263143541929E-11  4.58447074413449E-02
 cg2d: Sum(rhs),rhsMax =  -2.46779263690655E-11  4.64874995340059E-02
 cg2d: Sum(rhs),rhsMax =  -2.43515207998257E-11  4.70981478520621E-02
 cg2d: Sum(rhs),rhsMax =  -2.40679698393365E-11  4.76758539805775E-02
 cg2d: Sum(rhs),rhsMax =  -2.37719843809714E-11  4.82198715119663E-02
 cg2d: Sum(rhs),rhsMax =  -2.35391706127075E-11  4.87295086588040E-02
 cg2d: Sum(rhs),rhsMax =  -2.33180141862022E-11  4.92041306582882E-02
 cg2d: Sum(rhs),rhsMax =  -2.30796493028151E-11  4.96431619559488E-02
 cg2d: Sum(rhs),rhsMax =  -2.28917995670486E-11  5.00460881598062E-02
 cg2d: Sum(rhs),rhsMax =  -2.27275975817065E-11  5.04124577503238E-02
 cg2d: Sum(rhs),rhsMax =  -2.25628404848521E-11  5.07418835418502E-02
 cg2d: Sum(rhs),rhsMax =  -2.24534835169266E-11  5.10340438913899E-02
 cg2d: Sum(rhs),rhsMax =  -2.23124851927992E-11  5.12886836507592E-02
 cg2d: Sum(rhs),rhsMax =  -2.22076801392745E-11  5.15056148599651E-02
 cg2d: Sum(rhs),rhsMax =  -2.21503926312039E-11  5.16847171814727E-02
 cg2d: Sum(rhs),rhsMax =  -2.20756746216466E-11  5.18259380768970E-02
 cg2d: Sum(rhs),rhsMax =  -2.20562457187157E-11  5.19292927289102E-02
 cg2d: Sum(rhs),rhsMax =  -2.20123919092430E-11  5.19948637056264E-02
 cg2d: Sum(rhs),rhsMax =  -2.20214957380449E-11  5.20228003911577E-02
 cg2d: Sum(rhs),rhsMax =  -2.20280460538902E-11  5.20133181774382E-02
 cg2d: Sum(rhs),rhsMax =  -2.20875540080101E-11  5.19666974220473E-02
 cg2d: Sum(rhs),rhsMax =  -2.20972129483243E-11  5.19848971680477E-02
 cg2d: Sum(rhs),rhsMax =  -2.20489182467531E-11  5.21409735089782E-02
 cg2d: Sum(rhs),rhsMax =  -2.20489182467531E-11  5.22455574337174E-02
 cg2d: Sum(rhs),rhsMax =  -2.20817808482821E-11  5.22986866734098E-02
 cg2d: Sum(rhs),rhsMax =  -2.20955476137874E-11  5.23005093569714E-02
 cg2d: Sum(rhs),rhsMax =  -2.21652696197339E-11  5.22512823615862E-02
 cg2d: Sum(rhs),rhsMax =  -2.22593055099196E-11  5.21513692559070E-02
 cg2d: Sum(rhs),rhsMax =  -2.23702167900797E-11  5.20012378629905E-02
 cg2d: Sum(rhs),rhsMax =  -2.25179874746573E-11  5.18014574344124E-02
 cg2d: Sum(rhs),rhsMax =  -2.26484386800507E-11  5.15526954725769E-02
 cg2d: Sum(rhs),rhsMax =  -2.28245200517563E-11  5.12557142289421E-02
 cg2d: Sum(rhs),rhsMax =  -2.30706564963157E-11  5.09113668848358E-02
 cg2d: Sum(rhs),rhsMax =  -2.31763497282600E-11  5.05205934624319E-02
 cg2d: Sum(rhs),rhsMax =  -2.32716068637728E-11  5.00844164630406E-02
 cg2d: Sum(rhs),rhsMax =  -2.33457697618178E-11  4.96039362562409E-02
 cg2d: Sum(rhs),rhsMax =  -2.35033104090121E-11  4.90803262449436E-02
 cg2d: Sum(rhs),rhsMax =  -2.36691777288911E-11  4.85148278307460E-02
 cg2d: Sum(rhs),rhsMax =  -2.39517294886582E-11  4.79087452027937E-02
 cg2d: Sum(rhs),rhsMax =  -2.41383579790977E-11  4.72634399727429E-02
 cg2d: Sum(rhs),rhsMax =  -2.44390063741662E-11  4.65803256784799E-02
 cg2d: Sum(rhs),rhsMax =  -2.47554199361844E-11  4.58608621886997E-02
 cg2d: Sum(rhs),rhsMax =  -2.51019205421699E-11  4.51065500034876E-02
 cg2d: Sum(rhs),rhsMax =  -2.55070409238556E-11  4.43189245039045E-02
 cg2d: Sum(rhs),rhsMax =  -2.59217092235531E-11  4.34995501772647E-02
 cg2d: Sum(rhs),rhsMax =  -2.63321586757570E-11  4.26500148347998E-02
 cg2d: Sum(rhs),rhsMax =  -2.68247646317832E-11  4.17719238510268E-02
 cg2d: Sum(rhs),rhsMax =  -2.73447930965176E-11  4.08668944549246E-02
 cg2d: Sum(rhs),rhsMax =  -2.79460898866546E-11  3.99365500941184E-02
 cg2d: Sum(rhs),rhsMax =  -2.85746981631974E-11  3.89825149262283E-02
 cg2d: Sum(rhs),rhsMax =  -2.92936785939446E-11  3.80064084203885E-02
 cg2d: Sum(rhs),rhsMax =  -3.00823810306383E-11  3.70098401235103E-02
 cg2d: Sum(rhs),rhsMax =  -3.09087200278668E-11  3.59944046128382E-02
 cg2d: Sum(rhs),rhsMax =  -3.18367554541510E-11  3.49616766535111E-02
 cg2d: Sum(rhs),rhsMax =  -3.27452509552018E-11  3.39132065775967E-02
 cg2d: Sum(rhs),rhsMax =  -3.38065131444409E-11  3.28505158998169E-02
 cg2d: Sum(rhs),rhsMax =  -3.48775452962968E-11  3.18068338455240E-02
 cg2d: Sum(rhs),rhsMax =  -3.57427420993872E-11  3.09618382625160E-02
 cg2d: Sum(rhs),rhsMax =  -3.66989771904969E-11  3.01136248473462E-02
 cg2d: Sum(rhs),rhsMax =  -3.76685349579020E-11  2.92629121687303E-02
 cg2d: Sum(rhs),rhsMax =  -3.87708753990523E-11  2.84103742606020E-02
 cg2d: Sum(rhs),rhsMax =  -3.99195121403295E-11  2.75566389531889E-02
 cg2d: Sum(rhs),rhsMax =  -4.11417566681394E-11  2.67022863533090E-02
 cg2d: Sum(rhs),rhsMax =  -4.24322799119636E-11  2.58478474806554E-02
 cg2d: Sum(rhs),rhsMax =  -4.38717950856926E-11  2.49938030651568E-02
 cg2d: Sum(rhs),rhsMax =  -4.53536097566598E-11  2.41405825105284E-02
 cg2d: Sum(rhs),rhsMax =  -4.69561056704038E-11  2.32885630306826E-02
 cg2d: Sum(rhs),rhsMax =  -4.86926055032200E-11  2.24380689637808E-02
 cg2d: Sum(rhs),rhsMax =  -5.05498976011154E-11  2.15893712651500E-02
 cg2d: Sum(rhs),rhsMax =  -5.25504084691875E-11  2.07426871820234E-02
 cg2d: Sum(rhs),rhsMax =  -5.47483169910379E-11  1.98981801123447E-02
 cg2d: Sum(rhs),rhsMax =  -5.71080960298787E-11  1.90559596490561E-02
 cg2d: Sum(rhs),rhsMax =  -5.96926952312060E-11  1.82160818104530E-02
 cg2d: Sum(rhs),rhsMax =  -6.25589580138808E-11  1.73785494566238E-02
 cg2d: Sum(rhs),rhsMax =  -6.56671383936214E-11  1.65433128908603E-02
 cg2d: Sum(rhs),rhsMax =  -6.91011692310894E-11  1.57102706452798E-02
 cg2d: Sum(rhs),rhsMax =  -7.28848092990120E-11  1.48792704493103E-02
 cg2d: Sum(rhs),rhsMax =  -7.69110330978151E-11  1.40501103791331E-02
 cg2d: Sum(rhs),rhsMax =  -8.17085288318253E-11  1.32225401816841E-02
 cg2d: Sum(rhs),rhsMax =  -8.71320793294217E-11  1.23962627838416E-02
 cg2d: Sum(rhs),rhsMax =  -9.33836896699347E-11  1.15709359727894E-02
 cg2d: Sum(rhs),rhsMax =  -1.00646158074369E-10  1.07461742468490E-02
 cg2d: Sum(rhs),rhsMax =  -1.09047215701708E-10  9.92155083360536E-03
 cg2d: Sum(rhs),rhsMax =  -1.19021154043608E-10  9.09659987217713E-03
 cg2d: Sum(rhs),rhsMax =  -1.30965557842977E-10  8.27081876138303E-03
 cg2d: Sum(rhs),rhsMax =  -1.45601572465459E-10  7.44367067157129E-03
 cg2d: Sum(rhs),rhsMax =  -1.63959179566575E-10  6.61458721788912E-03
 cg2d: Sum(rhs),rhsMax =  -1.87680426755321E-10  5.78297129303122E-03
 cg2d: Sum(rhs),rhsMax =  -2.19381512955863E-10  4.94820005776300E-03
 cg2d: Sum(rhs),rhsMax =  -2.47098563832537E-10  4.39462929065340E-03
 cg2d: Sum(rhs),rhsMax =  -2.04535166581366E-10  5.31099517741085E-03
 cg2d: Sum(rhs),rhsMax =  -1.74136483011011E-10  6.24009162689669E-03
 cg2d: Sum(rhs),rhsMax =  -1.51679113713499E-10  7.16597072567450E-03
 cg2d: Sum(rhs),rhsMax =  -1.34155353492815E-10  8.10333851508481E-03
 cg2d: Sum(rhs),rhsMax =  -1.20342735776546E-10  9.04638036349816E-03
 cg2d: Sum(rhs),rhsMax =  -1.08989262059822E-10  9.99791249732850E-03
 cg2d: Sum(rhs),rhsMax =  -9.95239446410778E-11  1.09599124557898E-02
 cg2d: Sum(rhs),rhsMax =  -9.16239306647526E-11  1.19172537176199E-02
 cg2d: Sum(rhs),rhsMax =  -8.49391668111821E-11  1.28702200119579E-02
 cg2d: Sum(rhs),rhsMax =  -7.91966492386109E-11  1.38190921915924E-02
 cg2d: Sum(rhs),rhsMax =  -7.42428341027335E-11  1.47641452755252E-02
 cg2d: Sum(rhs),rhsMax =  -6.98614499583528E-11  1.57056455230705E-02
 cg2d: Sum(rhs),rhsMax =  -6.59945431635833E-11  1.66438475649115E-02
 cg2d: Sum(rhs),rhsMax =  -6.25504092965912E-11  1.75789916169596E-02
 cg2d: Sum(rhs),rhsMax =  -5.95155036364758E-11  1.85113008012948E-02
 cg2d: Sum(rhs),rhsMax =  -5.66870994589408E-11  1.94409785955590E-02
 cg2d: Sum(rhs),rhsMax =  -5.41662270592269E-11  2.03682064284165E-02
 cg2d: Sum(rhs),rhsMax =  -5.18776133162646E-11  2.12931414350914E-02
 cg2d: Sum(rhs),rhsMax =  -4.97908381191792E-11  2.22159143817444E-02
 cg2d: Sum(rhs),rhsMax =  -4.78381778634684E-11  2.31366277633434E-02
 cg2d: Sum(rhs),rhsMax =  -4.61579663380007E-11  2.40553540765095E-02
 cg2d: Sum(rhs),rhsMax =  -4.45899983603226E-11  2.49721342791151E-02
 cg2d: Sum(rhs),rhsMax =  -4.31135127598736E-11  2.58869764266411E-02
 cg2d: Sum(rhs),rhsMax =  -4.17248458006725E-11  2.67998544852090E-02
 cg2d: Sum(rhs),rhsMax =  -4.05170341721828E-11  2.77107073227958E-02
 cg2d: Sum(rhs),rhsMax =  -3.93010068933108E-11  2.86194378805358E-02
 cg2d: Sum(rhs),rhsMax =  -3.82500697782007E-11  2.95259125230202E-02
 cg2d: Sum(rhs),rhsMax =  -3.71871422544245E-11  3.04299605729716E-02
 cg2d: Sum(rhs),rhsMax =  -3.61879415322619E-11  3.13313740323229E-02
 cg2d: Sum(rhs),rhsMax =  -3.52580187268359E-11  3.22299074916794E-02
 cg2d: Sum(rhs),rhsMax =  -3.43782780021229E-11  3.31252782297059E-02
 cg2d: Sum(rhs),rhsMax =  -3.35638183912579E-11  3.40171665031288E-02
 cg2d: Sum(rhs),rhsMax =  -3.27728955085149E-11  3.49052160258924E-02
 cg2d: Sum(rhs),rhsMax =  -3.19979598373266E-11  3.57890346367106E-02
 cg2d: Sum(rhs),rhsMax =  -3.12811998526286E-11  3.66681951545761E-02
 cg2d: Sum(rhs),rhsMax =  -3.06350500522967E-11  3.75422364098231E-02
 cg2d: Sum(rhs),rhsMax =  -2.99773539325088E-11  3.84106644464853E-02
 cg2d: Sum(rhs),rhsMax =  -2.93560731279285E-11  3.92729538896415E-02
 cg2d: Sum(rhs),rhsMax =  -2.87823098688023E-11  4.01285494693581E-02
 cg2d: Sum(rhs),rhsMax =  -2.82285306241192E-11  4.09768676915071E-02
 cg2d: Sum(rhs),rhsMax =  -2.76820788513987E-11  4.18172986452843E-02
 cg2d: Sum(rhs),rhsMax =  -2.71719313715835E-11  4.26492079372671E-02
 cg2d: Sum(rhs),rhsMax =  -2.67368349682329E-11  4.34719387419397E-02
 cg2d: Sum(rhs),rhsMax =  -2.62634358705327E-11  4.42848139583278E-02
 cg2d: Sum(rhs),rhsMax =  -2.57025511984921E-11  4.53810167636549E-02
 cg2d: Sum(rhs),rhsMax =  -2.49965603771329E-11  4.67210600374948E-02
 cg2d: Sum(rhs),rhsMax =  -2.43205455774387E-11  4.80586608885157E-02
 cg2d: Sum(rhs),rhsMax =  -2.36796138253226E-11  4.93922305983903E-02
 cg2d: Sum(rhs),rhsMax =  -2.30924168675983E-11  5.07201387412318E-02
 cg2d: Sum(rhs),rhsMax =  -2.24914531443687E-11  5.20407176680204E-02
 cg2d: Sum(rhs),rhsMax =  -2.19707585458195E-11  5.33522671780989E-02
 cg2d: Sum(rhs),rhsMax =  -2.14517292818073E-11  5.46530593592505E-02
 cg2d: Sum(rhs),rhsMax =  -2.09314787724679E-11  5.59413435772782E-02
 cg2d: Sum(rhs),rhsMax =  -2.04684047488968E-11  5.72153515953753E-02
 cg2d: Sum(rhs),rhsMax =  -2.00334193678486E-11  5.84733028029793E-02
 cg2d: Sum(rhs),rhsMax =  -1.96159755105896E-11  5.97134095320244E-02
 cg2d: Sum(rhs),rhsMax =  -1.92283966526929E-11  6.09338824425235E-02
 cg2d: Sum(rhs),rhsMax =  -1.88620230545666E-11  6.21329359536998E-02
 cg2d: Sum(rhs),rhsMax =  -1.85060855528718E-11  6.33087936979223E-02
 cg2d: Sum(rhs),rhsMax =  -1.81736847792990E-11  6.44596939751870E-02
 cg2d: Sum(rhs),rhsMax =  -1.78734804734404E-11  6.55838951857500E-02
 cg2d: Sum(rhs),rhsMax =  -1.75680581193660E-11  6.66796812183894E-02
 cg2d: Sum(rhs),rhsMax =  -1.72883929394629E-11  6.77453667717356E-02
 cg2d: Sum(rhs),rhsMax =  -1.70380376474100E-11  6.87793025862161E-02
 cg2d: Sum(rhs),rhsMax =  -1.67836855524683E-11  6.97798805645173E-02
 cg2d: Sum(rhs),rhsMax =  -1.65608637914261E-11  7.07455387585664E-02
 cg2d: Sum(rhs),rhsMax =  -1.63613567139009E-11  7.16747662017251E-02
 cg2d: Sum(rhs),rhsMax =  -1.61507474061295E-11  7.25661075656092E-02
 cg2d: Sum(rhs),rhsMax =  -1.59535717969561E-11  7.34181676215164E-02
 cg2d: Sum(rhs),rhsMax =  -1.57811541612318E-11  7.42296154870955E-02
 cg2d: Sum(rhs),rhsMax =  -1.56169521758898E-11  7.49991886396790E-02
 cg2d: Sum(rhs),rhsMax =  -1.54988244460696E-11  7.57256966786814E-02
 cg2d: Sum(rhs),rhsMax =  -1.53225210297592E-11  7.64080248206229E-02
 cg2d: Sum(rhs),rhsMax =  -1.51789691926751E-11  7.70451371116860E-02
 cg2d: Sum(rhs),rhsMax =  -1.50807144549958E-11  7.76360793442232E-02
 cg2d: Sum(rhs),rhsMax =  -1.49662504611570E-11  7.81799816653288E-02
 cg2d: Sum(rhs),rhsMax =  -1.48634438090767E-11  7.86760608674325E-02
 cg2d: Sum(rhs),rhsMax =  -1.47827305951864E-11  7.91236223528669E-02
 cg2d: Sum(rhs),rhsMax =  -1.46990197791297E-11  7.95220617664357E-02
 cg2d: Sum(rhs),rhsMax =  -1.46231915465478E-11  7.98708662921206E-02
 cg2d: Sum(rhs),rhsMax =  -1.45404799312132E-11  8.01696156145285E-02
 cg2d: Sum(rhs),rhsMax =  -1.44589895612057E-11  8.04179825395565E-02
 cg2d: Sum(rhs),rhsMax =  -1.44334544316393E-11  8.06157332784692E-02
 cg2d: Sum(rhs),rhsMax =  -1.43487444148604E-11  8.07627274014470E-02
 cg2d: Sum(rhs),rhsMax =  -1.43099976313010E-11  8.08589174650894E-02
 cg2d: Sum(rhs),rhsMax =  -1.43195455493128E-11  8.09043483197511E-02
 cg2d: Sum(rhs),rhsMax =  -1.43555167753107E-11  8.08991560999477E-02
 cg2d: Sum(rhs),rhsMax =  -1.44122491718690E-11  8.08435669042152E-02
 cg2d: Sum(rhs),rhsMax =  -1.45172762699985E-11  8.07378951921792E-02
 cg2d: Sum(rhs),rhsMax =  -1.46268552825290E-11  8.05825418876830E-02
 cg2d: Sum(rhs),rhsMax =  -1.47551970641757E-11  8.03779922000176E-02
 cg2d: Sum(rhs),rhsMax =  -1.49023016149386E-11  8.01248131781242E-02
 cg2d: Sum(rhs),rhsMax =  -1.50125467612838E-11  7.98236509866476E-02
 cg2d: Sum(rhs),rhsMax =  -1.51686441185461E-11  7.94752279394530E-02
 cg2d: Sum(rhs),rhsMax =  -1.53733692442870E-11  7.90803393053680E-02
 cg2d: Sum(rhs),rhsMax =  -1.55557788872329E-11  7.86398498981914E-02
 cg2d: Sum(rhs),rhsMax =  -1.56552548702393E-11  7.81546904649159E-02
 cg2d: Sum(rhs),rhsMax =  -1.58000279526505E-11  7.76258538892497E-02
 cg2d: Sum(rhs),rhsMax =  -1.58288937512907E-11  7.70543912308324E-02
 cg2d: Sum(rhs),rhsMax =  -1.58779656089791E-11  7.64414076233436E-02
 cg2d: Sum(rhs),rhsMax =  -1.59596780235916E-11  7.57880580569624E-02
 cg2d: Sum(rhs),rhsMax =  -1.60352842115685E-11  7.50955430732033E-02
 cg2d: Sum(rhs),rhsMax =  -1.61577418111847E-11  7.43651043866464E-02
 cg2d: Sum(rhs),rhsMax =  -1.62500013445310E-11  7.35980204855824E-02
 cg2d: Sum(rhs),rhsMax =  -1.64103175492869E-11  7.27956022289373E-02
 cg2d: Sum(rhs),rhsMax =  -1.65769620252831E-11  7.19591884565749E-02
 cg2d: Sum(rhs),rhsMax =  -1.67466041034459E-11  7.10901416366164E-02
 cg2d: Sum(rhs),rhsMax =  -1.69924074810979E-11  7.01898435688580E-02
 cg2d: Sum(rhs),rhsMax =  -1.72425407285459E-11  6.92596911591228E-02
 cg2d: Sum(rhs),rhsMax =  -1.74571468392060E-11  6.83010922950429E-02
 cg2d: Sum(rhs),rhsMax =  -1.77333703277327E-11  6.73154618159640E-02
 cg2d: Sum(rhs),rhsMax =  -1.79702919211877E-11  6.63042175683843E-02
 cg2d: Sum(rhs),rhsMax =  -1.82802661896631E-11  6.52687765492930E-02
 cg2d: Sum(rhs),rhsMax =  -1.85541582098381E-11  6.42105511502532E-02
 cg2d: Sum(rhs),rhsMax =  -1.88290494307353E-11  6.31309454988945E-02
 cg2d: Sum(rhs),rhsMax =  -1.91237026214708E-11  6.20313518939256E-02
 cg2d: Sum(rhs),rhsMax =  -1.94692040267341E-11  6.09131473329933E-02
 cg2d: Sum(rhs),rhsMax =  -1.98059346701029E-11  5.97776901319903E-02
 cg2d: Sum(rhs),rhsMax =  -2.01441086034038E-11  5.86263166470536E-02
 cg2d: Sum(rhs),rhsMax =  -2.05356842641891E-11  5.74603381029023E-02
 cg2d: Sum(rhs),rhsMax =  -2.09592343480836E-11  5.62810375503006E-02
 cg2d: Sum(rhs),rhsMax =  -2.13533635218255E-11  5.50896669689118E-02
 cg2d: Sum(rhs),rhsMax =  -2.17670326208008E-11  5.38874445334547E-02
 cg2d: Sum(rhs),rhsMax =  -2.22040164032933E-11  5.26755520629392E-02
 cg2d: Sum(rhs),rhsMax =  -2.26747509657343E-11  5.14551326736803E-02
 cg2d: Sum(rhs),rhsMax =  -2.31681340778778E-11  5.02272886560010E-02
 cg2d: Sum(rhs),rhsMax =  -2.36772823569709E-11  4.89930795910080E-02
 cg2d: Sum(rhs),rhsMax =  -2.42502684599799E-11  4.77535207218206E-02
 cg2d: Sum(rhs),rhsMax =  -2.48646658818075E-11  4.65095815884812E-02
 cg2d: Sum(rhs),rhsMax =  -2.55095944368122E-11  4.52621849317549E-02
 cg2d: Sum(rhs),rhsMax =  -2.61828336789449E-11  4.40122058654753E-02
 cg2d: Sum(rhs),rhsMax =  -2.69129163399384E-11  4.27604713169634E-02
 cg2d: Sum(rhs),rhsMax =  -2.76799694276519E-11  4.15077597267275E-02
 cg2d: Sum(rhs),rhsMax =  -2.84648971060619E-11  4.02548009961856E-02
 cg2d: Sum(rhs),rhsMax =  -2.93184365673937E-11  3.90022766645819E-02
 cg2d: Sum(rhs),rhsMax =  -3.02389224771105E-11  3.77508203228489E-02
 cg2d: Sum(rhs),rhsMax =  -3.12121439804969E-11  3.65010182344338E-02
 cg2d: Sum(rhs),rhsMax =  -3.22255555573747E-11  3.52534101464015E-02
 cg2d: Sum(rhs),rhsMax =  -3.33519878381594E-11  3.40084902784978E-02
 cg2d: Sum(rhs),rhsMax =  -3.45409256752305E-11  3.27667084775909E-02
 cg2d: Sum(rhs),rhsMax =  -3.57902596448412E-11  3.15284715247793E-02
 cg2d: Sum(rhs),rhsMax =  -3.71552788536178E-11  3.02941445825674E-02
 cg2d: Sum(rhs),rhsMax =  -3.86464193979918E-11  2.90640527699949E-02
 cg2d: Sum(rhs),rhsMax =  -4.01536581762230E-11  2.79003644644325E-02
 cg2d: Sum(rhs),rhsMax =  -4.11310985271029E-11  2.71655126796977E-02
 cg2d: Sum(rhs),rhsMax =  -4.22292201207597E-11  2.64271407732848E-02
 cg2d: Sum(rhs),rhsMax =  -4.34080549283067E-11  2.56849448521517E-02
 cg2d: Sum(rhs),rhsMax =  -4.46538361842386E-11  2.49386065722948E-02
 cg2d: Sum(rhs),rhsMax =  -4.59983162670596E-11  2.41877953235815E-02
 cg2d: Sum(rhs),rhsMax =  -4.74372763292763E-11  2.34321704909202E-02
 cg2d: Sum(rhs),rhsMax =  -4.89557283600561E-11  2.26713837842926E-02
 cg2d: Sum(rhs),rhsMax =  -5.06465980265602E-11  2.19050816295404E-02
 cg2d: Sum(rhs),rhsMax =  -5.24278398472688E-11  2.11329076128194E-02
 cg2d: Sum(rhs),rhsMax =  -5.43924905116455E-11  2.03545049705204E-02
 cg2d: Sum(rhs),rhsMax =  -5.64850388684590E-11  1.95695191140492E-02
 cg2d: Sum(rhs),rhsMax =  -5.88157300640546E-11  1.87776001799750E-02
 cg2d: Sum(rhs),rhsMax =  -6.13593620357733E-11  1.79784055955624E-02
 cg2d: Sum(rhs),rhsMax =  -6.41837694104197E-11  1.71716026492586E-02
 cg2d: Sum(rhs),rhsMax =  -6.72866207196421E-11  1.63568710553663E-02
 cg2d: Sum(rhs),rhsMax =  -7.07830460910941E-11  1.55339055019483E-02
 cg2d: Sum(rhs),rhsMax =  -7.46820383312752E-11  1.47024181709923E-02
 cg2d: Sum(rhs),rhsMax =  -7.91047227721720E-11  1.38621412199817E-02
 cg2d: Sum(rhs),rhsMax =  -8.41668956752528E-11  1.30128292143863E-02
 cg2d: Sum(rhs),rhsMax =  -9.00188812380520E-11  1.21542615004825E-02
 cg2d: Sum(rhs),rhsMax =  -9.68234381559796E-11  1.12862445086206E-02
 cg2d: Sum(rhs),rhsMax =  -1.04877106998913E-10  1.04086139777683E-02
 cg2d: Sum(rhs),rhsMax =  -1.14613207813363E-10  9.52123709243809E-03
 cg2d: Sum(rhs),rhsMax =  -1.26496590979741E-10  8.62401452347043E-03
 cg2d: Sum(rhs),rhsMax =  -1.41339051573652E-10  7.71688236468594E-03
 cg2d: Sum(rhs),rhsMax =  -1.60357171985481E-10  6.79981395803765E-03
 cg2d: Sum(rhs),rhsMax =  -1.85603532543155E-10  5.87282159520978E-03
 cg2d: Sum(rhs),rhsMax =  -2.20758966662515E-10  4.93595810553916E-03
 cg2d: Sum(rhs),rhsMax =  -1.85843784805684E-10  5.86141870069072E-03
 cg2d: Sum(rhs),rhsMax =  -1.59499025098597E-10  6.82622506783354E-03
 cg2d: Sum(rhs),rhsMax =  -1.39806499710460E-10  7.78692681840124E-03
 cg2d: Sum(rhs),rhsMax =  -1.24352500519009E-10  8.75094724510895E-03
 cg2d: Sum(rhs),rhsMax =  -1.11853496950753E-10  9.72223242889836E-03
 cg2d: Sum(rhs),rhsMax =  -1.01642930183665E-10  1.06895264583438E-02
 cg2d: Sum(rhs),rhsMax =  -9.30171772939303E-11  1.16712679892381E-02
 cg2d: Sum(rhs),rhsMax =  -8.57024173850363E-11  1.26518831762649E-02
 cg2d: Sum(rhs),rhsMax =  -7.94694865469125E-11  1.36440533068888E-02
 cg2d: Sum(rhs),rhsMax =  -7.38616390272284E-11  1.46518760504380E-02
 cg2d: Sum(rhs),rhsMax =  -6.90548174198113E-11  1.56518772806783E-02
 cg2d: Sum(rhs),rhsMax =  -6.48784914680789E-11  1.66437130089737E-02
 cg2d: Sum(rhs),rhsMax =  -6.11771744374323E-11  1.76270164943741E-02
 cg2d: Sum(rhs),rhsMax =  -5.78950221097330E-11  1.86013988269038E-02
 cg2d: Sum(rhs),rhsMax =  -5.50108847363617E-11  1.95664496278177E-02
 cg2d: Sum(rhs),rhsMax =  -5.23994181378384E-11  2.05217378611714E-02
 cg2d: Sum(rhs),rhsMax =  -5.01183539114436E-11  2.14668127508770E-02
 cg2d: Sum(rhs),rhsMax =  -4.80692152748929E-11  2.24012047972539E-02
 cg2d: Sum(rhs),rhsMax =  -4.61696236797593E-11  2.33244268869731E-02
 cg2d: Sum(rhs),rhsMax =  -4.44854153514029E-11  2.42359754902950E-02
 cg2d: Sum(rhs),rhsMax =  -4.29350999198164E-11  2.51353319396831E-02
 cg2d: Sum(rhs),rhsMax =  -4.15113499130371E-11  2.60219637842347E-02
 cg2d: Sum(rhs),rhsMax =  -4.01795263726967E-11  2.68953262148655E-02
 cg2d: Sum(rhs),rhsMax =  -3.89830390190582E-11  2.77548635557348E-02
 cg2d: Sum(rhs),rhsMax =  -3.78557185598538E-11  2.86000108179825E-02
 cg2d: Sum(rhs),rhsMax =  -3.68116648274963E-11  2.94301953123852E-02
 cg2d: Sum(rhs),rhsMax =  -3.58544305356645E-11  3.02448383177024E-02
 cg2d: Sum(rhs),rhsMax =  -3.49905660002037E-11  3.10433568015762E-02
 cg2d: Sum(rhs),rhsMax =  -3.42190720203916E-11  3.18251651906470E-02
 cg2d: Sum(rhs),rhsMax =  -3.34493543974190E-11  3.25896771859909E-02
 cg2d: Sum(rhs),rhsMax =  -3.28289617712585E-11  3.33363076190116E-02
 cg2d: Sum(rhs),rhsMax =  -3.21568327521504E-11  3.40644743416395E-02
 cg2d: Sum(rhs),rhsMax =  -3.15714121512656E-11  3.47736001430067E-02
 cg2d: Sum(rhs),rhsMax =  -3.10245162893352E-11  3.54631146827555E-02
 cg2d: Sum(rhs),rhsMax =  -3.04971603526383E-11  3.61324564297042E-02
 cg2d: Sum(rhs),rhsMax =  -3.00116598239697E-11  3.67810745928342E-02
 cg2d: Sum(rhs),rhsMax =  -2.95599100752497E-11  3.74084310299297E-02
 cg2d: Sum(rhs),rhsMax =  -2.91344726122134E-11  3.80140021192902E-02
 cg2d: Sum(rhs),rhsMax =  -2.87495582895758E-11  3.85972805777713E-02
 cg2d: Sum(rhs),rhsMax =  -2.83824075353323E-11  3.91577772097929E-02
 cg2d: Sum(rhs),rhsMax =  -2.80342415948098E-11  3.96950225730675E-02
 cg2d: Sum(rhs),rhsMax =  -2.76928480147376E-11  4.02085685485106E-02
 cg2d: Sum(rhs),rhsMax =  -2.73907563297371E-11  4.06979898040015E-02
 cg2d: Sum(rhs),rhsMax =  -2.71336286772339E-11  4.11628851453887E-02
 cg2d: Sum(rhs),rhsMax =  -2.68736144448667E-11  4.16028787472498E-02
 cg2d: Sum(rhs),rhsMax =  -2.66195954168325E-11  4.20176212618982E-02
 cg2d: Sum(rhs),rhsMax =  -2.64179789155605E-11  4.24067908087822E-02
 cg2d: Sum(rhs),rhsMax =  -2.62236898862511E-11  4.27700938468075E-02
 cg2d: Sum(rhs),rhsMax =  -2.60305110799663E-11  4.31072659337791E-02
 cg2d: Sum(rhs),rhsMax =  -2.58675303399514E-11  4.34180723783569E-02
 cg2d: Sum(rhs),rhsMax =  -2.57559529259765E-11  4.37023087905577E-02
 cg2d: Sum(rhs),rhsMax =  -2.56551446753406E-11  4.39598015368771E-02
 cg2d: Sum(rhs),rhsMax =  -2.55709897700740E-11  4.41904081055995E-02
 cg2d: Sum(rhs),rhsMax =  -2.55019338979423E-11  4.43940173869346E-02
 cg2d: Sum(rhs),rhsMax =  -2.54323229142983E-11  4.45705498680303E-02
 cg2d: Sum(rhs),rhsMax =  -2.53664866889380E-11  4.47199577527849E-02
 cg2d: Sum(rhs),rhsMax =  -2.53256304816318E-11  4.48422250058745E-02
 cg2d: Sum(rhs),rhsMax =  -2.53315146636623E-11  4.49373673156319E-02
 cg2d: Sum(rhs),rhsMax =  -2.53155274521077E-11  4.50054319754442E-02
 cg2d: Sum(rhs),rhsMax =  -2.53119747384289E-11  4.50464976828815E-02
 cg2d: Sum(rhs),rhsMax =  -2.53398413363470E-11  4.50606742593284E-02
 cg2d: Sum(rhs),rhsMax =  -2.53916887515970E-11  4.50481022798799E-02
 cg2d: Sum(rhs),rhsMax =  -2.54608556460312E-11  4.50089526114476E-02
 cg2d: Sum(rhs),rhsMax =  -2.55416798822239E-11  4.49434258651111E-02
 cg2d: Sum(rhs),rhsMax =  -2.56776822027405E-11  4.48517517615162E-02
 cg2d: Sum(rhs),rhsMax =  -2.58075782966216E-11  4.47341884039617E-02
 cg2d: Sum(rhs),rhsMax =  -2.59491317322613E-11  4.45910214622769E-02
 cg2d: Sum(rhs),rhsMax =  -2.61130006506960E-11  4.44225632678905E-02
 cg2d: Sum(rhs),rhsMax =  -2.62857513533277E-11  4.42291518215489E-02
 cg2d: Sum(rhs),rhsMax =  -2.63351562779235E-11  4.40111497171143E-02
 cg2d: Sum(rhs),rhsMax =  -2.64310795472511E-11  4.37689429811013E-02
 cg2d: Sum(rhs),rhsMax =  -2.65433230950407E-11  4.35029398347130E-02
(PID.TID 0000.0001)      cg2d_init_res =   3.22779071398419E-02
(PID.TID 0000.0001)      cg2d_iters(min,last) =      -1      35
(PID.TID 0000.0001)      cg2d_last_res =   7.31869141802862E-14
(PID.TID 0000.0001) // =======================================================
(PID.TID 0000.0001) // Begin MONITOR dynamic field statistics
(PID.TID 0000.0001) // =======================================================
(PID.TID 0000.0001) %MON time_tsnumber                =                  1440
(PID.TID 0000.0001) %MON time_secondsf                =   2.1600000000000E+04
(PID.TID 0000.0001) %MON dynstat_eta_max              =   8.7769843362778E-03
(PID.TID 0000.0001) %MON dynstat_eta_min              =  -7.3521319317740E-03
(PID.TID 0000.0001) %MON dynstat_eta_mean             =   2.4738133695636E-15
(PID.TID 0000.0001) %MON dynstat_eta_sd               =   5.4090303552373E-03
(PID.TID 0000.0001) %MON dynstat_eta_del2             =   2.3310574907852E-06
(PID.TID 0000.0001) %MON dynstat_uvel_max             =   3.6927615699935E-01
(PID.TID 0000.0001) %MON dynstat_uvel_min             =  -1.0682731681289E-01
(PID.TID 0000.0001) %MON dynstat_uvel_mean            =   6.7825221533721E-02
(PID.TID 0000.0001) %MON dynstat_uvel_sd              =   2.2311137364337E-02
(PID.TID 0000.0001) %MON dynstat_uvel_del2            =   6.1173556314306E-05
(PID.TID 0000.0001) %MON dynstat_vvel_max             =   0.0000000000000E+00
(PID.TID 0000.0001) %MON dynstat_vvel_min             =   0.0000000000000E+00
(PID.TID 0000.0001) %MON dynstat_vvel_mean            =   0.0000000000000E+00
(PID.TID 0000.0001) %MON dynstat_vvel_sd              =   0.0000000000000E+00
(PID.TID 0000.0001) %MON dynstat_vvel_del2            =   0.0000000000000E+00
(PID.TID 0000.0001) %MON dynstat_wvel_max             =   4.4879498832112E-03
(PID.TID 0000.0001) %MON dynstat_wvel_min             =  -4.6065974814519E-03
(PID.TID 0000.0001) %MON dynstat_wvel_mean            =  -2.0733497783372E-21
(PID.TID 0000.0001) %MON dynstat_wvel_sd              =   2.6147304484226E-04
(PID.TID 0000.0001) %MON dynstat_wvel_del2            =   4.0947232860437E-06
(PID.TID 0000.0001) %MON dynstat_theta_max            =   1.5000000000005E+01
(PID.TID 0000.0001) %MON dynstat_theta_min            =   9.9999999999974E+00
(PID.TID 0000.0001) %MON dynstat_theta_mean           =   1.3335043388879E+01
(PID.TID 0000.0001) %MON dynstat_theta_sd             =   2.3169554298000E+00
(PID.TID 0000.0001) %MON dynstat_theta_del2           =   2.9710818342321E-04
(PID.TID 0000.0001) %MON dynstat_salt_max             =   3.5000000000000E+01
(PID.TID 0000.0001) %MON dynstat_salt_min             =   3.5000000000000E+01
(PID.TID 0000.0001) %MON dynstat_salt_mean            =   3.5000000000000E+01
(PID.TID 0000.0001) %MON dynstat_salt_sd              =   2.1316282072803E-14
(PID.TID 0000.0001) %MON dynstat_salt_del2            =   0.0000000000000E+00
(PID.TID 0000.0001) %MON dynstat_sst_max              =   1.5000000000001E+01
(PID.TID 0000.0001) %MON dynstat_sst_min              =   1.4999999999997E+01
(PID.TID 0000.0001) %MON dynstat_sst_mean             =   1.4999999999998E+01
(PID.TID 0000.0001) %MON dynstat_sst_sd               =   9.7485839479490E-13
(PID.TID 0000.0001) %MON dynstat_sst_del2             =   1.8525179137092E-14
(PID.TID 0000.0001) %MON dynstat_sss_max              =   3.5000000000000E+01
(PID.TID 0000.0001) %MON dynstat_sss_min              =   3.5000000000000E+01
(PID.TID 0000.0001) %MON dynstat_sss_mean             =   3.5000000000000E+01
(PID.TID 0000.0001) %MON dynstat_sss_sd               =   7.8159700933611E-14
(PID.TID 0000.0001) %MON dynstat_sss_del2             =   0.0000000000000E+00
(PID.TID 0000.0001) %MON forcing_qnet_max             =   0.0000000000000E+00
(PID.TID 0000.0001) %MON forcing_qnet_min             =   0.0000000000000E+00
(PID.TID 0000.0001) %MON forcing_qnet_mean            =   0.0000000000000E+00
(PID.TID 0000.0001) %MON forcing_qnet_sd              =   0.0000000000000E+00
(PID.TID 0000.0001) %MON forcing_qnet_del2            =   0.0000000000000E+00
(PID.TID 0000.0001) %MON forcing_qsw_max              =   0.0000000000000E+00
(PID.TID 0000.0001) %MON forcing_qsw_min              =   0.0000000000000E+00
(PID.TID 0000.0001) %MON forcing_qsw_mean             =   0.0000000000000E+00
(PID.TID 0000.0001) %MON forcing_qsw_sd               =   0.0000000000000E+00
(PID.TID 0000.0001) %MON forcing_qsw_del2             =   0.0000000000000E+00
(PID.TID 0000.0001) %MON forcing_empmr_max            =   0.0000000000000E+00
(PID.TID 0000.0001) %MON forcing_empmr_min            =   0.0000000000000E+00
(PID.TID 0000.0001) %MON forcing_empmr_mean           =   0.0000000000000E+00
(PID.TID 0000.0001) %MON forcing_empmr_sd             =   0.0000000000000E+00
(PID.TID 0000.0001) %MON forcing_empmr_del2           =   0.0000000000000E+00
(PID.TID 0000.0001) %MON forcing_fu_max               =   0.0000000000000E+00
(PID.TID 0000.0001) %MON forcing_fu_min               =   0.0000000000000E+00
(PID.TID 0000.0001) %MON forcing_fu_mean              =   0.0000000000000E+00
(PID.TID 0000.0001) %MON forcing_fu_sd                =   0.0000000000000E+00
(PID.TID 0000.0001) %MON forcing_fu_del2              =   0.0000000000000E+00
(PID.TID 0000.0001) %MON forcing_fv_max               =   0.0000000000000E+00
(PID.TID 0000.0001) %MON forcing_fv_min               =   0.0000000000000E+00
(PID.TID 0000.0001) %MON forcing_fv_mean              =   0.0000000000000E+00
(PID.TID 0000.0001) %MON forcing_fv_sd                =   0.0000000000000E+00
(PID.TID 0000.0001) %MON forcing_fv_del2              =   0.0000000000000E+00
(PID.TID 0000.0001) %MON advcfl_uvel_max              =   2.7695711774951E-02
(PID.TID 0000.0001) %MON advcfl_vvel_max              =   0.0000000000000E+00
(PID.TID 0000.0001) %MON advcfl_wvel_max              =   4.1075997268727E-02
(PID.TID 0000.0001) %MON advcfl_W_hf_max              =   4.1419681617358E-02
(PID.TID 0000.0001) %MON pe_b_mean                    =   7.3094639053588E-07
(PID.TID 0000.0001) %MON ke_max                       =   4.7179811741427E-02
(PID.TID 0000.0001) %MON ke_mean                      =   2.5511709365187E-03
(PID.TID 0000.0001) %MON ke_vol                       =   9.5889217545975E+10
(PID.TID 0000.0001) %MON vort_r_min                   =   0.0000000000000E+00
(PID.TID 0000.0001) %MON vort_r_max                   =   0.0000000000000E+00
(PID.TID 0000.0001) %MON vort_a_mean                  =   0.0000000000000E+00
(PID.TID 0000.0001) %MON vort_a_sd                    =   0.0000000000000E+00
(PID.TID 0000.0001) %MON vort_p_mean                  =   0.0000000000000E+00
(PID.TID 0000.0001) %MON vort_p_sd                    =   0.0000000000000E+00
(PID.TID 0000.0001) %MON surfExpan_theta_mean         =   6.1335704003987E-20
(PID.TID 0000.0001) %MON surfExpan_salt_mean          =  -3.1424364480221E-20
(PID.TID 0000.0001) // =======================================================
(PID.TID 0000.0001) // End MONITOR dynamic field statistics
(PID.TID 0000.0001) // =======================================================
(PID.TID 0000.0001) // =======================================================
(PID.TID 0000.0001) // Begin OBCS MONITOR field statistics
(PID.TID 0000.0001) // =======================================================
(PID.TID 0000.0001) %MON obc_E_uVel_max               =   6.6809804669674E-02
(PID.TID 0000.0001) %MON obc_E_uVel_min               =   6.6809804669674E-02
(PID.TID 0000.0001) %MON obc_E_uVel_mean              =   6.6809804669674E-02
(PID.TID 0000.0001) %MON obc_E_uVel_sd                =  -1.7347234759768E-18
(PID.TID 0000.0001) %MON obc_E_uVel_Int               =   6.6809804669674E+04
(PID.TID 0000.0001) %MON obc_W_uVel_max               =   6.6809804669674E-02
(PID.TID 0000.0001) %MON obc_W_uVel_min               =   6.6809804669674E-02
(PID.TID 0000.0001) %MON obc_W_uVel_mean              =   6.6809804669674E-02
(PID.TID 0000.0001) %MON obc_W_uVel_sd                =  -1.7347234759768E-18
(PID.TID 0000.0001) %MON obc_W_uVel_Int               =   6.6809804669674E+04
(PID.TID 0000.0001) // =======================================================
(PID.TID 0000.0001) // End OBCS MONITOR field statistics
(PID.TID 0000.0001) // =======================================================
(PID.TID 0000.0001) %CHECKPOINT      1440 0000001440
 cg2d: Sum(rhs),rhsMax =  -2.67054156566360E-11  4.32135693825973E-02
 cg2d: Sum(rhs),rhsMax =  -2.68687294635583E-11  4.29012802324470E-02
 cg2d: Sum(rhs),rhsMax =  -2.71080935476675E-11  4.25665390500443E-02
 cg2d: Sum(rhs),rhsMax =  -2.73524536353875E-11  4.22098290549462E-02
 cg2d: Sum(rhs),rhsMax =  -2.76030309720454E-11  4.18316484625519E-02
 cg2d: Sum(rhs),rhsMax =  -2.78740364123564E-11  4.14325088787025E-02
 cg2d: Sum(rhs),rhsMax =  -2.82013301600159E-11  4.10129336531819E-02
 cg2d: Sum(rhs),rhsMax =  -2.84685608420432E-11  4.05734561927536E-02
 cg2d: Sum(rhs),rhsMax =  -2.87359025463729E-11  4.01146182595625E-02
 cg2d: Sum(rhs),rhsMax =  -2.89758217419944E-11  3.96369682452936E-02
 cg2d: Sum(rhs),rhsMax =  -2.92762480924580E-11  3.91410594291745E-02
 cg2d: Sum(rhs),rhsMax =  -2.96254132337026E-11  3.86274482283792E-02
 cg2d: Sum(rhs),rhsMax =  -3.00136582254140E-11  3.80966924479749E-02
 cg2d: Sum(rhs),rhsMax =  -3.04158920272357E-11  3.75493495385926E-02
 cg2d: Sum(rhs),rhsMax =  -3.08223446765510E-11  3.69859748752983E-02
 cg2d: Sum(rhs),rhsMax =  -3.12991854656275E-11  3.64071200561646E-02
 cg2d: Sum(rhs),rhsMax =  -3.17397219617988E-11  3.58133312271519E-02
 cg2d: Sum(rhs),rhsMax =  -3.22413207243244E-11  3.52051474404730E-02
 cg2d: Sum(rhs),rhsMax =  -3.27720073300952E-11  3.45830990534651E-02
 cg2d: Sum(rhs),rhsMax =  -3.33121308315754E-11  3.39477061760485E-02
 cg2d: Sum(rhs),rhsMax =  -3.38982175662750E-11  3.32994771681639E-02
 cg2d: Sum(rhs),rhsMax =  -3.45218298392069E-11  3.26389071964212E-02
 cg2d: Sum(rhs),rhsMax =  -3.51837448064884E-11  3.19664768569991E-02
 cg2d: Sum(rhs),rhsMax =  -3.58468810190971E-11  3.12826508694870E-02
 cg2d: Sum(rhs),rhsMax =  -3.66104924154342E-11  3.05878768478275E-02
 cg2d: Sum(rhs),rhsMax =  -3.73894248895112E-11  2.98825841539132E-02
 cg2d: Sum(rhs),rhsMax =  -3.81970011176236E-11  2.91671828287598E-02
 cg2d: Sum(rhs),rhsMax =  -3.90686372142568E-11  2.84420626180710E-02
 cg2d: Sum(rhs),rhsMax =  -4.00841582148814E-11  2.77075920959700E-02
 cg2d: Sum(rhs),rhsMax =  -4.11713996228968E-11  2.69641178895706E-02
 cg2d: Sum(rhs),rhsMax =  -4.23443502484133E-11  2.62119640064632E-02
 cg2d: Sum(rhs),rhsMax =  -4.36312097562563E-11  2.54514312674736E-02
 cg2d: Sum(rhs),rhsMax =  -4.49577042260785E-11  2.46827968472428E-02
 cg2d: Sum(rhs),rhsMax =  -4.63816762774627E-11  2.39063139269433E-02
 cg2d: Sum(rhs),rhsMax =  -4.79583039947329E-11  2.31222114580411E-02
 cg2d: Sum(rhs),rhsMax =  -4.95927743315860E-11  2.23306940384296E-02
 cg2d: Sum(rhs),rhsMax =  -5.14487341618519E-11  2.15319419018507E-02
 cg2d: Sum(rhs),rhsMax =  -5.33718624851076E-11  2.07261110210492E-02
 cg2d: Sum(rhs),rhsMax =  -5.55897550214013E-11  1.99133333246201E-02
 cg2d: Sum(rhs),rhsMax =  -5.79897241337335E-11  1.90937170270260E-02
 cg2d: Sum(rhs),rhsMax =  -6.06475980546861E-11  1.82673470713628E-02
 cg2d: Sum(rhs),rhsMax =  -6.35964614303930E-11  1.74342856836661E-02
 cg2d: Sum(rhs),rhsMax =  -6.68655131264018E-11  1.65945730372758E-02
 cg2d: Sum(rhs),rhsMax =  -7.05489000552006E-11  1.57482280255527E-02
 cg2d: Sum(rhs),rhsMax =  -7.46730455247757E-11  1.48952491409671E-02
 cg2d: Sum(rhs),rhsMax =  -7.93349830274792E-11  1.40356154582474E-02
 cg2d: Sum(rhs),rhsMax =  -8.46205328031147E-11  1.31692877188586E-02
 cg2d: Sum(rhs),rhsMax =  -9.07725006271676E-11  1.22962095132048E-02
 cg2d: Sum(rhs),rhsMax =  -9.78354619540767E-11  1.14163085568867E-02
 cg2d: Sum(rhs),rhsMax =  -1.06170405800299E-10  1.05294980567741E-02
 cg2d: Sum(rhs),rhsMax =  -1.16108511694080E-10  9.63567816201274E-03
 cg2d: Sum(rhs),rhsMax =  -1.28188598624845E-10  8.73473749414339E-03
 cg2d: Sum(rhs),rhsMax =  -1.43177532330174E-10  7.82655474763833E-03
 cg2d: Sum(rhs),rhsMax =  -1.62314384155593E-10  6.91100036520165E-03
 cg2d: Sum(rhs),rhsMax =  -1.87490079017749E-10  5.98793827122611E-03
 cg2d: Sum(rhs),rhsMax =  -2.22060925203493E-10  5.05722765747246E-03
 cg2d: Sum(rhs),rhsMax =  -2.72760924957538E-10  4.11872481662065E-03
 cg2d: Sum(rhs),rhsMax =  -2.33970176566345E-10  4.80324463472049E-03
 cg2d: Sum(rhs),rhsMax =  -1.97946992130937E-10  5.67807787709237E-03
 cg2d: Sum(rhs),rhsMax =  -1.71337943832839E-10  6.56247508544880E-03
 cg2d: Sum(rhs),rhsMax =  -1.50920942409982E-10  7.45180761569116E-03
 cg2d: Sum(rhs),rhsMax =  -1.34642408333718E-10  8.35546160966359E-03
 cg2d: Sum(rhs),rhsMax =  -1.21385901330484E-10  9.27093456086740E-03
 cg2d: Sum(rhs),rhsMax =  -1.10446762846550E-10  1.01997740950834E-02
 cg2d: Sum(rhs),rhsMax =  -1.01338271107920E-10  1.11315204868513E-02
 cg2d: Sum(rhs),rhsMax =  -9.36224431313804E-11  1.20590703806991E-02
 cg2d: Sum(rhs),rhsMax =  -8.70643557249196E-11  1.29823788875789E-02
 cg2d: Sum(rhs),rhsMax =  -8.13749068129255E-11  1.39014031465267E-02
 cg2d: Sum(rhs),rhsMax =  -7.64379670670223E-11  1.48161008932667E-02
 cg2d: Sum(rhs),rhsMax =  -7.20996595759971E-11  1.57264290479639E-02
 cg2d: Sum(rhs),rhsMax =  -6.82724987655092E-11  1.66323423290962E-02
 cg2d: Sum(rhs),rhsMax =  -6.48339160136402E-11  1.75337919027766E-02
 cg2d: Sum(rhs),rhsMax =  -6.17208506525913E-11  1.84307240783079E-02
 cg2d: Sum(rhs),rhsMax =  -5.89279736118442E-11  1.93230790610770E-02
 cg2d: Sum(rhs),rhsMax =  -5.63704638523177E-11  2.02107897733410E-02
 cg2d: Sum(rhs),rhsMax =  -5.40985034547248E-11  2.10937807523027E-02
 cg2d: Sum(rhs),rhsMax =  -5.19728704517775E-11  2.19719671333198E-02
 cg2d: Sum(rhs),rhsMax =  -5.00466335040528E-11  2.28452537242478E-02
 cg2d: Sum(rhs),rhsMax =  -4.83570961051782E-11  2.37135341749194E-02
 cg2d: Sum(rhs),rhsMax =  -4.67553773475515E-11  2.45766902437405E-02
 cg2d: Sum(rhs),rhsMax =  -4.52731185873745E-11  2.54345911610440E-02
 cg2d: Sum(rhs),rhsMax =  -4.39364100657258E-11  2.62870930878251E-02
 cg2d: Sum(rhs),rhsMax =  -4.26180202239834E-11  2.71340386718017E-02
 cg2d: Sum(rhs),rhsMax =  -4.14679401927742E-11  2.79752566908805E-02
 cg2d: Sum(rhs),rhsMax =  -4.03630462386673E-11  2.88105617825517E-02
 cg2d: Sum(rhs),rhsMax =  -3.93023391609404E-11  2.96397542573852E-02
 cg2d: Sum(rhs),rhsMax =  -3.83084675092960E-11  3.04626199938133E-02
 cg2d: Sum(rhs),rhsMax =  -3.73976405398935E-11  3.12789304117963E-02
 cg2d: Sum(rhs),rhsMax =  -3.65156793691312E-11  3.20884425235655E-02
 cg2d: Sum(rhs),rhsMax =  -3.56801255207984E-11  3.28908990602427E-02
 cg2d: Sum(rhs),rhsMax =  -3.49134054999922E-11  3.36860286735580E-02
 cg2d: Sum(rhs),rhsMax =  -3.41888739541218E-11  3.44735462120914E-02
 cg2d: Sum(rhs),rhsMax =  -3.34876570917686E-11  3.52531530714465E-02
 cg2d: Sum(rhs),rhsMax =  -3.26071392109384E-11  3.62598559136861E-02
 cg2d: Sum(rhs),rhsMax =  -3.16441317593785E-11  3.74459573027168E-02
 cg2d: Sum(rhs),rhsMax =  -3.07366354590499E-11  3.86296526758492E-02
 cg2d: Sum(rhs),rhsMax =  -2.98681079868857E-11  3.98100286626140E-02
 cg2d: Sum(rhs),rhsMax =  -2.90499846400394E-11  4.09861441561922E-02
 cg2d: Sum(rhs),rhsMax =  -2.82918133365229E-11  4.21570320555011E-02
 cg2d: Sum(rhs),rhsMax =  -2.75438560848329E-11  4.33217011205953E-02
 cg2d: Sum(rhs),rhsMax =  -2.68707278650027E-11  4.44791379366283E-02
 cg2d: Sum(rhs),rhsMax =  -2.62637689374401E-11  4.56283089809452E-02
 cg2d: Sum(rhs),rhsMax =  -2.56769050466232E-11  4.67681627870672E-02
 cg2d: Sum(rhs),rhsMax =  -2.51610954293824E-11  4.78976322016482E-02
 cg2d: Sum(rhs),rhsMax =  -2.46281883775623E-11  4.90156367253306E-02
 cg2d: Sum(rhs),rhsMax =  -2.41320297078573E-11  5.01210849301661E-02
 cg2d: Sum(rhs),rhsMax =  -2.36594077662744E-11  5.12128769454105E-02
 cg2d: Sum(rhs),rhsMax =  -2.32217578499672E-11  5.22899070032216E-02
 cg2d: Sum(rhs),rhsMax =  -2.28290719661572E-11  5.33510660353245E-02
 cg2d: Sum(rhs),rhsMax =  -2.24020801908864E-11  5.43952443112673E-02
 cg2d: Sum(rhs),rhsMax =  -2.20315987675690E-11  5.54213341085209E-02
 cg2d: Sum(rhs),rhsMax =  -2.16621165449737E-11  5.64282324044089E-02
 cg2d: Sum(rhs),rhsMax =  -2.13286055483763E-11  5.74148435796826E-02
 cg2d: Sum(rhs),rhsMax =  -2.10089723395868E-11  5.83800821235131E-02
 cg2d: Sum(rhs),rhsMax =  -2.06814565473223E-11  5.93228753297105E-02
 cg2d: Sum(rhs),rhsMax =  -2.04058991926104E-11  6.02421659741002E-02
 cg2d: Sum(rhs),rhsMax =  -2.01459959825456E-11  6.11369149631462E-02
 cg2d: Sum(rhs),rhsMax =  -1.99215088869664E-11  6.20061039441046E-02
 cg2d: Sum(rhs),rhsMax =  -1.96773708438513E-11  6.28487378672119E-02
 cg2d: Sum(rhs),rhsMax =  -1.94833038591469E-11  6.36638474906537E-02
 cg2d: Sum(rhs),rhsMax =  -1.92530436038396E-11  6.44504918193163E-02
 cg2d: Sum(rhs),rhsMax =  -1.90334414895688E-11  6.52077604686121E-02
 cg2d: Sum(rhs),rhsMax =  -1.88835613812444E-11  6.59347759449751E-02
 cg2d: Sum(rhs),rhsMax =  -1.86820559022749E-11  6.66306958350355E-02
 cg2d: Sum(rhs),rhsMax =  -1.85154114262787E-11  6.72947148956251E-02
 cg2d: Sum(rhs),rhsMax =  -1.83835169309532E-11  6.79260670372608E-02
 cg2d: Sum(rhs),rhsMax =  -1.82177606333767E-11  6.85240271943463E-02
 cg2d: Sum(rhs),rhsMax =  -1.80816472905576E-11  6.90879130757192E-02
 cg2d: Sum(rhs),rhsMax =  -1.80059300802782E-11  6.96170867895674E-02
 cg2d: Sum(rhs),rhsMax =  -1.78579373510956E-11  7.01109563371937E-02
 cg2d: Sum(rhs),rhsMax =  -1.77614589702557E-11  7.05689769706450E-02
 cg2d: Sum(rhs),rhsMax =  -1.76574310728483E-11  7.09906524098120E-02
 cg2d: Sum(rhs),rhsMax =  -1.75842673755255E-11  7.13755359165752E-02
 cg2d: Sum(rhs),rhsMax =  -1.75193193285850E-11  7.17232312200643E-02
 cg2d: Sum(rhs),rhsMax =  -1.74269487729362E-11  7.20333932903328E-02
 cg2d: Sum(rhs),rhsMax =  -1.73883130116792E-11  7.23057289610549E-02
 cg2d: Sum(rhs),rhsMax =  -1.73765446476182E-11  7.25399973996861E-02
 cg2d: Sum(rhs),rhsMax =  -1.73239200762509E-11  7.27360104240573E-02
 cg2d: Sum(rhs),rhsMax =  -1.72835079581546E-11  7.28936326650100E-02
 cg2d: Sum(rhs),rhsMax =  -1.72777347984265E-11  7.30127815745680E-02
 cg2d: Sum(rhs),rhsMax =  -1.72797331998709E-11  7.30934272763948E-02
 cg2d: Sum(rhs),rhsMax =  -1.72940550768885E-11  7.31355922780677E-02
 cg2d: Sum(rhs),rhsMax =  -1.73188130503377E-11  7.31393510311115E-02
 cg2d: Sum(rhs),rhsMax =  -1.73149272697515E-11  7.31048293422574E-02
 cg2d: Sum(rhs),rhsMax =  -1.73627778821128E-11  7.30322036433870E-02
 cg2d: Sum(rhs),rhsMax =  -1.73736580677541E-11  7.29217001253116E-02
 cg2d: Sum(rhs),rhsMax =  -1.73355774180095E-11  7.27735937227828E-02
 cg2d: Sum(rhs),rhsMax =  -1.73087100208136E-11  7.25882069721058E-02
 cg2d: Sum(rhs),rhsMax =  -1.73417946669474E-11  7.23659087483769E-02
 cg2d: Sum(rhs),rhsMax =  -1.74439351852129E-11  7.21071128859581E-02
 cg2d: Sum(rhs),rhsMax =  -1.74876779723832E-11  7.18122766861648E-02
 cg2d: Sum(rhs),rhsMax =  -1.75655046064094E-11  7.14818993175327E-02
 cg2d: Sum(rhs),rhsMax =  -1.76506587123981E-11  7.11165201154765E-02
 cg2d: Sum(rhs),rhsMax =  -1.77378112198312E-11  7.07167167892225E-02
 cg2d: Sum(rhs),rhsMax =  -1.78599357525400E-11  7.02831035453564E-02
 cg2d: Sum(rhs),rhsMax =  -1.79273262901347E-11  6.98163291349936E-02
 cg2d: Sum(rhs),rhsMax =  -1.80411241501588E-11  6.93170748337865E-02
 cg2d: Sum(rhs),rhsMax =  -1.81875625671069E-11  6.87860523660135E-02
 cg2d: Sum(rhs),rhsMax =  -1.82617254651518E-11  6.82240017815473E-02
 cg2d: Sum(rhs),rhsMax =  -1.84230408706298E-11  6.76316892947139E-02
 cg2d: Sum(rhs),rhsMax =  -1.85813586739414E-11  6.70099050890014E-02
 cg2d: Sum(rhs),rhsMax =  -1.87424520348145E-11  6.63594611056793E-02
 cg2d: Sum(rhs),rhsMax =  -1.89055437971319E-11  6.56811888237573E-02
 cg2d: Sum(rhs),rhsMax =  -1.90735205407577E-11  6.49759370431063E-02
 cg2d: Sum(rhs),rhsMax =  -1.92365012807727E-11  6.42445696659806E-02
 cg2d: Sum(rhs),rhsMax =  -1.94271265741008E-11  6.34879634870725E-02
 cg2d: Sum(rhs),rhsMax =  -1.96251903616940E-11  6.27070060017297E-02
 cg2d: Sum(rhs),rhsMax =  -1.98239202831019E-11  6.19025932406104E-02
 cg2d: Sum(rhs),rhsMax =  -2.00687244600317E-11  6.10756276374671E-02
 cg2d: Sum(rhs),rhsMax =  -2.03153049938010E-11  6.02270159406129E-02
 cg2d: Sum(rhs),rhsMax =  -2.05788719398470E-11  5.93576671632588E-02
 cg2d: Sum(rhs),rhsMax =  -2.08573158744230E-11  5.84684905756707E-02
 cg2d: Sum(rhs),rhsMax =  -2.11448636378009E-11  5.75603937573267E-02
 cg2d: Sum(rhs),rhsMax =  -2.14472883897088E-11  5.66342807057160E-02
 cg2d: Sum(rhs),rhsMax =  -2.17920126388549E-11  5.56910500142753E-02
 cg2d: Sum(rhs),rhsMax =  -2.21123119814592E-11  5.47315931173733E-02
 cg2d: Sum(rhs),rhsMax =  -2.24706919738082E-11  5.37567926099862E-02
 cg2d: Sum(rhs),rhsMax =  -2.28443930438971E-11  5.27675206454629E-02
 cg2d: Sum(rhs),rhsMax =  -2.31866748023890E-11  5.17646374150612E-02
 cg2d: Sum(rhs),rhsMax =  -2.35872432696738E-11  5.07489897134440E-02
 cg2d: Sum(rhs),rhsMax =  -2.40356623493199E-11  4.97214095937550E-02
 cg2d: Sum(rhs),rhsMax =  -2.44620990130784E-11  4.86827131154873E-02
 cg2d: Sum(rhs),rhsMax =  -2.49302800625628E-11  4.76336991882512E-02
 cg2d: Sum(rhs),rhsMax =  -2.54141152566945E-11  4.65751485139396E-02
 cg2d: Sum(rhs),rhsMax =  -2.59264831825590E-11  4.55078226278151E-02
 cg2d: Sum(rhs),rhsMax =  -2.64961386164941E-11  4.44324630435366E-02
 cg2d: Sum(rhs),rhsMax =  -2.71370703686102E-11  4.33497904991116E-02
 cg2d: Sum(rhs),rhsMax =  -2.77862177711086E-11  4.22605043039869E-02
 cg2d: Sum(rhs),rhsMax =  -2.84681167528333E-11  4.11652817875558E-02
 cg2d: Sum(rhs),rhsMax =  -2.92119661793322E-11  4.00647778488455E-02
 cg2d: Sum(rhs),rhsMax =  -2.99579250295778E-11  3.89596246070762E-02
 cg2d: Sum(rhs),rhsMax =  -3.08132408477491E-11  3.78504311517383E-02
 cg2d: Sum(rhs),rhsMax =  -3.16386916665579E-11  3.67377833904414E-02
 cg2d: Sum(rhs),rhsMax =  -3.26124682814566E-11  3.56222439901776E-02
 cg2d: Sum(rhs),rhsMax =  -3.35852456956331E-11  3.45043524107413E-02
 cg2d: Sum(rhs),rhsMax =  -3.46745965273954E-11  3.33846250379489E-02
 cg2d: Sum(rhs),rhsMax =  -3.58005847189702E-11  3.22635554007103E-02
 cg2d: Sum(rhs),rhsMax =  -3.70157238194224E-11  3.11416144701045E-02
 cg2d: Sum(rhs),rhsMax =  -3.82994747027965E-11  3.00192510384893E-02
 cg2d: Sum(rhs),rhsMax =  -3.96982446915217E-11  2.88968921760694E-02
 cg2d: Sum(rhs),rhsMax =  -4.10880218737475E-11  2.78491489570658E-02
 cg2d: Sum(rhs),rhsMax =  -4.21427337471414E-11  2.70740950882075E-02
 cg2d: Sum(rhs),rhsMax =  -4.33391100784775E-11  2.62922389443255E-02
 cg2d: Sum(rhs),rhsMax =  -4.45523617997878E-11  2.55035893425632E-02
 cg2d: Sum(rhs),rhsMax =  -4.58697524408080E-11  2.47081534112934E-02
 cg2d: Sum(rhs),rhsMax =  -4.72808459051066E-11  2.39059377293058E-02
 cg2d: Sum(rhs),rhsMax =  -4.88262763553848E-11  2.30969494841114E-02
 cg2d: Sum(rhs),rhsMax =  -5.04860597771994E-11  2.22811976487661E-02
 cg2d: Sum(rhs),rhsMax =  -5.22981657979926E-11  2.14586941774281E-02
 cg2d: Sum(rhs),rhsMax =  -5.43494138582901E-11  2.06294552128753E-02
 cg2d: Sum(rhs),rhsMax =  -5.65891777881689E-11  1.97935022994356E-02
 cg2d: Sum(rhs),rhsMax =  -5.90487658769234E-11  1.89508635954010E-02
 cg2d: Sum(rhs),rhsMax =  -6.17812467851309E-11  1.81015750795871E-02
 cg2d: Sum(rhs),rhsMax =  -6.47342179860289E-11  1.72456817470090E-02
 cg2d: Sum(rhs),rhsMax =  -6.80850931189525E-11  1.63832387887352E-02
 cg2d: Sum(rhs),rhsMax =  -7.18363146745560E-11  1.55143127509928E-02
 cg2d: Sum(rhs),rhsMax =  -7.60869145466359E-11  1.46389826686130E-02
 cg2d: Sum(rhs),rhsMax =  -8.08660916007398E-11  1.37573411679664E-02
 cg2d: Sum(rhs),rhsMax =  -8.63425997366107E-11  1.28694955342431E-02
 cg2d: Sum(rhs),rhsMax =  -9.27284915519522E-11  1.19755687391296E-02
 cg2d: Sum(rhs),rhsMax =  -1.00133457081597E-10  1.10757004245959E-02
 cg2d: Sum(rhs),rhsMax =  -1.08951958566195E-10  1.01700478372891E-02
 cg2d: Sum(rhs),rhsMax =  -1.19566134770821E-10  9.25878670945997E-03
 cg2d: Sum(rhs),rhsMax =  -1.32568400701416E-10  8.34211208188069E-03
 cg2d: Sum(rhs),rhsMax =  -1.48888901208011E-10  7.42023906475526E-03
 cg2d: Sum(rhs),rhsMax =  -1.70069291982600E-10  6.49340353283537E-03
 cg2d: Sum(rhs),rhsMax =  -1.98479677138153E-10  5.56186275083449E-03
 cg2d: Sum(rhs),rhsMax =  -2.38561170817775E-10  4.62589592526918E-03
 cg2d: Sum(rhs),rhsMax =  -2.99319680152621E-10  3.68580467908470E-03
 cg2d: Sum(rhs),rhsMax =  -2.81533574231219E-10  3.91799867499141E-03
 cg2d: Sum(rhs),rhsMax =  -2.29532282070011E-10  4.80378094510450E-03
 cg2d: Sum(rhs),rhsMax =  -1.93525945269002E-10  5.69610571935968E-03
 cg2d: Sum(rhs),rhsMax =  -1.67483478474839E-10  6.58112094771033E-03
 cg2d: Sum(rhs),rhsMax =  -1.47254042293099E-10  7.47866328739063E-03
 cg2d: Sum(rhs),rhsMax =  -1.31448463225325E-10  8.37110698735243E-03
 cg2d: Sum(rhs),rhsMax =  -1.18643095348148E-10  9.26625857511999E-03
 cg2d: Sum(rhs),rhsMax =  -1.08090481010237E-10  1.01652816424611E-02
 cg2d: Sum(rhs),rhsMax =  -9.92406712363447E-11  1.10650607419485E-02
 cg2d: Sum(rhs),rhsMax =  -9.16401399209121E-11  1.19695164321403E-02
 cg2d: Sum(rhs),rhsMax =  -8.50236547833561E-11  1.28853398156428E-02
 cg2d: Sum(rhs),rhsMax =  -7.93254351094674E-11  1.37936447054679E-02
 cg2d: Sum(rhs),rhsMax =  -7.44204697866735E-11  1.46922640721305E-02
 cg2d: Sum(rhs),rhsMax =  -7.01022573323939E-11  1.55809125477459E-02
 cg2d: Sum(rhs),rhsMax =  -6.62940813356272E-11  1.64592967415522E-02
 cg2d: Sum(rhs),rhsMax =  -6.28870289176575E-11  1.73271154856326E-02
 cg2d: Sum(rhs),rhsMax =  -5.99031935166749E-11  1.81840601361157E-02
 cg2d: Sum(rhs),rhsMax =  -5.72190073100387E-11  1.90298149284109E-02
 cg2d: Sum(rhs),rhsMax =  -5.47339951140202E-11  1.98640573844022E-02
 cg2d: Sum(rhs),rhsMax =  -5.25026688791286E-11  2.06864587694865E-02
 cg2d: Sum(rhs),rhsMax =  -5.04554176217198E-11  2.14966845973285E-02
 cg2d: Sum(rhs),rhsMax =  -4.87991869135840E-11  2.22943951800771E-02
 cg2d: Sum(rhs),rhsMax =  -4.71980232674696E-11  2.30792462214943E-02
 cg2d: Sum(rhs),rhsMax =  -4.57781590412765E-11  2.38508894502847E-02
 cg2d: Sum(rhs),rhsMax =  -4.44609904448612E-11  2.46089732905304E-02
 cg2d: Sum(rhs),rhsMax =  -4.32954783136097E-11  2.53531435658671E-02
 cg2d: Sum(rhs),rhsMax =  -4.21533918881778E-11  2.60830442338841E-02
 cg2d: Sum(rhs),rhsMax =  -4.11235490105355E-11  2.67983181471121E-02
 cg2d: Sum(rhs),rhsMax =  -4.01261246452123E-11  2.74986078368248E-02
 cg2d: Sum(rhs),rhsMax =  -3.92543775262766E-11  2.81835563157495E-02
 cg2d: Sum(rhs),rhsMax =  -3.84150489196600E-11  2.88528078956554E-02
 cg2d: Sum(rhs),rhsMax =  -3.76567665938410E-11  2.95060090157146E-02
 cg2d: Sum(rhs),rhsMax =  -3.69366759400691E-11  3.01428090775106E-02
 cg2d: Sum(rhs),rhsMax =  -3.62518903784803E-11  3.07628612826532E-02
 cg2d: Sum(rhs),rhsMax =  -3.56449314509177E-11  3.13658234691124E-02
 cg2d: Sum(rhs),rhsMax =  -3.50651729874585E-11  3.19513589425923E-02
 cg2d: Sum(rhs),rhsMax =  -3.45193873485528E-11  3.25191372995778E-02
 cg2d: Sum(rhs),rhsMax =  -3.39862582521278E-11  3.30688352388496E-02
 cg2d: Sum(rhs),rhsMax =  -3.35107497306808E-11  3.36001373585660E-02
 cg2d: Sum(rhs),rhsMax =  -3.30401261905422E-11  3.41127369369976E-02
 cg2d: Sum(rhs),rhsMax =  -3.26220161994684E-11  3.46063366940500E-02
 cg2d: Sum(rhs),rhsMax =  -3.22305515609855E-11  3.50806495319480E-02
 cg2d: Sum(rhs),rhsMax =  -3.18843840219074E-11  3.55353992530200E-02
 cg2d: Sum(rhs),rhsMax =  -3.15253378957436E-11  3.59703212501564E-02
 cg2d: Sum(rhs),rhsMax =  -3.12386783107854E-11  3.63851631703949E-02
 cg2d: Sum(rhs),rhsMax =  -3.09056114033979E-11  3.67796855490737E-02
 cg2d: Sum(rhs),rhsMax =  -3.06497049962218E-11  3.71536624117636E-02
 cg2d: Sum(rhs),rhsMax =  -3.04004599271934E-11  3.75068818410493E-02
 cg2d: Sum(rhs),rhsMax =  -3.02379232763883E-11  3.78391465052066E-02
 cg2d: Sum(rhs),rhsMax =  -3.00610647485655E-11  3.81502741458714E-02
 cg2d: Sum(rhs),rhsMax =  -2.99680280591019E-11  3.84400980218934E-02
 cg2d: Sum(rhs),rhsMax =  -2.98455704594858E-11  3.87084673067355E-02
 cg2d: Sum(rhs),rhsMax =  -2.97476487887138E-11  3.89552474370326E-02
 cg2d: Sum(rhs),rhsMax =  -2.96680457978482E-11  3.91803204080926E-02
 cg2d: Sum(rhs),rhsMax =  -2.95823365803471E-11  3.93835850187093E-02
 cg2d: Sum(rhs),rhsMax =  -2.95149460427524E-11  3.95649570659611E-02
 cg2d: Sum(rhs),rhsMax =  -2.95201640909681E-11  3.97243694837603E-02
 cg2d: Sum(rhs),rhsMax =  -2.95270474737208E-11  3.98617724255997E-02
 cg2d: Sum(rhs),rhsMax =  -2.94887447793712E-11  3.99771332925494E-02
 cg2d: Sum(rhs),rhsMax =  -2.94171353942829E-11  4.00704367083639E-02
 cg2d: Sum(rhs),rhsMax =  -2.92673663082610E-11  4.01416844471542E-02
 cg2d: Sum(rhs),rhsMax =  -2.91838775368092E-11  4.01908952996111E-02
 cg2d: Sum(rhs),rhsMax =  -2.90683033199457E-11  4.02181048928270E-02
 cg2d: Sum(rhs),rhsMax =  -2.90742985242787E-11  4.02233654645419E-02
 cg2d: Sum(rhs),rhsMax =  -2.89744894743649E-11  4.02067455924681E-02
 cg2d: Sum(rhs),rhsMax =  -2.89530621699896E-11  4.01683298796703E-02
 cg2d: Sum(rhs),rhsMax =  -2.89908097528269E-11  4.01082185963375E-02
 cg2d: Sum(rhs),rhsMax =  -2.90222290644238E-11  4.00265272816706E-02
 cg2d: Sum(rhs),rhsMax =  -2.91161539323070E-11  3.99233863042387E-02
 cg2d: Sum(rhs),rhsMax =  -2.91706658828161E-11  3.97989403848587E-02
 cg2d: Sum(rhs),rhsMax =  -2.91888735404200E-11  3.96533480825326E-02
 cg2d: Sum(rhs),rhsMax =  -2.92925683709200E-11  3.94867812472480E-02
 cg2d: Sum(rhs),rhsMax =  -2.93898239078771E-11  3.92994244406135E-02
 cg2d: Sum(rhs),rhsMax =  -2.95014013218520E-11  3.90914743252303E-02
 cg2d: Sum(rhs),rhsMax =  -2.96385138653932E-11  3.88631390240095E-02
 cg2d: Sum(rhs),rhsMax =  -2.97679658700645E-11  3.86146374507762E-02
 cg2d: Sum(rhs),rhsMax =  -2.99044122797909E-11  3.83461986137472E-02
 cg2d: Sum(rhs),rhsMax =  -3.00608427039606E-11  3.80580608936958E-02
 cg2d: Sum(rhs),rhsMax =  -3.02414759900671E-11  3.77504712967364E-02
 cg2d: Sum(rhs),rhsMax =  -3.03872482732004E-11  3.74236846871239E-02
 cg2d: Sum(rhs),rhsMax =  -3.06161762608781E-11  3.70779630071699E-02
 cg2d: Sum(rhs),rhsMax =  -3.09205994142303E-11  3.67135744789636E-02
 cg2d: Sum(rhs),rhsMax =  -3.11836112487640E-11  3.63307927923676E-02
 cg2d: Sum(rhs),rhsMax =  -3.15029113906462E-11  3.59298962844291E-02
 cg2d: Sum(rhs),rhsMax =  -3.18260973131146E-11  3.55111671155231E-02
 cg2d: Sum(rhs),rhsMax =  -3.21777049450134E-11  3.50748904473822E-02
 cg2d: Sum(rhs),rhsMax =  -3.25548477064785E-11  3.46213536280304E-02
 cg2d: Sum(rhs),rhsMax =  -3.29690719169662E-11  3.41508453886837E-02
 cg2d: Sum(rhs),rhsMax =  -3.33836291943612E-11  3.36636550571794E-02
 cg2d: Sum(rhs),rhsMax =  -3.38156169732429E-11  3.31600717929779E-02
 cg2d: Sum(rhs),rhsMax =  -3.43117756429479E-11  3.26403838473401E-02
 cg2d: Sum(rhs),rhsMax =  -3.48366890889906E-11  3.21048778554583E-02
 cg2d: Sum(rhs),rhsMax =  -3.53412854536828E-11  3.15538381640402E-02
 cg2d: Sum(rhs),rhsMax =  -3.59076102185441E-11  3.09875461965159E-02
 cg2d: Sum(rhs),rhsMax =  -3.66571217824685E-11  3.04062798583484E-02
 cg2d: Sum(rhs),rhsMax =  -3.73429065447795E-11  2.98103129846085E-02
 cg2d: Sum(rhs),rhsMax =  -3.79856146537350E-11  2.91999148318476E-02
 cg2d: Sum(rhs),rhsMax =  -3.87243570543205E-11  2.85753496160925E-02
 cg2d: Sum(rhs),rhsMax =  -3.93942656273794E-11  2.79368760986151E-02
 cg2d: Sum(rhs),rhsMax =  -4.01749744582958E-11  2.72847472205679E-02
 cg2d: Sum(rhs),rhsMax =  -4.10365075254049E-11  2.66192097871758E-02
 cg2d: Sum(rhs),rhsMax =  -4.19372314652833E-11  2.59405042030550E-02
 cg2d: Sum(rhs),rhsMax =  -4.30069313495096E-11  2.52488642600131E-02
 cg2d: Sum(rhs),rhsMax =  -4.43221015444806E-11  2.45445169726788E-02
 cg2d: Sum(rhs),rhsMax =  -4.57162085965024E-11  2.38276824670504E-02
 cg2d: Sum(rhs),rhsMax =  -4.71952477099080E-11  2.30985739233130E-02
 cg2d: Sum(rhs),rhsMax =  -4.88512563734389E-11  2.23573975724405E-02
 cg2d: Sum(rhs),rhsMax =  -5.06750197359906E-11  2.16043527460185E-02
 cg2d: Sum(rhs),rhsMax =  -5.25629539893657E-11  2.08396319787014E-02
 cg2d: Sum(rhs),rhsMax =  -5.46321876626621E-11  2.00634211630742E-02
 cg2d: Sum(rhs),rhsMax =  -5.69206903833219E-11  1.92758997562237E-02
 cg2d: Sum(rhs),rhsMax =  -5.94275739729255E-11  1.84772410371639E-02
 cg2d: Sum(rhs),rhsMax =  -6.21943607725939E-11  1.76676124141115E-02
 cg2d: Sum(rhs),rhsMax =  -6.53134213379758E-11  1.68471757804319E-02
 cg2d: Sum(rhs),rhsMax =  -6.87701007251462E-11  1.60160879178832E-02
 cg2d: Sum(rhs),rhsMax =  -7.26794180394563E-11  1.51745009455796E-02
 cg2d: Sum(rhs),rhsMax =  -7.71217534278890E-11  1.43225628129230E-02
 cg2d: Sum(rhs),rhsMax =  -8.21731571676310E-11  1.34604178346034E-02
 cg2d: Sum(rhs),rhsMax =  -8.80028827587864E-11  1.25882072656534E-02
 cg2d: Sum(rhs),rhsMax =  -9.46926426159678E-11  1.17060699144316E-02
 cg2d: Sum(rhs),rhsMax =  -1.02569730486834E-10  1.08141427913259E-02
 cg2d: Sum(rhs),rhsMax =  -1.11985309914076E-10  9.91256179092491E-03
 cg2d: Sum(rhs),rhsMax =  -1.23407284391419E-10  9.00146240511940E-03
 cg2d: Sum(rhs),rhsMax =  -1.37614059037006E-10  8.08098046443406E-03
 cg2d: Sum(rhs),rhsMax =  -1.55635268561660E-10  7.15125290502476E-03
 cg2d: Sum(rhs),rhsMax =  -1.79314993409285E-10  6.21241855859973E-03
 cg2d: Sum(rhs),rhsMax =  -2.11636735913956E-10  5.26461896231590E-03
 cg2d: Sum(rhs),rhsMax =  -2.58706722711111E-10  4.30799918327717E-03
 cg2d: Sum(rhs),rhsMax =  -3.18889026296176E-10  3.49613001821578E-03
 cg2d: Sum(rhs),rhsMax =  -2.60262589257820E-10  4.28538652245029E-03
 cg2d: Sum(rhs),rhsMax =  -2.19474216578419E-10  5.08333667091875E-03
 cg2d: Sum(rhs),rhsMax =  -1.89320004118088E-10  5.89388679100375E-03
 cg2d: Sum(rhs),rhsMax =  -1.66194391582053E-10  6.71683228669514E-03
 cg2d: Sum(rhs),rhsMax =  -1.47930889760062E-10  7.54877827948968E-03
 cg2d: Sum(rhs),rhsMax =  -1.33041466732209E-10  8.39423037165630E-03
 cg2d: Sum(rhs),rhsMax =  -1.20706999950926E-10  9.25584096365974E-03
 cg2d: Sum(rhs),rhsMax =  -1.10364606342728E-10  1.01297561991929E-02
 cg2d: Sum(rhs),rhsMax =  -1.01747499314797E-10  1.10005177979986E-02
 cg2d: Sum(rhs),rhsMax =  -9.44115896572839E-11  1.18679497129540E-02
 cg2d: Sum(rhs),rhsMax =  -8.80722161866743E-11  1.27318794034390E-02
 cg2d: Sum(rhs),rhsMax =  -8.25677304305827E-11  1.35921371678573E-02
 cg2d: Sum(rhs),rhsMax =  -7.77313768907106E-11  1.44485554872556E-02
 cg2d: Sum(rhs),rhsMax =  -7.34750038589027E-11  1.53009683716989E-02
 cg2d: Sum(rhs),rhsMax =  -6.97222279910648E-11  1.61492107298417E-02
 cg2d: Sum(rhs),rhsMax =  -6.63011867629848E-11  1.69931177612491E-02
 cg2d: Sum(rhs),rhsMax =  -6.32218721818845E-11  1.78325243714444E-02
 cg2d: Sum(rhs),rhsMax =  -6.04623018318762E-11  1.86672646108974E-02
 cg2d: Sum(rhs),rhsMax =  -5.79460923688657E-11  1.94971711402887E-02
 cg2d: Sum(rhs),rhsMax =  -5.56021895192771E-11  2.03220747247583E-02
 cg2d: Sum(rhs),rhsMax =  -5.35242961063886E-11  2.11418037596489E-02
 cg2d: Sum(rhs),rhsMax =  -5.16411358120195E-11  2.19561838298253E-02
 cg2d: Sum(rhs),rhsMax =  -4.99216223914800E-11  2.27650373041806E-02
 cg2d: Sum(rhs),rhsMax =  -4.82893725006761E-11  2.35681829665716E-02
 cg2d: Sum(rhs),rhsMax =  -4.68400873643304E-11  2.43654356842568E-02
 cg2d: Sum(rhs),rhsMax =  -4.54587478770918E-11  2.51566061152557E-02
 cg2d: Sum(rhs),rhsMax =  -4.41766623282547E-11  2.59415004527539E-02
 cg2d: Sum(rhs),rhsMax =  -4.29869473350664E-11  2.67199202081415E-02
 cg2d: Sum(rhs),rhsMax =  -4.18434176197024E-11  2.74916620363029E-02
 cg2d: Sum(rhs),rhsMax =  -4.04498656791930E-11  2.85027913986294E-02
 cg2d: Sum(rhs),rhsMax =  -3.89783760823548E-11  2.96027812130367E-02
 cg2d: Sum(rhs),rhsMax =  -3.76716435823710E-11  3.07000213829659E-02
 cg2d: Sum(rhs),rhsMax =  -3.64730468049856E-11  3.17938764406202E-02
 cg2d: Sum(rhs),rhsMax =  -3.53362894500719E-11  3.28836955190324E-02
 cg2d: Sum(rhs),rhsMax =  -3.42750272608328E-11  3.39688130761985E-02
 cg2d: Sum(rhs),rhsMax =  -3.32925909063420E-11  3.50485496849284E-02
 cg2d: Sum(rhs),rhsMax =  -3.23476800900835E-11  3.61222128870522E-02
 cg2d: Sum(rhs),rhsMax =  -3.14535064660504E-11  3.71890981072093E-02
 cg2d: Sum(rhs),rhsMax =  -3.06454861487282E-11  3.82484896261534E-02
 cg2d: Sum(rhs),rhsMax =  -2.98958635625013E-11  3.92996616110339E-02
 cg2d: Sum(rhs),rhsMax =  -2.91336954560961E-11  4.03418791993255E-02
 cg2d: Sum(rhs),rhsMax =  -2.84855472543200E-11  4.13743996322911E-02
 cg2d: Sum(rhs),rhsMax =  -2.78198575287547E-11  4.23964734378416E-02
 cg2d: Sum(rhs),rhsMax =  -2.72605271689486E-11  4.34073456568566E-02
 cg2d: Sum(rhs),rhsMax =  -2.67319499869245E-11  4.44062571098428E-02
 cg2d: Sum(rhs),rhsMax =  -2.62165844588935E-11  4.53924457006338E-02
 cg2d: Sum(rhs),rhsMax =  -2.57248666812870E-11  4.63651477535941E-02
 cg2d: Sum(rhs),rhsMax =  -2.52934340139177E-11  4.73235993804726E-02
 cg2d: Sum(rhs),rhsMax =  -2.48524534285366E-11  4.82670378727160E-02
 cg2d: Sum(rhs),rhsMax =  -2.44618769684735E-11  4.91947031148042E-02
 cg2d: Sum(rhs),rhsMax =  -2.40760744674162E-11  5.01058390144417E-02
 cg2d: Sum(rhs),rhsMax =  -2.36849428958408E-11  5.09996949445603E-02
 cg2d: Sum(rhs),rhsMax =  -2.33434382934661E-11  5.18755271920493E-02
 cg2d: Sum(rhs),rhsMax =  -2.29930519068944E-11  5.27326004082312E-02
 cg2d: Sum(rhs),rhsMax =  -2.27278196263114E-11  5.35701890561594E-02
 cg2d: Sum(rhs),rhsMax =  -2.23853158232146E-11  5.43875788498065E-02
 cg2d: Sum(rhs),rhsMax =  -2.21320739512976E-11  5.51840681801773E-02
 cg2d: Sum(rhs),rhsMax =  -2.18614015778940E-11  5.59589695233946E-02
 cg2d: Sum(rhs),rhsMax =  -2.15795159519416E-11  5.67116108259066E-02
 cg2d: Sum(rhs),rhsMax =  -2.13677964211456E-11  5.74413368621271E-02
 cg2d: Sum(rhs),rhsMax =  -2.11576312025841E-11  5.81475105600363E-02
 cg2d: Sum(rhs),rhsMax =  -2.09474659840225E-11  5.88295142904863E-02
 cg2d: Sum(rhs),rhsMax =  -2.07421857467693E-11  5.94867511161689E-02
 cg2d: Sum(rhs),rhsMax =  -2.05555572563298E-11  6.01186459963983E-02
 cg2d: Sum(rhs),rhsMax =  -2.04325445452014E-11  6.07246469440449E-02
 cg2d: Sum(rhs),rhsMax =  -2.02760030987292E-11  6.13042261311329E-02
 cg2d: Sum(rhs),rhsMax =  -2.01784144948647E-11  6.18568809397806E-02
 cg2d: Sum(rhs),rhsMax =  -2.00679473039145E-11  6.23821349553400E-02
 cg2d: Sum(rhs),rhsMax =  -1.99391614330580E-11  6.28795388987795E-02
 cg2d: Sum(rhs),rhsMax =  -1.98447924759648E-11  6.33486714955597E-02
 cg2d: Sum(rhs),rhsMax =  -1.97419858238845E-11  6.37891402784961E-02
 cg2d: Sum(rhs),rhsMax =  -1.96764826654316E-11  6.42005823238816E-02
 cg2d: Sum(rhs),rhsMax =  -1.95921057155601E-11  6.45826649138877E-02
 cg2d: Sum(rhs),rhsMax =  -1.95307103822984E-11  6.49350861265888E-02
 cg2d: Sum(rhs),rhsMax =  -1.94635418893085E-11  6.52575753535161E-02
 cg2d: Sum(rhs),rhsMax =  -1.94662064245676E-11  6.55498937422469E-02
 cg2d: Sum(rhs),rhsMax =  -1.94738669634376E-11  6.58118345626524E-02
 cg2d: Sum(rhs),rhsMax =  -1.94735338965302E-11  6.60432234958640E-02
 cg2d: Sum(rhs),rhsMax =  -1.94623206439815E-11  6.62439188454499E-02
 cg2d: Sum(rhs),rhsMax =  -1.94805283015853E-11  6.64138116664584E-02
 cg2d: Sum(rhs),rhsMax =  -1.94859683944060E-11  6.65528258227809E-02
 cg2d: Sum(rhs),rhsMax =  -1.95665705859938E-11  6.66609179687492E-02
 cg2d: Sum(rhs),rhsMax =  -1.96385130379895E-11  6.67380774513155E-02
 cg2d: Sum(rhs),rhsMax =  -1.96891392079124E-11  6.67843261344587E-02
 cg2d: Sum(rhs),rhsMax =  -1.95871097119493E-11  6.67997181527070E-02
 cg2d: Sum(rhs),rhsMax =  -1.94907423534119E-11  6.67843395844998E-02
 cg2d: Sum(rhs),rhsMax =  -1.94618765547716E-11  6.67383080498176E-02
 cg2d: Sum(rhs),rhsMax =  -1.94670946029873E-11  6.66617722428797E-02
 cg2d: Sum(rhs),rhsMax =  -1.95038429851024E-11  6.65549113977825E-02
 cg2d: Sum(rhs),rhsMax =  -1.95556904003524E-11  6.64179346864606E-02
 cg2d: Sum(rhs),rhsMax =  -1.96079819048123E-11  6.62510805542047E-02
 cg2d: Sum(rhs),rhsMax =  -1.96551663833588E-11  6.60546159947295E-02
 cg2d: Sum(rhs),rhsMax =  -1.97161176274108E-11  6.58288357674020E-02
 cg2d: Sum(rhs),rhsMax =  -1.97862837225671E-11  6.55740615597243E-02
 cg2d: Sum(rhs),rhsMax =  -1.98707716947411E-11  6.52906410992829E-02
 cg2d: Sum(rhs),rhsMax =  -1.99329441841201E-11  6.49789472169579E-02
 cg2d: Sum(rhs),rhsMax =  -1.99849026216725E-11  6.46393768657375E-02
 cg2d: Sum(rhs),rhsMax =  -2.00437444419777E-11  6.42723501003403E-02
 cg2d: Sum(rhs),rhsMax =  -2.01816341416361E-11  6.38783090210205E-02
 cg2d: Sum(rhs),rhsMax =  -2.02873273735804E-11  6.34577166848958E-02
 cg2d: Sum(rhs),rhsMax =  -2.03942418508518E-11  6.30110559882667E-02
 cg2d: Sum(rhs),rhsMax =  -2.04843919604514E-11  6.25388285214790E-02
 cg2d: Sum(rhs),rhsMax =  -2.06226147270172E-11  6.20415534018854E-02
 cg2d: Sum(rhs),rhsMax =  -2.07472927726826E-11  6.15197660965788E-02
 cg2d: Sum(rhs),rhsMax =  -2.08868478068780E-11  6.09740172264617E-02
 cg2d: Sum(rhs),rhsMax =  -2.10116368748459E-11  6.04048713529766E-02
 cg2d: Sum(rhs),rhsMax =  -2.11741735256510E-11  5.98129057669991E-02
 cg2d: Sum(rhs),rhsMax =  -2.13097317569577E-11  5.91987092708491E-02
 cg2d: Sum(rhs),rhsMax =  -2.15237827561054E-11  5.85628809581973E-02
 cg2d: Sum(rhs),rhsMax =  -2.17315054840128E-11  5.79060289964659E-02
 cg2d: Sum(rhs),rhsMax =  -2.19601004047831E-11  5.72287694160916E-02
 cg2d: Sum(rhs),rhsMax =  -2.22073470723672E-11  5.65317249104297E-02
 cg2d: Sum(rhs),rhsMax =  -2.24364971046498E-11  5.58155236509888E-02
 cg2d: Sum(rhs),rhsMax =  -2.26866303520978E-11  5.50807981163935E-02
 cg2d: Sum(rhs),rhsMax =  -2.29796182082964E-11  5.43281839457440E-02
 cg2d: Sum(rhs),rhsMax =  -2.32446284442744E-11  5.35583188212047E-02
 cg2d: Sum(rhs),rhsMax =  -2.35538255566325E-11  5.27718413665569E-02
 cg2d: Sum(rhs),rhsMax =  -2.38667974272744E-11  5.19693900800243E-02
 cg2d: Sum(rhs),rhsMax =  -2.41794362310088E-11  5.11516023034280E-02
 cg2d: Sum(rhs),rhsMax =  -2.45178322089146E-11  5.03191132265788E-02
 cg2d: Sum(rhs),rhsMax =  -2.48493448040676E-11  4.94725549316999E-02
 cg2d: Sum(rhs),rhsMax =  -2.52547982526607E-11  4.86125554795147E-02
(PID.TID 0000.0001)      cg2d_init_res =   8.27838211993705E-02
(PID.TID 0000.0001)      cg2d_iters(min,last) =      -1      37
(PID.TID 0000.0001)      cg2d_last_res =   7.64735634972577E-14
(PID.TID 0000.0001) // =======================================================
(PID.TID 0000.0001) // Begin MONITOR dynamic field statistics
(PID.TID 0000.0001) // =======================================================
(PID.TID 0000.0001) %MON time_tsnumber                =                  1920
(PID.TID 0000.0001) %MON time_secondsf                =   2.8800000000000E+04
(PID.TID 0000.0001) %MON dynstat_eta_max              =   8.2110316866485E-03
(PID.TID 0000.0001) %MON dynstat_eta_min              =  -8.4273544911466E-03
(PID.TID 0000.0001) %MON dynstat_eta_mean             =   2.6217356699321E-15
(PID.TID 0000.0001) %MON dynstat_eta_sd               =   5.9510975300643E-03
(PID.TID 0000.0001) %MON dynstat_eta_del2             =   2.7488024462844E-06
(PID.TID 0000.0001) %MON dynstat_uvel_max             =   3.3054523464769E-01
(PID.TID 0000.0001) %MON dynstat_uvel_min             =  -9.6852497686798E-02
(PID.TID 0000.0001) %MON dynstat_uvel_mean            =   6.8950934827054E-02
(PID.TID 0000.0001) %MON dynstat_uvel_sd              =   2.6472270465325E-02
(PID.TID 0000.0001) %MON dynstat_uvel_del2            =   6.9391022779522E-05
(PID.TID 0000.0001) %MON dynstat_vvel_max             =   0.0000000000000E+00
(PID.TID 0000.0001) %MON dynstat_vvel_min             =   0.0000000000000E+00
(PID.TID 0000.0001) %MON dynstat_vvel_mean            =   0.0000000000000E+00
(PID.TID 0000.0001) %MON dynstat_vvel_sd              =   0.0000000000000E+00
(PID.TID 0000.0001) %MON dynstat_vvel_del2            =   0.0000000000000E+00
(PID.TID 0000.0001) %MON dynstat_wvel_max             =   3.6506013282507E-03
(PID.TID 0000.0001) %MON dynstat_wvel_min             =  -3.7086719161585E-03
(PID.TID 0000.0001) %MON dynstat_wvel_mean            =   2.3314987840074E-21
(PID.TID 0000.0001) %MON dynstat_wvel_sd              =   2.5915956906008E-04
(PID.TID 0000.0001) %MON dynstat_wvel_del2            =   4.3105952571443E-06
(PID.TID 0000.0001) %MON dynstat_theta_max            =   1.5000000000007E+01
(PID.TID 0000.0001) %MON dynstat_theta_min            =   9.9999999999966E+00
(PID.TID 0000.0001) %MON dynstat_theta_mean           =   1.3335045084670E+01
(PID.TID 0000.0001) %MON dynstat_theta_sd             =   2.3157930640319E+00
(PID.TID 0000.0001) %MON dynstat_theta_del2           =   2.7887732154993E-04
(PID.TID 0000.0001) %MON dynstat_salt_max             =   3.5000000000000E+01
(PID.TID 0000.0001) %MON dynstat_salt_min             =   3.5000000000000E+01
(PID.TID 0000.0001) %MON dynstat_salt_mean            =   3.5000000000000E+01
(PID.TID 0000.0001) %MON dynstat_salt_sd              =   2.1316282072803E-14
(PID.TID 0000.0001) %MON dynstat_salt_del2            =   0.0000000000000E+00
(PID.TID 0000.0001) %MON dynstat_sst_max              =   1.5000000000001E+01
(PID.TID 0000.0001) %MON dynstat_sst_min              =   1.4999999999997E+01
(PID.TID 0000.0001) %MON dynstat_sst_mean             =   1.4999999999997E+01
(PID.TID 0000.0001) %MON dynstat_sst_sd               =   1.2872187046446E-12
(PID.TID 0000.0001) %MON dynstat_sst_del2             =   1.9806392393126E-14
(PID.TID 0000.0001) %MON dynstat_sss_max              =   3.5000000000000E+01
(PID.TID 0000.0001) %MON dynstat_sss_min              =   3.5000000000000E+01
(PID.TID 0000.0001) %MON dynstat_sss_mean             =   3.5000000000000E+01
(PID.TID 0000.0001) %MON dynstat_sss_sd               =   7.8159700933611E-14
(PID.TID 0000.0001) %MON dynstat_sss_del2             =   0.0000000000000E+00
(PID.TID 0000.0001) %MON forcing_qnet_max             =   0.0000000000000E+00
(PID.TID 0000.0001) %MON forcing_qnet_min             =   0.0000000000000E+00
(PID.TID 0000.0001) %MON forcing_qnet_mean            =   0.0000000000000E+00
(PID.TID 0000.0001) %MON forcing_qnet_sd              =   0.0000000000000E+00
(PID.TID 0000.0001) %MON forcing_qnet_del2            =   0.0000000000000E+00
(PID.TID 0000.0001) %MON forcing_qsw_max              =   0.0000000000000E+00
(PID.TID 0000.0001) %MON forcing_qsw_min              =   0.0000000000000E+00
(PID.TID 0000.0001) %MON forcing_qsw_mean             =   0.0000000000000E+00
(PID.TID 0000.0001) %MON forcing_qsw_sd               =   0.0000000000000E+00
(PID.TID 0000.0001) %MON forcing_qsw_del2             =   0.0000000000000E+00
(PID.TID 0000.0001) %MON forcing_empmr_max            =   0.0000000000000E+00
(PID.TID 0000.0001) %MON forcing_empmr_min            =   0.0000000000000E+00
(PID.TID 0000.0001) %MON forcing_empmr_mean           =   0.0000000000000E+00
(PID.TID 0000.0001) %MON forcing_empmr_sd             =   0.0000000000000E+00
(PID.TID 0000.0001) %MON forcing_empmr_del2           =   0.0000000000000E+00
(PID.TID 0000.0001) %MON forcing_fu_max               =   0.0000000000000E+00
(PID.TID 0000.0001) %MON forcing_fu_min               =   0.0000000000000E+00
(PID.TID 0000.0001) %MON forcing_fu_mean              =   0.0000000000000E+00
(PID.TID 0000.0001) %MON forcing_fu_sd                =   0.0000000000000E+00
(PID.TID 0000.0001) %MON forcing_fu_del2              =   0.0000000000000E+00
(PID.TID 0000.0001) %MON forcing_fv_max               =   0.0000000000000E+00
(PID.TID 0000.0001) %MON forcing_fv_min               =   0.0000000000000E+00
(PID.TID 0000.0001) %MON forcing_fv_mean              =   0.0000000000000E+00
(PID.TID 0000.0001) %MON forcing_fv_sd                =   0.0000000000000E+00
(PID.TID 0000.0001) %MON forcing_fv_del2              =   0.0000000000000E+00
(PID.TID 0000.0001) %MON advcfl_uvel_max              =   2.4790892598577E-02
(PID.TID 0000.0001) %MON advcfl_vvel_max              =   0.0000000000000E+00
(PID.TID 0000.0001) %MON advcfl_wvel_max              =   3.4637054793764E-02
(PID.TID 0000.0001) %MON advcfl_W_hf_max              =   3.4926864278787E-02
(PID.TID 0000.0001) %MON pe_b_mean                    =   8.8479126014285E-07
(PID.TID 0000.0001) %MON ke_max                       =   4.8138403904171E-02
(PID.TID 0000.0001) %MON ke_mean                      =   2.7316745770112E-03
(PID.TID 0000.0001) %MON ke_vol                       =   9.5889217545975E+10
(PID.TID 0000.0001) %MON vort_r_min                   =   0.0000000000000E+00
(PID.TID 0000.0001) %MON vort_r_max                   =   0.0000000000000E+00
(PID.TID 0000.0001) %MON vort_a_mean                  =   0.0000000000000E+00
(PID.TID 0000.0001) %MON vort_a_sd                    =   0.0000000000000E+00
(PID.TID 0000.0001) %MON vort_p_mean                  =   0.0000000000000E+00
(PID.TID 0000.0001) %MON vort_p_sd                    =   0.0000000000000E+00
(PID.TID 0000.0001) %MON surfExpan_theta_mean         =  -1.8617190156504E-18
(PID.TID 0000.0001) %MON surfExpan_salt_mean          =   2.2858315495983E-19
(PID.TID 0000.0001) // =======================================================
(PID.TID 0000.0001) // End MONITOR dynamic field statistics
(PID.TID 0000.0001) // =======================================================
(PID.TID 0000.0001) // =======================================================
(PID.TID 0000.0001) // Begin OBCS MONITOR field statistics
(PID.TID 0000.0001) // =======================================================
(PID.TID 0000.0001) %MON obc_E_uVel_max               =   6.6809804669674E-02
(PID.TID 0000.0001) %MON obc_E_uVel_min               =   6.6809804669674E-02
(PID.TID 0000.0001) %MON obc_E_uVel_mean              =   6.6809804669674E-02
(PID.TID 0000.0001) %MON obc_E_uVel_sd                =  -1.7347234759768E-18
(PID.TID 0000.0001) %MON obc_E_uVel_Int               =   6.6809804669674E+04
(PID.TID 0000.0001) %MON obc_W_uVel_max               =   6.6809804669674E-02
(PID.TID 0000.0001) %MON obc_W_uVel_min               =   6.6809804669674E-02
(PID.TID 0000.0001) %MON obc_W_uVel_mean              =   6.6809804669674E-02
(PID.TID 0000.0001) %MON obc_W_uVel_sd                =  -1.7347234759768E-18
(PID.TID 0000.0001) %MON obc_W_uVel_Int               =   6.6809804669674E+04
(PID.TID 0000.0001) // =======================================================
(PID.TID 0000.0001) // End OBCS MONITOR field statistics
(PID.TID 0000.0001) // =======================================================
 cg2d: Sum(rhs),rhsMax =  -2.56281662558422E-11  4.77397380385784E-02
 cg2d: Sum(rhs),rhsMax =  -2.60375054850215E-11  4.68547200590604E-02
 cg2d: Sum(rhs),rhsMax =  -2.64933630589326E-11  4.59581124926539E-02
 cg2d: Sum(rhs),rhsMax =  -2.69422262277885E-11  4.50505190616877E-02
 cg2d: Sum(rhs),rhsMax =  -2.73787659210711E-11  4.41325355761517E-02
 cg2d: Sum(rhs),rhsMax =  -2.79265499614212E-11  4.32047492998158E-02
 cg2d: Sum(rhs),rhsMax =  -2.84101631109479E-11  4.22677383666400E-02
 cg2d: Sum(rhs),rhsMax =  -2.89930301988761E-11  4.13220712481001E-02
 cg2d: Sum(rhs),rhsMax =  -2.95856672494210E-11  4.03683062717325E-02
 cg2d: Sum(rhs),rhsMax =  -3.02848857103299E-11  3.94069911909909E-02
 cg2d: Sum(rhs),rhsMax =  -3.10087511223855E-11  3.84386628063322E-02
 cg2d: Sum(rhs),rhsMax =  -3.17633697122233E-11  3.74638466373190E-02
 cg2d: Sum(rhs),rhsMax =  -3.25134363876600E-11  3.64830566453822E-02
 cg2d: Sum(rhs),rhsMax =  -3.34016148073601E-11  3.54967950067418E-02
 cg2d: Sum(rhs),rhsMax =  -3.43127748436700E-11  3.45055519348295E-02
 cg2d: Sum(rhs),rhsMax =  -3.52556872584842E-11  3.35098055515848E-02
 cg2d: Sum(rhs),rhsMax =  -3.62643248763561E-11  3.25100218061770E-02
 cg2d: Sum(rhs),rhsMax =  -3.73550079757479E-11  3.15066544373981E-02
 cg2d: Sum(rhs),rhsMax =  -3.85126375235245E-11  3.05001449845225E-02
 cg2d: Sum(rhs),rhsMax =  -3.97324395606802E-11  2.94909228471114E-02
 cg2d: Sum(rhs),rhsMax =  -4.10691480823289E-11  2.84794053846149E-02
 cg2d: Sum(rhs),rhsMax =  -4.24823509703742E-11  2.74659980553874E-02
 cg2d: Sum(rhs),rhsMax =  -4.40302239113066E-11  2.64510945947882E-02
 cg2d: Sum(rhs),rhsMax =  -4.56867876863498E-11  2.54350772315976E-02
 cg2d: Sum(rhs),rhsMax =  -4.71453986961023E-11  2.46062421111981E-02
 cg2d: Sum(rhs),rhsMax =  -4.86363171958715E-11  2.38091183292211E-02
 cg2d: Sum(rhs),rhsMax =  -5.02362595966588E-11  2.30048845412562E-02
 cg2d: Sum(rhs),rhsMax =  -5.19364551365697E-11  2.21937331941200E-02
 cg2d: Sum(rhs),rhsMax =  -5.38140643158158E-11  2.13758615193777E-02
 cg2d: Sum(rhs),rhsMax =  -5.58650903315083E-11  2.05514720276729E-02
 cg2d: Sum(rhs),rhsMax =  -5.80954173656778E-11  1.97207729839550E-02
 cg2d: Sum(rhs),rhsMax =  -6.05555605659447E-11  1.88839788763235E-02
 cg2d: Sum(rhs),rhsMax =  -6.32289776092421E-11  1.80413108764681E-02
 cg2d: Sum(rhs),rhsMax =  -6.62119248318049E-11  1.71929972886154E-02
 cg2d: Sum(rhs),rhsMax =  -6.96089852425530E-11  1.63392739845725E-02
 cg2d: Sum(rhs),rhsMax =  -7.33982874479011E-11  1.54803848232397E-02
 cg2d: Sum(rhs),rhsMax =  -7.76789743639483E-11  1.46165820533382E-02
 cg2d: Sum(rhs),rhsMax =  -8.25073342980431E-11  1.37481266980064E-02
 cg2d: Sum(rhs),rhsMax =  -8.80029382699377E-11  1.28752889195305E-02
 cg2d: Sum(rhs),rhsMax =  -9.43576328182871E-11  1.19983483620341E-02
 cg2d: Sum(rhs),rhsMax =  -1.01742170244279E-10  1.11175944696079E-02
 cg2d: Sum(rhs),rhsMax =  -1.10458309166006E-10  1.02333267772412E-02
 cg2d: Sum(rhs),rhsMax =  -1.20819354521018E-10  9.34585517203301E-03
 cg2d: Sum(rhs),rhsMax =  -1.33412170200131E-10  8.45550012162664E-03
 cg2d: Sum(rhs),rhsMax =  -1.49041001762384E-10  7.56259287086277E-03
 cg2d: Sum(rhs),rhsMax =  -1.68889568996633E-10  6.66747560377106E-03
 cg2d: Sum(rhs),rhsMax =  -1.95086613530293E-10  5.77050157037805E-03
 cg2d: Sum(rhs),rhsMax =  -2.31042740495013E-10  4.87203517883158E-03
 cg2d: Sum(rhs),rhsMax =  -2.83297163505836E-10  3.97245205381323E-03
 cg2d: Sum(rhs),rhsMax =  -3.57712304221991E-10  3.14465679673162E-03
 cg2d: Sum(rhs),rhsMax =  -3.37777916747939E-10  3.32919537379665E-03
 cg2d: Sum(rhs),rhsMax =  -3.20212578674983E-10  3.51082390182656E-03
 cg2d: Sum(rhs),rhsMax =  -3.04612959856065E-10  3.68946165918117E-03
 cg2d: Sum(rhs),rhsMax =  -2.51770368442372E-10  4.46246845099905E-03
 cg2d: Sum(rhs),rhsMax =  -2.12656836584557E-10  5.28162331944023E-03
 cg2d: Sum(rhs),rhsMax =  -1.84110116041580E-10  6.09899748357412E-03
 cg2d: Sum(rhs),rhsMax =  -1.62014845983549E-10  6.92500112677296E-03
 cg2d: Sum(rhs),rhsMax =  -1.44806500124162E-10  7.74327567963974E-03
 cg2d: Sum(rhs),rhsMax =  -1.30743083026630E-10  8.57144897906074E-03
 cg2d: Sum(rhs),rhsMax =  -1.19176779556085E-10  9.39489986719258E-03
 cg2d: Sum(rhs),rhsMax =  -1.09437015005653E-10  1.02252252844015E-02
 cg2d: Sum(rhs),rhsMax =  -1.01158414977931E-10  1.10556122989483E-02
 cg2d: Sum(rhs),rhsMax =  -9.38983335529997E-11  1.18944824544606E-02
 cg2d: Sum(rhs),rhsMax =  -8.76697603402476E-11  1.27238883738942E-02
 cg2d: Sum(rhs),rhsMax =  -8.22750756412916E-11  1.35435716592086E-02
 cg2d: Sum(rhs),rhsMax =  -7.75083330850634E-11  1.43532714024625E-02
 cg2d: Sum(rhs),rhsMax =  -7.33760829874086E-11  1.51527242859283E-02
 cg2d: Sum(rhs),rhsMax =  -6.96649404829941E-11  1.59416647157976E-02
 cg2d: Sum(rhs),rhsMax =  -6.63690213897894E-11  1.67198249880564E-02
 cg2d: Sum(rhs),rhsMax =  -6.33809671413132E-11  1.74869354844781E-02
 cg2d: Sum(rhs),rhsMax =  -6.07189853951695E-11  1.82427248960374E-02
 cg2d: Sum(rhs),rhsMax =  -5.82679460237046E-11  1.89869204709929E-02
 cg2d: Sum(rhs),rhsMax =  -5.60727020371132E-11  1.97192482846635E-02
 cg2d: Sum(rhs),rhsMax =  -5.40242295343774E-11  2.04394335275735E-02
 cg2d: Sum(rhs),rhsMax =  -5.22079046660906E-11  2.11472008090962E-02
 cg2d: Sum(rhs),rhsMax =  -5.04586372684912E-11  2.18422744744154E-02
 cg2d: Sum(rhs),rhsMax =  -4.88339368942547E-11  2.25243789333334E-02
 cg2d: Sum(rhs),rhsMax =  -4.73517891563802E-11  2.31932390001059E-02
 cg2d: Sum(rhs),rhsMax =  -4.59576821043584E-11  2.38485802440366E-02
 cg2d: Sum(rhs),rhsMax =  -4.46749304217064E-11  2.44901293509816E-02
 cg2d: Sum(rhs),rhsMax =  -4.35255165243120E-11  2.51176144961988E-02
 cg2d: Sum(rhs),rhsMax =  -4.24087431838416E-11  2.57307657290022E-02
 cg2d: Sum(rhs),rhsMax =  -4.13893364026308E-11  2.63293153694700E-02
 cg2d: Sum(rhs),rhsMax =  -4.04446476309772E-11  2.69129984169837E-02
 cg2d: Sum(rhs),rhsMax =  -3.95239396766556E-11  2.74815529697255E-02
 cg2d: Sum(rhs),rhsMax =  -3.86360943238628E-11  2.80347206535063E-02
 cg2d: Sum(rhs),rhsMax =  -3.78361786346204E-11  2.85722470575368E-02
 cg2d: Sum(rhs),rhsMax =  -3.70605768296173E-11  2.90938821740997E-02
 cg2d: Sum(rhs),rhsMax =  -3.63238328304760E-11  2.95993808386001E-02
 cg2d: Sum(rhs),rhsMax =  -3.56634721754290E-11  3.00885031662353E-02
 cg2d: Sum(rhs),rhsMax =  -3.50161011297700E-11  3.05610149813462E-02
 cg2d: Sum(rhs),rhsMax =  -3.44390072015699E-11  3.10166882370897E-02
 cg2d: Sum(rhs),rhsMax =  -3.38605810057402E-11  3.14553014211645E-02
 cg2d: Sum(rhs),rhsMax =  -3.33142402553221E-11  3.18766399441249E-02
 cg2d: Sum(rhs),rhsMax =  -3.28360671986161E-11  3.22804965102343E-02
 cg2d: Sum(rhs),rhsMax =  -3.23664428591997E-11  3.26666714697830E-02
 cg2d: Sum(rhs),rhsMax =  -3.19099191514738E-11  3.30349731522685E-02
 cg2d: Sum(rhs),rhsMax =  -3.14961390301960E-11  3.33852181802084E-02
 cg2d: Sum(rhs),rhsMax =  -3.10986791873802E-11  3.37172317636685E-02
 cg2d: Sum(rhs),rhsMax =  -3.07359693252351E-11  3.40308479757782E-02
 cg2d: Sum(rhs),rhsMax =  -3.03784775113058E-11  3.43259100095416E-02
 cg2d: Sum(rhs),rhsMax =  -3.00561797672572E-11  3.46022704161413E-02
 cg2d: Sum(rhs),rhsMax =  -2.97638580448734E-11  3.48597913246988E-02
 cg2d: Sum(rhs),rhsMax =  -2.94843038872727E-11  3.50983446397564E-02
 cg2d: Sum(rhs),rhsMax =  -2.92403878887626E-11  3.53178122252968E-02
 cg2d: Sum(rhs),rhsMax =  -2.89946955334131E-11  3.55180860679582E-02
 cg2d: Sum(rhs),rhsMax =  -2.87969648127273E-11  3.56990684173587E-02
 cg2d: Sum(rhs),rhsMax =  -2.86194401510897E-11  3.58606719030590E-02
 cg2d: Sum(rhs),rhsMax =  -2.84555712326551E-11  3.60028196278010E-02
 cg2d: Sum(rhs),rhsMax =  -2.82781575933200E-11  3.61254452391831E-02
 cg2d: Sum(rhs),rhsMax =  -2.81307199756498E-11  3.62284929742935E-02
 cg2d: Sum(rhs),rhsMax =  -2.80098166882681E-11  3.63119176749700E-02
 cg2d: Sum(rhs),rhsMax =  -2.79806178227204E-11  3.63756847798651E-02
 cg2d: Sum(rhs),rhsMax =  -2.79176681772242E-11  3.64197702926218E-02
 cg2d: Sum(rhs),rhsMax =  -2.78509437734442E-11  3.64441607256039E-02
 cg2d: Sum(rhs),rhsMax =  -2.78617129367831E-11  3.64488530190648E-02
 cg2d: Sum(rhs),rhsMax =  -2.79192224894587E-11  3.64338544362355E-02
 cg2d: Sum(rhs),rhsMax =  -2.78544964871230E-11  3.63991824355291E-02
 cg2d: Sum(rhs),rhsMax =  -2.78504996842344E-11  3.63448645205075E-02
 cg2d: Sum(rhs),rhsMax =  -2.78638223605299E-11  3.62709380698845E-02
 cg2d: Sum(rhs),rhsMax =  -2.78844725087879E-11  3.61774501476087E-02
 cg2d: Sum(rhs),rhsMax =  -2.79336553887788E-11  3.60644572948893E-02
 cg2d: Sum(rhs),rhsMax =  -2.79631873212338E-11  3.59320253053469E-02
 cg2d: Sum(rhs),rhsMax =  -2.80404588437477E-11  3.57802289857313E-02
 cg2d: Sum(rhs),rhsMax =  -2.80820922071712E-11  3.56091519031279E-02
 cg2d: Sum(rhs),rhsMax =  -2.81329404216990E-11  3.54188861197093E-02
 cg2d: Sum(rhs),rhsMax =  -2.82168732823607E-11  3.52095319162590E-02
 cg2d: Sum(rhs),rhsMax =  -2.82962542286214E-11  3.49811975058724E-02
 cg2d: Sum(rhs),rhsMax =  -2.84205992073794E-11  3.47339987348762E-02
 cg2d: Sum(rhs),rhsMax =  -2.85320655990517E-11  3.44680587858716E-02
 cg2d: Sum(rhs),rhsMax =  -2.86350942957370E-11  3.41835078733279E-02
 cg2d: Sum(rhs),rhsMax =  -2.87362356132803E-11  3.38804829331783E-02
 cg2d: Sum(rhs),rhsMax =  -2.89227530814173E-11  3.35591273089255E-02
 cg2d: Sum(rhs),rhsMax =  -2.90386603651882E-11  3.32195904366982E-02
 cg2d: Sum(rhs),rhsMax =  -2.92020851944130E-11  3.28620275312048E-02
 cg2d: Sum(rhs),rhsMax =  -2.94095858777155E-11  3.24865992740462E-02
 cg2d: Sum(rhs),rhsMax =  -2.97148972094874E-11  3.20934715055775E-02
 cg2d: Sum(rhs),rhsMax =  -2.99834601591442E-11  3.16828149215871E-02
 cg2d: Sum(rhs),rhsMax =  -3.02753377923182E-11  3.12548047755802E-02
 cg2d: Sum(rhs),rhsMax =  -3.05987457593915E-11  3.08096205889419E-02
 cg2d: Sum(rhs),rhsMax =  -3.09684500265917E-11  3.03474458681557E-02
 cg2d: Sum(rhs),rhsMax =  -3.13878922852950E-11  2.98684678310118E-02
 cg2d: Sum(rhs),rhsMax =  -3.18503001750514E-11  2.93728771452296E-02
 cg2d: Sum(rhs),rhsMax =  -3.23507887145524E-11  2.88608676799848E-02
 cg2d: Sum(rhs),rhsMax =  -3.29940519350203E-11  2.83326362676011E-02
 cg2d: Sum(rhs),rhsMax =  -3.36868311023863E-11  2.77883824858776E-02
 cg2d: Sum(rhs),rhsMax =  -3.44744233160554E-11  2.72283084553620E-02
 cg2d: Sum(rhs),rhsMax =  -3.53117535212277E-11  2.66526186520626E-02
 cg2d: Sum(rhs),rhsMax =  -3.61780605473427E-11  2.60615197377140E-02
 cg2d: Sum(rhs),rhsMax =  -3.71404018650878E-11  2.54552204095824E-02
 cg2d: Sum(rhs),rhsMax =  -3.81262799109550E-11  2.48339312712590E-02
 cg2d: Sum(rhs),rhsMax =  -3.92064158916128E-11  2.41978647246688E-02
 cg2d: Sum(rhs),rhsMax =  -4.03879152344189E-11  2.35472348856168E-02
 cg2d: Sum(rhs),rhsMax =  -4.15950607290938E-11  2.28822575219855E-02
 cg2d: Sum(rhs),rhsMax =  -4.29238866672677E-11  2.22031500148574E-02
 cg2d: Sum(rhs),rhsMax =  -4.43542980121947E-11  2.15101313439396E-02
 cg2d: Sum(rhs),rhsMax =  -4.59035032207566E-11  2.08034220918684E-02
 cg2d: Sum(rhs),rhsMax =  -4.75978145786371E-11  2.00832444702518E-02
 cg2d: Sum(rhs),rhsMax =  -4.94555507657424E-11  1.93498223705314E-02
 cg2d: Sum(rhs),rhsMax =  -5.15217868368723E-11  1.86033814382040E-02
 cg2d: Sum(rhs),rhsMax =  -5.37776490006081E-11  1.78441491688857E-02
 cg2d: Sum(rhs),rhsMax =  -5.62643265311635E-11  1.70723550249697E-02
 cg2d: Sum(rhs),rhsMax =  -5.90767434971440E-11  1.62882305719544E-02
 cg2d: Sum(rhs),rhsMax =  -6.22043527798155E-11  1.54920096337064E-02
 cg2d: Sum(rhs),rhsMax =  -6.57524035219126E-11  1.46839284659240E-02
 cg2d: Sum(rhs),rhsMax =  -6.97562008156183E-11  1.38642259469722E-02
 cg2d: Sum(rhs),rhsMax =  -7.43463068886285E-11  1.30331437851286E-02
 cg2d: Sum(rhs),rhsMax =  -7.96004373526671E-11  1.21909267411595E-02
 cg2d: Sum(rhs),rhsMax =  -8.56609227994909E-11  1.13378228650584E-02
 cg2d: Sum(rhs),rhsMax =  -9.28088161877838E-11  1.04740837456998E-02
 cg2d: Sum(rhs),rhsMax =  -1.01338992752886E-10  9.59996477211175E-03
 cg2d: Sum(rhs),rhsMax =  -1.11732512131368E-10  8.71572540500674E-03
 cg2d: Sum(rhs),rhsMax =  -1.24633636744420E-10  7.82162945713482E-03
 cg2d: Sum(rhs),rhsMax =  -1.41079203874739E-10  6.91794538094559E-03
 cg2d: Sum(rhs),rhsMax =  -1.62659954949795E-10  6.00494656209008E-03
 cg2d: Sum(rhs),rhsMax =  -1.92250514119419E-10  5.08291161674572E-03
 cg2d: Sum(rhs),rhsMax =  -2.35436808937450E-10  4.15212469120604E-03
 cg2d: Sum(rhs),rhsMax =  -3.04366087888752E-10  3.21287576212792E-03
 cg2d: Sum(rhs),rhsMax =  -3.15627857183642E-10  3.09894523457812E-03
 cg2d: Sum(rhs),rhsMax =  -2.56770049666954E-10  3.81027410438853E-03
 cg2d: Sum(rhs),rhsMax =  -2.15838680261982E-10  4.53470485393029E-03
 cg2d: Sum(rhs),rhsMax =  -1.85784054806959E-10  5.26981036719902E-03
 cg2d: Sum(rhs),rhsMax =  -1.62782010093565E-10  6.01519008946905E-03
 cg2d: Sum(rhs),rhsMax =  -1.44522394052160E-10  6.77700396183010E-03
 cg2d: Sum(rhs),rhsMax =  -1.29754984534713E-10  7.55017659770107E-03
 cg2d: Sum(rhs),rhsMax =  -1.17531651078195E-10  8.33864167104457E-03
 cg2d: Sum(rhs),rhsMax =  -1.07294839679639E-10  9.14480117641548E-03
 cg2d: Sum(rhs),rhsMax =  -9.86857262574858E-11  9.95271742692559E-03
 cg2d: Sum(rhs),rhsMax =  -9.13722431050701E-11  1.07584141814902E-02
 cg2d: Sum(rhs),rhsMax =  -8.51185788519615E-11  1.15616705558555E-02
 cg2d: Sum(rhs),rhsMax =  -7.96966936889021E-11  1.23622684734430E-02
 cg2d: Sum(rhs),rhsMax =  -7.49510453701419E-11  1.31599923437769E-02
 cg2d: Sum(rhs),rhsMax =  -7.07345293449180E-11  1.39546287452509E-02
 cg2d: Sum(rhs),rhsMax =  -6.70095090526956E-11  1.47459661135330E-02
 cg2d: Sum(rhs),rhsMax =  -6.36792840680300E-11  1.55337944398757E-02
 cg2d: Sum(rhs),rhsMax =  -6.06479311215935E-11  1.63179049759232E-02
 cg2d: Sum(rhs),rhsMax =  -5.79531977962233E-11  1.70980899414209E-02
 cg2d: Sum(rhs),rhsMax =  -5.55044898931101E-11  1.78741422482405E-02
 cg2d: Sum(rhs),rhsMax =  -5.32462962610225E-11  1.86458552389880E-02
 cg2d: Sum(rhs),rhsMax =  -5.11954922899349E-11  1.94130224390345E-02
 cg2d: Sum(rhs),rhsMax =  -4.93529661582670E-11  2.01754373220025E-02
 cg2d: Sum(rhs),rhsMax =  -4.75653960663180E-11  2.09852696771660E-02
 cg2d: Sum(rhs),rhsMax =  -4.54233317626063E-11  2.20196038525961E-02
 cg2d: Sum(rhs),rhsMax =  -4.34718927522226E-11  2.30520653625486E-02
 cg2d: Sum(rhs),rhsMax =  -4.17066381430686E-11  2.40821380087335E-02
 cg2d: Sum(rhs),rhsMax =  -4.00948163559178E-11  2.51092977853999E-02
 cg2d: Sum(rhs),rhsMax =  -3.85954601611616E-11  2.61330132170181E-02
 cg2d: Sum(rhs),rhsMax =  -3.72234465473298E-11  2.71527457305012E-02
 cg2d: Sum(rhs),rhsMax =  -3.59470231359182E-11  2.81679500615870E-02
 cg2d: Sum(rhs),rhsMax =  -3.47849526960431E-11  2.91780746946573E-02
 cg2d: Sum(rhs),rhsMax =  -3.36863870131765E-11  3.01825623351245E-02
 cg2d: Sum(rhs),rhsMax =  -3.26816351758907E-11  3.11808504134534E-02
 cg2d: Sum(rhs),rhsMax =  -3.17373904934470E-11  3.21723716198411E-02
 cg2d: Sum(rhs),rhsMax =  -3.08654213299064E-11  3.31565544685035E-02
 cg2d: Sum(rhs),rhsMax =  -3.00328650837400E-11  3.41328238904055E-02
 cg2d: Sum(rhs),rhsMax =  -2.92508239851941E-11  3.51006018531624E-02
 cg2d: Sum(rhs),rhsMax =  -2.85185208781513E-11  3.60593080067223E-02
 cg2d: Sum(rhs),rhsMax =  -2.78440603906915E-11  3.70083603536946E-02
 cg2d: Sum(rhs),rhsMax =  -2.72114553112601E-11  3.79471759406869E-02
 cg2d: Sum(rhs),rhsMax =  -2.65983901570621E-11  3.88751715724372E-02
 cg2d: Sum(rhs),rhsMax =  -2.60457211354037E-11  3.97917645457803E-02
 cg2d: Sum(rhs),rhsMax =  -2.55714338592838E-11  4.06963734007331E-02
 cg2d: Sum(rhs),rhsMax =  -2.50847120852882E-11  4.15884186868360E-02
 cg2d: Sum(rhs),rhsMax =  -2.46386244739938E-11  4.24673237429052E-02
 cg2d: Sum(rhs),rhsMax =  -2.42713626974478E-11  4.33325154882651E-02
 cg2d: Sum(rhs),rhsMax =  -2.38482567027631E-11  4.41834252233596E-02
 cg2d: Sum(rhs),rhsMax =  -2.34866570636427E-11  4.50194894374476E-02
 cg2d: Sum(rhs),rhsMax =  -2.31438201936385E-11  4.58401506210565E-02
 cg2d: Sum(rhs),rhsMax =  -2.28119745315780E-11  4.66448580807565E-02
 cg2d: Sum(rhs),rhsMax =  -2.25105489803923E-11  4.74330687537704E-02
 cg2d: Sum(rhs),rhsMax =  -2.22136753436075E-11  4.82042480199889E-02
 cg2d: Sum(rhs),rhsMax =  -2.18898232873244E-11  4.89578705089300E-02
 cg2d: Sum(rhs),rhsMax =  -2.16543449838014E-11  4.96934208996730E-02
 cg2d: Sum(rhs),rhsMax =  -2.14160911227168E-11  5.04103947114932E-02
 cg2d: Sum(rhs),rhsMax =  -2.11403117233999E-11  5.11082990829102E-02
 cg2d: Sum(rhs),rhsMax =  -2.09379180660108E-11  5.17866535370865E-02
 cg2d: Sum(rhs),rhsMax =  -2.07285300035664E-11  5.24449907317017E-02
 cg2d: Sum(rhs),rhsMax =  -2.05099270900178E-11  5.30828571915035E-02
 cg2d: Sum(rhs),rhsMax =  -2.03161931722207E-11  5.36998140216974E-02
 cg2d: Sum(rhs),rhsMax =  -2.01376693098609E-11  5.42954376002449E-02
 cg2d: Sum(rhs),rhsMax =  -1.99876781792341E-11  5.48693202470296E-02
 cg2d: Sum(rhs),rhsMax =  -1.97759586484381E-11  5.54210708677309E-02
 cg2d: Sum(rhs),rhsMax =  -1.96496152682357E-11  5.59503155701498E-02
 cg2d: Sum(rhs),rhsMax =  -1.95650162737593E-11  5.64566982506384E-02
 cg2d: Sum(rhs),rhsMax =  -1.94905203088069E-11  5.69398811482412E-02
 cg2d: Sum(rhs),rhsMax =  -1.94224636373974E-11  5.73995453641733E-02
 cg2d: Sum(rhs),rhsMax =  -1.93460802933032E-11  5.78353913448463E-02
 cg2d: Sum(rhs),rhsMax =  -1.92864613168808E-11  5.82471393264016E-02
 cg2d: Sum(rhs),rhsMax =  -1.92142968202802E-11  5.86345297360020E-02
 cg2d: Sum(rhs),rhsMax =  -1.91836546648005E-11  5.89973235519234E-02
 cg2d: Sum(rhs),rhsMax =  -1.91162641272058E-11  5.93353026213002E-02
 cg2d: Sum(rhs),rhsMax =  -1.90810700573252E-11  5.96482699348694E-02
 cg2d: Sum(rhs),rhsMax =  -1.90351068241057E-11  5.99360498591569E-02
 cg2d: Sum(rhs),rhsMax =  -1.89878113232567E-11  6.01984883257997E-02
 cg2d: Sum(rhs),rhsMax =  -1.91083815437310E-11  6.04354529790656E-02
 cg2d: Sum(rhs),rhsMax =  -1.91308080488284E-11  6.06468332782746E-02
 cg2d: Sum(rhs),rhsMax =  -1.91340276955998E-11  6.08325405688178E-02
 cg2d: Sum(rhs),rhsMax =  -1.91564542006972E-11  6.09925081145156E-02
 cg2d: Sum(rhs),rhsMax =  -1.92200699800082E-11  6.11266910912130E-02
 cg2d: Sum(rhs),rhsMax =  -1.92535987153519E-11  6.12350665432063E-02
 cg2d: Sum(rhs),rhsMax =  -1.93022264838305E-11  6.13176333082669E-02
 cg2d: Sum(rhs),rhsMax =  -1.91605620258883E-11  6.13744119015588E-02
 cg2d: Sum(rhs),rhsMax =  -1.90978344249970E-11  6.14054443627863E-02
 cg2d: Sum(rhs),rhsMax =  -1.90288895751678E-11  6.14107940714231E-02
 cg2d: Sum(rhs),rhsMax =  -1.90146787204526E-11  6.13905455288275E-02
 cg2d: Sum(rhs),rhsMax =  -1.90002458211325E-11  6.13448041054699E-02
 cg2d: Sum(rhs),rhsMax =  -1.90263360622112E-11  6.12736957544686E-02
 cg2d: Sum(rhs),rhsMax =  -1.90640836450484E-11  6.11773666873415E-02
 cg2d: Sum(rhs),rhsMax =  -1.91103799451753E-11  6.10559830118256E-02
 cg2d: Sum(rhs),rhsMax =  -1.91304749819210E-11  6.09097303344233E-02
 cg2d: Sum(rhs),rhsMax =  -1.91868743115720E-11  6.07388133279271E-02
 cg2d: Sum(rhs),rhsMax =  -1.91995308540527E-11  6.05434552639136E-02
 cg2d: Sum(rhs),rhsMax =  -1.92412752397786E-11  6.03238975086835E-02
 cg2d: Sum(rhs),rhsMax =  -1.92675875254622E-11  6.00803989857936E-02
 cg2d: Sum(rhs),rhsMax =  -1.93187688068974E-11  5.98132356061024E-02
 cg2d: Sum(rhs),rhsMax =  -1.93998150876951E-11  5.95226996666900E-02
 cg2d: Sum(rhs),rhsMax =  -1.94562144173460E-11  5.92090992206322E-02
 cg2d: Sum(rhs),rhsMax =  -1.95594651586362E-11  5.88727574189494E-02
 cg2d: Sum(rhs),rhsMax =  -1.96325178336565E-11  5.85140118279170E-02
 cg2d: Sum(rhs),rhsMax =  -1.97111216238000E-11  5.81332137344089E-02
 cg2d: Sum(rhs),rhsMax =  -1.98147054319975E-11  5.77307274326783E-02
 cg2d: Sum(rhs),rhsMax =  -1.98755456537469E-11  5.73069294975560E-02
 cg2d: Sum(rhs),rhsMax =  -2.00012229001345E-11  5.68622080493883E-02
 cg2d: Sum(rhs),rhsMax =  -2.01033634184000E-11  5.63969620155512E-02
 cg2d: Sum(rhs),rhsMax =  -2.02233785273620E-11  5.59116003924351E-02
 cg2d: Sum(rhs),rhsMax =  -2.03166372614305E-11  5.54065415102604E-02
 cg2d: Sum(rhs),rhsMax =  -2.04870564957105E-11  5.48822123003897E-02
 cg2d: Sum(rhs),rhsMax =  -2.06421546522506E-11  5.43390475791663E-02
 cg2d: Sum(rhs),rhsMax =  -2.08542072499540E-11  5.37774893371697E-02
 cg2d: Sum(rhs),rhsMax =  -2.10319539561965E-11  5.31979860337676E-02
 cg2d: Sum(rhs),rhsMax =  -2.12168060897966E-11  5.26009919018766E-02
 cg2d: Sum(rhs),rhsMax =  -2.14041007140509E-11  5.19869662631789E-02
 cg2d: Sum(rhs),rhsMax =  -2.16173745570813E-11  5.13563728536790E-02
 cg2d: Sum(rhs),rhsMax =  -2.18460805001541E-11  5.07096791589096E-02
 cg2d: Sum(rhs),rhsMax =  -2.20879980972200E-11  5.00473557588796E-02
 cg2d: Sum(rhs),rhsMax =  -2.23386864561803E-11  4.93698756835096E-02
 cg2d: Sum(rhs),rhsMax =  -2.25989227331524E-11  4.86777137823734E-02
 cg2d: Sum(rhs),rhsMax =  -2.28560503856556E-11  4.79713461054061E-02
 cg2d: Sum(rhs),rhsMax =  -2.31440422382434E-11  4.72512492933496E-02
 cg2d: Sum(rhs),rhsMax =  -2.34219310613071E-11  4.65178999839878E-02
 cg2d: Sum(rhs),rhsMax =  -2.37383446233252E-11  4.57717742399267E-02
 cg2d: Sum(rhs),rhsMax =  -2.40738540213670E-11  4.50133469976610E-02
 cg2d: Sum(rhs),rhsMax =  -2.43909337171999E-11  4.42430915379449E-02
 cg2d: Sum(rhs),rhsMax =  -2.47701859024119E-11  4.34614789788335E-02
 cg2d: Sum(rhs),rhsMax =  -2.51237919357550E-11  4.26689777931947E-02
 cg2d: Sum(rhs),rhsMax =  -2.55379051239402E-11  4.18660533525275E-02
 cg2d: Sum(rhs),rhsMax =  -2.59663401891430E-11  4.10531674986367E-02
 cg2d: Sum(rhs),rhsMax =  -2.63794541766060E-11  4.02307781442982E-02
 cg2d: Sum(rhs),rhsMax =  -2.68309818807211E-11  3.93993389036306E-02
 cg2d: Sum(rhs),rhsMax =  -2.73401301598142E-11  3.85592987525434E-02
 cg2d: Sum(rhs),rhsMax =  -2.78213008186867E-11  3.77111017193668E-02
 cg2d: Sum(rhs),rhsMax =  -2.84219314750089E-11  3.68551866055577E-02
 cg2d: Sum(rhs),rhsMax =  -2.90775181710501E-11  3.59919867361914E-02
 cg2d: Sum(rhs),rhsMax =  -2.97459834541769E-11  3.51219297397727E-02
 cg2d: Sum(rhs),rhsMax =  -3.03941316559531E-11  3.42454373567515E-02
 cg2d: Sum(rhs),rhsMax =  -3.11930481444733E-11  3.33629252760055E-02
 cg2d: Sum(rhs),rhsMax =  -3.20015125510054E-11  3.24748029984730E-02
 cg2d: Sum(rhs),rhsMax =  -3.28156390949630E-11  3.15814737270848E-02
 cg2d: Sum(rhs),rhsMax =  -3.37350147816551E-11  3.06833342822490E-02
 cg2d: Sum(rhs),rhsMax =  -3.46764839065372E-11  2.97807750416018E-02
 cg2d: Sum(rhs),rhsMax =  -3.56970009107727E-11  2.88741799033586E-02
 cg2d: Sum(rhs),rhsMax =  -3.68046704224412E-11  2.79639262711273E-02
 cg2d: Sum(rhs),rhsMax =  -3.79528630745085E-11  2.70503850606238E-02
 cg2d: Sum(rhs),rhsMax =  -3.92186283448837E-11  2.61339207341863E-02
 cg2d: Sum(rhs),rhsMax =  -4.05825373306357E-11  2.52148913532371E-02
 cg2d: Sum(rhs),rhsMax =  -4.20025125791312E-11  2.42936486489439E-02
 cg2d: Sum(rhs),rhsMax =  -4.35760316719325E-11  2.33705381115606E-02
 cg2d: Sum(rhs),rhsMax =  -4.52755610780287E-11  2.24458990986740E-02
 cg2d: Sum(rhs),rhsMax =  -4.71189753881163E-11  2.15200649619983E-02
 cg2d: Sum(rhs),rhsMax =  -4.91394702706316E-11  2.05933631934059E-02
 cg2d: Sum(rhs),rhsMax =  -5.13391551493214E-11  1.96661155846363E-02
 cg2d: Sum(rhs),rhsMax =  -5.37879740747371E-11  1.87386384025079E-02
 cg2d: Sum(rhs),rhsMax =  -5.61600765891512E-11  1.79147955310830E-02
 cg2d: Sum(rhs),rhsMax =  -5.86632964427736E-11  1.71044223311805E-02
 cg2d: Sum(rhs),rhsMax =  -6.15112405455420E-11  1.62895098114507E-02
 cg2d: Sum(rhs),rhsMax =  -6.46261932857328E-11  1.54703725010791E-02
 cg2d: Sum(rhs),rhsMax =  -6.80984157952480E-11  1.46473305262851E-02
 cg2d: Sum(rhs),rhsMax =  -7.21304127537792E-11  1.38207096798654E-02
 cg2d: Sum(rhs),rhsMax =  -7.66542385122193E-11  1.29908414787202E-02
 cg2d: Sum(rhs),rhsMax =  -8.18380918587991E-11  1.21580632076928E-02
 cg2d: Sum(rhs),rhsMax =  -8.77720118808156E-11  1.13227179482010E-02
 cg2d: Sum(rhs),rhsMax =  -9.47335543344252E-11  1.04851545901754E-02
 cg2d: Sum(rhs),rhsMax =  -1.02899466725148E-10  9.64572782589429E-03
 cg2d: Sum(rhs),rhsMax =  -1.12611475699964E-10  8.80479812454197E-03
 cg2d: Sum(rhs),rhsMax =  -1.24429577752494E-10  7.96273168603512E-03
 cg2d: Sum(rhs),rhsMax =  -1.39048883518456E-10  7.11990037525988E-03
 cg2d: Sum(rhs),rhsMax =  -1.57578838866357E-10  6.27668163620829E-03
 cg2d: Sum(rhs),rhsMax =  -1.81864301396217E-10  5.43345838556740E-03
 cg2d: Sum(rhs),rhsMax =  -2.15176321205490E-10  4.59061888671131E-03
 cg2d: Sum(rhs),rhsMax =  -2.63453259208291E-10  3.74855660471260E-03
 cg2d: Sum(rhs),rhsMax =  -3.03742919705030E-10  3.25064814980498E-03
 cg2d: Sum(rhs),rhsMax =  -2.84198886646436E-10  3.47305397726473E-03
 cg2d: Sum(rhs),rhsMax =  -2.67195265912790E-10  3.69314392974351E-03
 cg2d: Sum(rhs),rhsMax =  -2.52187701277329E-10  3.91080936170673E-03
 cg2d: Sum(rhs),rhsMax =  -2.38946182284927E-10  4.12594390284181E-03
 cg2d: Sum(rhs),rhsMax =  -2.27153740262054E-10  4.33844425808660E-03
 cg2d: Sum(rhs),rhsMax =  -2.16591966584190E-10  4.54821260193507E-03
 cg2d: Sum(rhs),rhsMax =  -2.03709493717952E-10  4.83480796121430E-03
 cg2d: Sum(rhs),rhsMax =  -1.76181180755464E-10  5.58843511696340E-03
 cg2d: Sum(rhs),rhsMax =  -1.54937507268471E-10  6.34926518609173E-03
 cg2d: Sum(rhs),rhsMax =  -1.38388633885711E-10  7.10278798828240E-03
 cg2d: Sum(rhs),rhsMax =  -1.24847909788173E-10  7.86674321392609E-03
 cg2d: Sum(rhs),rhsMax =  -1.13790976641326E-10  8.62487835184550E-03
 cg2d: Sum(rhs),rhsMax =  -1.04416031376786E-10  9.39039090291896E-03
 cg2d: Sum(rhs),rhsMax =  -9.65141300213190E-11  1.01551440850987E-02
 cg2d: Sum(rhs),rhsMax =  -8.95520324561971E-11  1.09269597109300E-02
 cg2d: Sum(rhs),rhsMax =  -8.36074542931442E-11  1.16897122784684E-02
 cg2d: Sum(rhs),rhsMax =  -7.84213805005152E-11  1.24431480430986E-02
 cg2d: Sum(rhs),rhsMax =  -7.38836769542672E-11  1.31870130591270E-02
 cg2d: Sum(rhs),rhsMax =  -6.99121871505781E-11  1.39210532586653E-02
 cg2d: Sum(rhs),rhsMax =  -6.64114319093301E-11  1.46450145482446E-02
 cg2d: Sum(rhs),rhsMax =  -6.32175423120884E-11  1.53586429224893E-02
 cg2d: Sum(rhs),rhsMax =  -6.03851413316647E-11  1.60616845937603E-02
 cg2d: Sum(rhs),rhsMax =  -5.78405101592239E-11  1.67538861364209E-02
 cg2d: Sum(rhs),rhsMax =  -5.54905010829998E-11  1.74349946442401E-02
 cg2d: Sum(rhs),rhsMax =  -5.33875166297548E-11  1.81047578994027E-02
 cg2d: Sum(rhs),rhsMax =  -5.14450704258707E-11  1.87629245516427E-02
 cg2d: Sum(rhs),rhsMax =  -4.96735985677788E-11  1.94092443060540E-02
 cg2d: Sum(rhs),rhsMax =  -4.80537831748507E-11  2.00434681186946E-02
 cg2d: Sum(rhs),rhsMax =  -4.65725236153958E-11  2.06653483989958E-02
 cg2d: Sum(rhs),rhsMax =  -4.51900739051325E-11  2.12746392181247E-02
 cg2d: Sum(rhs),rhsMax =  -4.38964420368393E-11  2.18710965227978E-02
 cg2d: Sum(rhs),rhsMax =  -4.27341495523592E-11  2.24544783543383E-02
 cg2d: Sum(rhs),rhsMax =  -4.15532053210654E-11  2.30245450728938E-02
 cg2d: Sum(rhs),rhsMax =  -4.05107059009424E-11  2.35810595867155E-02
 cg2d: Sum(rhs),rhsMax =  -3.95304899925009E-11  2.41237875862897E-02
 cg2d: Sum(rhs),rhsMax =  -3.86051191014758E-11  2.46524977829705E-02
 cg2d: Sum(rhs),rhsMax =  -3.77108344551402E-11  2.51669621516109E-02
 cg2d: Sum(rhs),rhsMax =  -3.69120289889224E-11  2.56669561765390E-02
 cg2d: Sum(rhs),rhsMax =  -3.61233265522287E-11  2.61522591000828E-02
 cg2d: Sum(rhs),rhsMax =  -3.54370977007079E-11  2.66226541727097E-02
 cg2d: Sum(rhs),rhsMax =  -3.47926132349130E-11  2.70779289037367E-02
 cg2d: Sum(rhs),rhsMax =  -3.41797701253199E-11  2.75178753117822E-02
 cg2d: Sum(rhs),rhsMax =  -3.36083383345454E-11  2.79422901738951E-02
 cg2d: Sum(rhs),rhsMax =  -3.30759863942376E-11  2.83509752698406E-02
 cg2d: Sum(rhs),rhsMax =  -3.25545146395712E-11  2.87437376231947E-02
 cg2d: Sum(rhs),rhsMax =  -3.21086490728817E-11  2.91203897377194E-02
 cg2d: Sum(rhs),rhsMax =  -3.16322523730150E-11  2.94807498275056E-02
 cg2d: Sum(rhs),rhsMax =  -3.12523340539883E-11  2.98246420397777E-02
 cg2d: Sum(rhs),rhsMax =  -3.08588710140612E-11  3.01518966694246E-02
 cg2d: Sum(rhs),rhsMax =  -3.05052649807180E-11  3.04623503644664E-02
 cg2d: Sum(rhs),rhsMax =  -3.01705327387936E-11  3.07558463218327E-02
 cg2d: Sum(rhs),rhsMax =  -2.98764346595704E-11  3.10322344727875E-02
 cg2d: Sum(rhs),rhsMax =  -2.95249380499740E-11  3.12913716564324E-02
 cg2d: Sum(rhs),rhsMax =  -2.92108559563076E-11  3.15331217817426E-02
 cg2d: Sum(rhs),rhsMax =  -2.89552826160389E-11  3.17573559827686E-02
 cg2d: Sum(rhs),rhsMax =  -2.86799473059318E-11  3.19639527608507E-02
 cg2d: Sum(rhs),rhsMax =  -2.84441359355014E-11  3.21527981142480E-02
 cg2d: Sum(rhs),rhsMax =  -2.82169843046631E-11  3.23237856557914E-02
 cg2d: Sum(rhs),rhsMax =  -2.80618861481230E-11  3.24768167199954E-02
 cg2d: Sum(rhs),rhsMax =  -2.79299916527975E-11  3.26118004617606E-02
 cg2d: Sum(rhs),rhsMax =  -2.77456946307097E-11  3.27286539367784E-02
 cg2d: Sum(rhs),rhsMax =  -2.76171308044582E-11  3.28273021735231E-02
 cg2d: Sum(rhs),rhsMax =  -2.75472977762092E-11  3.29076782362834E-02
 cg2d: Sum(rhs),rhsMax =  -2.75114375725138E-11  3.29697232784664E-02
 cg2d: Sum(rhs),rhsMax =  -2.74400502320304E-11  3.30133865854542E-02
 cg2d: Sum(rhs),rhsMax =  -2.74333888938827E-11  3.30386256066469E-02
 cg2d: Sum(rhs),rhsMax =  -2.74402722766354E-11  3.30454059766847E-02
 cg2d: Sum(rhs),rhsMax =  -2.73624456426091E-11  3.30337015260660E-02
 cg2d: Sum(rhs),rhsMax =  -2.73480127432890E-11  3.30034942819700E-02
 cg2d: Sum(rhs),rhsMax =  -2.73578937282082E-11  3.29547744584341E-02
 cg2d: Sum(rhs),rhsMax =  -2.73716604937135E-11  3.28875404360981E-02
 cg2d: Sum(rhs),rhsMax =  -2.74128497679271E-11  3.28017987330301E-02
 cg2d: Sum(rhs),rhsMax =  -2.74279488010620E-11  3.26975639669184E-02
 cg2d: Sum(rhs),rhsMax =  -2.74765765695406E-11  3.25748588092121E-02
 cg2d: Sum(rhs),rhsMax =  -2.75210965128281E-11  3.24337139286277E-02
 cg2d: Sum(rhs),rhsMax =  -2.75489631107462E-11  3.22741679270054E-02
 cg2d: Sum(rhs),rhsMax =  -2.76140221799892E-11  3.20962672678100E-02
 cg2d: Sum(rhs),rhsMax =  -2.77029510442617E-11  3.19000661934721E-02
 cg2d: Sum(rhs),rhsMax =  -2.77603495746348E-11  3.16856266441723E-02
 cg2d: Sum(rhs),rhsMax =  -2.79083423038173E-11  3.14530181684453E-02
 cg2d: Sum(rhs),rhsMax =  -2.80637735272649E-11  3.12023178262427E-02
 cg2d: Sum(rhs),rhsMax =  -2.82318612931931E-11  3.09336100861412E-02
 cg2d: Sum(rhs),rhsMax =  -2.83594259187225E-11  3.06469867184841E-02
 cg2d: Sum(rhs),rhsMax =  -2.85468315652793E-11  3.03425466857882E-02
 cg2d: Sum(rhs),rhsMax =  -2.87897483630672E-11  3.00203960313991E-02
 cg2d: Sum(rhs),rhsMax =  -2.90653057177792E-11  2.96806477671897E-02
 cg2d: Sum(rhs),rhsMax =  -2.94592128469162E-11  2.93234217611078E-02
 cg2d: Sum(rhs),rhsMax =  -2.98669977638610E-11  2.89488446257379E-02
 cg2d: Sum(rhs),rhsMax =  -3.03292946313150E-11  2.85570496082429E-02
 cg2d: Sum(rhs),rhsMax =  -3.08471026500001E-11  2.81481764801021E-02
 cg2d: Sum(rhs),rhsMax =  -3.14397397005450E-11  2.77223714308708E-02
 cg2d: Sum(rhs),rhsMax =  -3.20737880699085E-11  2.72797869657354E-02
 cg2d: Sum(rhs),rhsMax =  -3.27000648780995E-11  2.68205818065282E-02
 cg2d: Sum(rhs),rhsMax =  -3.33423288978452E-11  2.63449207954238E-02
 cg2d: Sum(rhs),rhsMax =  -3.40582007041235E-11  2.58529748012420E-02
 cg2d: Sum(rhs),rhsMax =  -3.47941675471475E-11  2.53449206286307E-02
 cg2d: Sum(rhs),rhsMax =  -3.56147333846479E-11  2.48209409281507E-02
 cg2d: Sum(rhs),rhsMax =  -3.65191210605076E-11  2.42812241130472E-02
 cg2d: Sum(rhs),rhsMax =  -3.74658082336055E-11  2.37259642810214E-02
 cg2d: Sum(rhs),rhsMax =  -3.84611231751819E-11  2.31553611381863E-02
 cg2d: Sum(rhs),rhsMax =  -3.95923294149725E-11  2.25696199280024E-02
 cg2d: Sum(rhs),rhsMax =  -4.07152089820784E-11  2.19689513655912E-02
 cg2d: Sum(rhs),rhsMax =  -4.19163592724203E-11  2.13535715783503E-02
 cg2d: Sum(rhs),rhsMax =  -4.32559543739330E-11  2.07237020544204E-02
 cg2d: Sum(rhs),rhsMax =  -4.47132331160560E-11  2.00795696003145E-02
 cg2d: Sum(rhs),rhsMax =  -4.62841986959006E-11  1.94214063085582E-02
 cg2d: Sum(rhs),rhsMax =  -4.80270267999572E-11  1.87494495362627E-02
 cg2d: Sum(rhs),rhsMax =  -4.98644459057118E-11  1.80639418957185E-02
 cg2d: Sum(rhs),rhsMax =  -5.19877474403074E-11  1.73651312504333E-02
 cg2d: Sum(rhs),rhsMax =  -5.42889067034480E-11  1.66532707185256E-02
 cg2d: Sum(rhs),rhsMax =  -5.68336488981913E-11  1.59286186858263E-02
 cg2d: Sum(rhs),rhsMax =  -5.96787064210957E-11  1.51914388263034E-02
 cg2d: Sum(rhs),rhsMax =  -6.29174490285322E-11  1.44420001273176E-02
 cg2d: Sum(rhs),rhsMax =  -6.65461019622171E-11  1.36805769175316E-02
 cg2d: Sum(rhs),rhsMax =  -7.06690261864651E-11  1.29074488958189E-02
 cg2d: Sum(rhs),rhsMax =  -7.53226370164839E-11  1.21229011600183E-02
 cg2d: Sum(rhs),rhsMax =  -8.06851252477259E-11  1.13272242347929E-02
 cg2d: Sum(rhs),rhsMax =  -8.69754268606471E-11  1.05207140981834E-02
 cg2d: Sum(rhs),rhsMax =  -9.43355393800971E-11  9.70367220671784E-03
 cg2d: Sum(rhs),rhsMax =  -1.03183850352906E-10  8.87640551918222E-03
 cg2d: Sum(rhs),rhsMax =  -1.14048548383039E-10  8.03922651934017E-03
 cg2d: Sum(rhs),rhsMax =  -1.27579224962204E-10  7.19245323798496E-03
 cg2d: Sum(rhs),rhsMax =  -1.44965539572439E-10  6.33640927469798E-03
 cg2d: Sum(rhs),rhsMax =  -1.67907160397718E-10  5.47142381957935E-03
 cg2d: Sum(rhs),rhsMax =  -1.99868066541597E-10  4.59783167503342E-03
 cg2d: Sum(rhs),rhsMax =  -2.42332855171501E-10  3.79257485317949E-03
 cg2d: Sum(rhs),rhsMax =  -2.59188059903437E-10  3.54715712526155E-03
 cg2d: Sum(rhs),rhsMax =  -2.78639777917533E-10  3.30011697611972E-03
 cg2d: Sum(rhs),rhsMax =  -3.01450975292994E-10  3.05157502169813E-03
(PID.TID 0000.0001)      cg2d_init_res =   1.57200807362072E+00
(PID.TID 0000.0001)      cg2d_iters(min,last) =      -1      40
(PID.TID 0000.0001)      cg2d_last_res =   8.91366306644050E-14
(PID.TID 0000.0001) // =======================================================
(PID.TID 0000.0001) // Begin MONITOR dynamic field statistics
(PID.TID 0000.0001) // =======================================================
(PID.TID 0000.0001) %MON time_tsnumber                =                  2400
(PID.TID 0000.0001) %MON time_secondsf                =   3.6000000000000E+04
(PID.TID 0000.0001) %MON dynstat_eta_max              =   1.1391342322495E-03
(PID.TID 0000.0001) %MON dynstat_eta_min              =  -1.0769434850746E-03
(PID.TID 0000.0001) %MON dynstat_eta_mean             =   1.9720552035293E-15
(PID.TID 0000.0001) %MON dynstat_eta_sd               =   6.0879135570294E-04
(PID.TID 0000.0001) %MON dynstat_eta_del2             =   3.3021106333833E-06
(PID.TID 0000.0001) %MON dynstat_uvel_max             =   3.1597890492870E-01
(PID.TID 0000.0001) %MON dynstat_uvel_min             =  -9.2549740189083E-02
(PID.TID 0000.0001) %MON dynstat_uvel_mean            =   6.7054943114701E-02
(PID.TID 0000.0001) %MON dynstat_uvel_sd              =   2.9849539116645E-02
(PID.TID 0000.0001) %MON dynstat_uvel_del2            =   7.4781284175772E-05
(PID.TID 0000.0001) %MON dynstat_vvel_max             =   0.0000000000000E+00
(PID.TID 0000.0001) %MON dynstat_vvel_min             =   0.0000000000000E+00
(PID.TID 0000.0001) %MON dynstat_vvel_mean            =   0.0000000000000E+00
(PID.TID 0000.0001) %MON dynstat_vvel_sd              =   0.0000000000000E+00
(PID.TID 0000.0001) %MON dynstat_vvel_del2            =   0.0000000000000E+00
(PID.TID 0000.0001) %MON dynstat_wvel_max             =   3.7412201961782E-03
(PID.TID 0000.0001) %MON dynstat_wvel_min             =  -3.7179333995610E-03
(PID.TID 0000.0001) %MON dynstat_wvel_mean            =   9.5189757762700E-22
(PID.TID 0000.0001) %MON dynstat_wvel_sd              =   2.5402749937279E-04
(PID.TID 0000.0001) %MON dynstat_wvel_del2            =   4.1075496394014E-06
(PID.TID 0000.0001) %MON dynstat_theta_max            =   1.5000000000008E+01
(PID.TID 0000.0001) %MON dynstat_theta_min            =   9.9999999999957E+00
(PID.TID 0000.0001) %MON dynstat_theta_mean           =   1.3335044534418E+01
(PID.TID 0000.0001) %MON dynstat_theta_sd             =   2.3146718594483E+00
(PID.TID 0000.0001) %MON dynstat_theta_del2           =   2.8298889358410E-04
(PID.TID 0000.0001) %MON dynstat_salt_max             =   3.5000000000000E+01
(PID.TID 0000.0001) %MON dynstat_salt_min             =   3.5000000000000E+01
(PID.TID 0000.0001) %MON dynstat_salt_mean            =   3.5000000000000E+01
(PID.TID 0000.0001) %MON dynstat_salt_sd              =   2.1316282072803E-14
(PID.TID 0000.0001) %MON dynstat_salt_del2            =   0.0000000000000E+00
(PID.TID 0000.0001) %MON dynstat_sst_max              =   1.5000000000001E+01
(PID.TID 0000.0001) %MON dynstat_sst_min              =   1.4999999999996E+01
(PID.TID 0000.0001) %MON dynstat_sst_mean             =   1.4999999999997E+01
(PID.TID 0000.0001) %MON dynstat_sst_sd               =   1.6182287402049E-12
(PID.TID 0000.0001) %MON dynstat_sst_del2             =   2.0578769222208E-14
(PID.TID 0000.0001) %MON dynstat_sss_max              =   3.5000000000000E+01
(PID.TID 0000.0001) %MON dynstat_sss_min              =   3.5000000000000E+01
(PID.TID 0000.0001) %MON dynstat_sss_mean             =   3.5000000000000E+01
(PID.TID 0000.0001) %MON dynstat_sss_sd               =   7.8159700933611E-14
(PID.TID 0000.0001) %MON dynstat_sss_del2             =   0.0000000000000E+00
(PID.TID 0000.0001) %MON forcing_qnet_max             =   0.0000000000000E+00
(PID.TID 0000.0001) %MON forcing_qnet_min             =   0.0000000000000E+00
(PID.TID 0000.0001) %MON forcing_qnet_mean            =   0.0000000000000E+00
(PID.TID 0000.0001) %MON forcing_qnet_sd              =   0.0000000000000E+00
(PID.TID 0000.0001) %MON forcing_qnet_del2            =   0.0000000000000E+00
(PID.TID 0000.0001) %MON forcing_qsw_max              =   0.0000000000000E+00
(PID.TID 0000.0001) %MON forcing_qsw_min              =   0.0000000000000E+00
(PID.TID 0000.0001) %MON forcing_qsw_mean             =   0.0000000000000E+00
(PID.TID 0000.0001) %MON forcing_qsw_sd               =   0.0000000000000E+00
(PID.TID 0000.0001) %MON forcing_qsw_del2             =   0.0000000000000E+00
(PID.TID 0000.0001) %MON forcing_empmr_max            =   0.0000000000000E+00
(PID.TID 0000.0001) %MON forcing_empmr_min            =   0.0000000000000E+00
(PID.TID 0000.0001) %MON forcing_empmr_mean           =   0.0000000000000E+00
(PID.TID 0000.0001) %MON forcing_empmr_sd             =   0.0000000000000E+00
(PID.TID 0000.0001) %MON forcing_empmr_del2           =   0.0000000000000E+00
(PID.TID 0000.0001) %MON forcing_fu_max               =   0.0000000000000E+00
(PID.TID 0000.0001) %MON forcing_fu_min               =   0.0000000000000E+00
(PID.TID 0000.0001) %MON forcing_fu_mean              =   0.0000000000000E+00
(PID.TID 0000.0001) %MON forcing_fu_sd                =   0.0000000000000E+00
(PID.TID 0000.0001) %MON forcing_fu_del2              =   0.0000000000000E+00
(PID.TID 0000.0001) %MON forcing_fv_max               =   0.0000000000000E+00
(PID.TID 0000.0001) %MON forcing_fv_min               =   0.0000000000000E+00
(PID.TID 0000.0001) %MON forcing_fv_mean              =   0.0000000000000E+00
(PID.TID 0000.0001) %MON forcing_fv_sd                =   0.0000000000000E+00
(PID.TID 0000.0001) %MON forcing_fv_del2              =   0.0000000000000E+00
(PID.TID 0000.0001) %MON advcfl_uvel_max              =   2.3698417869653E-02
(PID.TID 0000.0001) %MON advcfl_vvel_max              =   0.0000000000000E+00
(PID.TID 0000.0001) %MON advcfl_wvel_max              =   3.5831391369877E-02
(PID.TID 0000.0001) %MON advcfl_W_hf_max              =   3.6131193912051E-02
(PID.TID 0000.0001) %MON pe_b_mean                    =   9.2594169960505E-09
(PID.TID 0000.0001) %MON ke_max                       =   4.8805149552512E-02
(PID.TID 0000.0001) %MON ke_mean                      =   2.6974654610672E-03
(PID.TID 0000.0001) %MON ke_vol                       =   9.5889217545975E+10
(PID.TID 0000.0001) %MON vort_r_min                   =   0.0000000000000E+00
(PID.TID 0000.0001) %MON vort_r_max                   =   0.0000000000000E+00
(PID.TID 0000.0001) %MON vort_a_mean                  =   0.0000000000000E+00
(PID.TID 0000.0001) %MON vort_a_sd                    =   0.0000000000000E+00
(PID.TID 0000.0001) %MON vort_p_mean                  =   0.0000000000000E+00
(PID.TID 0000.0001) %MON vort_p_sd                    =   0.0000000000000E+00
(PID.TID 0000.0001) %MON surfExpan_theta_mean         =   2.1152088891242E-18
(PID.TID 0000.0001) %MON surfExpan_salt_mean          =   2.2113441671267E-19
(PID.TID 0000.0001) // =======================================================
(PID.TID 0000.0001) // End MONITOR dynamic field statistics
(PID.TID 0000.0001) // =======================================================
(PID.TID 0000.0001) // =======================================================
(PID.TID 0000.0001) // Begin OBCS MONITOR field statistics
(PID.TID 0000.0001) // =======================================================
(PID.TID 0000.0001) %MON obc_E_uVel_max               =   6.6809804669674E-02
(PID.TID 0000.0001) %MON obc_E_uVel_min               =   6.6809804669674E-02
(PID.TID 0000.0001) %MON obc_E_uVel_mean              =   6.6809804669674E-02
(PID.TID 0000.0001) %MON obc_E_uVel_sd                =  -1.7347234759768E-18
(PID.TID 0000.0001) %MON obc_E_uVel_Int               =   6.6809804669674E+04
(PID.TID 0000.0001) %MON obc_W_uVel_max               =   6.6809804669674E-02
(PID.TID 0000.0001) %MON obc_W_uVel_min               =   6.6809804669674E-02
(PID.TID 0000.0001) %MON obc_W_uVel_mean              =   6.6809804669674E-02
(PID.TID 0000.0001) %MON obc_W_uVel_sd                =  -1.7347234759768E-18
(PID.TID 0000.0001) %MON obc_W_uVel_Int               =   6.6809804669674E+04
(PID.TID 0000.0001) // =======================================================
(PID.TID 0000.0001) // End OBCS MONITOR field statistics
(PID.TID 0000.0001) // =======================================================
 cg2d: Sum(rhs),rhsMax =  -2.60079624503362E-10  3.53768708223361E-03
 cg2d: Sum(rhs),rhsMax =  -2.19502527265547E-10  4.19249493870665E-03
 cg2d: Sum(rhs),rhsMax =  -1.89331328392939E-10  4.86219596973848E-03
 cg2d: Sum(rhs),rhsMax =  -1.66042402049982E-10  5.54545366498113E-03
 cg2d: Sum(rhs),rhsMax =  -1.47614698242649E-10  6.24022667080566E-03
 cg2d: Sum(rhs),rhsMax =  -1.32673871888755E-10  6.94766618635823E-03
 cg2d: Sum(rhs),rhsMax =  -1.20182974683303E-10  7.67171045793041E-03
 cg2d: Sum(rhs),rhsMax =  -1.09648290447240E-10  8.41468099897057E-03
 cg2d: Sum(rhs),rhsMax =  -1.00817243442464E-10  9.16301832201167E-03
 cg2d: Sum(rhs),rhsMax =  -9.32818267074254E-11  9.91013666646733E-03
 cg2d: Sum(rhs),rhsMax =  -8.68300986667236E-11  1.06557997609736E-02
 cg2d: Sum(rhs),rhsMax =  -8.12671041572344E-11  1.13997733005840E-02
 cg2d: Sum(rhs),rhsMax =  -7.63558105632001E-11  1.21418247899057E-02
 cg2d: Sum(rhs),rhsMax =  -7.20297155254457E-11  1.28817233878555E-02
 cg2d: Sum(rhs),rhsMax =  -6.81834588789343E-11  1.36192397555084E-02
 cg2d: Sum(rhs),rhsMax =  -6.47500941752810E-11  1.43541459077265E-02
 cg2d: Sum(rhs),rhsMax =  -6.16591222524221E-11  1.50862150694067E-02
 cg2d: Sum(rhs),rhsMax =  -5.80452352849647E-11  1.60494026207839E-02
 cg2d: Sum(rhs),rhsMax =  -5.47859535515727E-11  1.70155786268056E-02
 cg2d: Sum(rhs),rhsMax =  -5.18808329630360E-11  1.79806608323712E-02
 cg2d: Sum(rhs),rhsMax =  -4.93427521064405E-11  1.89441833935565E-02
 cg2d: Sum(rhs),rhsMax =  -4.70876670988218E-11  1.99056769043242E-02
 cg2d: Sum(rhs),rhsMax =  -4.50340875701727E-11  2.08646686509725E-02
 cg2d: Sum(rhs),rhsMax =  -4.31537028333651E-11  2.18206828816623E-02
 cg2d: Sum(rhs),rhsMax =  -4.14084322386543E-11  2.27732410911080E-02
 cg2d: Sum(rhs),rhsMax =  -3.98663324574500E-11  2.37218623191887E-02
 cg2d: Sum(rhs),rhsMax =  -3.84290377297702E-11  2.46660634678757E-02
 cg2d: Sum(rhs),rhsMax =  -3.70800057325482E-11  2.56053596319121E-02
 cg2d: Sum(rhs),rhsMax =  -3.58489904428438E-11  2.65392644434998E-02
 cg2d: Sum(rhs),rhsMax =  -3.46981332555174E-11  2.74672904313271E-02
 cg2d: Sum(rhs),rhsMax =  -3.36484173857343E-11  2.83889493939118E-02
 cg2d: Sum(rhs),rhsMax =  -3.26652038751263E-11  2.93037527867652E-02
 cg2d: Sum(rhs),rhsMax =  -3.17283976869476E-11  3.02112121225692E-02
 cg2d: Sum(rhs),rhsMax =  -3.08892911249359E-11  3.11108393834491E-02
 cg2d: Sum(rhs),rhsMax =  -3.00591773694237E-11  3.20021474444377E-02
 cg2d: Sum(rhs),rhsMax =  -2.93313151544794E-11  3.28846505072782E-02
 cg2d: Sum(rhs),rhsMax =  -2.86110024561026E-11  3.37578645437241E-02
 cg2d: Sum(rhs),rhsMax =  -2.79661849234003E-11  3.46213077472789E-02
 cg2d: Sum(rhs),rhsMax =  -2.73473466094742E-11  3.54745009928313E-02
 cg2d: Sum(rhs),rhsMax =  -2.67256217156842E-11  3.63169683030442E-02
 cg2d: Sum(rhs),rhsMax =  -2.62521115956815E-11  3.71482373220864E-02
 cg2d: Sum(rhs),rhsMax =  -2.58031374045231E-11  3.79678397943837E-02
 cg2d: Sum(rhs),rhsMax =  -2.53354004442485E-11  3.87753120453230E-02
 cg2d: Sum(rhs),rhsMax =  -2.49124054718664E-11  3.95701954653856E-02
 cg2d: Sum(rhs),rhsMax =  -2.45192754988466E-11  4.03520369967230E-02
 cg2d: Sum(rhs),rhsMax =  -2.41121567157165E-11  4.11203896209028E-02
 cg2d: Sum(rhs),rhsMax =  -2.37738717601133E-11  4.18748128466366E-02
 cg2d: Sum(rhs),rhsMax =  -2.34297026224795E-11  4.26148731962452E-02
 cg2d: Sum(rhs),rhsMax =  -2.31195063093992E-11  4.33401446896980E-02
 cg2d: Sum(rhs),rhsMax =  -2.28350671704902E-11  4.40502093251320E-02
 cg2d: Sum(rhs),rhsMax =  -2.25365281991685E-11  4.47446575547607E-02
 cg2d: Sum(rhs),rhsMax =  -2.22371010494271E-11  4.54230887550695E-02
 cg2d: Sum(rhs),rhsMax =  -2.19939622070342E-11  4.60851116901667E-02
 cg2d: Sum(rhs),rhsMax =  -2.17540430114127E-11  4.67303449671483E-02
 cg2d: Sum(rhs),rhsMax =  -2.15123474589518E-11  4.73584174823261E-02
 cg2d: Sum(rhs),rhsMax =  -2.12931894338908E-11  4.79689688571749E-02
 cg2d: Sum(rhs),rhsMax =  -2.10920170218287E-11  4.85616498628490E-02
 cg2d: Sum(rhs),rhsMax =  -2.09077199997409E-11  4.91361228320122E-02
 cg2d: Sum(rhs),rhsMax =  -2.07273087582394E-11  4.96920620571300E-02
 cg2d: Sum(rhs),rhsMax =  -2.05337968850472E-11  5.02291541739154E-02
 cg2d: Sum(rhs),rhsMax =  -2.03649319630017E-11  5.07470985286554E-02
 cg2d: Sum(rhs),rhsMax =  -2.02062810927828E-11  5.12456075282925E-02
 cg2d: Sum(rhs),rhsMax =  -2.00850447384937E-11  5.17244069722675E-02
 cg2d: Sum(rhs),rhsMax =  -1.99424921021318E-11  5.21832363651975E-02
 cg2d: Sum(rhs),rhsMax =  -1.98373539816998E-11  5.26218492095037E-02
 cg2d: Sum(rhs),rhsMax =  -1.98010496887946E-11  5.30400132787827E-02
 cg2d: Sum(rhs),rhsMax =  -1.96905824978444E-11  5.34375108664216E-02
 cg2d: Sum(rhs),rhsMax =  -1.96576088740130E-11  5.38141390127512E-02
 cg2d: Sum(rhs),rhsMax =  -1.95021776505655E-11  5.41697097101586E-02
 cg2d: Sum(rhs),rhsMax =  -1.94745330972523E-11  5.45040500856149E-02
 cg2d: Sum(rhs),rhsMax =  -1.94186888791137E-11  5.48170025601857E-02
 cg2d: Sum(rhs),rhsMax =  -1.93864924113996E-11  5.51084249852217E-02
 cg2d: Sum(rhs),rhsMax =  -1.93380866875259E-11  5.53781907552069E-02
 cg2d: Sum(rhs),rhsMax =  -1.93198790299220E-11  5.56261888948695E-02
 cg2d: Sum(rhs),rhsMax =  -1.93841609430478E-11  5.58523241271920E-02
 cg2d: Sum(rhs),rhsMax =  -1.94151361654349E-11  5.60565169195886E-02
 cg2d: Sum(rhs),rhsMax =  -1.94513294360377E-11  5.62387035052483E-02
 cg2d: Sum(rhs),rhsMax =  -1.94492200122909E-11  5.63988358803226E-02
 cg2d: Sum(rhs),rhsMax =  -1.94807503461902E-11  5.65368817803736E-02
 cg2d: Sum(rhs),rhsMax =  -1.93721705343819E-11  5.66528246315361E-02
 cg2d: Sum(rhs),rhsMax =  -1.92421634181983E-11  5.67466634744804E-02
 cg2d: Sum(rhs),rhsMax =  -1.90497617680307E-11  5.68184128679168E-02
 cg2d: Sum(rhs),rhsMax =  -1.88495885566908E-11  5.68681027708085E-02
 cg2d: Sum(rhs),rhsMax =  -1.87438953247465E-11  5.68957784023685E-02
 cg2d: Sum(rhs),rhsMax =  -1.86570758842208E-11  5.69015000792539E-02
 cg2d: Sum(rhs),rhsMax =  -1.86493043230485E-11  5.68853430297753E-02
 cg2d: Sum(rhs),rhsMax =  -1.86722859396582E-11  5.68473971852929E-02
 cg2d: Sum(rhs),rhsMax =  -1.86713977612385E-11  5.67877669505524E-02
 cg2d: Sum(rhs),rhsMax =  -1.86977100469221E-11  5.67065709543278E-02
 cg2d: Sum(rhs),rhsMax =  -1.87212467750442E-11  5.66039417778825E-02
 cg2d: Sum(rhs),rhsMax =  -1.87598825363011E-11  5.64800256639866E-02
 cg2d: Sum(rhs),rhsMax =  -1.88005166990024E-11  5.63349822083000E-02
 cg2d: Sum(rhs),rhsMax =  -1.88234983156121E-11  5.61689840349609E-02
 cg2d: Sum(rhs),rhsMax =  -1.88736803963252E-11  5.59822164568807E-02
 cg2d: Sum(rhs),rhsMax =  -1.89165350050757E-11  5.57748771213632E-02
 cg2d: Sum(rhs),rhsMax =  -1.89308568820934E-11  5.55471756413710E-02
 cg2d: Sum(rhs),rhsMax =  -1.89831483865532E-11  5.52993332110491E-02
 cg2d: Sum(rhs),rhsMax =  -1.90394366939017E-11  5.50315822177466E-02
 cg2d: Sum(rhs),rhsMax =  -1.90608639982770E-11  5.47441658409571E-02
 cg2d: Sum(rhs),rhsMax =  -1.91613391820056E-11  5.44373376400089E-02
 cg2d: Sum(rhs),rhsMax =  -1.92137417087679E-11  5.41113611325486E-02
 cg2d: Sum(rhs),rhsMax =  -1.92651450348080E-11  5.37665093657083E-02
 cg2d: Sum(rhs),rhsMax =  -1.93490778954697E-11  5.34030644813688E-02
 cg2d: Sum(rhs),rhsMax =  -1.94271265741008E-11  5.30213172765320E-02
 cg2d: Sum(rhs),rhsMax =  -1.94796401231656E-11  5.26215667596070E-02
 cg2d: Sum(rhs),rhsMax =  -1.95999882990350E-11  5.22041197046235E-02
 cg2d: Sum(rhs),rhsMax =  -1.96425098408781E-11  5.17692902009924E-02
 cg2d: Sum(rhs),rhsMax =  -1.97721838901543E-11  5.13173992022087E-02
 cg2d: Sum(rhs),rhsMax =  -1.99273930689969E-11  5.08487740752726E-02
 cg2d: Sum(rhs),rhsMax =  -2.00681693485194E-11  5.03637481488610E-02
 cg2d: Sum(rhs),rhsMax =  -2.02410310734535E-11  4.98626602667512E-02
 cg2d: Sum(rhs),rhsMax =  -2.03980166091355E-11  4.93458543465787E-02
 cg2d: Sum(rhs),rhsMax =  -2.05755412707731E-11  4.88136789411375E-02
 cg2d: Sum(rhs),rhsMax =  -2.07736050583662E-11  4.82664868041102E-02
 cg2d: Sum(rhs),rhsMax =  -2.09682271545830E-11  4.77046344622214E-02
 cg2d: Sum(rhs),rhsMax =  -2.11558548457447E-11  4.71284817956083E-02
 cg2d: Sum(rhs),rhsMax =  -2.13782325175771E-11  4.65383916275149E-02
 cg2d: Sum(rhs),rhsMax =  -2.16061613045326E-11  4.59347293250518E-02
 cg2d: Sum(rhs),rhsMax =  -2.18408624519384E-11  4.53178624123600E-02
 cg2d: Sum(rhs),rhsMax =  -2.20986562382564E-11  4.46881601956626E-02
 cg2d: Sum(rhs),rhsMax =  -2.23268070698168E-11  4.40459934025698E-02
 cg2d: Sum(rhs),rhsMax =  -2.26207941267376E-11  4.33917338366119E-02
 cg2d: Sum(rhs),rhsMax =  -2.29202212764790E-11  4.27257540367373E-02
 cg2d: Sum(rhs),rhsMax =  -2.31815677764757E-11  4.20484269539314E-02
 cg2d: Sum(rhs),rhsMax =  -2.35037544982220E-11  4.13601256437845E-02
 cg2d: Sum(rhs),rhsMax =  -2.38207231717524E-11  4.06612229733280E-02
 cg2d: Sum(rhs),rhsMax =  -2.41718867144414E-11  3.99520913405226E-02
 cg2d: Sum(rhs),rhsMax =  -2.44997355736132E-11  3.92331024053047E-02
 cg2d: Sum(rhs),rhsMax =  -2.48944198588674E-11  3.85046268316220E-02
 cg2d: Sum(rhs),rhsMax =  -2.52599052785740E-11  3.77670340402428E-02
 cg2d: Sum(rhs),rhsMax =  -2.57144305848556E-11  3.70206919723208E-02
 cg2d: Sum(rhs),rhsMax =  -2.61193289219364E-11  3.62659668638384E-02
 cg2d: Sum(rhs),rhsMax =  -2.66351385391772E-11  3.55032230312240E-02
 cg2d: Sum(rhs),rhsMax =  -2.70837796634282E-11  3.47328226686674E-02
 cg2d: Sum(rhs),rhsMax =  -2.75787170878061E-11  3.39551256579277E-02
 cg2d: Sum(rhs),rhsMax =  -2.81996648254790E-11  3.31704893916899E-02
 cg2d: Sum(rhs),rhsMax =  -2.88434831574591E-11  3.23792686117303E-02
 cg2d: Sum(rhs),rhsMax =  -2.95017343887594E-11  3.15818152632656E-02
 cg2d: Sum(rhs),rhsMax =  -3.02379232763883E-11  3.07784783668604E-02
 cg2d: Sum(rhs),rhsMax =  -3.09855474611709E-11  2.99696039091447E-02
 cg2d: Sum(rhs),rhsMax =  -3.17651460690627E-11  2.91555347533481E-02
 cg2d: Sum(rhs),rhsMax =  -3.26463300837077E-11  2.83366105704362E-02
 cg2d: Sum(rhs),rhsMax =  -3.35291794328896E-11  2.75131677906944E-02
 cg2d: Sum(rhs),rhsMax =  -3.45357076270147E-11  2.66855395755129E-02
 cg2d: Sum(rhs),rhsMax =  -3.55758755787861E-11  2.58540558086034E-02
 cg2d: Sum(rhs),rhsMax =  -3.66614516522645E-11  2.50190431052101E-02
 cg2d: Sum(rhs),rhsMax =  -3.78753695073897E-11  2.41808248339235E-02
 cg2d: Sum(rhs),rhsMax =  -3.91620069706278E-11  2.33397211579688E-02
 cg2d: Sum(rhs),rhsMax =  -4.05531164204831E-11  2.24960490871384E-02
 cg2d: Sum(rhs),rhsMax =  -4.20385948274316E-11  2.16501225363989E-02
 cg2d: Sum(rhs),rhsMax =  -4.36674030268591E-11  2.08022523887817E-02
 cg2d: Sum(rhs),rhsMax =  -4.54586368547893E-11  1.99527465601247E-02
 cg2d: Sum(rhs),rhsMax =  -4.73656669441880E-11  1.91019100668002E-02
 cg2d: Sum(rhs),rhsMax =  -4.94826402075432E-11  1.82500450953418E-02
 cg2d: Sum(rhs),rhsMax =  -5.18177722952373E-11  1.73974510732268E-02
 cg2d: Sum(rhs),rhsMax =  -5.43743938763441E-11  1.65444247406472E-02
 cg2d: Sum(rhs),rhsMax =  -5.72152325517550E-11  1.56912602237726E-02
 cg2d: Sum(rhs),rhsMax =  -6.03643801611042E-11  1.48382491105339E-02
 cg2d: Sum(rhs),rhsMax =  -6.39367447874406E-11  1.39856805302146E-02
 cg2d: Sum(rhs),rhsMax =  -6.79369893674675E-11  1.31338412381144E-02
 cg2d: Sum(rhs),rhsMax =  -7.24730275791785E-11  1.22830157062836E-02
 cg2d: Sum(rhs),rhsMax =  -7.77902187110158E-11  1.14334862208899E-02
 cg2d: Sum(rhs),rhsMax =  -8.39431857357908E-11  1.05855329862784E-02
 cg2d: Sum(rhs),rhsMax =  -9.11618558419036E-11  9.73943423515708E-03
 cg2d: Sum(rhs),rhsMax =  -9.97186777595971E-11  8.89546634381577E-03
 cg2d: Sum(rhs),rhsMax =  -1.10044862111636E-10  8.05390395088880E-03
 cg2d: Sum(rhs),rhsMax =  -1.22727383811139E-10  7.21502007787975E-03
 cg2d: Sum(rhs),rhsMax =  -1.38678180050533E-10  6.37908624948199E-03
 cg2d: Sum(rhs),rhsMax =  -1.59366075891398E-10  5.54637261167154E-03
 cg2d: Sum(rhs),rhsMax =  -1.87209026059065E-10  4.71714804562712E-03
 cg2d: Sum(rhs),rhsMax =  -2.26827445715116E-10  3.89211805589988E-03
 cg2d: Sum(rhs),rhsMax =  -2.57499355171831E-10  3.42692612724661E-03
 cg2d: Sum(rhs),rhsMax =  -2.41018982549690E-10  3.66088101306914E-03
 cg2d: Sum(rhs),rhsMax =  -2.24171736729062E-10  3.93383953095208E-03
 cg2d: Sum(rhs),rhsMax =  -2.09683465035582E-10  4.20490097602166E-03
 cg2d: Sum(rhs),rhsMax =  -1.97030877724380E-10  4.47394549031293E-03
 cg2d: Sum(rhs),rhsMax =  -1.85829546195393E-10  4.74085504146096E-03
 cg2d: Sum(rhs),rhsMax =  -1.75966852200560E-10  5.00551309055864E-03
 cg2d: Sum(rhs),rhsMax =  -1.66630709230731E-10  5.28079843647972E-03
 cg2d: Sum(rhs),rhsMax =  -1.57095891850645E-10  5.59906231391151E-03
 cg2d: Sum(rhs),rhsMax =  -1.48421497314644E-10  5.92325997048502E-03
 cg2d: Sum(rhs),rhsMax =  -1.40376377189000E-10  6.25300051197797E-03
 cg2d: Sum(rhs),rhsMax =  -1.33279498548688E-10  6.58332872879159E-03
 cg2d: Sum(rhs),rhsMax =  -1.26820109969117E-10  6.91418107325638E-03
 cg2d: Sum(rhs),rhsMax =  -1.20820242699438E-10  7.24980614499098E-03
 cg2d: Sum(rhs),rhsMax =  -1.10826015031762E-10  7.89763876100913E-03
 cg2d: Sum(rhs),rhsMax =  -1.01595731827331E-10  8.60510394035228E-03
 cg2d: Sum(rhs),rhsMax =  -9.38017441498573E-11  9.31110956352453E-03
 cg2d: Sum(rhs),rhsMax =  -8.70936656127697E-11  1.00240767619417E-02
 cg2d: Sum(rhs),rhsMax =  -8.12254707938109E-11  1.07283409713041E-02
 cg2d: Sum(rhs),rhsMax =  -7.61215535050042E-11  1.14236484954014E-02
 cg2d: Sum(rhs),rhsMax =  -7.17184089893408E-11  1.21097465428401E-02
 cg2d: Sum(rhs),rhsMax =  -6.78382905405783E-11  1.27863833065910E-02
 cg2d: Sum(rhs),rhsMax =  -6.43993747218019E-11  1.34533080517753E-02
 cg2d: Sum(rhs),rhsMax =  -6.13153972039981E-11  1.41102712117487E-02
 cg2d: Sum(rhs),rhsMax =  -5.85080872639310E-11  1.47570244924904E-02
 cg2d: Sum(rhs),rhsMax =  -5.60387292125597E-11  1.53933209851886E-02
 cg2d: Sum(rhs),rhsMax =  -5.38068478661557E-11  1.60189152868026E-02
 cg2d: Sum(rhs),rhsMax =  -5.17088594165216E-11  1.66335636282766E-02
 cg2d: Sum(rhs),rhsMax =  -4.98704411100448E-11  1.72370240100083E-02
 cg2d: Sum(rhs),rhsMax =  -4.81155115750198E-11  1.78290563441110E-02
 cg2d: Sum(rhs),rhsMax =  -4.65483207534589E-11  1.84094226029571E-02
 cg2d: Sum(rhs),rhsMax =  -4.50897097437064E-11  1.89778869734494E-02
 cg2d: Sum(rhs),rhsMax =  -4.37352376536637E-11  1.95342160164340E-02
 cg2d: Sum(rhs),rhsMax =  -4.25178781071622E-11  2.00781788306302E-02
 cg2d: Sum(rhs),rhsMax =  -4.13730161241688E-11  2.06095472204328E-02
 cg2d: Sum(rhs),rhsMax =  -4.02985422809365E-11  2.11280958672120E-02
 cg2d: Sum(rhs),rhsMax =  -3.92591514852825E-11  2.16336025033635E-02
 cg2d: Sum(rhs),rhsMax =  -3.82998077697039E-11  2.21258480884503E-02
 cg2d: Sum(rhs),rhsMax =  -3.73816533283389E-11  2.26046169869298E-02
 cg2d: Sum(rhs),rhsMax =  -3.65377728073213E-11  2.30696971470576E-02
 cg2d: Sum(rhs),rhsMax =  -3.57716078980275E-11  2.35208802805862E-02
 cg2d: Sum(rhs),rhsMax =  -3.50368623003305E-11  2.39579620428558E-02
 cg2d: Sum(rhs),rhsMax =  -3.43168826688611E-11  2.43807422130127E-02
 cg2d: Sum(rhs),rhsMax =  -3.36808358980534E-11  2.47890248744956E-02
 cg2d: Sum(rhs),rhsMax =  -3.30866445352740E-11  2.51826185926886E-02
 cg2d: Sum(rhs),rhsMax =  -3.25145466106846E-11  2.55613365918636E-02
 cg2d: Sum(rhs),rhsMax =  -3.20474757842248E-11  2.59249969308977E-02
 cg2d: Sum(rhs),rhsMax =  -3.15782955340183E-11  2.62734226770436E-02
 cg2d: Sum(rhs),rhsMax =  -3.10900194477881E-11  2.66064420775842E-02
 cg2d: Sum(rhs),rhsMax =  -3.06855651999172E-11  2.69238887286776E-02
 cg2d: Sum(rhs),rhsMax =  -3.02552427555725E-11  2.72256017407050E-02
 cg2d: Sum(rhs),rhsMax =  -2.99222868704874E-11  2.75114258997877E-02
 cg2d: Sum(rhs),rhsMax =  -2.95680147033295E-11  2.77812118250448E-02
 cg2d: Sum(rhs),rhsMax =  -2.92841306759328E-11  2.80348161182898E-02
 cg2d: Sum(rhs),rhsMax =  -2.89624990656989E-11  2.82721015151661E-02
 cg2d: Sum(rhs),rhsMax =  -2.86312085151508E-11  2.84929370294320E-02
 cg2d: Sum(rhs),rhsMax =  -2.83433276848655E-11  2.86971980904229E-02
 cg2d: Sum(rhs),rhsMax =  -2.80814260733564E-11  2.88847666739509E-02
 cg2d: Sum(rhs),rhsMax =  -2.79187784002488E-11  2.90555314278976E-02
 cg2d: Sum(rhs),rhsMax =  -2.76777489816027E-11  2.92093877935995E-02
 cg2d: Sum(rhs),rhsMax =  -2.75174327768468E-11  2.93462381146035E-02
 cg2d: Sum(rhs),rhsMax =  -2.73727707167382E-11  2.94659917412987E-02
 cg2d: Sum(rhs),rhsMax =  -2.72479816487703E-11  2.95685651307556E-02
 cg2d: Sum(rhs),rhsMax =  -2.72156741587537E-11  2.96538819408336E-02
 cg2d: Sum(rhs),rhsMax =  -2.71367373017029E-11  2.97218731178059E-02
 cg2d: Sum(rhs),rhsMax =  -2.70661271173367E-11  2.97724769770626E-02
 cg2d: Sum(rhs),rhsMax =  -2.70405919877703E-11  2.98056392767218E-02
 cg2d: Sum(rhs),rhsMax =  -2.69630984206515E-11  2.98213132841289E-02
 cg2d: Sum(rhs),rhsMax =  -2.68941535708223E-11  2.98194598352674E-02
 cg2d: Sum(rhs),rhsMax =  -2.69002597974577E-11  2.98000473878628E-02
 cg2d: Sum(rhs),rhsMax =  -2.68918221024705E-11  2.97630520659529E-02
 cg2d: Sum(rhs),rhsMax =  -2.68854938312302E-11  2.97084576976082E-02
 cg2d: Sum(rhs),rhsMax =  -2.69074762471178E-11  2.96362558462900E-02
 cg2d: Sum(rhs),rhsMax =  -2.69132494068458E-11  2.95464458356602E-02
 cg2d: Sum(rhs),rhsMax =  -2.69564370825037E-11  2.94390347678885E-02
 cg2d: Sum(rhs),rhsMax =  -2.69835265243046E-11  2.93140375362199E-02
 cg2d: Sum(rhs),rhsMax =  -2.70408140323752E-11  2.91714768297977E-02
 cg2d: Sum(rhs),rhsMax =  -2.70252709100305E-11  2.90113831324035E-02
 cg2d: Sum(rhs),rhsMax =  -2.70827804627061E-11  2.88337947208882E-02
 cg2d: Sum(rhs),rhsMax =  -2.71813682672928E-11  2.86387576571491E-02
 cg2d: Sum(rhs),rhsMax =  -2.73168154762971E-11  2.84263257744432E-02
 cg2d: Sum(rhs),rhsMax =  -2.74841260861081E-11  2.81965606589558E-02
 cg2d: Sum(rhs),rhsMax =  -2.77192713227237E-11  2.79495316274052E-02
 cg2d: Sum(rhs),rhsMax =  -2.80350187509271E-11  2.76853157011251E-02
 cg2d: Sum(rhs),rhsMax =  -2.83818524238200E-11  2.74039975767939E-02
 cg2d: Sum(rhs),rhsMax =  -2.87931900544436E-11  2.71056695938509E-02
 cg2d: Sum(rhs),rhsMax =  -2.92453838923734E-11  2.67904316992304E-02
 cg2d: Sum(rhs),rhsMax =  -2.97396551829365E-11  2.64583914084741E-02
 cg2d: Sum(rhs),rhsMax =  -3.01713098949108E-11  2.61096637628173E-02
 cg2d: Sum(rhs),rhsMax =  -3.06357161861115E-11  2.57443712846169E-02
 cg2d: Sum(rhs),rhsMax =  -3.12069259322811E-11  2.53626439308860E-02
 cg2d: Sum(rhs),rhsMax =  -3.17371684488421E-11  2.49646190449551E-02
 cg2d: Sum(rhs),rhsMax =  -3.23530091606017E-11  2.45504413064059E-02
 cg2d: Sum(rhs),rhsMax =  -3.30205862653088E-11  2.41202626795026E-02
 cg2d: Sum(rhs),rhsMax =  -3.36936034628366E-11  2.36742423604069E-02
 cg2d: Sum(rhs),rhsMax =  -3.44778650074318E-11  2.32125467234366E-02
 cg2d: Sum(rhs),rhsMax =  -3.52883278154081E-11  2.27353492665481E-02
 cg2d: Sum(rhs),rhsMax =  -3.61460861242335E-11  2.22428305559710E-02
 cg2d: Sum(rhs),rhsMax =  -3.71018771261333E-11  2.17351781699804E-02
 cg2d: Sum(rhs),rhsMax =  -3.81181752828752E-11  2.12125866400625E-02
 cg2d: Sum(rhs),rhsMax =  -3.91864318771695E-11  2.06752573962542E-02
 cg2d: Sum(rhs),rhsMax =  -4.03058697528991E-11  2.01233987104746E-02
 cg2d: Sum(rhs),rhsMax =  -4.15227852101907E-11  1.95572256374318E-02
 cg2d: Sum(rhs),rhsMax =  -4.28564961296729E-11  1.89769599537265E-02
 cg2d: Sum(rhs),rhsMax =  -4.42982317494511E-11  1.83828300957473E-02
 cg2d: Sum(rhs),rhsMax =  -4.58872939645971E-11  1.77750710966617E-02
 cg2d: Sum(rhs),rhsMax =  -4.76408912319926E-11  1.71539245225210E-02
 cg2d: Sum(rhs),rhsMax =  -4.95516960796749E-11  1.65196384073454E-02
 cg2d: Sum(rhs),rhsMax =  -5.16384712767604E-11  1.58724671870687E-02
 cg2d: Sum(rhs),rhsMax =  -5.39757127882012E-11  1.52126716329252E-02
 cg2d: Sum(rhs),rhsMax =  -5.65785196471325E-11  1.45405187854987E-02
 cg2d: Sum(rhs),rhsMax =  -5.94509996787451E-11  1.38562818818832E-02
 cg2d: Sum(rhs),rhsMax =  -6.27554674892394E-11  1.31602402822000E-02
 cg2d: Sum(rhs),rhsMax =  -6.64263088978601E-11  1.24526793967333E-02
 cg2d: Sum(rhs),rhsMax =  -7.06145142359560E-11  1.17338906127018E-02
 cg2d: Sum(rhs),rhsMax =  -7.54269979807987E-11  1.10041712197471E-02
 cg2d: Sum(rhs),rhsMax =  -8.09790012823441E-11  1.02638243335707E-02
 cg2d: Sum(rhs),rhsMax =  -8.74164074460282E-11  9.51315881751590E-03
 cg2d: Sum(rhs),rhsMax =  -9.50807210742255E-11  8.75248920210357E-03
 cg2d: Sum(rhs),rhsMax =  -1.04346309370840E-10  7.98213560259129E-03
 cg2d: Sum(rhs),rhsMax =  -1.15781828569084E-10  7.20242363458327E-03
 cg2d: Sum(rhs),rhsMax =  -1.30090382910453E-10  6.41368432764025E-03
 cg2d: Sum(rhs),rhsMax =  -1.48692891333013E-10  5.61625403674229E-03
 cg2d: Sum(rhs),rhsMax =  -1.65661262485628E-10  5.04293912318041E-03
 cg2d: Sum(rhs),rhsMax =  -1.75138209490555E-10  4.76978599707038E-03
 cg2d: Sum(rhs),rhsMax =  -1.85910203898132E-10  4.49475047377955E-03
 cg2d: Sum(rhs),rhsMax =  -1.98178792820691E-10  4.21795795906264E-03
 cg2d: Sum(rhs),rhsMax =  -2.12231537899399E-10  3.93953267143377E-03
 cg2d: Sum(rhs),rhsMax =  -2.28504160038057E-10  3.65959896095465E-03
 cg2d: Sum(rhs),rhsMax =  -2.47570075551096E-10  3.37828191475157E-03
 cg2d: Sum(rhs),rhsMax =  -2.46513254253955E-10  3.39362659415944E-03
 cg2d: Sum(rhs),rhsMax =  -2.09561701325356E-10  3.99266805674115E-03
 cg2d: Sum(rhs),rhsMax =  -1.81793247122641E-10  4.60478673897674E-03
 cg2d: Sum(rhs),rhsMax =  -1.60106261581916E-10  5.22954333506889E-03
 cg2d: Sum(rhs),rhsMax =  -1.42755030019259E-10  5.86677725684421E-03
 cg2d: Sum(rhs),rhsMax =  -1.28540067478866E-10  6.51760041376768E-03
 cg2d: Sum(rhs),rhsMax =  -1.16588072529566E-10  7.18574585058124E-03
 cg2d: Sum(rhs),rhsMax =  -1.06540554156709E-10  7.87347178747265E-03
 cg2d: Sum(rhs),rhsMax =  -9.79951675361690E-11  8.56663791781973E-03
 cg2d: Sum(rhs),rhsMax =  -9.07476316314160E-11  9.25936099093825E-03
 cg2d: Sum(rhs),rhsMax =  -8.39587288581356E-11  1.00193387058818E-02
 cg2d: Sum(rhs),rhsMax =  -7.77164999021807E-11  1.08317377772364E-02
 cg2d: Sum(rhs),rhsMax =  -7.22543136433274E-11  1.16645537444869E-02
 cg2d: Sum(rhs),rhsMax =  -6.74506006603792E-11  1.25109828333975E-02
 cg2d: Sum(rhs),rhsMax =  -6.31265040240692E-11  1.33846904957136E-02
 cg2d: Sum(rhs),rhsMax =  -5.92166315982467E-11  1.42785374928462E-02
 cg2d: Sum(rhs),rhsMax =  -5.57874857420870E-11  1.51717010005929E-02
 cg2d: Sum(rhs),rhsMax =  -5.27659027582672E-11  1.60637521324134E-02
 cg2d: Sum(rhs),rhsMax =  -5.01030328337038E-11  1.69542605809871E-02
 cg2d: Sum(rhs),rhsMax =  -4.76940709148721E-11  1.78427948596138E-02
 cg2d: Sum(rhs),rhsMax =  -4.55403492694018E-11  1.87289225505517E-02
 cg2d: Sum(rhs),rhsMax =  -4.36044533813629E-11  1.96122105593429E-02
 cg2d: Sum(rhs),rhsMax =  -4.18366452592522E-11  2.04922253742738E-02
 cg2d: Sum(rhs),rhsMax =  -4.01945143835292E-11  2.13685333303125E-02
 cg2d: Sum(rhs),rhsMax =  -3.87164744708457E-11  2.22407008771355E-02
 cg2d: Sum(rhs),rhsMax =  -3.73288067123667E-11  2.31082948511801E-02
 cg2d: Sum(rhs),rhsMax =  -3.60981244895697E-11  2.39708827520332E-02
 cg2d: Sum(rhs),rhsMax =  -3.48997497567893E-11  2.48280330237997E-02
 cg2d: Sum(rhs),rhsMax =  -3.38258310250694E-11  2.56793153412578E-02
 cg2d: Sum(rhs),rhsMax =  -3.28096438906300E-11  2.65243009053919E-02
 cg2d: Sum(rhs),rhsMax =  -3.18860493564443E-11  2.73625627456067E-02
 cg2d: Sum(rhs),rhsMax =  -3.10202974418416E-11  2.81936760294094E-02
 cg2d: Sum(rhs),rhsMax =  -3.01869640395580E-11  2.90172183802734E-02
 cg2d: Sum(rhs),rhsMax =  -2.94326785166277E-11  2.98327702036621E-02
 cg2d: Sum(rhs),rhsMax =  -2.86763945922530E-11  3.06399150202974E-02
 cg2d: Sum(rhs),rhsMax =  -2.80091505544533E-11  3.14382398048329E-02
 cg2d: Sum(rhs),rhsMax =  -2.73849831700090E-11  3.22273353281758E-02
 cg2d: Sum(rhs),rhsMax =  -2.67926791863715E-11  3.30067965008785E-02
 cg2d: Sum(rhs),rhsMax =  -2.62589949784342E-11  3.37762227144585E-02
 cg2d: Sum(rhs),rhsMax =  -2.57355248223234E-11  3.45352181785226E-02
 cg2d: Sum(rhs),rhsMax =  -2.52939891254300E-11  3.52833922537219E-02
 cg2d: Sum(rhs),rhsMax =  -2.48453480011790E-11  3.60203597766732E-02
 cg2d: Sum(rhs),rhsMax =  -2.44541054073011E-11  3.67457413759937E-02
 cg2d: Sum(rhs),rhsMax =  -2.40560904529730E-11  3.74591637793340E-02
 cg2d: Sum(rhs),rhsMax =  -2.37174724304623E-11  3.81602601121267E-02
 cg2d: Sum(rhs),rhsMax =  -2.33860708576117E-11  3.88486701882397E-02
 cg2d: Sum(rhs),rhsMax =  -2.30599983552793E-11  3.95240407935626E-02
 cg2d: Sum(rhs),rhsMax =  -2.27493579529892E-11  4.01860259648476E-02
 cg2d: Sum(rhs),rhsMax =  -2.24696927730861E-11  4.08342872649971E-02
 cg2d: Sum(rhs),rhsMax =  -2.21749285600481E-11  4.14684940558069E-02
 cg2d: Sum(rhs),rhsMax =  -2.19008144952682E-11  4.20883237689352E-02
 cg2d: Sum(rhs),rhsMax =  -2.16536788499866E-11  4.26934621755149E-02
 cg2d: Sum(rhs),rhsMax =  -2.14461781666841E-11  4.32836036543776E-02
 cg2d: Sum(rhs),rhsMax =  -2.12027062573839E-11  4.38584514583449E-02
 cg2d: Sum(rhs),rhsMax =  -2.09706696452372E-11  4.44177179775435E-02
 cg2d: Sum(rhs),rhsMax =  -2.07834860432854E-11  4.49611249983025E-02
 cg2d: Sum(rhs),rhsMax =  -2.05783168283347E-11  4.54884039559168E-02
 cg2d: Sum(rhs),rhsMax =  -2.04026795458390E-11  4.59992961794360E-02
 cg2d: Sum(rhs),rhsMax =  -2.02327044007689E-11  4.64935531266496E-02
 cg2d: Sum(rhs),rhsMax =  -2.00627292556987E-11  4.69709366075631E-02
 cg2d: Sum(rhs),rhsMax =  -1.99177341286827E-11  4.74312189948699E-02
 cg2d: Sum(rhs),rhsMax =  -1.99186223071024E-11  4.78741834201934E-02
 cg2d: Sum(rhs),rhsMax =  -1.97676319757534E-11  4.82996239555454E-02
 cg2d: Sum(rhs),rhsMax =  -1.97248883893053E-11  4.87073457793293E-02
 cg2d: Sum(rhs),rhsMax =  -1.96530569596121E-11  4.90971653242827E-02
 cg2d: Sum(rhs),rhsMax =  -1.96237470717620E-11  4.94689104098269E-02
 cg2d: Sum(rhs),rhsMax =  -1.95795601953819E-11  4.98224203588161E-02
 cg2d: Sum(rhs),rhsMax =  -1.95087279664108E-11  5.01575460985727E-02
 cg2d: Sum(rhs),rhsMax =  -1.94788629670484E-11  5.04741502462630E-02
 cg2d: Sum(rhs),rhsMax =  -1.94381177820446E-11  5.07721071788827E-02
 cg2d: Sum(rhs),rhsMax =  -1.94093630057068E-11  5.10513030871860E-02
 cg2d: Sum(rhs),rhsMax =  -1.93888238797513E-11  5.13116360144592E-02
 cg2d: Sum(rhs),rhsMax =  -1.93357552191742E-11  5.15530158857258E-02
 cg2d: Sum(rhs),rhsMax =  -1.93745020027336E-11  5.17753645215578E-02
 cg2d: Sum(rhs),rhsMax =  -1.94168014999718E-11  5.19786156372271E-02
 cg2d: Sum(rhs),rhsMax =  -1.94362304029028E-11  5.21627148287431E-02
 cg2d: Sum(rhs),rhsMax =  -1.94606553094445E-11  5.23276195469417E-02
 cg2d: Sum(rhs),rhsMax =  -1.94203542136506E-11  5.24732990519767E-02
 cg2d: Sum(rhs),rhsMax =  -1.93191018738048E-11  5.25997343572705E-02
 cg2d: Sum(rhs),rhsMax =  -1.94346760906683E-11  5.27069181623643E-02
 cg2d: Sum(rhs),rhsMax =  -1.92731386405853E-11  5.27948547738320E-02
 cg2d: Sum(rhs),rhsMax =  -1.91033855401201E-11  5.28635600134832E-02
 cg2d: Sum(rhs),rhsMax =  -1.90265581068161E-11  5.29130611134722E-02
 cg2d: Sum(rhs),rhsMax =  -1.88942195222808E-11  5.29433965983087E-02
 cg2d: Sum(rhs),rhsMax =  -1.87955206953916E-11  5.29546161540128E-02
 cg2d: Sum(rhs),rhsMax =  -1.87813098406764E-11  5.29467804847551E-02
 cg2d: Sum(rhs),rhsMax =  -1.87522219974312E-11  5.29199611571388E-02
 cg2d: Sum(rhs),rhsMax =  -1.87961868292064E-11  5.28742404337998E-02
 cg2d: Sum(rhs),rhsMax =  -1.87820869967936E-11  5.28097110941386E-02
 cg2d: Sum(rhs),rhsMax =  -1.88209448026555E-11  5.27264762450824E-02
 cg2d: Sum(rhs),rhsMax =  -1.88238313825195E-11  5.26246491206679E-02
 cg2d: Sum(rhs),rhsMax =  -1.88561388725361E-11  5.25043528711999E-02
 cg2d: Sum(rhs),rhsMax =  -1.88584703408878E-11  5.23657203432861E-02
 cg2d: Sum(rhs),rhsMax =  -1.88830062697320E-11  5.22088938485404E-02
 cg2d: Sum(rhs),rhsMax =  -1.88848936488739E-11  5.20340249312899E-02
 cg2d: Sum(rhs),rhsMax =  -1.89553928109376E-11  5.18412741263204E-02
 cg2d: Sum(rhs),rhsMax =  -1.89843696318803E-11  5.16308107078708E-02
 cg2d: Sum(rhs),rhsMax =  -1.90366611363402E-11  5.14028124313867E-02
 cg2d: Sum(rhs),rhsMax =  -1.90837345925843E-11  5.11574652694465E-02
 cg2d: Sum(rhs),rhsMax =  -1.91124893689221E-11  5.08949631428405E-02
 cg2d: Sum(rhs),rhsMax =  -1.92040827684536E-11  5.06155076476111E-02
 cg2d: Sum(rhs),rhsMax =  -1.92629245887588E-11  5.03193077790358E-02
 cg2d: Sum(rhs),rhsMax =  -1.92951210564729E-11  5.00065796515919E-02
 cg2d: Sum(rhs),rhsMax =  -1.93542959436854E-11  4.96775462152501E-02
 cg2d: Sum(rhs),rhsMax =  -1.94293470201501E-11  4.93324369701810E-02
 cg2d: Sum(rhs),rhsMax =  -1.95181648621201E-11  4.89714876807191E-02
 cg2d: Sum(rhs),rhsMax =  -1.95180538398176E-11  4.85949400888971E-02
 cg2d: Sum(rhs),rhsMax =  -1.96315186329343E-11  4.82030416278813E-02
 cg2d: Sum(rhs),rhsMax =  -1.97519778311062E-11  4.77960451357877E-02
 cg2d: Sum(rhs),rhsMax =  -1.99145144819113E-11  4.73742085704866E-02
 cg2d: Sum(rhs),rhsMax =  -2.00326422117314E-11  4.69377947261615E-02
 cg2d: Sum(rhs),rhsMax =  -2.02081684719246E-11  4.64870709523581E-02
 cg2d: Sum(rhs),rhsMax =  -2.03684846766805E-11  4.60223088736092E-02
 cg2d: Sum(rhs),rhsMax =  -2.05271355468994E-11  4.55437841161313E-02
 cg2d: Sum(rhs),rhsMax =  -2.06965555804572E-11  4.50517760406586E-02
 cg2d: Sum(rhs),rhsMax =  -2.08597583650771E-11  4.45465674778083E-02
 cg2d: Sum(rhs),rhsMax =  -2.10685913160091E-11  4.40284444671247E-02
 cg2d: Sum(rhs),rhsMax =  -2.12821982259470E-11  4.34976960010219E-02
 cg2d: Sum(rhs),rhsMax =  -2.14829265487992E-11  4.29546137745656E-02
 cg2d: Sum(rhs),rhsMax =  -2.17063034213538E-11  4.23994919416234E-02
 cg2d: Sum(rhs),rhsMax =  -2.19448903493458E-11  4.18326268776270E-02
 cg2d: Sum(rhs),rhsMax =  -2.21781482068195E-11  4.12543169490839E-02
 cg2d: Sum(rhs),rhsMax =  -2.24489316025256E-11  4.06648622899955E-02
 cg2d: Sum(rhs),rhsMax =  -2.27178276190898E-11  4.00645645859816E-02
 cg2d: Sum(rhs),rhsMax =  -2.29682939334452E-11  3.94537268682572E-02
 cg2d: Sum(rhs),rhsMax =  -2.32723840198901E-11  3.88326533092071E-02
 cg2d: Sum(rhs),rhsMax =  -2.35795827308038E-11  3.82016490263712E-02
 cg2d: Sum(rhs),rhsMax =  -2.39319675188199E-11  3.75610198967612E-02
 cg2d: Sum(rhs),rhsMax =  -2.42621478463434E-11  3.69110723807502E-02
 cg2d: Sum(rhs),rhsMax =  -2.46382914070864E-11  3.62521133548018E-02
 cg2d: Sum(rhs),rhsMax =  -2.50232057297239E-11  3.55844499526581E-02
 cg2d: Sum(rhs),rhsMax =  -2.54840593072458E-11  3.49083894149716E-02
 cg2d: Sum(rhs),rhsMax =  -2.58458809909712E-11  3.42242389475664E-02
 cg2d: Sum(rhs),rhsMax =  -2.62825317065563E-11  3.35323055885246E-02
 cg2d: Sum(rhs),rhsMax =  -2.67331712322516E-11  3.28328960841984E-02
 cg2d: Sum(rhs),rhsMax =  -2.72223354969015E-11  3.21263167741171E-02
 cg2d: Sum(rhs),rhsMax =  -2.77144973637178E-11  3.14128734846509E-02
 cg2d: Sum(rhs),rhsMax =  -2.83231216258173E-11  3.06928714312252E-02
 cg2d: Sum(rhs),rhsMax =  -2.89622770210940E-11  2.99666151288383E-02
 cg2d: Sum(rhs),rhsMax =  -2.96411784006523E-11  2.92344083106182E-02
 cg2d: Sum(rhs),rhsMax =  -3.03465030881966E-11  2.84965538541422E-02
 cg2d: Sum(rhs),rhsMax =  -3.10855785556896E-11  2.77533537152447E-02
 cg2d: Sum(rhs),rhsMax =  -3.19185788910659E-11  2.70051088690454E-02
 cg2d: Sum(rhs),rhsMax =  -3.27717852854903E-11  2.62521192580135E-02
 cg2d: Sum(rhs),rhsMax =  -3.36549677015796E-11  2.54946837467874E-02
 cg2d: Sum(rhs),rhsMax =  -3.46405126805394E-11  2.47331000834437E-02
 cg2d: Sum(rhs),rhsMax =  -3.56802365431008E-11  2.39676648672449E-02
 cg2d: Sum(rhs),rhsMax =  -3.67892383223989E-11  2.31986735228950E-02
 cg2d: Sum(rhs),rhsMax =  -3.79857256760374E-11  2.24264202813423E-02
 cg2d: Sum(rhs),rhsMax =  -3.92829102580095E-11  2.16511981682135E-02
 cg2d: Sum(rhs),rhsMax =  -4.06672473474146E-11  2.08732989926044E-02
 cg2d: Sum(rhs),rhsMax =  -4.21698231889422E-11  2.00930133502155E-02
 cg2d: Sum(rhs),rhsMax =  -4.37869740466112E-11  1.93106306312590E-02
 cg2d: Sum(rhs),rhsMax =  -4.55430138046609E-11  1.85264390331465E-02
 cg2d: Sum(rhs),rhsMax =  -4.74918993020879E-11  1.77407255783290E-02
 cg2d: Sum(rhs),rhsMax =  -4.95870011718580E-11  1.69537761375141E-02
 cg2d: Sum(rhs),rhsMax =  -5.19145837429846E-11  1.61658754580109E-02
 cg2d: Sum(rhs),rhsMax =  -5.44657652312708E-11  1.53773071964724E-02
 cg2d: Sum(rhs),rhsMax =  -5.72892844274975E-11  1.45883539549858E-02
 cg2d: Sum(rhs),rhsMax =  -6.04624128541786E-11  1.37992973193013E-02
 cg2d: Sum(rhs),rhsMax =  -6.40176800459358E-11  1.30104178979690E-02
 cg2d: Sum(rhs),rhsMax =  -6.80026035482229E-11  1.22219953611966E-02
 cg2d: Sum(rhs),rhsMax =  -7.25459692318964E-11  1.14343084783343E-02
 cg2d: Sum(rhs),rhsMax =  -7.78392905687042E-11  1.06476351530186E-02
 cg2d: Sum(rhs),rhsMax =  -8.39646130401661E-11  9.86225245517956E-03
 cg2d: Sum(rhs),rhsMax =  -9.11446473850219E-11  9.07843664930414E-03
 cg2d: Sum(rhs),rhsMax =  -9.96448479284595E-11  8.29646321852503E-03
 cg2d: Sum(rhs),rhsMax =  -1.09885767152207E-10  7.51660688434723E-03
 cg2d: Sum(rhs),rhsMax =  -1.22461818463648E-10  6.73914162205428E-03
 cg2d: Sum(rhs),rhsMax =  -1.38242639557973E-10  5.96434067202177E-03
 cg2d: Sum(rhs),rhsMax =  -1.58663637783718E-10  5.19247654726180E-03
 cg2d: Sum(rhs),rhsMax =  -1.86108239930149E-10  4.42382103755236E-03
 cg2d: Sum(rhs),rhsMax =  -2.00593319732434E-10  4.10301149346924E-03
 cg2d: Sum(rhs),rhsMax =  -1.90616189499337E-10  4.31711489847909E-03
 cg2d: Sum(rhs),rhsMax =  -1.80314096986933E-10  4.56234867508797E-03
 cg2d: Sum(rhs),rhsMax =  -1.69206010314227E-10  4.86070874511830E-03
 cg2d: Sum(rhs),rhsMax =  -1.59186443107057E-10  5.16478343504274E-03
 cg2d: Sum(rhs),rhsMax =  -1.49817963590593E-10  5.48335278586297E-03
 cg2d: Sum(rhs),rhsMax =  -1.41583550439250E-10  5.79924345597991E-03
(PID.TID 0000.0001)      cg2d_init_res =   7.00059473410576E-01
(PID.TID 0000.0001)      cg2d_iters(min,last) =      -1      39
(PID.TID 0000.0001)      cg2d_last_res =   8.38707341634246E-14
(PID.TID 0000.0001) // =======================================================
(PID.TID 0000.0001) // Begin MONITOR dynamic field statistics
(PID.TID 0000.0001) // =======================================================
(PID.TID 0000.0001) %MON time_tsnumber                =                  2880
(PID.TID 0000.0001) %MON time_secondsf                =   4.3200000000000E+04
(PID.TID 0000.0001) %MON dynstat_eta_max              =   1.9319888276348E-03
(PID.TID 0000.0001) %MON dynstat_eta_min              =  -1.8933044369928E-03
(PID.TID 0000.0001) %MON dynstat_eta_mean             =   1.7578357983148E-15
(PID.TID 0000.0001) %MON dynstat_eta_sd               =   1.0053508867167E-03
(PID.TID 0000.0001) %MON dynstat_eta_del2             =   3.2858764691504E-06
(PID.TID 0000.0001) %MON dynstat_uvel_max             =   3.2712687068603E-01
(PID.TID 0000.0001) %MON dynstat_uvel_min             =  -9.8290051349170E-02
(PID.TID 0000.0001) %MON dynstat_uvel_mean            =   6.8975042293989E-02
(PID.TID 0000.0001) %MON dynstat_uvel_sd              =   3.3013655559946E-02
(PID.TID 0000.0001) %MON dynstat_uvel_del2            =   8.0924281458850E-05
(PID.TID 0000.0001) %MON dynstat_vvel_max             =   0.0000000000000E+00
(PID.TID 0000.0001) %MON dynstat_vvel_min             =   0.0000000000000E+00
(PID.TID 0000.0001) %MON dynstat_vvel_mean            =   0.0000000000000E+00
(PID.TID 0000.0001) %MON dynstat_vvel_sd              =   0.0000000000000E+00
(PID.TID 0000.0001) %MON dynstat_vvel_del2            =   0.0000000000000E+00
(PID.TID 0000.0001) %MON dynstat_wvel_max             =   2.8115814401775E-03
(PID.TID 0000.0001) %MON dynstat_wvel_min             =  -4.2834374573062E-03
(PID.TID 0000.0001) %MON dynstat_wvel_mean            =   5.4268792689659E-21
(PID.TID 0000.0001) %MON dynstat_wvel_sd              =   2.3937001081725E-04
(PID.TID 0000.0001) %MON dynstat_wvel_del2            =   3.4326261610519E-06
(PID.TID 0000.0001) %MON dynstat_theta_max            =   1.5000000000010E+01
(PID.TID 0000.0001) %MON dynstat_theta_min            =   9.9999999999949E+00
(PID.TID 0000.0001) %MON dynstat_theta_mean           =   1.3335040985645E+01
(PID.TID 0000.0001) %MON dynstat_theta_sd             =   2.3135673119256E+00
(PID.TID 0000.0001) %MON dynstat_theta_del2           =   2.8855930145602E-04
(PID.TID 0000.0001) %MON dynstat_salt_max             =   3.5000000000000E+01
(PID.TID 0000.0001) %MON dynstat_salt_min             =   3.5000000000000E+01
(PID.TID 0000.0001) %MON dynstat_salt_mean            =   3.5000000000000E+01
(PID.TID 0000.0001) %MON dynstat_salt_sd              =   2.1316282072803E-14
(PID.TID 0000.0001) %MON dynstat_salt_del2            =   0.0000000000000E+00
(PID.TID 0000.0001) %MON dynstat_sst_max              =   1.5000000000001E+01
(PID.TID 0000.0001) %MON dynstat_sst_min              =   1.4999999999995E+01
(PID.TID 0000.0001) %MON dynstat_sst_mean             =   1.4999999999996E+01
(PID.TID 0000.0001) %MON dynstat_sst_sd               =   1.9377579177751E-12
(PID.TID 0000.0001) %MON dynstat_sst_del2             =   2.2440999693861E-14
(PID.TID 0000.0001) %MON dynstat_sss_max              =   3.5000000000000E+01
(PID.TID 0000.0001) %MON dynstat_sss_min              =   3.5000000000000E+01
(PID.TID 0000.0001) %MON dynstat_sss_mean             =   3.5000000000000E+01
(PID.TID 0000.0001) %MON dynstat_sss_sd               =   7.8159700933611E-14
(PID.TID 0000.0001) %MON dynstat_sss_del2             =   0.0000000000000E+00
(PID.TID 0000.0001) %MON forcing_qnet_max             =   0.0000000000000E+00
(PID.TID 0000.0001) %MON forcing_qnet_min             =   0.0000000000000E+00
(PID.TID 0000.0001) %MON forcing_qnet_mean            =   0.0000000000000E+00
(PID.TID 0000.0001) %MON forcing_qnet_sd              =   0.0000000000000E+00
(PID.TID 0000.0001) %MON forcing_qnet_del2            =   0.0000000000000E+00
(PID.TID 0000.0001) %MON forcing_qsw_max              =   0.0000000000000E+00
(PID.TID 0000.0001) %MON forcing_qsw_min              =   0.0000000000000E+00
(PID.TID 0000.0001) %MON forcing_qsw_mean             =   0.0000000000000E+00
(PID.TID 0000.0001) %MON forcing_qsw_sd               =   0.0000000000000E+00
(PID.TID 0000.0001) %MON forcing_qsw_del2             =   0.0000000000000E+00
(PID.TID 0000.0001) %MON forcing_empmr_max            =   0.0000000000000E+00
(PID.TID 0000.0001) %MON forcing_empmr_min            =   0.0000000000000E+00
(PID.TID 0000.0001) %MON forcing_empmr_mean           =   0.0000000000000E+00
(PID.TID 0000.0001) %MON forcing_empmr_sd             =   0.0000000000000E+00
(PID.TID 0000.0001) %MON forcing_empmr_del2           =   0.0000000000000E+00
(PID.TID 0000.0001) %MON forcing_fu_max               =   0.0000000000000E+00
(PID.TID 0000.0001) %MON forcing_fu_min               =   0.0000000000000E+00
(PID.TID 0000.0001) %MON forcing_fu_mean              =   0.0000000000000E+00
(PID.TID 0000.0001) %MON forcing_fu_sd                =   0.0000000000000E+00
(PID.TID 0000.0001) %MON forcing_fu_del2              =   0.0000000000000E+00
(PID.TID 0000.0001) %MON forcing_fv_max               =   0.0000000000000E+00
(PID.TID 0000.0001) %MON forcing_fv_min               =   0.0000000000000E+00
(PID.TID 0000.0001) %MON forcing_fv_mean              =   0.0000000000000E+00
(PID.TID 0000.0001) %MON forcing_fv_sd                =   0.0000000000000E+00
(PID.TID 0000.0001) %MON forcing_fv_del2              =   0.0000000000000E+00
(PID.TID 0000.0001) %MON advcfl_uvel_max              =   2.4534515301453E-02
(PID.TID 0000.0001) %MON advcfl_vvel_max              =   0.0000000000000E+00
(PID.TID 0000.0001) %MON advcfl_wvel_max              =   2.6906265203550E-02
(PID.TID 0000.0001) %MON advcfl_W_hf_max              =   2.7131390893623E-02
(PID.TID 0000.0001) %MON pe_b_mean                    =   2.5251199848723E-08
(PID.TID 0000.0001) %MON ke_max                       =   4.7216173562854E-02
(PID.TID 0000.0001) %MON ke_mean                      =   2.9301193111225E-03
(PID.TID 0000.0001) %MON ke_vol                       =   9.5889217545975E+10
(PID.TID 0000.0001) %MON vort_r_min                   =   0.0000000000000E+00
(PID.TID 0000.0001) %MON vort_r_max                   =   0.0000000000000E+00
(PID.TID 0000.0001) %MON vort_a_mean                  =   0.0000000000000E+00
(PID.TID 0000.0001) %MON vort_a_sd                    =   0.0000000000000E+00
(PID.TID 0000.0001) %MON vort_p_mean                  =   0.0000000000000E+00
(PID.TID 0000.0001) %MON vort_p_sd                    =   0.0000000000000E+00
(PID.TID 0000.0001) %MON surfExpan_theta_mean         =  -1.6156778804238E-18
(PID.TID 0000.0001) %MON surfExpan_salt_mean          =   4.2830244921190E-19
(PID.TID 0000.0001) // =======================================================
(PID.TID 0000.0001) // End MONITOR dynamic field statistics
(PID.TID 0000.0001) // =======================================================
(PID.TID 0000.0001) // =======================================================
(PID.TID 0000.0001) // Begin OBCS MONITOR field statistics
(PID.TID 0000.0001) // =======================================================
(PID.TID 0000.0001) %MON obc_E_uVel_max               =   6.6809804669674E-02
(PID.TID 0000.0001) %MON obc_E_uVel_min               =   6.6809804669674E-02
(PID.TID 0000.0001) %MON obc_E_uVel_mean              =   6.6809804669674E-02
(PID.TID 0000.0001) %MON obc_E_uVel_sd                =  -1.7347234759768E-18
(PID.TID 0000.0001) %MON obc_E_uVel_Int               =   6.6809804669674E+04
(PID.TID 0000.0001) %MON obc_W_uVel_max               =   6.6809804669674E-02
(PID.TID 0000.0001) %MON obc_W_uVel_min               =   6.6809804669674E-02
(PID.TID 0000.0001) %MON obc_W_uVel_mean              =   6.6809804669674E-02
(PID.TID 0000.0001) %MON obc_W_uVel_sd                =  -1.7347234759768E-18
(PID.TID 0000.0001) %MON obc_W_uVel_Int               =   6.6809804669674E+04
(PID.TID 0000.0001) // =======================================================
(PID.TID 0000.0001) // End OBCS MONITOR field statistics
(PID.TID 0000.0001) // =======================================================
(PID.TID 0000.0001) %CHECKPOINT      2880 0000002880
 cg2d: Sum(rhs),rhsMax =  -1.34224742431854E-10  6.11231564659058E-03
 cg2d: Sum(rhs),rhsMax =  -1.27600152666218E-10  6.42242959267963E-03
 cg2d: Sum(rhs),rhsMax =  -1.21395338226193E-10  6.74587932659699E-03
 cg2d: Sum(rhs),rhsMax =  -1.15286447055496E-10  7.09508146839313E-03
 cg2d: Sum(rhs),rhsMax =  -1.09768527600806E-10  7.44298512299295E-03
 cg2d: Sum(rhs),rhsMax =  -1.04783848264844E-10  7.79052754482405E-03
 cg2d: Sum(rhs),rhsMax =  -1.00149333270849E-10  8.14291259485837E-03
 cg2d: Sum(rhs),rhsMax =  -9.59465840111307E-11  8.49450207500520E-03
 cg2d: Sum(rhs),rhsMax =  -9.20795661940588E-11  8.85044878812232E-03
 cg2d: Sum(rhs),rhsMax =  -8.84405881862449E-11  9.20145140881291E-03
 cg2d: Sum(rhs),rhsMax =  -8.52200532364122E-11  9.54735237519990E-03
 cg2d: Sum(rhs),rhsMax =  -8.20807866119821E-11  9.90007411034964E-03
 cg2d: Sum(rhs),rhsMax =  -7.91275933664792E-11  1.02478436963054E-02
 cg2d: Sum(rhs),rhsMax =  -7.64971419542348E-11  1.05898466295729E-02
 cg2d: Sum(rhs),rhsMax =  -7.26693150099322E-11  1.11344881769316E-02
 cg2d: Sum(rhs),rhsMax =  -6.86993795184776E-11  1.17561847909430E-02
 cg2d: Sum(rhs),rhsMax =  -6.52320419902708E-11  1.23684134674990E-02
 cg2d: Sum(rhs),rhsMax =  -6.20724582844900E-11  1.29709294064661E-02
 cg2d: Sum(rhs),rhsMax =  -5.92381699249245E-11  1.35634897737274E-02
 cg2d: Sum(rhs),rhsMax =  -5.67168534360007E-11  1.41458538135482E-02
 cg2d: Sum(rhs),rhsMax =  -5.44706502125791E-11  1.47177829656266E-02
 cg2d: Sum(rhs),rhsMax =  -5.23725507406425E-11  1.52790409867432E-02
 cg2d: Sum(rhs),rhsMax =  -5.04477570828499E-11  1.58293940768548E-02
 cg2d: Sum(rhs),rhsMax =  -4.87695439588265E-11  1.63686110094063E-02
 cg2d: Sum(rhs),rhsMax =  -4.71725991602057E-11  1.68964632655738E-02
 cg2d: Sum(rhs),rhsMax =  -4.57121007713113E-11  1.74127251720991E-02
 cg2d: Sum(rhs),rhsMax =  -4.43681758000025E-11  1.79171740423334E-02
 cg2d: Sum(rhs),rhsMax =  -4.31054081317939E-11  1.84095903200648E-02
 cg2d: Sum(rhs),rhsMax =  -4.19816403862683E-11  1.88897577256676E-02
 cg2d: Sum(rhs),rhsMax =  -4.08634237558658E-11  1.93574634040720E-02
 cg2d: Sum(rhs),rhsMax =  -3.98701072157337E-11  1.98124980740255E-02
 cg2d: Sum(rhs),rhsMax =  -3.88685750252193E-11  2.02546561780989E-02
 cg2d: Sum(rhs),rhsMax =  -3.79315467924357E-11  2.06837360328879E-02
 cg2d: Sum(rhs),rhsMax =  -3.70757868850546E-11  2.10995399788934E-02
 cg2d: Sum(rhs),rhsMax =  -3.62909702289471E-11  2.15018745299760E-02
 cg2d: Sum(rhs),rhsMax =  -3.55556695197379E-11  2.18905505216615E-02
 cg2d: Sum(rhs),rhsMax =  -3.48943096639687E-11  2.22653832568472E-02
 cg2d: Sum(rhs),rhsMax =  -3.42685879672899E-11  2.26261926503690E-02
 cg2d: Sum(rhs),rhsMax =  -3.36701777570170E-11  2.29728033722660E-02
 cg2d: Sum(rhs),rhsMax =  -3.31275007425802E-11  2.33050449897210E-02
 cg2d: Sum(rhs),rhsMax =  -3.26394467009550E-11  2.36227521077900E-02
 cg2d: Sum(rhs),rhsMax =  -3.21674908931868E-11  2.39257645091495E-02
 cg2d: Sum(rhs),rhsMax =  -3.17035286911960E-11  2.42139272929833E-02
 cg2d: Sum(rhs),rhsMax =  -3.13037373800285E-11  2.44870910132007E-02
 cg2d: Sum(rhs),rhsMax =  -3.09297032430322E-11  2.47451118145768E-02
 cg2d: Sum(rhs),rhsMax =  -3.05802050348802E-11  2.49878515733052E-02
 cg2d: Sum(rhs),rhsMax =  -3.02563529785971E-11  2.52151780353054E-02
 cg2d: Sum(rhs),rhsMax =  -2.99221758481849E-11  2.54269649521647E-02
 cg2d: Sum(rhs),rhsMax =  -2.96309643488257E-11  2.56230922144602E-02
 cg2d: Sum(rhs),rhsMax =  -2.93615132207492E-11  2.58034459847469E-02
 cg2d: Sum(rhs),rhsMax =  -2.91319190992567E-11  2.59679188225668E-02
 cg2d: Sum(rhs),rhsMax =  -2.89116508511711E-11  2.61164098029559E-02
 cg2d: Sum(rhs),rhsMax =  -2.87504464679955E-11  2.62488246303023E-02
 cg2d: Sum(rhs),rhsMax =  -2.85788059883885E-11  2.63650757458483E-02
 cg2d: Sum(rhs),rhsMax =  -2.84604562139634E-11  2.64650824272579E-02
 cg2d: Sum(rhs),rhsMax =  -2.83505441345255E-11  2.65487708791412E-02
 cg2d: Sum(rhs),rhsMax =  -2.82593948242038E-11  2.66160743140517E-02
 cg2d: Sum(rhs),rhsMax =  -2.82568413112472E-11  2.66669330240243E-02
 cg2d: Sum(rhs),rhsMax =  -2.82290857356315E-11  2.67012944431465E-02
 cg2d: Sum(rhs),rhsMax =  -2.81719092498633E-11  2.67191132019555E-02
 cg2d: Sum(rhs),rhsMax =  -2.81444867411551E-11  2.67203511751803E-02
 cg2d: Sum(rhs),rhsMax =  -2.80446776912413E-11  2.67049775226650E-02
 cg2d: Sum(rhs),rhsMax =  -2.80414580444699E-11  2.66729687258638E-02
 cg2d: Sum(rhs),rhsMax =  -2.80542256092531E-11  2.66243086211501E-02
 cg2d: Sum(rhs),rhsMax =  -2.80495626725497E-11  2.65589884321706E-02
 cg2d: Sum(rhs),rhsMax =  -2.79580802953205E-11  2.64770068022932E-02
 cg2d: Sum(rhs),rhsMax =  -2.78884693116765E-11  2.63783698276526E-02
 cg2d: Sum(rhs),rhsMax =  -2.79064549246755E-11  2.62630910922832E-02
 cg2d: Sum(rhs),rhsMax =  -2.79216649801128E-11  2.61311917122111E-02
 cg2d: Sum(rhs),rhsMax =  -2.80145906472740E-11  2.59827003831114E-02
 cg2d: Sum(rhs),rhsMax =  -2.81170642324469E-11  2.58176534293124E-02
 cg2d: Sum(rhs),rhsMax =  -2.83829626468446E-11  2.56360948569593E-02
 cg2d: Sum(rhs),rhsMax =  -2.86465295928906E-11  2.54380764105733E-02
 cg2d: Sum(rhs),rhsMax =  -2.89405166498113E-11  2.52236576310922E-02
 cg2d: Sum(rhs),rhsMax =  -2.93093327385918E-11  2.49929059126535E-02
 cg2d: Sum(rhs),rhsMax =  -2.96809243849339E-11  2.47458965550301E-02
 cg2d: Sum(rhs),rhsMax =  -3.01458857876469E-11  2.44827128081322E-02
 cg2d: Sum(rhs),rhsMax =  -3.05333536232411E-11  2.42034459027833E-02
 cg2d: Sum(rhs),rhsMax =  -3.09556824618085E-11  2.39081950667198E-02
 cg2d: Sum(rhs),rhsMax =  -3.13916670435788E-11  2.35970675231719E-02
 cg2d: Sum(rhs),rhsMax =  -3.19061443931901E-11  2.32701784697631E-02
 cg2d: Sum(rhs),rhsMax =  -3.24276161478565E-11  2.29276510363212E-02
 cg2d: Sum(rhs),rhsMax =  -3.30203642207039E-11  2.25696162214922E-02
 cg2d: Sum(rhs),rhsMax =  -3.36323191518773E-11  2.21962128093420E-02
 cg2d: Sum(rhs),rhsMax =  -3.43273187652926E-11  2.18075872684284E-02
 cg2d: Sum(rhs),rhsMax =  -3.50504070212310E-11  2.14038936368475E-02
 cg2d: Sum(rhs),rhsMax =  -3.58272300715612E-11  2.09852933971818E-02
 cg2d: Sum(rhs),rhsMax =  -3.66675578789000E-11  2.05519553461447E-02
 cg2d: Sum(rhs),rhsMax =  -3.75630637705626E-11  2.01040554639683E-02
 cg2d: Sum(rhs),rhsMax =  -3.85588228013489E-11  1.96417767864809E-02
 cg2d: Sum(rhs),rhsMax =  -3.95724564228317E-11  1.91653092835257E-02
 cg2d: Sum(rhs),rhsMax =  -4.06299438537872E-11  1.86748497465503E-02
 cg2d: Sum(rhs),rhsMax =  -4.18584056305349E-11  1.81706016865609E-02
 cg2d: Sum(rhs),rhsMax =  -4.31271685030765E-11  1.76527752421738E-02
 cg2d: Sum(rhs),rhsMax =  -4.45389281011899E-11  1.71215871034431E-02
 cg2d: Sum(rhs),rhsMax =  -4.60589344442042E-11  1.65772604439147E-02
 cg2d: Sum(rhs),rhsMax =  -4.77429207279556E-11  1.60200248592331E-02
 cg2d: Sum(rhs),rhsMax =  -4.95471441652739E-11  1.54501163102831E-02
 cg2d: Sum(rhs),rhsMax =  -5.15870679507202E-11  1.48677770686244E-02
 cg2d: Sum(rhs),rhsMax =  -5.38172839625872E-11  1.42732556617893E-02
 cg2d: Sum(rhs),rhsMax =  -5.63246116414007E-11  1.36668068160390E-02
 cg2d: Sum(rhs),rhsMax =  -5.91128257454443E-11  1.30486913944163E-02
 cg2d: Sum(rhs),rhsMax =  -6.22120133186854E-11  1.24191763286662E-02
 cg2d: Sum(rhs),rhsMax =  -6.57084386901374E-11  1.17785345432114E-02
 cg2d: Sum(rhs),rhsMax =  -6.96400714872425E-11  1.11270448734777E-02
 cg2d: Sum(rhs),rhsMax =  -7.41671168924540E-11  1.04649919701826E-02
 cg2d: Sum(rhs),rhsMax =  -7.93867194204267E-11  9.79266619594303E-03
 cg2d: Sum(rhs),rhsMax =  -8.54357695700969E-11  9.11036351564762E-03
 cg2d: Sum(rhs),rhsMax =  -9.24642584720914E-11  8.41838538046544E-03
 cg2d: Sum(rhs),rhsMax =  -1.00987329609836E-10  7.71703860553154E-03
 cg2d: Sum(rhs),rhsMax =  -1.09822040350593E-10  7.09882738885883E-03
 cg2d: Sum(rhs),rhsMax =  -1.14863785150021E-10  6.79209853576218E-03
 cg2d: Sum(rhs),rhsMax =  -1.20489396238099E-10  6.48268822976662E-03
 cg2d: Sum(rhs),rhsMax =  -1.26640753439489E-10  6.17073131161139E-03
 cg2d: Sum(rhs),rhsMax =  -1.33388466938555E-10  5.86378367922958E-03
 cg2d: Sum(rhs),rhsMax =  -1.40892630895451E-10  5.55602322704551E-03
 cg2d: Sum(rhs),rhsMax =  -1.49290940720803E-10  5.24620487152959E-03
 cg2d: Sum(rhs),rhsMax =  -1.58500931130012E-10  4.94207713198384E-03
 cg2d: Sum(rhs),rhsMax =  -1.68909927711347E-10  4.63790874103059E-03
 cg2d: Sum(rhs),rhsMax =  -1.80920223247227E-10  4.33198901687257E-03
 cg2d: Sum(rhs),rhsMax =  -1.91667348659053E-10  4.09051129356652E-03
 cg2d: Sum(rhs),rhsMax =  -2.02249106351360E-10  3.87698190193224E-03
 cg2d: Sum(rhs),rhsMax =  -2.14002815468461E-10  3.66568059909054E-03
 cg2d: Sum(rhs),rhsMax =  -1.91524462955783E-10  4.09700172847136E-03
 cg2d: Sum(rhs),rhsMax =  -1.67888924984538E-10  4.67452306077975E-03
 cg2d: Sum(rhs),rhsMax =  -1.47397316574427E-10  5.32590815413720E-03
 cg2d: Sum(rhs),rhsMax =  -1.31037403150458E-10  5.99181078800393E-03
 cg2d: Sum(rhs),rhsMax =  -1.17695297952025E-10  6.67287654419487E-03
 cg2d: Sum(rhs),rhsMax =  -1.06566533375485E-10  7.37470478992682E-03
 cg2d: Sum(rhs),rhsMax =  -9.72120162145984E-11  8.09035352684232E-03
 cg2d: Sum(rhs),rhsMax =  -8.92889095993610E-11  8.81645913636922E-03
 cg2d: Sum(rhs),rhsMax =  -8.24007528876791E-11  9.56241978311149E-03
 cg2d: Sum(rhs),rhsMax =  -7.64140972719929E-11  1.03190644593745E-02
 cg2d: Sum(rhs),rhsMax =  -7.11750658410892E-11  1.10873109791638E-02
 cg2d: Sum(rhs),rhsMax =  -6.65273391931009E-11  1.18748547221357E-02
 cg2d: Sum(rhs),rhsMax =  -6.22675244699167E-11  1.26944198154392E-02
 cg2d: Sum(rhs),rhsMax =  -5.85321791035653E-11  1.35171974237689E-02
 cg2d: Sum(rhs),rhsMax =  -5.52071721671155E-11  1.43391967349538E-02
 cg2d: Sum(rhs),rhsMax =  -5.23431298304899E-11  1.51600254808012E-02
 cg2d: Sum(rhs),rhsMax =  -4.97523133802247E-11  1.59792912307807E-02
 cg2d: Sum(rhs),rhsMax =  -4.74619232804230E-11  1.67966015800466E-02
 cg2d: Sum(rhs),rhsMax =  -4.53426185487160E-11  1.76115643411657E-02
 cg2d: Sum(rhs),rhsMax =  -4.34760005774137E-11  1.84237877418066E-02
 cg2d: Sum(rhs),rhsMax =  -4.17358370086163E-11  1.92328806305871E-02
 cg2d: Sum(rhs),rhsMax =  -4.01406685668348E-11  2.00384526930060E-02
 cg2d: Sum(rhs),rhsMax =  -3.86647380778982E-11  2.08401146789049E-02
 cg2d: Sum(rhs),rhsMax =  -3.73199249281697E-11  2.16374786422538E-02
 cg2d: Sum(rhs),rhsMax =  -3.60901308837924E-11  2.24301581933371E-02
 cg2d: Sum(rhs),rhsMax =  -3.49054118942149E-11  2.32177687626074E-02
 cg2d: Sum(rhs),rhsMax =  -3.38689076784249E-11  2.39999278746753E-02
 cg2d: Sum(rhs),rhsMax =  -3.28662652648859E-11  2.47762554302209E-02
 cg2d: Sum(rhs),rhsMax =  -3.19252402292136E-11  2.55463739931206E-02
 cg2d: Sum(rhs),rhsMax =  -3.10926839830472E-11  2.63099090798020E-02
 cg2d: Sum(rhs),rhsMax =  -3.02640135174670E-11  2.70664894476983E-02
 cg2d: Sum(rhs),rhsMax =  -2.94977375858707E-11  2.78157473793439E-02
 cg2d: Sum(rhs),rhsMax =  -2.87833090695244E-11  2.85573189621553E-02
 cg2d: Sum(rhs),rhsMax =  -2.81228373921749E-11  2.92908443589117E-02
 cg2d: Sum(rhs),rhsMax =  -2.74954503609592E-11  3.00159680681981E-02
 cg2d: Sum(rhs),rhsMax =  -2.69014810427848E-11  3.07323391740098E-02
 cg2d: Sum(rhs),rhsMax =  -2.64114285997152E-11  3.14396115847507E-02
 cg2d: Sum(rhs),rhsMax =  -2.59541277358721E-11  3.21374442622078E-02
 cg2d: Sum(rhs),rhsMax =  -2.54876120209246E-11  3.28255014405579E-02
 cg2d: Sum(rhs),rhsMax =  -2.50808263047020E-11  3.35034528385502E-02
 cg2d: Sum(rhs),rhsMax =  -2.46830333949788E-11  3.41709738655271E-02
 cg2d: Sum(rhs),rhsMax =  -2.43002284960880E-11  3.48277458216555E-02
 cg2d: Sum(rhs),rhsMax =  -2.39642750088365E-11  3.54734560938059E-02
 cg2d: Sum(rhs),rhsMax =  -2.35992336783397E-11  3.61077983482814E-02
 cg2d: Sum(rhs),rhsMax =  -2.32887042983521E-11  3.67304727211490E-02
 cg2d: Sum(rhs),rhsMax =  -2.29707364240994E-11  3.73411860063704E-02
 cg2d: Sum(rhs),rhsMax =  -2.26975105377392E-11  3.79396518413848E-02
 cg2d: Sum(rhs),rhsMax =  -2.24120721981080E-11  3.85255908893410E-02
 cg2d: Sum(rhs),rhsMax =  -2.21556106794196E-11  3.90987310173383E-02
 cg2d: Sum(rhs),rhsMax =  -2.18991491607312E-11  3.96588074676671E-02
 cg2d: Sum(rhs),rhsMax =  -2.16812123809973E-11  4.02055630222173E-02
 cg2d: Sum(rhs),rhsMax =  -2.14497308803629E-11  4.07387481585994E-02
 cg2d: Sum(rhs),rhsMax =  -2.10661488253550E-11  4.12581211966763E-02
 cg2d: Sum(rhs),rhsMax =  -2.08593142758673E-11  4.17634484345976E-02
 cg2d: Sum(rhs),rhsMax =  -2.06862305063282E-11  4.22545042739632E-02
 cg2d: Sum(rhs),rhsMax =  -2.05220285209862E-11  4.27310713343289E-02
 cg2d: Sum(rhs),rhsMax =  -2.03497219075643E-11  4.31929405577876E-02
 cg2d: Sum(rhs),rhsMax =  -2.01834104984755E-11  4.36399113048102E-02
 cg2d: Sum(rhs),rhsMax =  -1.99967820080360E-11  4.40717914428640E-02
 cg2d: Sum(rhs),rhsMax =  -1.98725480515805E-11  4.44883974297954E-02
 cg2d: Sum(rhs),rhsMax =  -1.97521998757111E-11  4.48895543939473E-02
 cg2d: Sum(rhs),rhsMax =  -1.96855864942336E-11  4.52750962103400E-02
 cg2d: Sum(rhs),rhsMax =  -1.96206384472930E-11  4.56448655766475E-02
 cg2d: Sum(rhs),rhsMax =  -1.95758964594006E-11  4.59987140896939E-02
 cg2d: Sum(rhs),rhsMax =  -1.95183869067250E-11  4.63365023225755E-02
 cg2d: Sum(rhs),rhsMax =  -1.94768645656040E-11  4.66580999019177E-02
 cg2d: Sum(rhs),rhsMax =  -1.94355642690880E-11  4.69633855842669E-02
 cg2d: Sum(rhs),rhsMax =  -1.93861593444922E-11  4.72522473275863E-02
 cg2d: Sum(rhs),rhsMax =  -1.93216553867614E-11  4.75245823630006E-02
 cg2d: Sum(rhs),rhsMax =  -1.93051130636945E-11  4.77802972605431E-02
 cg2d: Sum(rhs),rhsMax =  -1.92644789009933E-11  4.80193079853957E-02
 cg2d: Sum(rhs),rhsMax =  -1.93046689744847E-11  4.82415399430719E-02
 cg2d: Sum(rhs),rhsMax =  -1.93304261486560E-11  4.84469280163928E-02
 cg2d: Sum(rhs),rhsMax =  -1.93368654421988E-11  4.86354165808280E-02
 cg2d: Sum(rhs),rhsMax =  -1.93635107947898E-11  4.88069595077851E-02
 cg2d: Sum(rhs),rhsMax =  -1.93651761293268E-11  4.89615201541350E-02
 cg2d: Sum(rhs),rhsMax =  -1.93184357399900E-11  4.90990713370186E-02
 cg2d: Sum(rhs),rhsMax =  -1.93567384343396E-11  4.92195952933259E-02
 cg2d: Sum(rhs),rhsMax =  -1.92598159642898E-11  4.93230836238232E-02
 cg2d: Sum(rhs),rhsMax =  -1.91241467106806E-11  4.94095372224237E-02
 cg2d: Sum(rhs),rhsMax =  -1.89376292425436E-11  4.94789661914333E-02
 cg2d: Sum(rhs),rhsMax =  -1.88054016803108E-11  4.95313897437540E-02
 cg2d: Sum(rhs),rhsMax =  -1.86736182072877E-11  4.95668360930611E-02
 cg2d: Sum(rhs),rhsMax =  -1.85638171501523E-11  4.95853423329429E-02
 cg2d: Sum(rhs),rhsMax =  -1.85483850501100E-11  4.95869543065232E-02
 cg2d: Sum(rhs),rhsMax =  -1.85492732285297E-11  4.95717264657696E-02
 cg2d: Sum(rhs),rhsMax =  -1.85422788234746E-11  4.95397217224024E-02
 cg2d: Sum(rhs),rhsMax =  -1.85830240084783E-11  4.94910112924157E-02
 cg2d: Sum(rhs),rhsMax =  -1.85772508487503E-11  4.94256745330791E-02
 cg2d: Sum(rhs),rhsMax =  -1.86178850114516E-11  4.93437987733390E-02
 cg2d: Sum(rhs),rhsMax =  -1.86102244725816E-11  4.92454791451215E-02
 cg2d: Sum(rhs),rhsMax =  -1.86072268704152E-11  4.91308184065795E-02
 cg2d: Sum(rhs),rhsMax =  -1.86045623351561E-11  4.89999267607799E-02
 cg2d: Sum(rhs),rhsMax =  -1.85956805509591E-11  4.88529216716777E-02
 cg2d: Sum(rhs),rhsMax =  -1.85642612393622E-11  4.86899276784374E-02
 cg2d: Sum(rhs),rhsMax =  -1.86286541747904E-11  4.85110762087122E-02
 cg2d: Sum(rhs),rhsMax =  -1.86561877058011E-11  4.83165053920348E-02
 cg2d: Sum(rhs),rhsMax =  -1.86748394526148E-11  4.81063598711270E-02
 cg2d: Sum(rhs),rhsMax =  -1.87048154742797E-11  4.78807906130360E-02
 cg2d: Sum(rhs),rhsMax =  -1.87518889305238E-11  4.76399547207371E-02
 cg2d: Sum(rhs),rhsMax =  -1.87989623867679E-11  4.73840152453325E-02
 cg2d: Sum(rhs),rhsMax =  -1.88422610847283E-11  4.71131409989076E-02
 cg2d: Sum(rhs),rhsMax =  -1.88870030726207E-11  4.68275063685077E-02
 cg2d: Sum(rhs),rhsMax =  -1.89476212497652E-11  4.65272911314684E-02
 cg2d: Sum(rhs),rhsMax =  -1.90139015643354E-11  4.62126802724681E-02
 cg2d: Sum(rhs),rhsMax =  -1.90557569723637E-11  4.58838638028238E-02
 cg2d: Sum(rhs),rhsMax =  -1.91191507070698E-11  4.55410365823658E-02
 cg2d: Sum(rhs),rhsMax =  -1.91748839029060E-11  4.51843981450884E-02
 cg2d: Sum(rhs),rhsMax =  -1.93197680076196E-11  4.48141525290606E-02
 cg2d: Sum(rhs),rhsMax =  -1.94302351985698E-11  4.44305081101940E-02
 cg2d: Sum(rhs),rhsMax =  -1.95877758457641E-11  4.40336774401432E-02
 cg2d: Sum(rhs),rhsMax =  -1.97205585195093E-11  4.36238770883137E-02
 cg2d: Sum(rhs),rhsMax =  -1.98724370292780E-11  4.32013274877591E-02
 cg2d: Sum(rhs),rhsMax =  -2.00340855016634E-11  4.27662527845072E-02
 cg2d: Sum(rhs),rhsMax =  -2.01817451639386E-11  4.23188806885429E-02
 cg2d: Sum(rhs),rhsMax =  -2.03476124838176E-11  4.18594423266397E-02
 cg2d: Sum(rhs),rhsMax =  -2.05220285209862E-11  4.13881720996023E-02
 cg2d: Sum(rhs),rhsMax =  -2.07235339999556E-11  4.09053075381589E-02
 cg2d: Sum(rhs),rhsMax =  -2.09018358177104E-11  4.04110891572844E-02
 cg2d: Sum(rhs),rhsMax =  -2.10814699030948E-11  3.99057603090957E-02
 cg2d: Sum(rhs),rhsMax =  -2.13296047490985E-11  3.93895670346702E-02
 cg2d: Sum(rhs),rhsMax =  -2.15555351346097E-11  3.88627579152000E-02
 cg2d: Sum(rhs),rhsMax =  -2.18071116719898E-11  3.83255839229616E-02
 cg2d: Sum(rhs),rhsMax =  -2.20736762202023E-11  3.77782982727096E-02
 cg2d: Sum(rhs),rhsMax =  -2.23496776641241E-11  3.72211562743634E-02
 cg2d: Sum(rhs),rhsMax =  -2.26066942943248E-11  3.66544151883158E-02
 cg2d: Sum(rhs),rhsMax =  -2.28876917418575E-11  3.60783340829943E-02
 cg2d: Sum(rhs),rhsMax =  -2.31692443009024E-11  3.54931736997337E-02
 cg2d: Sum(rhs),rhsMax =  -2.34741115434645E-11  3.48991963168191E-02
 cg2d: Sum(rhs),rhsMax =  -2.38165043242589E-11  3.42966656216567E-02
 cg2d: Sum(rhs),rhsMax =  -2.41502373654612E-11  3.36858465910381E-02
 cg2d: Sum(rhs),rhsMax =  -2.45201636772663E-11  3.30670053792183E-02
 cg2d: Sum(rhs),rhsMax =  -2.48900899890714E-11  3.24404092134260E-02
 cg2d: Sum(rhs),rhsMax =  -2.52782239584803E-11  3.18063262965321E-02
 cg2d: Sum(rhs),rhsMax =  -2.57022181315847E-11  3.11650257166783E-02
 cg2d: Sum(rhs),rhsMax =  -2.61480836982741E-11  3.05167773636454E-02
 cg2d: Sum(rhs),rhsMax =  -2.66060506959320E-11  2.98618518516485E-02
 cg2d: Sum(rhs),rhsMax =  -2.71046518562912E-11  2.92005204481361E-02
 cg2d: Sum(rhs),rhsMax =  -2.76259015663527E-11  2.85330550080986E-02
 cg2d: Sum(rhs),rhsMax =  -2.82461831702108E-11  2.78597279133708E-02
 cg2d: Sum(rhs),rhsMax =  -2.88814527849013E-11  2.71808120164440E-02
 cg2d: Sum(rhs),rhsMax =  -2.95969915242722E-11  2.64965805883688E-02
 cg2d: Sum(rhs),rhsMax =  -3.03151947989022E-11  2.58073072704082E-02
 cg2d: Sum(rhs),rhsMax =  -3.11067838154599E-11  2.51132660291755E-02
 cg2d: Sum(rhs),rhsMax =  -3.19260173853309E-11  2.44147311150515E-02
 cg2d: Sum(rhs),rhsMax =  -3.28259641690920E-11  2.37119770238016E-02
 cg2d: Sum(rhs),rhsMax =  -3.37448957665742E-11  2.30052784609904E-02
 cg2d: Sum(rhs),rhsMax =  -3.47710749082353E-11  2.22949103099522E-02
 cg2d: Sum(rhs),rhsMax =  -3.58379992349001E-11  2.15811476006309E-02
 cg2d: Sum(rhs),rhsMax =  -3.69710928538325E-11  2.08642654805509E-02
 cg2d: Sum(rhs),rhsMax =  -3.82330833659239E-11  2.01445391878566E-02
 cg2d: Sum(rhs),rhsMax =  -3.95963262178611E-11  1.94222440255777E-02
 cg2d: Sum(rhs),rhsMax =  -4.10359524138926E-11  1.86976553360735E-02
 cg2d: Sum(rhs),rhsMax =  -4.25857127339668E-11  1.79710484719320E-02
 cg2d: Sum(rhs),rhsMax =  -4.43151071394254E-11  1.72426987717836E-02
 cg2d: Sum(rhs),rhsMax =  -4.61564120257663E-11  1.65128815319901E-02
 cg2d: Sum(rhs),rhsMax =  -4.82194284501247E-11  1.57818719742181E-02
 cg2d: Sum(rhs),rhsMax =  -5.04439823245662E-11  1.50499452092896E-02
 cg2d: Sum(rhs),rhsMax =  -5.29069010823946E-11  1.43173761978592E-02
 cg2d: Sum(rhs),rhsMax =  -5.56381607452749E-11  1.35844397084062E-02
 cg2d: Sum(rhs),rhsMax =  -5.87034865162650E-11  1.28514102730351E-02
 cg2d: Sum(rhs),rhsMax =  -6.21143136925184E-11  1.21185621417333E-02
 cg2d: Sum(rhs),rhsMax =  -6.59667875879677E-11  1.13861692359756E-02
 cg2d: Sum(rhs),rhsMax =  -7.03597180518045E-11  1.06545051028065E-02
 cg2d: Sum(rhs),rhsMax =  -7.54644124967285E-11  9.92384287065608E-03
 cg2d: Sum(rhs),rhsMax =  -8.13784595266043E-11  9.19445520812953E-03
 cg2d: Sum(rhs),rhsMax =  -8.82846018512851E-11  8.46661428685151E-03
 cg2d: Sum(rhs),rhsMax =  -9.64633928290937E-11  7.74059174909218E-03
 cg2d: Sum(rhs),rhsMax =  -1.06344932859770E-10  7.01665868047486E-03
 cg2d: Sum(rhs),rhsMax =  -1.18423049144667E-10  6.29508558761727E-03
 cg2d: Sum(rhs),rhsMax =  -1.33554167724981E-10  5.57614238010023E-03
 cg2d: Sum(rhs),rhsMax =  -1.53093648869174E-10  4.86009835571224E-03
 cg2d: Sum(rhs),rhsMax =  -1.58288937512907E-10  4.70046008918675E-03
 cg2d: Sum(rhs),rhsMax =  -1.50789047914657E-10  4.93293065560804E-03
 cg2d: Sum(rhs),rhsMax =  -1.42959644122698E-10  5.19854092622600E-03
 cg2d: Sum(rhs),rhsMax =  -1.34050243127959E-10  5.53842593099834E-03
 cg2d: Sum(rhs),rhsMax =  -1.26255127880226E-10  5.87568414800603E-03
 cg2d: Sum(rhs),rhsMax =  -1.19341259097183E-10  6.21016552682571E-03
 cg2d: Sum(rhs),rhsMax =  -1.13195258721888E-10  6.54172320572555E-03
 cg2d: Sum(rhs),rhsMax =  -1.07603315147031E-10  6.87661091223560E-03
 cg2d: Sum(rhs),rhsMax =  -1.02488184605676E-10  7.21538699123258E-03
 cg2d: Sum(rhs),rhsMax =  -9.78519487659923E-11  7.55066278922619E-03
 cg2d: Sum(rhs),rhsMax =  -9.36535293760699E-11  7.88228934322893E-03
 cg2d: Sum(rhs),rhsMax =  -8.96153706797520E-11  8.22981975524978E-03
 cg2d: Sum(rhs),rhsMax =  -8.58481064014427E-11  8.58828029161719E-03
 cg2d: Sum(rhs),rhsMax =  -8.23735524235758E-11  8.94221219366458E-03
 cg2d: Sum(rhs),rhsMax =  -7.91348098161393E-11  9.29803905368006E-03
 cg2d: Sum(rhs),rhsMax =  -7.61605223331685E-11  9.65432479955954E-03
 cg2d: Sum(rhs),rhsMax =  -7.33861860169327E-11  1.00067103195440E-02
 cg2d: Sum(rhs),rhsMax =  -7.07153224865920E-11  1.03643340216854E-02
 cg2d: Sum(rhs),rhsMax =  -6.83023637648716E-11  1.07162844231345E-02
 cg2d: Sum(rhs),rhsMax =  -6.59875487585282E-11  1.10624066901850E-02
 cg2d: Sum(rhs),rhsMax =  -6.39041042305166E-11  1.14025491763991E-02
 cg2d: Sum(rhs),rhsMax =  -6.19454487704729E-11  1.17451814991863E-02
 cg2d: Sum(rhs),rhsMax =  -6.00923755200711E-11  1.20843073951013E-02
 cg2d: Sum(rhs),rhsMax =  -5.83820769506360E-11  1.24167900337579E-02
 cg2d: Sum(rhs),rhsMax =  -5.68027846981067E-11  1.27424861035139E-02
 cg2d: Sum(rhs),rhsMax =  -5.52760059946422E-11  1.30612559199151E-02
 cg2d: Sum(rhs),rhsMax =  -5.39454036996290E-11  1.33729634784958E-02
 cg2d: Sum(rhs),rhsMax =  -5.26926280386419E-11  1.36774765162471E-02
 cg2d: Sum(rhs),rhsMax =  -5.14697173770173E-11  1.39764813942354E-02
 cg2d: Sum(rhs),rhsMax =  -5.03013186659018E-11  1.42764389885380E-02
 cg2d: Sum(rhs),rhsMax =  -4.92120788564421E-11  1.45685660908098E-02
 cg2d: Sum(rhs),rhsMax =  -4.78364015066290E-11  1.49562390256332E-02
 cg2d: Sum(rhs),rhsMax =  -4.63006299966651E-11  1.54319722707786E-02
 cg2d: Sum(rhs),rhsMax =  -4.49125181489762E-11  1.58963733844403E-02
 cg2d: Sum(rhs),rhsMax =  -4.36474190124159E-11  1.63492344486811E-02
 cg2d: Sum(rhs),rhsMax =  -4.24221768824395E-11  1.67903512171678E-02
 cg2d: Sum(rhs),rhsMax =  -4.12682110706442E-11  1.72195232483730E-02
 cg2d: Sum(rhs),rhsMax =  -4.02772259988637E-11  1.76365540391892E-02
 cg2d: Sum(rhs),rhsMax =  -3.92680332694795E-11  1.80412511583710E-02
 cg2d: Sum(rhs),rhsMax =  -3.83625353705952E-11  1.84334263792643E-02
 cg2d: Sum(rhs),rhsMax =  -3.74744679731975E-11  1.88128958124417E-02
 cg2d: Sum(rhs),rhsMax =  -3.66839891796644E-11  1.91794800347089E-02
 cg2d: Sum(rhs),rhsMax =  -3.59425822438197E-11  1.95330042168708E-02
 cg2d: Sum(rhs),rhsMax =  -3.52371465339729E-11  1.98732982500355E-02
 cg2d: Sum(rhs),rhsMax =  -3.46032091869120E-11  2.02001968702668E-02
 cg2d: Sum(rhs),rhsMax =  -3.40191208536567E-11  2.05135397814580E-02
 cg2d: Sum(rhs),rhsMax =  -3.34660077427884E-11  2.08131717764023E-02
 cg2d: Sum(rhs),rhsMax =  -3.29679616939416E-11  2.10989428561252E-02
 cg2d: Sum(rhs),rhsMax =  -3.25137694545674E-11  2.13707083456655E-02
 cg2d: Sum(rhs),rhsMax =  -3.20362625316761E-11  2.16283290109744E-02
 cg2d: Sum(rhs),rhsMax =  -3.16241477449353E-11  2.18716711753613E-02
 cg2d: Sum(rhs),rhsMax =  -3.12382342215756E-11  2.21006068330121E-02
 cg2d: Sum(rhs),rhsMax =  -3.08987280206452E-11  2.23150137605380E-02
 cg2d: Sum(rhs),rhsMax =  -3.05797609456704E-11  2.25147756284162E-02
 cg2d: Sum(rhs),rhsMax =  -3.02484703951222E-11  2.26997821083833E-02
 cg2d: Sum(rhs),rhsMax =  -2.99827940253294E-11  2.28699289764734E-02
 cg2d: Sum(rhs),rhsMax =  -2.96619395712128E-11  2.30251182157631E-02
 cg2d: Sum(rhs),rhsMax =  -2.94783086829398E-11  2.31652581180552E-02
 cg2d: Sum(rhs),rhsMax =  -2.93080004709623E-11  2.32902633835805E-02
 cg2d: Sum(rhs),rhsMax =  -2.91049406797583E-11  2.34000552178986E-02
 cg2d: Sum(rhs),rhsMax =  -2.89336332670587E-11  2.34945614254290E-02
 cg2d: Sum(rhs),rhsMax =  -2.88318258157005E-11  2.35737164992125E-02
 cg2d: Sum(rhs),rhsMax =  -2.87614376759393E-11  2.36374617065384E-02
 cg2d: Sum(rhs),rhsMax =  -2.87024848333317E-11  2.36857451700205E-02
 cg2d: Sum(rhs),rhsMax =  -2.86168866381331E-11  2.37185219436132E-02
 cg2d: Sum(rhs),rhsMax =  -2.85441670300202E-11  2.37357540835737E-02
 cg2d: Sum(rhs),rhsMax =  -2.85176326997316E-11  2.37374107120311E-02
 cg2d: Sum(rhs),rhsMax =  -2.84562373664698E-11  2.37234680741859E-02
 cg2d: Sum(rhs),rhsMax =  -2.83892909180850E-11  2.36939095890791E-02
 cg2d: Sum(rhs),rhsMax =  -2.83261192279838E-11  2.36487258927348E-02
 cg2d: Sum(rhs),rhsMax =  -2.82827095077209E-11  2.35879148724361E-02
 cg2d: Sum(rhs),rhsMax =  -2.83071344142627E-11  2.35114816963913E-02
 cg2d: Sum(rhs),rhsMax =  -2.83466583539393E-11  2.34194388384722E-02
 cg2d: Sum(rhs),rhsMax =  -2.84094969771331E-11  2.33118060955167E-02
 cg2d: Sum(rhs),rhsMax =  -2.86377588309961E-11  2.31886105987125E-02
 cg2d: Sum(rhs),rhsMax =  -2.89245294382567E-11  2.30498868206936E-02
 cg2d: Sum(rhs),rhsMax =  -2.91839885591116E-11  2.28956765806041E-02
 cg2d: Sum(rhs),rhsMax =  -2.94777535714275E-11  2.27260290458732E-02
 cg2d: Sum(rhs),rhsMax =  -2.98012725608032E-11  2.25410007333162E-02
 cg2d: Sum(rhs),rhsMax =  -3.01964009352673E-11  2.23406555089599E-02
 cg2d: Sum(rhs),rhsMax =  -3.05075964490698E-11  2.21250645868314E-02
 cg2d: Sum(rhs),rhsMax =  -3.08529868320306E-11  2.18943065273994E-02
 cg2d: Sum(rhs),rhsMax =  -3.12853076778197E-11  2.16484672349966E-02
 cg2d: Sum(rhs),rhsMax =  -3.17157411444668E-11  2.13876399532612E-02
 cg2d: Sum(rhs),rhsMax =  -3.21703774730508E-11  2.11119252578443E-02
 cg2d: Sum(rhs),rhsMax =  -3.26607629830278E-11  2.08214310452398E-02
 cg2d: Sum(rhs),rhsMax =  -3.32432970040486E-11  2.05162725166477E-02
 cg2d: Sum(rhs),rhsMax =  -3.38424843704388E-11  2.01965721559320E-02
 cg2d: Sum(rhs),rhsMax =  -3.45015127578563E-11  1.98624597008004E-02
 cg2d: Sum(rhs),rhsMax =  -3.51991769065307E-11  1.95140721065941E-02
 cg2d: Sum(rhs),rhsMax =  -3.59111629322229E-11  1.91515535032766E-02
 cg2d: Sum(rhs),rhsMax =  -3.67507135834444E-11  1.87750551442134E-02
 cg2d: Sum(rhs),rhsMax =  -3.75991460188629E-11  1.83847353469216E-02
 cg2d: Sum(rhs),rhsMax =  -3.85362852739490E-11  1.79807594261798E-02
 cg2d: Sum(rhs),rhsMax =  -3.95540267206229E-11  1.75632996200770E-02
 cg2d: Sum(rhs),rhsMax =  -4.06121802853932E-11  1.71325350096964E-02
 cg2d: Sum(rhs),rhsMax =  -4.17552659115472E-11  1.66886514331653E-02
 cg2d: Sum(rhs),rhsMax =  -4.29866142681590E-11  1.62318413948080E-02
 cg2d: Sum(rhs),rhsMax =  -4.43411973805041E-11  1.57623039701328E-02
 cg2d: Sum(rhs),rhsMax =  -4.57978099888123E-11  1.52802447073688E-02
 cg2d: Sum(rhs),rhsMax =  -4.73987515903218E-11  1.47858755256475E-02
 cg2d: Sum(rhs),rhsMax =  -4.91396923152365E-11  1.42794146094959E-02
 cg2d: Sum(rhs),rhsMax =  -5.10800290953739E-11  1.37610863055231E-02
 cg2d: Sum(rhs),rhsMax =  -5.32405231012945E-11  1.32311210158290E-02
 cg2d: Sum(rhs),rhsMax =  -5.55987478279008E-11  1.26897550885327E-02
 cg2d: Sum(rhs),rhsMax =  -5.82529580128721E-11  1.21372307058407E-02
 cg2d: Sum(rhs),rhsMax =  -6.11306560927005E-11  1.15737957699608E-02
 cg2d: Sum(rhs),rhsMax =  -6.44634345903228E-11  1.09997037869102E-02
 cg2d: Sum(rhs),rhsMax =  -6.82222056624937E-11  1.04152137480196E-02
 cg2d: Sum(rhs),rhsMax =  -7.09690084477188E-11  1.00242336797675E-02
 cg2d: Sum(rhs),rhsMax =  -7.35337346569054E-11  9.69616660733161E-03
 cg2d: Sum(rhs),rhsMax =  -7.62032659196166E-11  9.36398177431367E-03
 cg2d: Sum(rhs),rhsMax =  -7.91128274002517E-11  9.02782311656023E-03
 cg2d: Sum(rhs),rhsMax =  -8.20021828218387E-11  8.71254825016896E-03
 cg2d: Sum(rhs),rhsMax =  -8.50830517151735E-11  8.39985493295381E-03
 cg2d: Sum(rhs),rhsMax =  -8.84723405647492E-11  8.08386492316154E-03
 cg2d: Sum(rhs),rhsMax =  -9.22067422415296E-11  7.76471398340489E-03
 cg2d: Sum(rhs),rhsMax =  -9.62497304080046E-11  7.44253912383227E-03
 cg2d: Sum(rhs),rhsMax =  -1.00748964726449E-10  7.11747825608874E-03
 cg2d: Sum(rhs),rhsMax =  -1.05741693179340E-10  6.78967034339921E-03
 cg2d: Sum(rhs),rhsMax =  -1.11225834098505E-10  6.45925529361525E-03
 cg2d: Sum(rhs),rhsMax =  -1.17381299125086E-10  6.12637366789309E-03
 cg2d: Sum(rhs),rhsMax =  -1.24286012037622E-10  5.79116636942104E-03
 cg2d: Sum(rhs),rhsMax =  -1.31960303795253E-10  5.45936049266074E-03
 cg2d: Sum(rhs),rhsMax =  -1.40035094631230E-10  5.14509245428885E-03
 cg2d: Sum(rhs),rhsMax =  -1.47106216097370E-10  4.89911261058976E-03
 cg2d: Sum(rhs),rhsMax =  -1.54662338491818E-10  4.66101202368772E-03
 cg2d: Sum(rhs),rhsMax =  -1.63115521090162E-10  4.42179889834413E-03
 cg2d: Sum(rhs),rhsMax =  -1.72528880071354E-10  4.18157787684476E-03
 cg2d: Sum(rhs),rhsMax =  -1.57231339059649E-10  4.58938769544023E-03
 cg2d: Sum(rhs),rhsMax =  -1.39102729335150E-10  5.18943147328969E-03
 cg2d: Sum(rhs),rhsMax =  -1.24413590540939E-10  5.80469853292196E-03
 cg2d: Sum(rhs),rhsMax =  -1.12355014181276E-10  6.43432581124135E-03
 cg2d: Sum(rhs),rhsMax =  -1.02215569341979E-10  7.07768850158166E-03
 cg2d: Sum(rhs),rhsMax =  -9.35734822959944E-11  7.73940527199544E-03
 cg2d: Sum(rhs),rhsMax =  -8.61841709109967E-11  8.41097775073637E-03
 cg2d: Sum(rhs),rhsMax =  -7.97568677768368E-11  9.09499602560773E-03
 cg2d: Sum(rhs),rhsMax =  -7.41184891239755E-11  9.79491189005893E-03
 cg2d: Sum(rhs),rhsMax =  -6.91712243039433E-11  1.05057830068320E-02
 cg2d: Sum(rhs),rhsMax =  -6.47398801234544E-11  1.12383507932659E-02
 cg2d: Sum(rhs),rhsMax =  -6.07356387405389E-11  1.19933239372509E-02
 cg2d: Sum(rhs),rhsMax =  -5.71671598947887E-11  1.27480138789284E-02
 cg2d: Sum(rhs),rhsMax =  -5.40372191437655E-11  1.35020650315819E-02
 cg2d: Sum(rhs),rhsMax =  -5.12943021391266E-11  1.42551221106595E-02
 cg2d: Sum(rhs),rhsMax =  -4.88100670992253E-11  1.50068303323235E-02
 cg2d: Sum(rhs),rhsMax =  -4.65886218492528E-11  1.57568356103732E-02
 cg2d: Sum(rhs),rhsMax =  -4.45905534718349E-11  1.65047847517518E-02
 cg2d: Sum(rhs),rhsMax =  -4.27141655379160E-11  1.72503256510118E-02
 cg2d: Sum(rhs),rhsMax =  -4.10793621341554E-11  1.79931074841322E-02
 cg2d: Sum(rhs),rhsMax =  -3.95340427061797E-11  1.87327809020211E-02
 cg2d: Sum(rhs),rhsMax =  -3.81000786475738E-11  1.94689982239450E-02
 cg2d: Sum(rhs),rhsMax =  -3.67885721885841E-11  2.02014136310328E-02
 cg2d: Sum(rhs),rhsMax =  -3.55884210989643E-11  2.09296833599079E-02
 cg2d: Sum(rhs),rhsMax =  -3.44674289110003E-11  2.16534658964167E-02
 cg2d: Sum(rhs),rhsMax =  -3.34587912931283E-11  2.23724221693455E-02
 cg2d: Sum(rhs),rhsMax =  -3.24426041586889E-11  2.30862157439286E-02
 cg2d: Sum(rhs),rhsMax =  -3.15586445864824E-11  2.37945130149452E-02
 cg2d: Sum(rhs),rhsMax =  -3.07229797158470E-11  2.44969833991509E-02
 cg2d: Sum(rhs),rhsMax =  -2.99344993237582E-11  2.51932995267346E-02
 cg2d: Sum(rhs),rhsMax =  -2.91745516634023E-11  2.58831374313980E-02
 cg2d: Sum(rhs),rhsMax =  -2.84781087600550E-11  2.65661767386622E-02
 cg2d: Sum(rhs),rhsMax =  -2.78393974539881E-11  2.72421008524985E-02
 cg2d: Sum(rhs),rhsMax =  -2.72232236753212E-11  2.79105971393763E-02
 cg2d: Sum(rhs),rhsMax =  -2.66369148960166E-11  2.85713571094371E-02
 cg2d: Sum(rhs),rhsMax =  -2.61397570255895E-11  2.92240765945890E-02
 cg2d: Sum(rhs),rhsMax =  -2.56940024812025E-11  2.98684559225869E-02
 cg2d: Sum(rhs),rhsMax =  -2.52409204648529E-11  3.05042000892053E-02
 cg2d: Sum(rhs),rhsMax =  -2.47899478722502E-11  3.11310189259440E-02
 cg2d: Sum(rhs),rhsMax =  -2.44125830661801E-11  3.17486272627685E-02
 cg2d: Sum(rhs),rhsMax =  -2.40275577212401E-11  3.23567450870242E-02
 cg2d: Sum(rhs),rhsMax =  -2.36681785281689E-11  3.29550976994007E-02
 cg2d: Sum(rhs),rhsMax =  -2.33115748926593E-11  3.35434158655257E-02
 cg2d: Sum(rhs),rhsMax =  -2.29719576694265E-11  3.41214359632584E-02
 cg2d: Sum(rhs),rhsMax =  -2.27137197938987E-11  3.46889001257372E-02
 cg2d: Sum(rhs),rhsMax =  -2.24340546139956E-11  3.52455563801978E-02
 cg2d: Sum(rhs),rhsMax =  -2.21710427794619E-11  3.57911587825007E-02
 cg2d: Sum(rhs),rhsMax =  -2.19124718370267E-11  3.63254675472137E-02
 cg2d: Sum(rhs),rhsMax =  -2.16577866751777E-11  3.68482491730173E-02
 cg2d: Sum(rhs),rhsMax =  -2.14239737061916E-11  3.73592765631384E-02
 cg2d: Sum(rhs),rhsMax =  -2.12122541753956E-11  3.78583291404812E-02
 cg2d: Sum(rhs),rhsMax =  -2.10161887892468E-11  3.83451929571203E-02
 cg2d: Sum(rhs),rhsMax =  -2.07950323627415E-11  3.88196607978395E-02
 cg2d: Sum(rhs),rhsMax =  -2.06508143918427E-11  3.92815322774543E-02
 cg2d: Sum(rhs),rhsMax =  -2.04793959568406E-11  3.97306139320446E-02
 cg2d: Sum(rhs),rhsMax =  -2.02624583778288E-11  4.01667193031123E-02
(PID.TID 0000.0001)      cg2d_init_res =   5.47757975536294E-02
(PID.TID 0000.0001)      cg2d_iters(min,last) =      -1      37
(PID.TID 0000.0001)      cg2d_last_res =   4.43410218352794E-14
(PID.TID 0000.0001) // =======================================================
(PID.TID 0000.0001) // Begin MONITOR dynamic field statistics
(PID.TID 0000.0001) // =======================================================
(PID.TID 0000.0001) %MON time_tsnumber                =                  3360
(PID.TID 0000.0001) %MON time_secondsf                =   5.0400000000000E+04
(PID.TID 0000.0001) %MON dynstat_eta_max              =   6.8153562376124E-03
(PID.TID 0000.0001) %MON dynstat_eta_min              =  -6.6783039207662E-03
(PID.TID 0000.0001) %MON dynstat_eta_mean             =   1.7494563549464E-15
(PID.TID 0000.0001) %MON dynstat_eta_sd               =   4.3563281246562E-03
(PID.TID 0000.0001) %MON dynstat_eta_del2             =   3.5714925098157E-06
(PID.TID 0000.0001) %MON dynstat_uvel_max             =   3.1807054532520E-01
(PID.TID 0000.0001) %MON dynstat_uvel_min             =  -8.3059731980280E-02
(PID.TID 0000.0001) %MON dynstat_uvel_mean            =   6.7619227814992E-02
(PID.TID 0000.0001) %MON dynstat_uvel_sd              =   3.5752575553376E-02
(PID.TID 0000.0001) %MON dynstat_uvel_del2            =   8.3580392394871E-05
(PID.TID 0000.0001) %MON dynstat_vvel_max             =   0.0000000000000E+00
(PID.TID 0000.0001) %MON dynstat_vvel_min             =   0.0000000000000E+00
(PID.TID 0000.0001) %MON dynstat_vvel_mean            =   0.0000000000000E+00
(PID.TID 0000.0001) %MON dynstat_vvel_sd              =   0.0000000000000E+00
(PID.TID 0000.0001) %MON dynstat_vvel_del2            =   0.0000000000000E+00
(PID.TID 0000.0001) %MON dynstat_wvel_max             =   2.4888745961834E-03
(PID.TID 0000.0001) %MON dynstat_wvel_min             =  -4.0994462132463E-03
(PID.TID 0000.0001) %MON dynstat_wvel_mean            =   9.8372722847825E-21
(PID.TID 0000.0001) %MON dynstat_wvel_sd              =   2.4453961242669E-04
(PID.TID 0000.0001) %MON dynstat_wvel_del2            =   4.5253054891507E-06
(PID.TID 0000.0001) %MON dynstat_theta_max            =   1.5000000000010E+01
(PID.TID 0000.0001) %MON dynstat_theta_min            =   9.9999999999940E+00
(PID.TID 0000.0001) %MON dynstat_theta_mean           =   1.3334549105512E+01
(PID.TID 0000.0001) %MON dynstat_theta_sd             =   2.3126263751721E+00
(PID.TID 0000.0001) %MON dynstat_theta_del2           =   3.1114114602073E-04
(PID.TID 0000.0001) %MON dynstat_salt_max             =   3.5000000000000E+01
(PID.TID 0000.0001) %MON dynstat_salt_min             =   3.5000000000000E+01
(PID.TID 0000.0001) %MON dynstat_salt_mean            =   3.5000000000000E+01
(PID.TID 0000.0001) %MON dynstat_salt_sd              =   2.1316282072803E-14
(PID.TID 0000.0001) %MON dynstat_salt_del2            =   0.0000000000000E+00
(PID.TID 0000.0001) %MON dynstat_sst_max              =   1.5000000000001E+01
(PID.TID 0000.0001) %MON dynstat_sst_min              =   1.4999999999994E+01
(PID.TID 0000.0001) %MON dynstat_sst_mean             =   1.4999999999996E+01
(PID.TID 0000.0001) %MON dynstat_sst_sd               =   2.2757971806041E-12
(PID.TID 0000.0001) %MON dynstat_sst_del2             =   2.5323667544431E-14
(PID.TID 0000.0001) %MON dynstat_sss_max              =   3.5000000000000E+01
(PID.TID 0000.0001) %MON dynstat_sss_min              =   3.5000000000000E+01
(PID.TID 0000.0001) %MON dynstat_sss_mean             =   3.5000000000000E+01
(PID.TID 0000.0001) %MON dynstat_sss_sd               =   7.8159700933611E-14
(PID.TID 0000.0001) %MON dynstat_sss_del2             =   0.0000000000000E+00
(PID.TID 0000.0001) %MON forcing_qnet_max             =   0.0000000000000E+00
(PID.TID 0000.0001) %MON forcing_qnet_min             =   0.0000000000000E+00
(PID.TID 0000.0001) %MON forcing_qnet_mean            =   0.0000000000000E+00
(PID.TID 0000.0001) %MON forcing_qnet_sd              =   0.0000000000000E+00
(PID.TID 0000.0001) %MON forcing_qnet_del2            =   0.0000000000000E+00
(PID.TID 0000.0001) %MON forcing_qsw_max              =   0.0000000000000E+00
(PID.TID 0000.0001) %MON forcing_qsw_min              =   0.0000000000000E+00
(PID.TID 0000.0001) %MON forcing_qsw_mean             =   0.0000000000000E+00
(PID.TID 0000.0001) %MON forcing_qsw_sd               =   0.0000000000000E+00
(PID.TID 0000.0001) %MON forcing_qsw_del2             =   0.0000000000000E+00
(PID.TID 0000.0001) %MON forcing_empmr_max            =   0.0000000000000E+00
(PID.TID 0000.0001) %MON forcing_empmr_min            =   0.0000000000000E+00
(PID.TID 0000.0001) %MON forcing_empmr_mean           =   0.0000000000000E+00
(PID.TID 0000.0001) %MON forcing_empmr_sd             =   0.0000000000000E+00
(PID.TID 0000.0001) %MON forcing_empmr_del2           =   0.0000000000000E+00
(PID.TID 0000.0001) %MON forcing_fu_max               =   0.0000000000000E+00
(PID.TID 0000.0001) %MON forcing_fu_min               =   0.0000000000000E+00
(PID.TID 0000.0001) %MON forcing_fu_mean              =   0.0000000000000E+00
(PID.TID 0000.0001) %MON forcing_fu_sd                =   0.0000000000000E+00
(PID.TID 0000.0001) %MON forcing_fu_del2              =   0.0000000000000E+00
(PID.TID 0000.0001) %MON forcing_fv_max               =   0.0000000000000E+00
(PID.TID 0000.0001) %MON forcing_fv_min               =   0.0000000000000E+00
(PID.TID 0000.0001) %MON forcing_fv_mean              =   0.0000000000000E+00
(PID.TID 0000.0001) %MON forcing_fv_sd                =   0.0000000000000E+00
(PID.TID 0000.0001) %MON forcing_fv_del2              =   0.0000000000000E+00
(PID.TID 0000.0001) %MON advcfl_uvel_max              =   2.3855290899390E-02
(PID.TID 0000.0001) %MON advcfl_vvel_max              =   0.0000000000000E+00
(PID.TID 0000.0001) %MON advcfl_wvel_max              =   3.3382819814858E-02
(PID.TID 0000.0001) %MON advcfl_W_hf_max              =   3.3806084510202E-02
(PID.TID 0000.0001) %MON pe_b_mean                    =   4.7411954225998E-07
(PID.TID 0000.0001) %MON ke_max                       =   4.6258121223009E-02
(PID.TID 0000.0001) %MON ke_mean                      =   2.9317114972901E-03
(PID.TID 0000.0001) %MON ke_vol                       =   9.5889217545975E+10
(PID.TID 0000.0001) %MON vort_r_min                   =   0.0000000000000E+00
(PID.TID 0000.0001) %MON vort_r_max                   =   0.0000000000000E+00
(PID.TID 0000.0001) %MON vort_a_mean                  =   0.0000000000000E+00
(PID.TID 0000.0001) %MON vort_a_sd                    =   0.0000000000000E+00
(PID.TID 0000.0001) %MON vort_p_mean                  =   0.0000000000000E+00
(PID.TID 0000.0001) %MON vort_p_sd                    =   0.0000000000000E+00
(PID.TID 0000.0001) %MON surfExpan_theta_mean         =   1.7260123157099E-18
(PID.TID 0000.0001) %MON surfExpan_salt_mean          =   4.0199909227660E-19
(PID.TID 0000.0001) // =======================================================
(PID.TID 0000.0001) // End MONITOR dynamic field statistics
(PID.TID 0000.0001) // =======================================================
(PID.TID 0000.0001) // =======================================================
(PID.TID 0000.0001) // Begin OBCS MONITOR field statistics
(PID.TID 0000.0001) // =======================================================
(PID.TID 0000.0001) %MON obc_E_uVel_max               =   6.6809804669674E-02
(PID.TID 0000.0001) %MON obc_E_uVel_min               =   6.6809804669674E-02
(PID.TID 0000.0001) %MON obc_E_uVel_mean              =   6.6809804669674E-02
(PID.TID 0000.0001) %MON obc_E_uVel_sd                =  -1.7347234759768E-18
(PID.TID 0000.0001) %MON obc_E_uVel_Int               =   6.6809804669674E+04
(PID.TID 0000.0001) %MON obc_W_uVel_max               =   6.6809804669674E-02
(PID.TID 0000.0001) %MON obc_W_uVel_min               =   6.6809804669674E-02
(PID.TID 0000.0001) %MON obc_W_uVel_mean              =   6.6809804669674E-02
(PID.TID 0000.0001) %MON obc_W_uVel_sd                =  -1.7347234759768E-18
(PID.TID 0000.0001) %MON obc_W_uVel_Int               =   6.6809804669674E+04
(PID.TID 0000.0001) // =======================================================
(PID.TID 0000.0001) // End OBCS MONITOR field statistics
(PID.TID 0000.0001) // =======================================================
 cg2d: Sum(rhs),rhsMax =  -2.01220151652137E-11  4.05896690154569E-02
 cg2d: Sum(rhs),rhsMax =  -1.99458227712057E-11  4.09992908491461E-02
 cg2d: Sum(rhs),rhsMax =  -1.98080440938497E-11  4.13954198068892E-02
 cg2d: Sum(rhs),rhsMax =  -1.96777039107587E-11  4.17778981741100E-02
 cg2d: Sum(rhs),rhsMax =  -1.95216065534964E-11  4.21465755746263E-02
 cg2d: Sum(rhs),rhsMax =  -1.94740890080425E-11  4.25013090225449E-02
 cg2d: Sum(rhs),rhsMax =  -1.94193550129285E-11  4.28419629707226E-02
 cg2d: Sum(rhs),rhsMax =  -1.93596250142036E-11  4.31684093559776E-02
 cg2d: Sum(rhs),rhsMax =  -1.93211002752491E-11  4.34805276402521E-02
 cg2d: Sum(rhs),rhsMax =  -1.92796889564306E-11  4.37782048479331E-02
 cg2d: Sum(rhs),rhsMax =  -1.92346139016308E-11  4.40613356029395E-02
 cg2d: Sum(rhs),rhsMax =  -1.91756610590232E-11  4.43298221601044E-02
 cg2d: Sum(rhs),rhsMax =  -1.91494597956421E-11  4.45835744303491E-02
 cg2d: Sum(rhs),rhsMax =  -1.91333615617850E-11  4.48225100022436E-02
 cg2d: Sum(rhs),rhsMax =  -1.90923943321764E-11  4.50465541505862E-02
 cg2d: Sum(rhs),rhsMax =  -1.91436866359140E-11  4.52556398373198E-02
 cg2d: Sum(rhs),rhsMax =  -1.92087457051571E-11  4.54497077047262E-02
 cg2d: Sum(rhs),rhsMax =  -1.92192928238910E-11  4.56287060595749E-02
 cg2d: Sum(rhs),rhsMax =  -1.92470483995066E-11  4.57925908470895E-02
 cg2d: Sum(rhs),rhsMax =  -1.92561522283086E-11  4.59413256140327E-02
 cg2d: Sum(rhs),rhsMax =  -1.92540428045618E-11  4.60748814616061E-02
 cg2d: Sum(rhs),rhsMax =  -1.92486027117411E-11  4.61932369882732E-02
 cg2d: Sum(rhs),rhsMax =  -1.92407201282663E-11  4.62963782237165E-02
 cg2d: Sum(rhs),rhsMax =  -1.91536786431357E-11  4.63842985554516E-02
 cg2d: Sum(rhs),rhsMax =  -1.90253368614890E-11  4.64569986497843E-02
 cg2d: Sum(rhs),rhsMax =  -1.88709048387636E-11  4.65144863688076E-02
 cg2d: Sum(rhs),rhsMax =  -1.87261317563525E-11  4.65567766855133E-02
 cg2d: Sum(rhs),rhsMax =  -1.86263227064387E-11  4.65838915970165E-02
 cg2d: Sum(rhs),rhsMax =  -1.85734760904666E-11  4.65958600379110E-02
 cg2d: Sum(rhs),rhsMax =  -1.85650383954794E-11  4.65927177927636E-02
 cg2d: Sum(rhs),rhsMax =  -1.85940152164221E-11  4.65745074129640E-02
 cg2d: Sum(rhs),rhsMax =  -1.86343163122160E-11  4.65412781352813E-02
 cg2d: Sum(rhs),rhsMax =  -1.86104465171866E-11  4.64930857989677E-02
 cg2d: Sum(rhs),rhsMax =  -1.85903514804409E-11  4.64299927612977E-02
 cg2d: Sum(rhs),rhsMax =  -1.85694792875779E-11  4.63520678112499E-02
 cg2d: Sum(rhs),rhsMax =  -1.85905735250458E-11  4.62593860810556E-02
 cg2d: Sum(rhs),rhsMax =  -1.85833570753857E-11  4.61520289536860E-02
 cg2d: Sum(rhs),rhsMax =  -1.85914617034655E-11  4.60300839656104E-02
 cg2d: Sum(rhs),rhsMax =  -1.85526038976036E-11  4.58936447045359E-02
 cg2d: Sum(rhs),rhsMax =  -1.85531590091159E-11  4.57428107026660E-02
 cg2d: Sum(rhs),rhsMax =  -1.86136661639580E-11  4.55776873251694E-02
 cg2d: Sum(rhs),rhsMax =  -1.86467508100918E-11  4.53983856538795E-02
 cg2d: Sum(rhs),rhsMax =  -1.86507476129805E-11  4.52050223665627E-02
 cg2d: Sum(rhs),rhsMax =  -1.87060367196068E-11  4.49977196124718E-02
 cg2d: Sum(rhs),rhsMax =  -1.87088122771684E-11  4.47766048848072E-02
 cg2d: Sum(rhs),rhsMax =  -1.87737603241089E-11  4.45418108919246E-02
 cg2d: Sum(rhs),rhsMax =  -1.87995174982802E-11  4.42934754272369E-02
 cg2d: Sum(rhs),rhsMax =  -1.88292714753402E-11  4.40317412385385E-02
 cg2d: Sum(rhs),rhsMax =  -1.88723481286956E-11  4.37567558976033E-02
 cg2d: Sum(rhs),rhsMax =  -1.89203097633595E-11  4.34686716707689E-02
 cg2d: Sum(rhs),rhsMax =  -1.89747106915661E-11  4.31676453909942E-02
 cg2d: Sum(rhs),rhsMax =  -1.90327753557540E-11  4.28538383316492E-02
 cg2d: Sum(rhs),rhsMax =  -1.90852889048188E-11  4.25274160820877E-02
 cg2d: Sum(rhs),rhsMax =  -1.91919813374852E-11  4.21885484249092E-02
 cg2d: Sum(rhs),rhsMax =  -1.93465243825131E-11  4.18374092147501E-02
 cg2d: Sum(rhs),rhsMax =  -1.94724236735055E-11  4.14741762583733E-02
 cg2d: Sum(rhs),rhsMax =  -1.96052063472507E-11  4.10990311958067E-02
 cg2d: Sum(rhs),rhsMax =  -1.97111216238000E-11  4.07121593823073E-02
 cg2d: Sum(rhs),rhsMax =  -1.99162908387507E-11  4.03137497710504E-02
 cg2d: Sum(rhs),rhsMax =  -2.00559568952485E-11  3.99039947965283E-02
 cg2d: Sum(rhs),rhsMax =  -2.02455829878545E-11  3.94830902588454E-02
 cg2d: Sum(rhs),rhsMax =  -2.03840277990253E-11  3.90512352092861E-02
 cg2d: Sum(rhs),rhsMax =  -2.05687689103229E-11  3.86086318354566E-02
 cg2d: Sum(rhs),rhsMax =  -2.07819317310509E-11  3.81554853527375E-02
 cg2d: Sum(rhs),rhsMax =  -2.09837702769278E-11  3.76920038987676E-02
 cg2d: Sum(rhs),rhsMax =  -2.11608508493555E-11  3.72183984308071E-02
 cg2d: Sum(rhs),rhsMax =  -2.13871143017741E-11  3.67348826272314E-02
 cg2d: Sum(rhs),rhsMax =  -2.16108242412361E-11  3.62416727943986E-02
 cg2d: Sum(rhs),rhsMax =  -2.18679518937392E-11  3.57389877798667E-02
 cg2d: Sum(rhs),rhsMax =  -2.21067608663361E-11  3.52270488925490E-02
 cg2d: Sum(rhs),rhsMax =  -2.23674412325181E-11  3.47060798300121E-02
 cg2d: Sum(rhs),rhsMax =  -2.26414442749956E-11  3.41763066129177E-02
 cg2d: Sum(rhs),rhsMax =  -2.29517516103783E-11  3.36379575260295E-02
 cg2d: Sum(rhs),rhsMax =  -2.32115437981406E-11  3.30912630638723E-02
 cg2d: Sum(rhs),rhsMax =  -2.35355068767262E-11  3.25364558822897E-02
 cg2d: Sum(rhs),rhsMax =  -2.38595809776143E-11  3.19737707539332E-02
 cg2d: Sum(rhs),rhsMax =  -2.42095232749762E-11  3.14034445208366E-02
 cg2d: Sum(rhs),rhsMax =  -2.45845566126945E-11  3.08257160482311E-02
 cg2d: Sum(rhs),rhsMax =  -2.49620324410671E-11  3.02408261774675E-02
 cg2d: Sum(rhs),rhsMax =  -2.53671528227528E-11  2.96490176760613E-02
 cg2d: Sum(rhs),rhsMax =  -2.58083554527389E-11  2.90505351832634E-02
 cg2d: Sum(rhs),rhsMax =  -2.62364574510343E-11  2.84456251501659E-02
 cg2d: Sum(rhs),rhsMax =  -2.67236233142398E-11  2.78345357739558E-02
 cg2d: Sum(rhs),rhsMax =  -2.72405431545053E-11  2.72175169264159E-02
 cg2d: Sum(rhs),rhsMax =  -2.77322609321118E-11  2.65948200771267E-02
 cg2d: Sum(rhs),rhsMax =  -2.83635337439136E-11  2.59666982120457E-02
 cg2d: Sum(rhs),rhsMax =  -2.90348856069045E-11  2.53334057482762E-02
 cg2d: Sum(rhs),rhsMax =  -2.97192270792834E-11  2.46951984458895E-02
 cg2d: Sum(rhs),rhsMax =  -3.04546388107951E-11  2.40523333176733E-02
 cg2d: Sum(rhs),rhsMax =  -3.12528891655006E-11  2.34050685376340E-02
 cg2d: Sum(rhs),rhsMax =  -3.20830029210128E-11  2.27536633497050E-02
 cg2d: Sum(rhs),rhsMax =  -3.29912763774587E-11  2.20983779756918E-02
 cg2d: Sum(rhs),rhsMax =  -3.39110961533606E-11  2.14394735238255E-02
 cg2d: Sum(rhs),rhsMax =  -3.49356099604847E-11  2.07772118990049E-02
 cg2d: Sum(rhs),rhsMax =  -3.60176333202844E-11  2.01118557152247E-02
 cg2d: Sum(rhs),rhsMax =  -3.71866981652147E-11  1.94436682106518E-02
 cg2d: Sum(rhs),rhsMax =  -3.84453580082322E-11  1.87729131657720E-02
 cg2d: Sum(rhs),rhsMax =  -3.97913924032878E-11  1.80998548250288E-02
 cg2d: Sum(rhs),rhsMax =  -4.12467837662689E-11  1.74247578223946E-02
 cg2d: Sum(rhs),rhsMax =  -4.28171942346012E-11  1.67478871113277E-02
 cg2d: Sum(rhs),rhsMax =  -4.45347092536963E-11  1.60695078995422E-02
 cg2d: Sum(rhs),rhsMax =  -4.64145388789916E-11  1.53898855865622E-02
 cg2d: Sum(rhs),rhsMax =  -4.84746687234860E-11  1.47092857112427E-02
 cg2d: Sum(rhs),rhsMax =  -5.07042186015383E-11  1.40279739041553E-02
 cg2d: Sum(rhs),rhsMax =  -5.32039967637843E-11  1.33462158440442E-02
 cg2d: Sum(rhs),rhsMax =  -5.59396973187631E-11  1.26642772186538E-02
 cg2d: Sum(rhs),rhsMax =  -5.90220095020300E-11  1.19824236899547E-02
 cg2d: Sum(rhs),rhsMax =  -6.24608142985039E-11  1.13009208632797E-02
 cg2d: Sum(rhs),rhsMax =  -6.63230581565699E-11  1.06200342593786E-02
 cg2d: Sum(rhs),rhsMax =  -7.07131020405427E-11  9.94002928806590E-03
 cg2d: Sum(rhs),rhsMax =  -7.58195728423061E-11  9.26117122197751E-03
 cg2d: Sum(rhs),rhsMax =  -8.17211853743061E-11  8.58372516897175E-03
 cg2d: Sum(rhs),rhsMax =  -8.86186679593948E-11  7.90795604181690E-03
 cg2d: Sum(rhs),rhsMax =  -9.67973479149009E-11  7.23412852401926E-03
 cg2d: Sum(rhs),rhsMax =  -1.06576636405009E-10  6.56250703082820E-03
 cg2d: Sum(rhs),rhsMax =  -1.18553056260851E-10  5.89335566473041E-03
 cg2d: Sum(rhs),rhsMax =  -1.33564714843715E-10  5.22693816504809E-03
 cg2d: Sum(rhs),rhsMax =  -1.33159705484331E-10  5.23763300094436E-03
 cg2d: Sum(rhs),rhsMax =  -1.26418320256505E-10  5.51330167926325E-03
 cg2d: Sum(rhs),rhsMax =  -1.18572485163781E-10  5.87164754120299E-03
 cg2d: Sum(rhs),rhsMax =  -1.11660625190524E-10  6.22723318789054E-03
 cg2d: Sum(rhs),rhsMax =  -1.05594623323046E-10  6.58029776552078E-03
 cg2d: Sum(rhs),rhsMax =  -1.00023947458006E-10  6.94299571553168E-03
 cg2d: Sum(rhs),rhsMax =  -9.50171885616413E-11  7.30232281713726E-03
 cg2d: Sum(rhs),rhsMax =  -9.05217012459048E-11  7.65812074028842E-03
 cg2d: Sum(rhs),rhsMax =  -8.64651406029537E-11  8.01023317172266E-03
 cg2d: Sum(rhs),rhsMax =  -8.27919399704058E-11  8.35850555075463E-03
 cg2d: Sum(rhs),rhsMax =  -7.94571075601880E-11  8.70278514680514E-03
 cg2d: Sum(rhs),rhsMax =  -7.63832885830595E-11  9.04880877067843E-03
 cg2d: Sum(rhs),rhsMax =  -7.28886395684469E-11  9.47099386997679E-03
 cg2d: Sum(rhs),rhsMax =  -6.97077950917446E-11  9.88762198807836E-03
 cg2d: Sum(rhs),rhsMax =  -6.68373134615763E-11  1.02985129962131E-02
 cg2d: Sum(rhs),rhsMax =  -6.41992015104620E-11  1.07034898331252E-02
 cg2d: Sum(rhs),rhsMax =  -6.17577100570088E-11  1.11023786533731E-02
 cg2d: Sum(rhs),rhsMax =  -5.95518079293811E-11  1.14950089054790E-02
 cg2d: Sum(rhs),rhsMax =  -5.75176573036629E-11  1.18812133925867E-02
 cg2d: Sum(rhs),rhsMax =  -5.56666934770078E-11  1.22608283471835E-02
 cg2d: Sum(rhs),rhsMax =  -5.39267519528153E-11  1.26336935163951E-02
 cg2d: Sum(rhs),rhsMax =  -5.22826226756479E-11  1.29996522438131E-02
 cg2d: Sum(rhs),rhsMax =  -5.08271202903643E-11  1.33585515421815E-02
 cg2d: Sum(rhs),rhsMax =  -4.94487784052922E-11  1.37102421606693E-02
 cg2d: Sum(rhs),rhsMax =  -4.81407136376788E-11  1.40545786522217E-02
 cg2d: Sum(rhs),rhsMax =  -4.69143612846779E-11  1.43914194425827E-02
 cg2d: Sum(rhs),rhsMax =  -4.57663906772154E-11  1.47206268985951E-02
 cg2d: Sum(rhs),rhsMax =  -4.48181491918831E-11  1.50420673924034E-02
 cg2d: Sum(rhs),rhsMax =  -4.38346026143677E-11  1.53556113597329E-02
 cg2d: Sum(rhs),rhsMax =  -4.29046798089416E-11  1.56611333523745E-02
 cg2d: Sum(rhs),rhsMax =  -4.20532497713566E-11  1.59585120877841E-02
 cg2d: Sum(rhs),rhsMax =  -4.12918588210687E-11  1.62476304952177E-02
 cg2d: Sum(rhs),rhsMax =  -4.05425693017492E-11  1.65283757573844E-02
 cg2d: Sum(rhs),rhsMax =  -3.98372446142048E-11  1.68006393998335E-02
 cg2d: Sum(rhs),rhsMax =  -3.91597865245785E-11  1.70643173477897E-02
 cg2d: Sum(rhs),rhsMax =  -3.85241838429806E-11  1.73193098571036E-02
 cg2d: Sum(rhs),rhsMax =  -3.78560516267612E-11  1.75655215757423E-02
 cg2d: Sum(rhs),rhsMax =  -3.72488706545937E-11  1.78028616385283E-02
 cg2d: Sum(rhs),rhsMax =  -3.66962016329353E-11  1.80312437324631E-02
 cg2d: Sum(rhs),rhsMax =  -3.61400909199006E-11  1.82505861234052E-02
 cg2d: Sum(rhs),rhsMax =  -3.57216478619193E-11  1.84608116576428E-02
 cg2d: Sum(rhs),rhsMax =  -3.52172735418321E-11  1.86618477517610E-02
 cg2d: Sum(rhs),rhsMax =  -3.47292195002069E-11  1.88536263777582E-02
 cg2d: Sum(rhs),rhsMax =  -3.43299833005517E-11  1.90360841576754E-02
 cg2d: Sum(rhs),rhsMax =  -3.39542838290186E-11  1.92091622182543E-02
 cg2d: Sum(rhs),rhsMax =  -3.36130012712488E-11  1.93728060857831E-02
 cg2d: Sum(rhs),rhsMax =  -3.32948113523912E-11  1.95269657154385E-02
 cg2d: Sum(rhs),rhsMax =  -3.29548610622510E-11  1.96715955248944E-02
 cg2d: Sum(rhs),rhsMax =  -3.26437765707510E-11  1.98066543961421E-02
 cg2d: Sum(rhs),rhsMax =  -3.24004156837532E-11  1.99321056723367E-02
 cg2d: Sum(rhs),rhsMax =  -3.21359605592875E-11  2.00479171331251E-02
 cg2d: Sum(rhs),rhsMax =  -3.19612114552115E-11  2.01540609659173E-02
 cg2d: Sum(rhs),rhsMax =  -3.17259551962934E-11  2.02505137629891E-02
 cg2d: Sum(rhs),rhsMax =  -3.15504289361002E-11  2.03372565476781E-02
 cg2d: Sum(rhs),rhsMax =  -3.13663539586173E-11  2.04142748068591E-02
 cg2d: Sum(rhs),rhsMax =  -3.12012637948555E-11  2.04815585053492E-02
 cg2d: Sum(rhs),rhsMax =  -3.11096703953240E-11  2.05391020746990E-02
 cg2d: Sum(rhs),rhsMax =  -3.09536840603641E-11  2.05869043851128E-02
 cg2d: Sum(rhs),rhsMax =  -3.08925107717073E-11  2.06249687123603E-02
 cg2d: Sum(rhs),rhsMax =  -3.07688319267641E-11  2.06624990877537E-02
 cg2d: Sum(rhs),rhsMax =  -3.06414893458395E-11  2.07355226337490E-02
 cg2d: Sum(rhs),rhsMax =  -3.05386826937593E-11  2.07941203107284E-02
 cg2d: Sum(rhs),rhsMax =  -3.05235836606244E-11  2.08382501765352E-02
 cg2d: Sum(rhs),rhsMax =  -3.04457570265981E-11  2.08678768115823E-02
 cg2d: Sum(rhs),rhsMax =  -3.04249958560376E-11  2.08829713581797E-02
 cg2d: Sum(rhs),rhsMax =  -3.03197467133032E-11  2.08835115607457E-02
 cg2d: Sum(rhs),rhsMax =  -3.02514679972887E-11  2.08694818061984E-02
 cg2d: Sum(rhs),rhsMax =  -3.02023961396003E-11  2.08408731664007E-02
 cg2d: Sum(rhs),rhsMax =  -3.01435543192952E-11  2.07976834441727E-02
 cg2d: Sum(rhs),rhsMax =  -3.01221270149199E-11  2.07399172186597E-02
 cg2d: Sum(rhs),rhsMax =  -3.02160518828032E-11  2.06675858894711E-02
 cg2d: Sum(rhs),rhsMax =  -3.03772562659788E-11  2.05807077191220E-02
 cg2d: Sum(rhs),rhsMax =  -3.06430436580740E-11  2.04793078729067E-02
 cg2d: Sum(rhs),rhsMax =  -3.08538750104503E-11  2.03634184556145E-02
 cg2d: Sum(rhs),rhsMax =  -3.11464187774391E-11  2.02330785413846E-02
 cg2d: Sum(rhs),rhsMax =  -3.14884784913261E-11  2.00883341967040E-02
 cg2d: Sum(rhs),rhsMax =  -3.17987858267088E-11  1.99292384958637E-02
 cg2d: Sum(rhs),rhsMax =  -3.21292992211397E-11  1.97558515269167E-02
 cg2d: Sum(rhs),rhsMax =  -3.25108828747034E-11  1.95682403869244E-02
 cg2d: Sum(rhs),rhsMax =  -3.28715943354041E-11  1.93664791674907E-02
 cg2d: Sum(rhs),rhsMax =  -3.33064686941498E-11  1.91506489306042E-02
 cg2d: Sum(rhs),rhsMax =  -3.37533334615614E-11  1.89208376755737E-02
 cg2d: Sum(rhs),rhsMax =  -3.42039729872567E-11  1.86987441249306E-02
 cg2d: Sum(rhs),rhsMax =  -3.46322970301571E-11  1.85063888128221E-02
 cg2d: Sum(rhs),rhsMax =  -3.50621753852920E-11  1.83057716982234E-02
 cg2d: Sum(rhs),rhsMax =  -3.55274698549124E-11  1.80969960382204E-02
 cg2d: Sum(rhs),rhsMax =  -3.60820262557127E-11  1.78801679840851E-02
 cg2d: Sum(rhs),rhsMax =  -3.65638630484000E-11  1.76553965291808E-02
 cg2d: Sum(rhs),rhsMax =  -3.71928043918501E-11  1.74227934587063E-02
 cg2d: Sum(rhs),rhsMax =  -3.77662345840690E-11  1.71824733007573E-02
 cg2d: Sum(rhs),rhsMax =  -3.84020593102719E-11  1.69345532773251E-02
 cg2d: Sum(rhs),rhsMax =  -3.90939502992182E-11  1.66791532530572E-02
 cg2d: Sum(rhs),rhsMax =  -3.98161503767369E-11  1.64163958449577E-02
 cg2d: Sum(rhs),rhsMax =  -4.05727673680190E-11  1.61464062071660E-02
 cg2d: Sum(rhs),rhsMax =  -4.13484801953246E-11  1.58693118133955E-02
 cg2d: Sum(rhs),rhsMax =  -4.21256363125622E-11  1.55852424782271E-02
 cg2d: Sum(rhs),rhsMax =  -4.30230295833667E-11  1.52943303948865E-02
 cg2d: Sum(rhs),rhsMax =  -4.39319691736273E-11  1.49967101060336E-02
 cg2d: Sum(rhs),rhsMax =  -4.49241754907348E-11  1.46925184212103E-02
 cg2d: Sum(rhs),rhsMax =  -4.59374760453102E-11  1.43818943166872E-02
 cg2d: Sum(rhs),rhsMax =  -4.70380401296211E-11  1.40649788375355E-02
 cg2d: Sum(rhs),rhsMax =  -4.82086592867859E-11  1.37419150050200E-02
 cg2d: Sum(rhs),rhsMax =  -4.94952967500240E-11  1.34128477268525E-02
 cg2d: Sum(rhs),rhsMax =  -5.08714181890468E-11  1.30779237120123E-02
 cg2d: Sum(rhs),rhsMax =  -5.23345811132003E-11  1.27372913929038E-02
 cg2d: Sum(rhs),rhsMax =  -5.38804556526884E-11  1.23911008589665E-02
 cg2d: Sum(rhs),rhsMax =  -5.55406831637129E-11  1.20395038032545E-02
 cg2d: Sum(rhs),rhsMax =  -5.73771030687453E-11  1.16826534798082E-02
 cg2d: Sum(rhs),rhsMax =  -5.92256244047462E-11  1.13207046172669E-02
 cg2d: Sum(rhs),rhsMax =  -6.13123996018317E-11  1.09538134545954E-02
 cg2d: Sum(rhs),rhsMax =  -6.35650421187961E-11  1.05821377144308E-02
 cg2d: Sum(rhs),rhsMax =  -6.60058119272833E-11  1.02058365161551E-02
 cg2d: Sum(rhs),rhsMax =  -6.86885548439875E-11  9.82507032256515E-03
 cg2d: Sum(rhs),rhsMax =  -7.15175696441861E-11  9.44000091431829E-03
 cg2d: Sum(rhs),rhsMax =  -7.46573358689773E-11  9.05079134100356E-03
 cg2d: Sum(rhs),rhsMax =  -7.80839282121804E-11  8.65760586612829E-03
 cg2d: Sum(rhs),rhsMax =  -8.19256884554420E-11  8.26060991368784E-03
 cg2d: Sum(rhs),rhsMax =  -8.61573035138008E-11  7.85997001778010E-03
 cg2d: Sum(rhs),rhsMax =  -9.08986774739162E-11  7.45585377812105E-03
 cg2d: Sum(rhs),rhsMax =  -9.59564372404742E-11  7.07184474066757E-03
 cg2d: Sum(rhs),rhsMax =  -1.00938701841358E-10  6.72416194746301E-03
 cg2d: Sum(rhs),rhsMax =  -1.06587486232990E-10  6.37396410306012E-03
 cg2d: Sum(rhs),rhsMax =  -1.12890627401718E-10  6.02139731353386E-03
 cg2d: Sum(rhs),rhsMax =  -1.20063875508336E-10  5.66660861365083E-03
 cg2d: Sum(rhs),rhsMax =  -1.26655297361111E-10  5.37528482283290E-03
 cg2d: Sum(rhs),rhsMax =  -1.33312860750578E-10  5.11062701242177E-03
 cg2d: Sum(rhs),rhsMax =  -1.40645939339379E-10  4.84652144807851E-03
 cg2d: Sum(rhs),rhsMax =  -1.47901801916817E-10  4.61135748328075E-03
 cg2d: Sum(rhs),rhsMax =  -1.32134636565695E-10  5.16162363463909E-03
 cg2d: Sum(rhs),rhsMax =  -1.19062093517641E-10  5.73016330230490E-03
 cg2d: Sum(rhs),rhsMax =  -1.08138387133749E-10  6.31311291324457E-03
 cg2d: Sum(rhs),rhsMax =  -9.89052173494542E-11  6.90746130081271E-03
 cg2d: Sum(rhs),rhsMax =  -9.09912145630187E-11  7.51517214475509E-03
 cg2d: Sum(rhs),rhsMax =  -8.41171576837496E-11  8.13745141075715E-03
 cg2d: Sum(rhs),rhsMax =  -7.81678055616908E-11  8.76891948094537E-03
 cg2d: Sum(rhs),rhsMax =  -7.28843652098021E-11  9.41302294125795E-03
 cg2d: Sum(rhs),rhsMax =  -6.81772416299964E-11  1.00723878409519E-02
 cg2d: Sum(rhs),rhsMax =  -6.38498143246125E-11  1.07611630098334E-02
 cg2d: Sum(rhs),rhsMax =  -6.00437477515925E-11  1.14532762047884E-02
 cg2d: Sum(rhs),rhsMax =  -5.66753310948798E-11  1.21452858200866E-02
 cg2d: Sum(rhs),rhsMax =  -5.37195843364202E-11  1.28368716815270E-02
 cg2d: Sum(rhs),rhsMax =  -5.10844699874724E-11  1.35277142679683E-02
 cg2d: Sum(rhs),rhsMax =  -4.87141438298977E-11  1.42174948686122E-02
 cg2d: Sum(rhs),rhsMax =  -4.65626426304766E-11  1.49058957381053E-02
 cg2d: Sum(rhs),rhsMax =  -4.46079839733216E-11  1.55926002519323E-02
 cg2d: Sum(rhs),rhsMax =  -4.28130864094101E-11  1.62772930619589E-02
 cg2d: Sum(rhs),rhsMax =  -4.11618517048851E-11  1.69596602517914E-02
 cg2d: Sum(rhs),rhsMax =  -3.96720434281406E-11  1.76393894916214E-02
 cg2d: Sum(rhs),rhsMax =  -3.82932574538586E-11  1.83161701922863E-02
 cg2d: Sum(rhs),rhsMax =  -3.69992925186580E-11  1.89896936583011E-02
 cg2d: Sum(rhs),rhsMax =  -3.57827101282737E-11  1.96596532395704E-02
 cg2d: Sum(rhs),rhsMax =  -3.46763728842348E-11  2.03257444814568E-02
 cg2d: Sum(rhs),rhsMax =  -3.36655148203135E-11  2.09876652728760E-02
 cg2d: Sum(rhs),rhsMax =  -3.27256000076659E-11  2.16451159921573E-02
 cg2d: Sum(rhs),rhsMax =  -3.18276516253491E-11  2.22977996505235E-02
 cg2d: Sum(rhs),rhsMax =  -3.09622327776538E-11  2.29454220331914E-02
 cg2d: Sum(rhs),rhsMax =  -3.01964009352673E-11  2.35876918381767E-02
 cg2d: Sum(rhs),rhsMax =  -2.94425595015468E-11  2.42243208130685E-02
 cg2d: Sum(rhs),rhsMax =  -2.87314616542744E-11  2.48550238903988E-02
 cg2d: Sum(rhs),rhsMax =  -2.80975243072135E-11  2.54795193215333E-02
 cg2d: Sum(rhs),rhsMax =  -2.74515965514865E-11  2.60975288094071E-02
 cg2d: Sum(rhs),rhsMax =  -2.66264787995851E-11  2.67087776403515E-02
 cg2d: Sum(rhs),rhsMax =  -2.61755062069824E-11  2.73129948151497E-02
 cg2d: Sum(rhs),rhsMax =  -2.57375232237678E-11  2.79099131793447E-02
 cg2d: Sum(rhs),rhsMax =  -2.53211895895333E-11  2.84992695527228E-02
 cg2d: Sum(rhs),rhsMax =  -2.49151810294279E-11  2.90808048578133E-02
 cg2d: Sum(rhs),rhsMax =  -2.45239384355500E-11  2.96542642471782E-02
 cg2d: Sum(rhs),rhsMax =  -2.41692221791823E-11  3.02193972292282E-02
 cg2d: Sum(rhs),rhsMax =  -2.38267183760854E-11  3.07759577922774E-02
 cg2d: Sum(rhs),rhsMax =  -2.34644526031502E-11  3.13237045257408E-02
 cg2d: Sum(rhs),rhsMax =  -2.31545893569773E-11  3.18624007405073E-02
 cg2d: Sum(rhs),rhsMax =  -2.28760344000989E-11  3.23918145863300E-02
 cg2d: Sum(rhs),rhsMax =  -2.25871543690914E-11  3.29117191672940E-02
 cg2d: Sum(rhs),rhsMax =  -2.23192575532494E-11  3.34218926540343E-02
 cg2d: Sum(rhs),rhsMax =  -2.20121698646381E-11  3.39221183928006E-02
 cg2d: Sum(rhs),rhsMax =  -2.17768025834175E-11  3.44121850116643E-02
 cg2d: Sum(rhs),rhsMax =  -2.15627515842698E-11  3.48918865239342E-02
 cg2d: Sum(rhs),rhsMax =  -2.13224993217409E-11  3.53610224285518E-02
 cg2d: Sum(rhs),rhsMax =  -2.11209938427714E-11  3.58193978070087E-02
 cg2d: Sum(rhs),rhsMax =  -2.08950634572602E-11  3.62668234162011E-02
 cg2d: Sum(rhs),rhsMax =  -2.07144301711537E-11  3.67031157766163E-02
 cg2d: Sum(rhs),rhsMax =  -2.05212513648689E-11  3.71280972552782E-02
 cg2d: Sum(rhs),rhsMax =  -2.03598249370884E-11  3.75415961429676E-02
 cg2d: Sum(rhs),rhsMax =  -2.02038386021286E-11  3.79434467253434E-02
 cg2d: Sum(rhs),rhsMax =  -2.00149896656399E-11  3.83334893484049E-02
 cg2d: Sum(rhs),rhsMax =  -1.98837613041292E-11  3.87115704765392E-02
 cg2d: Sum(rhs),rhsMax =  -1.97400984447427E-11  3.90775427438681E-02
 cg2d: Sum(rhs),rhsMax =  -1.95828908644557E-11  3.94312649997705E-02
 cg2d: Sum(rhs),rhsMax =  -1.94717575396908E-11  3.97726023486787E-02
 cg2d: Sum(rhs),rhsMax =  -1.93736138243139E-11  4.01014261842764E-02
 cg2d: Sum(rhs),rhsMax =  -1.93542959436854E-11  4.04176142158311E-02
 cg2d: Sum(rhs),rhsMax =  -1.93236537882058E-11  4.07210504941528E-02
 cg2d: Sum(rhs),rhsMax =  -1.92654781017154E-11  4.10116254316569E-02
 cg2d: Sum(rhs),rhsMax =  -1.91986426756330E-11  4.12892358168180E-02
 cg2d: Sum(rhs),rhsMax =  -1.91618942935179E-11  4.15537848264273E-02
 cg2d: Sum(rhs),rhsMax =  -1.91577864683268E-11  4.18051820282620E-02
 cg2d: Sum(rhs),rhsMax =  -1.90938376221084E-11  4.20433433813829E-02
 cg2d: Sum(rhs),rhsMax =  -1.90422122514633E-11  4.22681912338410E-02
 cg2d: Sum(rhs),rhsMax =  -1.90376603370623E-11  4.24796543173181E-02
 cg2d: Sum(rhs),rhsMax =  -1.90834015256769E-11  4.26776677382076E-02
 cg2d: Sum(rhs),rhsMax =  -1.91026083840029E-11  4.28621729648907E-02
 cg2d: Sum(rhs),rhsMax =  -1.91521243309012E-11  4.30331178112287E-02
 cg2d: Sum(rhs),rhsMax =  -1.91363591639515E-11  4.31904564164680E-02
 cg2d: Sum(rhs),rhsMax =  -1.91919813374852E-11  4.33341492217998E-02
 cg2d: Sum(rhs),rhsMax =  -1.91908711144606E-11  4.34641629437767E-02
 cg2d: Sum(rhs),rhsMax =  -1.91964222295837E-11  4.35804705446264E-02
 cg2d: Sum(rhs),rhsMax =  -1.91927584936025E-11  4.36830511995927E-02
 cg2d: Sum(rhs),rhsMax =  -1.92391658160318E-11  4.37718902613668E-02
 cg2d: Sum(rhs),rhsMax =  -1.91670013194312E-11  4.38469792216565E-02
 cg2d: Sum(rhs),rhsMax =  -1.90683024925420E-11  4.39083156666209E-02
 cg2d: Sum(rhs),rhsMax =  -1.89901427916084E-11  4.39559032320134E-02
 cg2d: Sum(rhs),rhsMax =  -1.88782323107262E-11  4.39897515557494E-02
 cg2d: Sum(rhs),rhsMax =  -1.88006277213049E-11  4.40098762264014E-02
 cg2d: Sum(rhs),rhsMax =  -1.88083992824772E-11  4.40162987271747E-02
 cg2d: Sum(rhs),rhsMax =  -1.87925230932251E-11  4.40090463770839E-02
 cg2d: Sum(rhs),rhsMax =  -1.87819759744912E-11  4.39881522697135E-02
 cg2d: Sum(rhs),rhsMax =  -1.87609927593257E-11  4.39536552103267E-02
 cg2d: Sum(rhs),rhsMax =  -1.87773130377877E-11  4.39055996509202E-02
 cg2d: Sum(rhs),rhsMax =  -1.87300175369387E-11  4.38440356233419E-02
 cg2d: Sum(rhs),rhsMax =  -1.86923809764039E-11  4.37690186708858E-02
 cg2d: Sum(rhs),rhsMax =  -1.86823889691823E-11  4.36806097783058E-02
 cg2d: Sum(rhs),rhsMax =  -1.86631821108563E-11  4.35788753002005E-02
 cg2d: Sum(rhs),rhsMax =  -1.86516357914002E-11  4.34638868881606E-02
 cg2d: Sum(rhs),rhsMax =  -1.86093362941619E-11  4.33357214171887E-02
 cg2d: Sum(rhs),rhsMax =  -1.86286541747904E-11  4.31944609095036E-02
 cg2d: Sum(rhs),rhsMax =  -1.86627380216464E-11  4.30401924581014E-02
 cg2d: Sum(rhs),rhsMax =  -1.86616277986218E-11  4.28730081500116E-02
 cg2d: Sum(rhs),rhsMax =  -1.87106996563102E-11  4.26930049891308E-02
 cg2d: Sum(rhs),rhsMax =  -1.87307946930559E-11  4.25002848185747E-02
 cg2d: Sum(rhs),rhsMax =  -1.87770909931828E-11  4.22949542425940E-02
 cg2d: Sum(rhs),rhsMax =  -1.87975190968359E-11  4.20771245481600E-02
 cg2d: Sum(rhs),rhsMax =  -1.88161708436496E-11  4.18469116263222E-02
 cg2d: Sum(rhs),rhsMax =  -1.88500326459007E-11  4.16044358934005E-02
 cg2d: Sum(rhs),rhsMax =  -1.89174231834954E-11  4.13498222120225E-02
 cg2d: Sum(rhs),rhsMax =  -1.89451787591111E-11  4.10831998120260E-02
 cg2d: Sum(rhs),rhsMax =  -1.90204518801806E-11  4.08047022112812E-02
 cg2d: Sum(rhs),rhsMax =  -1.90812921019301E-11  4.05144671365277E-02
 cg2d: Sum(rhs),rhsMax =  -1.91279214689644E-11  4.02126364443553E-02
 cg2d: Sum(rhs),rhsMax =  -1.90644167119558E-11  3.98993560424966E-02
 cg2d: Sum(rhs),rhsMax =  -1.91878735122941E-11  3.95747758116130E-02
 cg2d: Sum(rhs),rhsMax =  -1.92821314470848E-11  3.92390495277245E-02
 cg2d: Sum(rhs),rhsMax =  -1.94364524475077E-11  3.88923347853650E-02
 cg2d: Sum(rhs),rhsMax =  -1.95595761809386E-11  3.85347929214323E-02
 cg2d: Sum(rhs),rhsMax =  -1.96871408064681E-11  3.81665889395799E-02
 cg2d: Sum(rhs),rhsMax =  -1.98454586097796E-11  3.77878914349065E-02
 cg2d: Sum(rhs),rhsMax =  -2.00011118778320E-11  3.73988725186481E-02
 cg2d: Sum(rhs),rhsMax =  -2.01531014099032E-11  3.69997077426044E-02
 cg2d: Sum(rhs),rhsMax =  -2.03419503463920E-11  3.65905760231183E-02
 cg2d: Sum(rhs),rhsMax =  -2.04994909935863E-11  3.61716595645532E-02
 cg2d: Sum(rhs),rhsMax =  -2.07092121229380E-11  3.57431437817581E-02
 cg2d: Sum(rhs),rhsMax =  -2.08797423795204E-11  3.53052172216269E-02
 cg2d: Sum(rhs),rhsMax =  -2.11044515197045E-11  3.48580714880549E-02
 cg2d: Sum(rhs),rhsMax =  -2.13085105116306E-11  3.44019011661517E-02
 cg2d: Sum(rhs),rhsMax =  -2.15130135927666E-11  3.39369037462614E-02
 cg2d: Sum(rhs),rhsMax =  -2.17709184013870E-11  3.34632795483268E-02
 cg2d: Sum(rhs),rhsMax =  -2.20298224107296E-11  3.29812316469764E-02
 cg2d: Sum(rhs),rhsMax =  -2.22976082042692E-11  3.24909657974276E-02
 cg2d: Sum(rhs),rhsMax =  -2.25501839423714E-11  3.19926903620503E-02
 cg2d: Sum(rhs),rhsMax =  -2.28453922446192E-11  3.14866162374920E-02
 cg2d: Sum(rhs),rhsMax =  -2.31384911231203E-11  3.09729567818515E-02
 cg2d: Sum(rhs),rhsMax =  -2.34838815060812E-11  3.04519277409341E-02
 cg2d: Sum(rhs),rhsMax =  -2.38028485810560E-11  2.99237471746061E-02
 cg2d: Sum(rhs),rhsMax =  -2.41180408977471E-11  2.93886353840109E-02
 cg2d: Sum(rhs),rhsMax =  -2.44975151275639E-11  2.88468148383077E-02
 cg2d: Sum(rhs),rhsMax =  -2.48867593199975E-11  2.82985100974684E-02
 cg2d: Sum(rhs),rhsMax =  -2.52868836980724E-11  2.77439477358293E-02
 cg2d: Sum(rhs),rhsMax =  -2.57075472021029E-11  2.71833562660136E-02
 cg2d: Sum(rhs),rhsMax =  -2.61747290508652E-11  2.66169660628023E-02
 cg2d: Sum(rhs),rhsMax =  -2.66421329442323E-11  2.60450092866676E-02
 cg2d: Sum(rhs),rhsMax =  -2.71247468930369E-11  2.54677198069725E-02
 cg2d: Sum(rhs),rhsMax =  -2.76372258412039E-11  2.48853331251214E-02
 cg2d: Sum(rhs),rhsMax =  -2.82830425746283E-11  2.42980862981210E-02
 cg2d: Sum(rhs),rhsMax =  -2.89245294382567E-11  2.37062178630726E-02
 cg2d: Sum(rhs),rhsMax =  -2.96074276207037E-11  2.31099677638762E-02
 cg2d: Sum(rhs),rhsMax =  -3.03423952630055E-11  2.25095772783643E-02
 cg2d: Sum(rhs),rhsMax =  -3.11167758226816E-11  2.19052889476948E-02
 cg2d: Sum(rhs),rhsMax =  -3.19496651357554E-11  2.12973465084450E-02
 cg2d: Sum(rhs),rhsMax =  -3.28106430913522E-11  2.06859948273879E-02
 cg2d: Sum(rhs),rhsMax =  -3.37366801161920E-11  2.00714798388617E-02
 cg2d: Sum(rhs),rhsMax =  -3.47605277895013E-11  1.94540484847039E-02
 cg2d: Sum(rhs),rhsMax =  -3.58343354989188E-11  1.88339486564342E-02
 cg2d: Sum(rhs),rhsMax =  -3.69859698423625E-11  1.82114291396713E-02
 cg2d: Sum(rhs),rhsMax =  -3.82139875299004E-11  1.75867395606867E-02
 cg2d: Sum(rhs),rhsMax =  -3.95499188954318E-11  1.69601303348201E-02
 cg2d: Sum(rhs),rhsMax =  -4.09910994036977E-11  1.63318526162960E-02
 cg2d: Sum(rhs),rhsMax =  -4.25570689799315E-11  1.57021582488351E-02
 cg2d: Sum(rhs),rhsMax =  -4.42441638881519E-11  1.50712997163598E-02
 cg2d: Sum(rhs),rhsMax =  -4.60793625478573E-11  1.44395300930507E-02
 cg2d: Sum(rhs),rhsMax =  -4.80980810735332E-11  1.38071029919934E-02
 cg2d: Sum(rhs),rhsMax =  -5.03113106731234E-11  1.31742725107291E-02
 cg2d: Sum(rhs),rhsMax =  -5.27402566063984E-11  1.25412931745633E-02
 cg2d: Sum(rhs),rhsMax =  -5.54262191698740E-11  1.19084198789210E-02
 cg2d: Sum(rhs),rhsMax =  -5.84063908348753E-11  1.12759078266414E-02
 cg2d: Sum(rhs),rhsMax =  -6.17440543138059E-11  1.06440124604923E-02
 cg2d: Sum(rhs),rhsMax =  -6.54892806650764E-11  1.00129893914458E-02
 cg2d: Sum(rhs),rhsMax =  -6.97529811688469E-11  9.38309432330095E-03
 cg2d: Sum(rhs),rhsMax =  -7.46968042975027E-11  8.75458297412787E-03
 cg2d: Sum(rhs),rhsMax =  -8.03993538411873E-11  8.12771099490663E-03
 cg2d: Sum(rhs),rhsMax =  -8.70311600564833E-11  7.50273388567757E-03
 cg2d: Sum(rhs),rhsMax =  -9.48151557267352E-11  6.87990690949871E-03
 cg2d: Sum(rhs),rhsMax =  -1.04128261568803E-10  6.25948500446543E-03
 cg2d: Sum(rhs),rhsMax =  -1.08825282119085E-10  5.98458525532793E-03
 cg2d: Sum(rhs),rhsMax =  -1.01426311793773E-10  6.41336432507289E-03
 cg2d: Sum(rhs),rhsMax =  -9.50107215125229E-11  6.83907699455494E-03
 cg2d: Sum(rhs),rhsMax =  -8.94057883282784E-11  7.26153752605789E-03
 cg2d: Sum(rhs),rhsMax =  -8.44646574904573E-11  7.68056204734346E-03
 cg2d: Sum(rhs),rhsMax =  -8.00737046113831E-11  8.09596866657110E-03
 cg2d: Sum(rhs),rhsMax =  -7.61684144576225E-11  8.50757756046188E-03
 cg2d: Sum(rhs),rhsMax =  -7.25942084223163E-11  8.91521103240731E-03
 cg2d: Sum(rhs),rhsMax =  -6.94159590919341E-11  9.31869355441536E-03
 cg2d: Sum(rhs),rhsMax =  -6.64774901792953E-11  9.71785181179899E-03
 cg2d: Sum(rhs),rhsMax =  -6.38166464117518E-11  1.01125147602664E-02
 cg2d: Sum(rhs),rhsMax =  -6.12965234125795E-11  1.05025136916649E-02
 cg2d: Sum(rhs),rhsMax =  -5.90199000782832E-11  1.08876822986621E-02
 cg2d: Sum(rhs),rhsMax =  -5.69091440638658E-11  1.12678567316935E-02
 cg2d: Sum(rhs),rhsMax =  -5.50046119762726E-11  1.16428756504071E-02
 cg2d: Sum(rhs),rhsMax =  -5.31989452490222E-11  1.20125802823291E-02
 cg2d: Sum(rhs),rhsMax =  -5.15070208706447E-11  1.23768145019129E-02
 cg2d: Sum(rhs),rhsMax =  -4.99871810610841E-11  1.27354249260116E-02
 cg2d: Sum(rhs),rhsMax =  -4.85494977553458E-11  1.30882610194813E-02
 cg2d: Sum(rhs),rhsMax =  -4.71841454796618E-11  1.34351752101391E-02
 cg2d: Sum(rhs),rhsMax =  -4.59449700507264E-11  1.37760230106568E-02
 cg2d: Sum(rhs),rhsMax =  -4.47815118320705E-11  1.41106631382429E-02
 cg2d: Sum(rhs),rhsMax =  -4.36701785844207E-11  1.44389576322800E-02
 cg2d: Sum(rhs),rhsMax =  -4.28476143454759E-11  1.47607719531384E-02
 cg2d: Sum(rhs),rhsMax =  -4.19009271723780E-11  1.50759750562633E-02
 cg2d: Sum(rhs),rhsMax =  -4.09987599425676E-11  1.53844394494108E-02
 cg2d: Sum(rhs),rhsMax =  -4.01406685668348E-11  1.56860412204125E-02
 cg2d: Sum(rhs),rhsMax =  -3.93206578408467E-11  1.59806600427334E-02
 cg2d: Sum(rhs),rhsMax =  -3.85649290279844E-11  1.62681791780264E-02
 cg2d: Sum(rhs),rhsMax =  -3.78761466635069E-11  1.65484854947367E-02
 cg2d: Sum(rhs),rhsMax =  -3.71641606378148E-11  1.68214695257384E-02
 cg2d: Sum(rhs),rhsMax =  -3.65393271195558E-11  1.70870254951617E-02
 cg2d: Sum(rhs),rhsMax =  -3.59621221690531E-11  1.73450511112210E-02
 cg2d: Sum(rhs),rhsMax =  -3.53467255465034E-11  1.75954476103741E-02
 cg2d: Sum(rhs),rhsMax =  -3.47710749082353E-11  1.78381199001076E-02
 cg2d: Sum(rhs),rhsMax =  -3.42410544362792E-11  1.80729766596283E-02
 cg2d: Sum(rhs),rhsMax =  -3.37120331650453E-11  1.82999303257779E-02
 cg2d: Sum(rhs),rhsMax =  -3.32570637695540E-11  1.85188970362406E-02
 cg2d: Sum(rhs),rhsMax =  -3.27694538171386E-11  1.87297966025829E-02
 cg2d: Sum(rhs),rhsMax =  -3.23070459273822E-11  1.89325525451622E-02
 cg2d: Sum(rhs),rhsMax =  -3.19120285752206E-11  1.91270921588831E-02
 cg2d: Sum(rhs),rhsMax =  -3.15203418921328E-11  1.93133465687007E-02
 cg2d: Sum(rhs),rhsMax =  -3.11753955983818E-11  1.94912507743414E-02
 cg2d: Sum(rhs),rhsMax =  -3.08573167018267E-11  1.96607436813512E-02
 cg2d: Sum(rhs),rhsMax =  -3.05465652772341E-11  1.98217681109899E-02
 cg2d: Sum(rhs),rhsMax =  -3.02277092245617E-11  1.99742708025006E-02
 cg2d: Sum(rhs),rhsMax =  -2.99733571296201E-11  2.01182024163814E-02
 cg2d: Sum(rhs),rhsMax =  -2.97026847562165E-11  2.02535175285783E-02
 cg2d: Sum(rhs),rhsMax =  -2.94598789807310E-11  2.03801746128383E-02
 cg2d: Sum(rhs),rhsMax =  -2.92628143938600E-11  2.04981360316389E-02
 cg2d: Sum(rhs),rhsMax =  -2.90389934320956E-11  2.06073680598832E-02
 cg2d: Sum(rhs),rhsMax =  -2.88562507222423E-11  2.07078409044188E-02
 cg2d: Sum(rhs),rhsMax =  -2.87098123052942E-11  2.07995286784350E-02
 cg2d: Sum(rhs),rhsMax =  -2.85212964357129E-11  2.08824093731923E-02
 cg2d: Sum(rhs),rhsMax =  -2.83377765697423E-11  2.09564648566104E-02
 cg2d: Sum(rhs),rhsMax =  -2.81858980599736E-11  2.10216806531606E-02
 cg2d: Sum(rhs),rhsMax =  -2.80248046991005E-11  2.10780462888894E-02
 cg2d: Sum(rhs),rhsMax =  -2.79024581217868E-11  2.11255552886562E-02
 cg2d: Sum(rhs),rhsMax =  -2.78579381784994E-11  2.11642049382450E-02
 cg2d: Sum(rhs),rhsMax =  -2.77842193696642E-11  2.11939964042830E-02
 cg2d: Sum(rhs),rhsMax =  -2.76842992974480E-11  2.12149342149786E-02
 cg2d: Sum(rhs),rhsMax =  -2.76467737592156E-11  2.12270268375410E-02
(PID.TID 0000.0001)      cg2d_init_res =   8.65142111773331E-03
(PID.TID 0000.0001)      cg2d_iters(min,last) =      -1      35
(PID.TID 0000.0001)      cg2d_last_res =   4.11341736381830E-14
(PID.TID 0000.0001) // =======================================================
(PID.TID 0000.0001) // Begin MONITOR dynamic field statistics
(PID.TID 0000.0001) // =======================================================
(PID.TID 0000.0001) %MON time_tsnumber                =                  3840
(PID.TID 0000.0001) %MON time_secondsf                =   5.7600000000000E+04
(PID.TID 0000.0001) %MON dynstat_eta_max              =   5.0639459181063E-03
(PID.TID 0000.0001) %MON dynstat_eta_min              =  -4.3144029068854E-03
(PID.TID 0000.0001) %MON dynstat_eta_mean             =   1.2557656774664E-15
(PID.TID 0000.0001) %MON dynstat_eta_sd               =   3.1494330048944E-03
(PID.TID 0000.0001) %MON dynstat_eta_del2             =   4.1957070054438E-06
(PID.TID 0000.0001) %MON dynstat_uvel_max             =   3.2079099549837E-01
(PID.TID 0000.0001) %MON dynstat_uvel_min             =  -6.8842647202324E-02
(PID.TID 0000.0001) %MON dynstat_uvel_mean            =   6.8123592440966E-02
(PID.TID 0000.0001) %MON dynstat_uvel_sd              =   3.7811171325190E-02
(PID.TID 0000.0001) %MON dynstat_uvel_del2            =   8.4305091454816E-05
(PID.TID 0000.0001) %MON dynstat_vvel_max             =   0.0000000000000E+00
(PID.TID 0000.0001) %MON dynstat_vvel_min             =   0.0000000000000E+00
(PID.TID 0000.0001) %MON dynstat_vvel_mean            =   0.0000000000000E+00
(PID.TID 0000.0001) %MON dynstat_vvel_sd              =   0.0000000000000E+00
(PID.TID 0000.0001) %MON dynstat_vvel_del2            =   0.0000000000000E+00
(PID.TID 0000.0001) %MON dynstat_wvel_max             =   2.7631042504873E-03
(PID.TID 0000.0001) %MON dynstat_wvel_min             =  -4.1431922118459E-03
(PID.TID 0000.0001) %MON dynstat_wvel_mean            =  -1.1038449670928E-20
(PID.TID 0000.0001) %MON dynstat_wvel_sd              =   2.4246083984775E-04
(PID.TID 0000.0001) %MON dynstat_wvel_del2            =   3.2366706949739E-06
(PID.TID 0000.0001) %MON dynstat_theta_max            =   1.5000000000012E+01
(PID.TID 0000.0001) %MON dynstat_theta_min            =   9.9999999999932E+00
(PID.TID 0000.0001) %MON dynstat_theta_mean           =   1.3331013807952E+01
(PID.TID 0000.0001) %MON dynstat_theta_sd             =   2.3124219869797E+00
(PID.TID 0000.0001) %MON dynstat_theta_del2           =   2.9810093923925E-04
(PID.TID 0000.0001) %MON dynstat_salt_max             =   3.5000000000000E+01
(PID.TID 0000.0001) %MON dynstat_salt_min             =   3.5000000000000E+01
(PID.TID 0000.0001) %MON dynstat_salt_mean            =   3.5000000000000E+01
(PID.TID 0000.0001) %MON dynstat_salt_sd              =   2.1316282072803E-14
(PID.TID 0000.0001) %MON dynstat_salt_del2            =   0.0000000000000E+00
(PID.TID 0000.0001) %MON dynstat_sst_max              =   1.5000000000001E+01
(PID.TID 0000.0001) %MON dynstat_sst_min              =   1.4999999999993E+01
(PID.TID 0000.0001) %MON dynstat_sst_mean             =   1.4999999999995E+01
(PID.TID 0000.0001) %MON dynstat_sst_sd               =   2.6067065365846E-12
(PID.TID 0000.0001) %MON dynstat_sst_del2             =   2.7158048396845E-14
(PID.TID 0000.0001) %MON dynstat_sss_max              =   3.5000000000000E+01
(PID.TID 0000.0001) %MON dynstat_sss_min              =   3.5000000000000E+01
(PID.TID 0000.0001) %MON dynstat_sss_mean             =   3.5000000000000E+01
(PID.TID 0000.0001) %MON dynstat_sss_sd               =   7.8159700933611E-14
(PID.TID 0000.0001) %MON dynstat_sss_del2             =   0.0000000000000E+00
(PID.TID 0000.0001) %MON forcing_qnet_max             =   0.0000000000000E+00
(PID.TID 0000.0001) %MON forcing_qnet_min             =   0.0000000000000E+00
(PID.TID 0000.0001) %MON forcing_qnet_mean            =   0.0000000000000E+00
(PID.TID 0000.0001) %MON forcing_qnet_sd              =   0.0000000000000E+00
(PID.TID 0000.0001) %MON forcing_qnet_del2            =   0.0000000000000E+00
(PID.TID 0000.0001) %MON forcing_qsw_max              =   0.0000000000000E+00
(PID.TID 0000.0001) %MON forcing_qsw_min              =   0.0000000000000E+00
(PID.TID 0000.0001) %MON forcing_qsw_mean             =   0.0000000000000E+00
(PID.TID 0000.0001) %MON forcing_qsw_sd               =   0.0000000000000E+00
(PID.TID 0000.0001) %MON forcing_qsw_del2             =   0.0000000000000E+00
(PID.TID 0000.0001) %MON forcing_empmr_max            =   0.0000000000000E+00
(PID.TID 0000.0001) %MON forcing_empmr_min            =   0.0000000000000E+00
(PID.TID 0000.0001) %MON forcing_empmr_mean           =   0.0000000000000E+00
(PID.TID 0000.0001) %MON forcing_empmr_sd             =   0.0000000000000E+00
(PID.TID 0000.0001) %MON forcing_empmr_del2           =   0.0000000000000E+00
(PID.TID 0000.0001) %MON forcing_fu_max               =   0.0000000000000E+00
(PID.TID 0000.0001) %MON forcing_fu_min               =   0.0000000000000E+00
(PID.TID 0000.0001) %MON forcing_fu_mean              =   0.0000000000000E+00
(PID.TID 0000.0001) %MON forcing_fu_sd                =   0.0000000000000E+00
(PID.TID 0000.0001) %MON forcing_fu_del2              =   0.0000000000000E+00
(PID.TID 0000.0001) %MON forcing_fv_max               =   0.0000000000000E+00
(PID.TID 0000.0001) %MON forcing_fv_min               =   0.0000000000000E+00
(PID.TID 0000.0001) %MON forcing_fv_mean              =   0.0000000000000E+00
(PID.TID 0000.0001) %MON forcing_fv_sd                =   0.0000000000000E+00
(PID.TID 0000.0001) %MON forcing_fv_del2              =   0.0000000000000E+00
(PID.TID 0000.0001) %MON advcfl_uvel_max              =   2.4059324662378E-02
(PID.TID 0000.0001) %MON advcfl_vvel_max              =   0.0000000000000E+00
(PID.TID 0000.0001) %MON advcfl_wvel_max              =   2.6884536773849E-02
(PID.TID 0000.0001) %MON advcfl_W_hf_max              =   2.7109480661368E-02
(PID.TID 0000.0001) %MON pe_b_mean                    =   2.4780578306619E-07
(PID.TID 0000.0001) %MON ke_max                       =   4.7849049685345E-02
(PID.TID 0000.0001) %MON ke_mean                      =   3.0429075351686E-03
(PID.TID 0000.0001) %MON ke_vol                       =   9.5889217545975E+10
(PID.TID 0000.0001) %MON vort_r_min                   =   0.0000000000000E+00
(PID.TID 0000.0001) %MON vort_r_max                   =   0.0000000000000E+00
(PID.TID 0000.0001) %MON vort_a_mean                  =   0.0000000000000E+00
(PID.TID 0000.0001) %MON vort_a_sd                    =   0.0000000000000E+00
(PID.TID 0000.0001) %MON vort_p_mean                  =   0.0000000000000E+00
(PID.TID 0000.0001) %MON vort_p_sd                    =   0.0000000000000E+00
(PID.TID 0000.0001) %MON surfExpan_theta_mean         =  -5.3879691598379E-19
(PID.TID 0000.0001) %MON surfExpan_salt_mean          =  -5.1650889450985E-19
(PID.TID 0000.0001) // =======================================================
(PID.TID 0000.0001) // End MONITOR dynamic field statistics
(PID.TID 0000.0001) // =======================================================
(PID.TID 0000.0001) // =======================================================
(PID.TID 0000.0001) // Begin OBCS MONITOR field statistics
(PID.TID 0000.0001) // =======================================================
(PID.TID 0000.0001) %MON obc_E_uVel_max               =   6.6809804669674E-02
(PID.TID 0000.0001) %MON obc_E_uVel_min               =   6.6809804669674E-02
(PID.TID 0000.0001) %MON obc_E_uVel_mean              =   6.6809804669674E-02
(PID.TID 0000.0001) %MON obc_E_uVel_sd                =  -1.7347234759768E-18
(PID.TID 0000.0001) %MON obc_E_uVel_Int               =   6.6809804669674E+04
(PID.TID 0000.0001) %MON obc_W_uVel_max               =   6.6809804669674E-02
(PID.TID 0000.0001) %MON obc_W_uVel_min               =   6.6809804669674E-02
(PID.TID 0000.0001) %MON obc_W_uVel_mean              =   6.6809804669674E-02
(PID.TID 0000.0001) %MON obc_W_uVel_sd                =  -1.7347234759768E-18
(PID.TID 0000.0001) %MON obc_W_uVel_Int               =   6.6809804669674E+04
(PID.TID 0000.0001) // =======================================================
(PID.TID 0000.0001) // End OBCS MONITOR field statistics
(PID.TID 0000.0001) // =======================================================
 cg2d: Sum(rhs),rhsMax =  -2.76102474217055E-11  2.12302866311814E-02
 cg2d: Sum(rhs),rhsMax =  -2.75842682029293E-11  2.12247296479951E-02
 cg2d: Sum(rhs),rhsMax =  -2.75633960100663E-11  2.12103755442585E-02
 cg2d: Sum(rhs),rhsMax =  -2.75901523849598E-11  2.11872475774913E-02
 cg2d: Sum(rhs),rhsMax =  -2.75675038352574E-11  2.11553726387513E-02
 cg2d: Sum(rhs),rhsMax =  -2.75273137617660E-11  2.11147812769143E-02
 cg2d: Sum(rhs),rhsMax =  -2.75212075351305E-11  2.10655076463582E-02
 cg2d: Sum(rhs),rhsMax =  -2.75905964741696E-11  2.10075894187228E-02
 cg2d: Sum(rhs),rhsMax =  -2.77433631623580E-11  2.09410677235517E-02
 cg2d: Sum(rhs),rhsMax =  -2.78845835310904E-11  2.08659871659646E-02
 cg2d: Sum(rhs),rhsMax =  -2.80560019660925E-11  2.07823958536147E-02
 cg2d: Sum(rhs),rhsMax =  -2.82486256608649E-11  2.06903453254657E-02
 cg2d: Sum(rhs),rhsMax =  -2.84940959716096E-11  2.05898904125765E-02
 cg2d: Sum(rhs),rhsMax =  -2.86737300569939E-11  2.04810891145177E-02
 cg2d: Sum(rhs),rhsMax =  -2.89545054599216E-11  2.03640025459003E-02
 cg2d: Sum(rhs),rhsMax =  -2.92638135945822E-11  2.02386949428179E-02
 cg2d: Sum(rhs),rhsMax =  -2.94950730506116E-11  2.01052336832643E-02
 cg2d: Sum(rhs),rhsMax =  -2.97382118930045E-11  1.99636892860717E-02
 cg2d: Sum(rhs),rhsMax =  -2.99819058469097E-11  1.98141353820351E-02
 cg2d: Sum(rhs),rhsMax =  -3.02888825132186E-11  1.96566486697158E-02
 cg2d: Sum(rhs),rhsMax =  -3.05881986406575E-11  1.94913088704878E-02
 cg2d: Sum(rhs),rhsMax =  -3.09302583545445E-11  1.93181986914998E-02
 cg2d: Sum(rhs),rhsMax =  -3.12856407447271E-11  1.91374038066301E-02
 cg2d: Sum(rhs),rhsMax =  -3.16422443802367E-11  1.89490127848042E-02
 cg2d: Sum(rhs),rhsMax =  -3.20279358589914E-11  1.87531169828798E-02
 cg2d: Sum(rhs),rhsMax =  -3.24371640658683E-11  1.85498104852764E-02
 cg2d: Sum(rhs),rhsMax =  -3.28896909707055E-11  1.83391900064628E-02
 cg2d: Sum(rhs),rhsMax =  -3.33583161093998E-11  1.81213548367063E-02
 cg2d: Sum(rhs),rhsMax =  -3.38638006525116E-11  1.78964068480566E-02
 cg2d: Sum(rhs),rhsMax =  -3.44146933173306E-11  1.76644505186662E-02
 cg2d: Sum(rhs),rhsMax =  -3.49756890116737E-11  1.74255929123903E-02
 cg2d: Sum(rhs),rhsMax =  -3.55870888313348E-11  1.71799436232599E-02
 cg2d: Sum(rhs),rhsMax =  -3.62111451934766E-11  1.69276147127801E-02
 cg2d: Sum(rhs),rhsMax =  -3.68907127068496E-11  1.66687206548799E-02
 cg2d: Sum(rhs),rhsMax =  -3.75314224143608E-11  1.64033784784128E-02
 cg2d: Sum(rhs),rhsMax =  -3.81867870657970E-11  1.61317075706536E-02
 cg2d: Sum(rhs),rhsMax =  -3.89165366598831E-11  1.58538294155284E-02
 cg2d: Sum(rhs),rhsMax =  -3.96729316065603E-11  1.55698675573945E-02
 cg2d: Sum(rhs),rhsMax =  -4.04835054368391E-11  1.52799476259469E-02
 cg2d: Sum(rhs),rhsMax =  -4.13863388004643E-11  1.49841973467807E-02
 cg2d: Sum(rhs),rhsMax =  -4.23027168849899E-11  1.46827465344195E-02
 cg2d: Sum(rhs),rhsMax =  -4.32472946343410E-11  1.43757270720005E-02
 cg2d: Sum(rhs),rhsMax =  -4.42822445378965E-11  1.40632728601373E-02
 cg2d: Sum(rhs),rhsMax =  -4.53944659639660E-11  1.37455197308685E-02
 cg2d: Sum(rhs),rhsMax =  -4.65488758649713E-11  1.34226053605219E-02
 cg2d: Sum(rhs),rhsMax =  -4.79745132508924E-11  1.30946693752644E-02
 cg2d: Sum(rhs),rhsMax =  -4.92823004627496E-11  1.27618532023747E-02
 cg2d: Sum(rhs),rhsMax =  -5.06704123104385E-11  1.24243000249326E-02
 cg2d: Sum(rhs),rhsMax =  -5.22297760596757E-11  1.20821550867118E-02
 cg2d: Sum(rhs),rhsMax =  -5.38306621500340E-11  1.17355652245497E-02
 cg2d: Sum(rhs),rhsMax =  -5.55735457652418E-11  1.13846783392352E-02
 cg2d: Sum(rhs),rhsMax =  -5.74585379276016E-11  1.10296435769496E-02
 cg2d: Sum(rhs),rhsMax =  -5.95237192868581E-11  1.06706115556988E-02
 cg2d: Sum(rhs),rhsMax =  -6.17159656712829E-11  1.03077344200195E-02
 cg2d: Sum(rhs),rhsMax =  -6.40987540823090E-11  9.94116562451243E-03
 cg2d: Sum(rhs),rhsMax =  -6.67073341009683E-11  9.57106083963022E-03
 cg2d: Sum(rhs),rhsMax =  -6.95437318842806E-11  9.19757703921939E-03
 cg2d: Sum(rhs),rhsMax =  -7.25268456402972E-11  8.82087190991237E-03
 cg2d: Sum(rhs),rhsMax =  -7.59056845156536E-11  8.44110394856472E-03
 cg2d: Sum(rhs),rhsMax =  -7.95801723130207E-11  8.05843268737742E-03
 cg2d: Sum(rhs),rhsMax =  -8.36366254031162E-11  7.67301877441395E-03
 cg2d: Sum(rhs),rhsMax =  -8.81694717236314E-11  7.28502394815905E-03
 cg2d: Sum(rhs),rhsMax =  -9.32102728334883E-11  6.89461098111700E-03
 cg2d: Sum(rhs),rhsMax =  -9.89277548768541E-11  6.50194360203138E-03
 cg2d: Sum(rhs),rhsMax =  -1.05407849115835E-10  6.10718635989185E-03
 cg2d: Sum(rhs),rhsMax =  -1.12838516308500E-10  5.71050450165464E-03
 cg2d: Sum(rhs),rhsMax =  -1.12254872064455E-10  5.74274329317011E-03
 cg2d: Sum(rhs),rhsMax =  -1.02783226374470E-10  6.27999874044258E-03
 cg2d: Sum(rhs),rhsMax =  -9.45473699331956E-11  6.83008809450895E-03
 cg2d: Sum(rhs),rhsMax =  -8.74657013483215E-11  7.38991161947314E-03
 cg2d: Sum(rhs),rhsMax =  -8.12394596039212E-11  7.96262379314941E-03
 cg2d: Sum(rhs),rhsMax =  -7.57389706507183E-11  8.54833996006487E-03
 cg2d: Sum(rhs),rhsMax =  -7.08529901416455E-11  9.14519508278744E-03
 cg2d: Sum(rhs),rhsMax =  -6.64180932474778E-11  9.76709779772589E-03
 cg2d: Sum(rhs),rhsMax =  -6.24171825336362E-11  1.04010218369737E-02
 cg2d: Sum(rhs),rhsMax =  -5.88632476095086E-11  1.10354346326266E-02
 cg2d: Sum(rhs),rhsMax =  -5.57800472478220E-11  1.16700467521483E-02
 cg2d: Sum(rhs),rhsMax =  -5.30351318417388E-11  1.23045691116187E-02
 cg2d: Sum(rhs),rhsMax =  -5.05245845161539E-11  1.29387131233364E-02
 cg2d: Sum(rhs),rhsMax =  -4.82635043042023E-11  1.35721908425923E-02
 cg2d: Sum(rhs),rhsMax =  -4.62038185489178E-11  1.42047151136456E-02
 cg2d: Sum(rhs),rhsMax =  -4.43383108006401E-11  1.48359997149279E-02
 cg2d: Sum(rhs),rhsMax =  -4.26110258189283E-11  1.54657595034743E-02
 cg2d: Sum(rhs),rhsMax =  -4.10194100908257E-11  1.60937105585566E-02
 cg2d: Sum(rhs),rhsMax =  -3.95469212932653E-11  1.67195703256862E-02
 cg2d: Sum(rhs),rhsMax =  -3.81961129392039E-11  1.73430577578194E-02
 cg2d: Sum(rhs),rhsMax =  -3.69153596579963E-11  1.79638934548358E-02
 cg2d: Sum(rhs),rhsMax =  -3.57108786985805E-11  1.85817998027758E-02
 cg2d: Sum(rhs),rhsMax =  -3.46300765841079E-11  1.91965011122078E-02
 cg2d: Sum(rhs),rhsMax =  -3.36425332037038E-11  1.98077237550377E-02
 cg2d: Sum(rhs),rhsMax =  -3.27179394687960E-11  2.04151962991611E-02
 cg2d: Sum(rhs),rhsMax =  -3.18592929815509E-11  2.10186496405506E-02
 cg2d: Sum(rhs),rhsMax =  -3.10528269764632E-11  2.16178171323657E-02
 cg2d: Sum(rhs),rhsMax =  -3.02714520117320E-11  2.22124347109175E-02
 cg2d: Sum(rhs),rhsMax =  -2.95412583284360E-11  2.28022410182871E-02
 cg2d: Sum(rhs),rhsMax =  -2.88503665402118E-11  2.33869775209841E-02
 cg2d: Sum(rhs),rhsMax =  -2.82024403830405E-11  2.39663886244353E-02
 cg2d: Sum(rhs),rhsMax =  -2.75994782583666E-11  2.45402217831642E-02
 cg2d: Sum(rhs),rhsMax =  -2.70760081022559E-11  2.51082276065640E-02
 cg2d: Sum(rhs),rhsMax =  -2.66042743390926E-11  2.56701599602314E-02
 cg2d: Sum(rhs),rhsMax =  -2.61471955198544E-11  2.62257760629172E-02
 cg2d: Sum(rhs),rhsMax =  -2.56907828344310E-11  2.67748365792913E-02
 cg2d: Sum(rhs),rhsMax =  -2.53008725081827E-11  2.73171057089576E-02
 cg2d: Sum(rhs),rhsMax =  -2.49172904531747E-11  2.78523512724044E-02
 cg2d: Sum(rhs),rhsMax =  -2.45106157592545E-11  2.83803447947848E-02
 cg2d: Sum(rhs),rhsMax =  -2.41684450230650E-11  2.89008615885763E-02
 cg2d: Sum(rhs),rhsMax =  -2.38252750861534E-11  2.94136808362055E-02
 cg2d: Sum(rhs),rhsMax =  -2.34959829370496E-11  2.99185856736167E-02
 cg2d: Sum(rhs),rhsMax =  -2.31744623491181E-11  3.04153632755054E-02
 cg2d: Sum(rhs),rhsMax =  -2.28982388605914E-11  3.09038049420322E-02
 cg2d: Sum(rhs),rhsMax =  -2.26063612274174E-11  3.13837061882335E-02
 cg2d: Sum(rhs),rhsMax =  -2.23550067346423E-11  3.18548668353406E-02
 cg2d: Sum(rhs),rhsMax =  -2.20986562382564E-11  3.23170911025269E-02
 cg2d: Sum(rhs),rhsMax =  -2.18606244217767E-11  3.27701876983242E-02
 cg2d: Sum(rhs),rhsMax =  -2.16441309319748E-11  3.32139699109313E-02
 cg2d: Sum(rhs),rhsMax =  -2.14133155651552E-11  3.36482556966567E-02
 cg2d: Sum(rhs),rhsMax =  -2.11948236739090E-11  3.40728677657945E-02
 cg2d: Sum(rhs),rhsMax =  -2.09978701093405E-11  3.44876336652976E-02
 cg2d: Sum(rhs),rhsMax =  -2.07910355598528E-11  3.48923858576999E-02
 cg2d: Sum(rhs),rhsMax =  -2.06403782954112E-11  3.52869617957959E-02
 cg2d: Sum(rhs),rhsMax =  -2.04437577977501E-11  3.56712039928754E-02
 cg2d: Sum(rhs),rhsMax =  -2.02998728937587E-11  3.60449600880871E-02
 cg2d: Sum(rhs),rhsMax =  -2.01562100343722E-11  3.64080829051530E-02
 cg2d: Sum(rhs),rhsMax =  -2.00081062828872E-11  3.67604305060703E-02
 cg2d: Sum(rhs),rhsMax =  -1.98525640371372E-11  3.71018662395452E-02
 cg2d: Sum(rhs),rhsMax =  -1.96980209921094E-11  3.74322587822076E-02
 cg2d: Sum(rhs),rhsMax =  -1.96452853984397E-11  3.77514821776526E-02
 cg2d: Sum(rhs),rhsMax =  -1.95827798421533E-11  3.80594158706766E-02
 cg2d: Sum(rhs),rhsMax =  -1.95252702894777E-11  3.83559447379226E-02
 cg2d: Sum(rhs),rhsMax =  -1.94856353274986E-11  3.86409591123238E-02
 cg2d: Sum(rhs),rhsMax =  -1.94442240086801E-11  3.89143548022962E-02
 cg2d: Sum(rhs),rhsMax =  -1.93663973746538E-11  3.91760331084511E-02
 cg2d: Sum(rhs),rhsMax =  -1.93253191227427E-11  3.94259008374587E-02
 cg2d: Sum(rhs),rhsMax =  -1.92974525248246E-11  3.96638703124593E-02
 cg2d: Sum(rhs),rhsMax =  -1.92799110010355E-11  3.98898593795108E-02
 cg2d: Sum(rhs),rhsMax =  -1.92141857979777E-11  4.01037914098948E-02
 cg2d: Sum(rhs),rhsMax =  -1.91893168022261E-11  4.03055952984253E-02
 cg2d: Sum(rhs),rhsMax =  -1.91729965237641E-11  4.04952054582688E-02
 cg2d: Sum(rhs),rhsMax =  -1.91284765804767E-11  4.06725618131898E-02
 cg2d: Sum(rhs),rhsMax =  -1.91834326201956E-11  4.08376097874187E-02
 cg2d: Sum(rhs),rhsMax =  -1.92463822656919E-11  4.09903002936914E-02
 cg2d: Sum(rhs),rhsMax =  -1.93022264838305E-11  4.11305897198094E-02
 cg2d: Sum(rhs),rhsMax =  -1.92986737701517E-11  4.12584399135300E-02
 cg2d: Sum(rhs),rhsMax =  -1.93401961112727E-11  4.13738181659690E-02
 cg2d: Sum(rhs),rhsMax =  -1.93567384343396E-11  4.14766971931587E-02
 cg2d: Sum(rhs),rhsMax =  -1.93755012034558E-11  4.15670551162636E-02
 cg2d: Sum(rhs),rhsMax =  -1.93800531178567E-11  4.16448754386177E-02
 cg2d: Sum(rhs),rhsMax =  -1.93673965753760E-11  4.17101470195294E-02
 cg2d: Sum(rhs),rhsMax =  -1.92996729708739E-11  4.17628640444759E-02
 cg2d: Sum(rhs),rhsMax =  -1.91854310216399E-11  4.18030259923057E-02
 cg2d: Sum(rhs),rhsMax =  -1.90919502429665E-11  4.18306375996603E-02
 cg2d: Sum(rhs),rhsMax =  -1.90276683298407E-11  4.18457088227321E-02
 cg2d: Sum(rhs),rhsMax =  -1.90563120838760E-11  4.18482547964259E-02
 cg2d: Sum(rhs),rhsMax =  -1.90578663961105E-11  4.18382957909393E-02
 cg2d: Sum(rhs),rhsMax =  -1.90139015643354E-11  4.18158571656017E-02
 cg2d: Sum(rhs),rhsMax =  -1.90004678657374E-11  4.17809693204995E-02
 cg2d: Sum(rhs),rhsMax =  -1.89218640755939E-11  4.17336676453595E-02
 cg2d: Sum(rhs),rhsMax =  -1.88973281467497E-11  4.16739924661136E-02
 cg2d: Sum(rhs),rhsMax =  -1.88761228869794E-11  4.16019889895233E-02
 cg2d: Sum(rhs),rhsMax =  -1.88372650811175E-11  4.15177072464001E-02
 cg2d: Sum(rhs),rhsMax =  -1.88111748400388E-11  4.14212020342664E-02
 cg2d: Sum(rhs),rhsMax =  -1.87907467363857E-11  4.13125328602472E-02
 cg2d: Sum(rhs),rhsMax =  -1.87179161059703E-11  4.11917638848369E-02
 cg2d: Sum(rhs),rhsMax =  -1.87462267930982E-11  4.10589638675570E-02
 cg2d: Sum(rhs),rhsMax =  -1.87526660866411E-11  4.09142061139348E-02
 cg2d: Sum(rhs),rhsMax =  -1.87976301191384E-11  4.07575684241019E-02
 cg2d: Sum(rhs),rhsMax =  -1.88487003782711E-11  4.05891330442474E-02
 cg2d: Sum(rhs),rhsMax =  -1.88692395042267E-11  4.04089866211411E-02
 cg2d: Sum(rhs),rhsMax =  -1.88911108978118E-11  4.02172201599791E-02
 cg2d: Sum(rhs),rhsMax =  -1.89388504878707E-11  4.00139289858697E-02
 cg2d: Sum(rhs),rhsMax =  -1.89843696318803E-11  3.97992127092722E-02
 cg2d: Sum(rhs),rhsMax =  -1.90212290362979E-11  3.95731751955422E-02
 cg2d: Sum(rhs),rhsMax =  -1.90562010615736E-11  3.93359245383745E-02
 cg2d: Sum(rhs),rhsMax =  -1.90872873062631E-11  3.90875730364217E-02
 cg2d: Sum(rhs),rhsMax =  -1.91232585322609E-11  3.88282371718105E-02
 cg2d: Sum(rhs),rhsMax =  -1.91191507070698E-11  3.85580375887752E-02
 cg2d: Sum(rhs),rhsMax =  -1.91445748143337E-11  3.82770990703295E-02
 cg2d: Sum(rhs),rhsMax =  -1.92003080101699E-11  3.79855505108366E-02
 cg2d: Sum(rhs),rhsMax =  -1.93089988442807E-11  3.76835248825582E-02
 cg2d: Sum(rhs),rhsMax =  -1.94305682654772E-11  3.73711591947074E-02
 cg2d: Sum(rhs),rhsMax =  -1.95620186715928E-11  3.70485944441232E-02
 cg2d: Sum(rhs),rhsMax =  -1.96964666798749E-11  3.67159755573225E-02
 cg2d: Sum(rhs),rhsMax =  -1.98299154874348E-11  3.63734513242815E-02
 cg2d: Sum(rhs),rhsMax =  -1.99950056511966E-11  3.60211743247731E-02
 cg2d: Sum(rhs),rhsMax =  -2.01300087709910E-11  3.56593008484118E-02
 cg2d: Sum(rhs),rhsMax =  -2.02891037304198E-11  3.52879908097201E-02
 cg2d: Sum(rhs),rhsMax =  -2.04383177049294E-11  3.49074076595413E-02
 cg2d: Sum(rhs),rhsMax =  -2.06288319759551E-11  3.45177182940284E-02
 cg2d: Sum(rhs),rhsMax =  -2.08298933657147E-11  3.41190929622666E-02
 cg2d: Sum(rhs),rhsMax =  -2.09975370424331E-11  3.37117051733837E-02
 cg2d: Sum(rhs),rhsMax =  -2.12014850120568E-11  3.32957316038064E-02
 cg2d: Sum(rhs),rhsMax =  -2.14165352119267E-11  3.28713520039773E-02
 cg2d: Sum(rhs),rhsMax =  -2.16180406908961E-11  3.24387491074343E-02
 cg2d: Sum(rhs),rhsMax =  -2.18892681758120E-11  3.19981085424839E-02
 cg2d: Sum(rhs),rhsMax =  -2.21256346577547E-11  3.15496187445340E-02
 cg2d: Sum(rhs),rhsMax =  -2.23773222174373E-11  3.10934708697583E-02
 cg2d: Sum(rhs),rhsMax =  -2.26486607246557E-11  3.06298587108911E-02
 cg2d: Sum(rhs),rhsMax =  -2.29148922059608E-11  3.01589786159572E-02
 cg2d: Sum(rhs),rhsMax =  -2.32198704708253E-11  2.96810294106548E-02
 cg2d: Sum(rhs),rhsMax =  -2.35372832335656E-11  2.91962123251034E-02
 cg2d: Sum(rhs),rhsMax =  -2.38541408847937E-11  2.87047309253707E-02
 cg2d: Sum(rhs),rhsMax =  -2.41781039633793E-11  2.82067910490523E-02
 cg2d: Sum(rhs),rhsMax =  -2.45127251830013E-11  2.77026007459340E-02
 cg2d: Sum(rhs),rhsMax =  -2.48900899890714E-11  2.71923702230071E-02
 cg2d: Sum(rhs),rhsMax =  -2.52733389771720E-11  2.66763117932898E-02
 cg2d: Sum(rhs),rhsMax =  -2.56866750092399E-11  2.61546398272459E-02
 cg2d: Sum(rhs),rhsMax =  -2.61159982528625E-11  2.56275707007966E-02
 cg2d: Sum(rhs),rhsMax =  -2.65745203620327E-11  2.50953227433683E-02
 cg2d: Sum(rhs),rhsMax =  -2.70535815971584E-11  2.45581161842521E-02
 cg2d: Sum(rhs),rhsMax =  -2.75610645417146E-11  2.40161730957817E-02
 cg2d: Sum(rhs),rhsMax =  -2.81051848460834E-11  2.34697173321384E-02
 cg2d: Sum(rhs),rhsMax =  -2.87104784391090E-11  2.29189744613030E-02
 cg2d: Sum(rhs),rhsMax =  -2.93706170495511E-11  2.23641716914060E-02
 cg2d: Sum(rhs),rhsMax =  -3.00767188932127E-11  2.18055377916067E-02
 cg2d: Sum(rhs),rhsMax =  -3.08233438772731E-11  2.12433030081550E-02
 cg2d: Sum(rhs),rhsMax =  -3.15969472808320E-11  2.06776989768220E-02
 cg2d: Sum(rhs),rhsMax =  -3.24253957018072E-11  2.01089586333768E-02
 cg2d: Sum(rhs),rhsMax =  -3.33173488797911E-11  1.95373161241218E-02
 cg2d: Sum(rhs),rhsMax =  -3.42643691197964E-11  1.89630067185779E-02
 cg2d: Sum(rhs),rhsMax =  -3.52545770354595E-11  1.83862667262268E-02
 cg2d: Sum(rhs),rhsMax =  -3.63333807484878E-11  1.78073334187939E-02
 cg2d: Sum(rhs),rhsMax =  -3.74861253149561E-11  1.72264449587167E-02
 cg2d: Sum(rhs),rhsMax =  -3.87224696751787E-11  1.66438403340151E-02
 cg2d: Sum(rhs),rhsMax =  -4.00439681413900E-11  1.60597592990866E-02
 cg2d: Sum(rhs),rhsMax =  -4.14622780553486E-11  1.54744423203154E-02
 cg2d: Sum(rhs),rhsMax =  -4.30278035423726E-11  1.48881305249248E-02
 cg2d: Sum(rhs),rhsMax =  -4.46881420756995E-11  1.43010656512510E-02
 cg2d: Sum(rhs),rhsMax =  -4.65201210886335E-11  1.37134899985873E-02
 cg2d: Sum(rhs),rhsMax =  -4.84871032213618E-11  1.31256463748730E-02
 cg2d: Sum(rhs),rhsMax =  -5.06689135093552E-11  1.25377780407335E-02
 cg2d: Sum(rhs),rhsMax =  -5.30724353353662E-11  1.19501286486461E-02
 cg2d: Sum(rhs),rhsMax =  -5.57134338663445E-11  1.13629421762850E-02
 cg2d: Sum(rhs),rhsMax =  -5.86144466296901E-11  1.07764628523035E-02
 cg2d: Sum(rhs),rhsMax =  -6.18662898688171E-11  1.01909350764703E-02
 cg2d: Sum(rhs),rhsMax =  -6.54847287506755E-11  9.60660333415000E-03
 cg2d: Sum(rhs),rhsMax =  -6.95677959683394E-11  9.02371210299556E-03
 cg2d: Sum(rhs),rhsMax =  -7.42802486186633E-11  8.44250575299787E-03
 cg2d: Sum(rhs),rhsMax =  -7.96874788377977E-11  7.86322844157785E-03
 cg2d: Sum(rhs),rhsMax =  -8.59097237793094E-11  7.28612400539091E-03
 cg2d: Sum(rhs),rhsMax =  -8.54937232119823E-11  7.31733577068480E-03
 cg2d: Sum(rhs),rhsMax =  -8.11011258150529E-11  7.70908975390663E-03
 cg2d: Sum(rhs),rhsMax =  -7.71388508624682E-11  8.09806958195776E-03
 cg2d: Sum(rhs),rhsMax =  -7.35612681879161E-11  8.48410716995448E-03
 cg2d: Sum(rhs),rhsMax =  -7.03432034843132E-11  8.86703622417705E-03
 cg2d: Sum(rhs),rhsMax =  -6.74144212675643E-11  9.24669222388139E-03
 cg2d: Sum(rhs),rhsMax =  -6.46674866433550E-11  9.62291213048710E-03
 cg2d: Sum(rhs),rhsMax =  -6.21406415907133E-11  9.99553447267338E-03
 cg2d: Sum(rhs),rhsMax =  -5.98229313308885E-11  1.03643996852468E-02
 cg2d: Sum(rhs),rhsMax =  -5.76746705949205E-11  1.07293505778993E-02
 cg2d: Sum(rhs),rhsMax =  -5.56840962229188E-11  1.10902322748204E-02
 cg2d: Sum(rhs),rhsMax =  -5.38556144125124E-11  1.14468913527790E-02
 cg2d: Sum(rhs),rhsMax =  -5.21048482138298E-11  1.17991764021575E-02
 cg2d: Sum(rhs),rhsMax =  -5.05298303199453E-11  1.21469382943581E-02
 cg2d: Sum(rhs),rhsMax =  -4.90433249566991E-11  1.24900304145203E-02
 cg2d: Sum(rhs),rhsMax =  -4.76929606918475E-11  1.28283087324375E-02
 cg2d: Sum(rhs),rhsMax =  -4.64030480706867E-11  1.31616317528784E-02
 cg2d: Sum(rhs),rhsMax =  -4.51836901227409E-11  1.34898604779540E-02
 cg2d: Sum(rhs),rhsMax =  -4.42092473740274E-11  1.38128591344524E-02
 cg2d: Sum(rhs),rhsMax =  -4.31464308725538E-11  1.41304967526330E-02
 cg2d: Sum(rhs),rhsMax =  -4.21097601233100E-11  1.44426459709940E-02
 cg2d: Sum(rhs),rhsMax =  -4.12310185993192E-11  1.47491799117591E-02
 cg2d: Sum(rhs),rhsMax =  -4.02925470766036E-11  1.50499722673980E-02
 cg2d: Sum(rhs),rhsMax =  -3.94562160721534E-11  1.53448990823414E-02
 cg2d: Sum(rhs),rhsMax =  -3.86606857638583E-11  1.56338397888177E-02
 cg2d: Sum(rhs),rhsMax =  -3.79277720341520E-11  1.59166772419380E-02
 cg2d: Sum(rhs),rhsMax =  -3.71882524774492E-11  1.61932973919520E-02
 cg2d: Sum(rhs),rhsMax =  -3.65501517940459E-11  1.64635890804270E-02
 cg2d: Sum(rhs),rhsMax =  -3.59109408876179E-11  1.67274440602351E-02
 cg2d: Sum(rhs),rhsMax =  -3.53387319407261E-11  1.69847571115265E-02
 cg2d: Sum(rhs),rhsMax =  -3.47795126032224E-11  1.72354261795806E-02
 cg2d: Sum(rhs),rhsMax =  -3.42164074851325E-11  1.74793522805298E-02
 cg2d: Sum(rhs),rhsMax =  -3.36234373676803E-11  1.77164393150737E-02
 cg2d: Sum(rhs),rhsMax =  -3.31012994791990E-11  1.79465942007698E-02
 cg2d: Sum(rhs),rhsMax =  -3.26041416087719E-11  1.81697259853345E-02
 cg2d: Sum(rhs),rhsMax =  -3.21557225291258E-11  1.83857467133646E-02
 cg2d: Sum(rhs),rhsMax =  -3.16910941933202E-11  1.85945727160806E-02
 cg2d: Sum(rhs),rhsMax =  -3.12639913957469E-11  1.87961244016629E-02
 cg2d: Sum(rhs),rhsMax =  -3.08651992853015E-11  1.89903257289258E-02
 cg2d: Sum(rhs),rhsMax =  -3.04555269892148E-11  1.91771039441861E-02
 cg2d: Sum(rhs),rhsMax =  -3.01160207882845E-11  1.93563895687414E-02
 cg2d: Sum(rhs),rhsMax =  -2.97804003679403E-11  1.95281164456289E-02
 cg2d: Sum(rhs),rhsMax =  -2.94884117124639E-11  1.96922217614118E-02
 cg2d: Sum(rhs),rhsMax =  -2.91755508641245E-11  1.98486460567652E-02
 cg2d: Sum(rhs),rhsMax =  -2.89275270404232E-11  1.99973332435876E-02
 cg2d: Sum(rhs),rhsMax =  -2.86604073806984E-11  2.01382306208151E-02
 cg2d: Sum(rhs),rhsMax =  -2.83946199886032E-11  2.02712877348626E-02
 cg2d: Sum(rhs),rhsMax =  -2.81600298634999E-11  2.03964577910859E-02
 cg2d: Sum(rhs),rhsMax =  -2.79765099975293E-11  2.05136980657108E-02
 cg2d: Sum(rhs),rhsMax =  -2.77823319905224E-11  2.06229698225909E-02
 cg2d: Sum(rhs),rhsMax =  -2.76185740943902E-11  2.07242378678522E-02
 cg2d: Sum(rhs),rhsMax =  -2.74478217932028E-11  2.08174701275631E-02
 cg2d: Sum(rhs),rhsMax =  -2.72369904408265E-11  2.09026374030338E-02
 cg2d: Sum(rhs),rhsMax =  -2.70553579539978E-11  2.09797139248381E-02
 cg2d: Sum(rhs),rhsMax =  -2.68869371211622E-11  2.10486776657966E-02
 cg2d: Sum(rhs),rhsMax =  -2.67617039639845E-11  2.11095101632173E-02
 cg2d: Sum(rhs),rhsMax =  -2.66511257507318E-11  2.11621964240779E-02
 cg2d: Sum(rhs),rhsMax =  -2.65313326863748E-11  2.12067249555137E-02
 cg2d: Sum(rhs),rhsMax =  -2.64854804754577E-11  2.12430877182744E-02
 cg2d: Sum(rhs),rhsMax =  -2.63548072254594E-11  2.12712800469099E-02
 cg2d: Sum(rhs),rhsMax =  -2.62750932122913E-11  2.12913000633680E-02
 cg2d: Sum(rhs),rhsMax =  -2.62365684733368E-11  2.13031478293854E-02
 cg2d: Sum(rhs),rhsMax =  -2.62216914848068E-11  2.13068280642299E-02
 cg2d: Sum(rhs),rhsMax =  -2.62323496258432E-11  2.13023497789095E-02
 cg2d: Sum(rhs),rhsMax =  -2.62075916523941E-11  2.12897254436856E-02
 cg2d: Sum(rhs),rhsMax =  -2.60844679189631E-11  2.12689709819447E-02
 cg2d: Sum(rhs),rhsMax =  -2.60518273620391E-11  2.12401047396870E-02
 cg2d: Sum(rhs),rhsMax =  -2.60349519720648E-11  2.12031477586129E-02
 cg2d: Sum(rhs),rhsMax =  -2.61509702781382E-11  2.11581242486381E-02
 cg2d: Sum(rhs),rhsMax =  -2.62661004057918E-11  2.11050617772003E-02
 cg2d: Sum(rhs),rhsMax =  -2.64877009215070E-11  2.10439912403678E-02
 cg2d: Sum(rhs),rhsMax =  -2.66827671069336E-11  2.09749467912734E-02
 cg2d: Sum(rhs),rhsMax =  -2.67920130525567E-11  2.08979658024881E-02
 cg2d: Sum(rhs),rhsMax =  -2.69803068775332E-11  2.08130888217471E-02
 cg2d: Sum(rhs),rhsMax =  -2.71610511859421E-11  2.07203594618665E-02
 cg2d: Sum(rhs),rhsMax =  -2.73939759765085E-11  2.06198244185574E-02
 cg2d: Sum(rhs),rhsMax =  -2.76225708972788E-11  2.05115336305276E-02
 cg2d: Sum(rhs),rhsMax =  -2.78760348138007E-11  2.03955403496438E-02
 cg2d: Sum(rhs),rhsMax =  -2.81392686929394E-11  2.02719009697597E-02
 cg2d: Sum(rhs),rhsMax =  -2.83659762345678E-11  2.01406747720454E-02
 cg2d: Sum(rhs),rhsMax =  -2.86271006899597E-11  2.00019238445643E-02
 cg2d: Sum(rhs),rhsMax =  -2.88569168560571E-11  1.98557134763421E-02
 cg2d: Sum(rhs),rhsMax =  -2.91490165338359E-11  1.97021135455928E-02
 cg2d: Sum(rhs),rhsMax =  -2.94297919367636E-11  1.95411913657771E-02
 cg2d: Sum(rhs),rhsMax =  -2.97842861485265E-11  1.93730174330307E-02
 cg2d: Sum(rhs),rhsMax =  -3.01166869220992E-11  1.91976672868699E-02
 cg2d: Sum(rhs),rhsMax =  -3.04765102043802E-11  1.90152203355297E-02
 cg2d: Sum(rhs),rhsMax =  -3.08191250297796E-11  1.88257587740774E-02
 cg2d: Sum(rhs),rhsMax =  -3.12223580323234E-11  1.86293689126248E-02
 cg2d: Sum(rhs),rhsMax =  -3.16614512385627E-11  1.84261391023310E-02
 cg2d: Sum(rhs),rhsMax =  -3.21115356527457E-11  1.82161586028756E-02
 cg2d: Sum(rhs),rhsMax =  -3.25562909964106E-11  1.79995186071218E-02
 cg2d: Sum(rhs),rhsMax =  -3.30473426402023E-11  1.77763164176856E-02
 cg2d: Sum(rhs),rhsMax =  -3.35771410675534E-11  1.75466500634381E-02
 cg2d: Sum(rhs),rhsMax =  -3.41492389921427E-11  1.73106179728378E-02
 cg2d: Sum(rhs),rhsMax =  -3.47165629577262E-11  1.70683206647217E-02
 cg2d: Sum(rhs),rhsMax =  -3.53338469594178E-11  1.68198616573238E-02
 cg2d: Sum(rhs),rhsMax =  -3.59852148079653E-11  1.65653471669377E-02
 cg2d: Sum(rhs),rhsMax =  -3.66955354991205E-11  1.63048856966004E-02
 cg2d: Sum(rhs),rhsMax =  -3.73642228268523E-11  1.60385879643863E-02
 cg2d: Sum(rhs),rhsMax =  -3.80546705258666E-11  1.57665669094641E-02
 cg2d: Sum(rhs),rhsMax =  -3.88023502218005E-11  1.54889376724691E-02
 cg2d: Sum(rhs),rhsMax =  -3.95639077055421E-11  1.52058175544105E-02
 cg2d: Sum(rhs),rhsMax =  -4.03932443049371E-11  1.49173259786438E-02
 cg2d: Sum(rhs),rhsMax =  -4.12574419073053E-11  1.46235844415619E-02
 cg2d: Sum(rhs),rhsMax =  -4.21794266181053E-11  1.43247164405054E-02
 cg2d: Sum(rhs),rhsMax =  -4.32262003968731E-11  1.40208473973161E-02
 cg2d: Sum(rhs),rhsMax =  -4.44145276112806E-11  1.37121045552379E-02
 cg2d: Sum(rhs),rhsMax =  -4.53240223130535E-11  1.33986168661007E-02
 cg2d: Sum(rhs),rhsMax =  -4.64490113039062E-11  1.30805149098869E-02
 cg2d: Sum(rhs),rhsMax =  -4.77050066116647E-11  1.27579308678501E-02
 cg2d: Sum(rhs),rhsMax =  -4.90243956541292E-11  1.24309987526754E-02
 cg2d: Sum(rhs),rhsMax =  -5.04491448616307E-11  1.20998553848796E-02
 cg2d: Sum(rhs),rhsMax =  -5.19674858701080E-11  1.17646380281000E-02
 cg2d: Sum(rhs),rhsMax =  -5.35912703103492E-11  1.14254845243482E-02
 cg2d: Sum(rhs),rhsMax =  -5.53190548924221E-11  1.10825339212987E-02
 cg2d: Sum(rhs),rhsMax =  -5.72160097078722E-11  1.07359268259143E-02
 cg2d: Sum(rhs),rhsMax =  -5.92477733540875E-11  1.03858054579870E-02
 cg2d: Sum(rhs),rhsMax =  -6.14565343060036E-11  1.00323135274123E-02
 cg2d: Sum(rhs),rhsMax =  -6.37874059128407E-11  9.67559605436636E-03
 cg2d: Sum(rhs),rhsMax =  -6.63891285695994E-11  9.31579922750898E-03
 cg2d: Sum(rhs),rhsMax =  -6.91888282777775E-11  8.95307027546519E-03
 cg2d: Sum(rhs),rhsMax =  -7.21980253359789E-11  8.58755749846090E-03
 cg2d: Sum(rhs),rhsMax =  -7.54887263809678E-11  8.21941038967761E-03
 cg2d: Sum(rhs),rhsMax =  -7.91103293984463E-11  7.84877966937354E-03
 cg2d: Sum(rhs),rhsMax =  -8.31335555950830E-11  7.47581717920033E-03
 cg2d: Sum(rhs),rhsMax =  -8.75918781950702E-11  7.10067571433856E-03
 cg2d: Sum(rhs),rhsMax =  -9.25712839716653E-11  6.72350889530690E-03
 cg2d: Sum(rhs),rhsMax =  -9.65958424359314E-11  6.44825011488651E-03
 cg2d: Sum(rhs),rhsMax =  -8.96457352794755E-11  6.95515082845497E-03
 cg2d: Sum(rhs),rhsMax =  -8.34117219739028E-11  7.47729539901593E-03
 cg2d: Sum(rhs),rhsMax =  -7.78842546012015E-11  8.00998620670042E-03
 cg2d: Sum(rhs),rhsMax =  -7.30477900390269E-11  8.55450710817503E-03
 cg2d: Sum(rhs),rhsMax =  -6.85349554885306E-11  9.12610171555201E-03
 cg2d: Sum(rhs),rhsMax =  -6.44951869688271E-11  9.70546817915885E-03
 cg2d: Sum(rhs),rhsMax =  -6.09917671923199E-11  1.02858063766015E-02
 cg2d: Sum(rhs),rhsMax =  -5.78505021664455E-11  1.08668541366371E-02
 cg2d: Sum(rhs),rhsMax =  -5.50527401443901E-11  1.14483495707591E-02
 cg2d: Sum(rhs),rhsMax =  -5.24875698459937E-11  1.20300312301532E-02
 cg2d: Sum(rhs),rhsMax =  -5.01564345611882E-11  1.26116382575252E-02
 cg2d: Sum(rhs),rhsMax =  -4.80601114460910E-11  1.31929105329777E-02
 cg2d: Sum(rhs),rhsMax =  -4.61032323428867E-11  1.37735888129679E-02
 cg2d: Sum(rhs),rhsMax =  -4.43493020085839E-11  1.43534148613997E-02
 cg2d: Sum(rhs),rhsMax =  -4.27068380659534E-11  1.49321315719991E-02
 cg2d: Sum(rhs),rhsMax =  -4.11902734143155E-11  1.55094830813782E-02
 cg2d: Sum(rhs),rhsMax =  -3.97984978306454E-11  1.60852148726313E-02
 cg2d: Sum(rhs),rhsMax =  -3.84825504795572E-11  1.66590738699150E-02
 cg2d: Sum(rhs),rhsMax =  -3.72880615273630E-11  1.72308085250951E-02
 cg2d: Sum(rhs),rhsMax =  -3.61654040048620E-11  1.78001688980786E-02
 cg2d: Sum(rhs),rhsMax =  -3.51165763134986E-11  1.83669067327580E-02
 cg2d: Sum(rhs),rhsMax =  -3.41379147172916E-11  1.89307755305359E-02
 cg2d: Sum(rhs),rhsMax =  -3.31920047003109E-11  1.94915306231795E-02
 cg2d: Sum(rhs),rhsMax =  -3.23479021346884E-11  2.00489292461883E-02
 cg2d: Sum(rhs),rhsMax =  -3.15253378957436E-11  2.06027306153843E-02
 cg2d: Sum(rhs),rhsMax =  -3.07670555699247E-11  2.11526960025067E-02
 cg2d: Sum(rhs),rhsMax =  -3.00308666822957E-11  2.16985888134783E-02
 cg2d: Sum(rhs),rhsMax =  -2.93529645034596E-11  2.22401746690438E-02
 cg2d: Sum(rhs),rhsMax =  -2.87325718772991E-11  2.27772214872995E-02
 cg2d: Sum(rhs),rhsMax =  -2.81411560720812E-11  2.33094995677248E-02
 cg2d: Sum(rhs),rhsMax =  -2.76185740943902E-11  2.38367816765753E-02
 cg2d: Sum(rhs),rhsMax =  -2.70945488267671E-11  2.43588431337235E-02
 cg2d: Sum(rhs),rhsMax =  -2.66481281485653E-11  2.48754619011435E-02
 cg2d: Sum(rhs),rhsMax =  -2.61878296825557E-11  2.53864186732149E-02
 cg2d: Sum(rhs),rhsMax =  -2.57758259181173E-11  2.58914969689187E-02
 cg2d: Sum(rhs),rhsMax =  -2.53923548854118E-11  2.63904832258474E-02
 cg2d: Sum(rhs),rhsMax =  -2.49810172547882E-11  2.68831668958057E-02
 cg2d: Sum(rhs),rhsMax =  -2.46479503474006E-11  2.73693405416378E-02
 cg2d: Sum(rhs),rhsMax =  -2.42920128457058E-11  2.78487999347998E-02
 cg2d: Sum(rhs),rhsMax =  -2.39668285217931E-11  2.83213441530901E-02
 cg2d: Sum(rhs),rhsMax =  -2.36451969115592E-11  2.87867756778650E-02
 cg2d: Sum(rhs),rhsMax =  -2.33493224754966E-11  2.92449004900232E-02
 cg2d: Sum(rhs),rhsMax =  -2.30743202322969E-11  2.96955281640571E-02
 cg2d: Sum(rhs),rhsMax =  -2.27979857214677E-11  3.01384719595580E-02
 cg2d: Sum(rhs),rhsMax =  -2.25296448164158E-11  3.05735489096519E-02
 cg2d: Sum(rhs),rhsMax =  -2.22942775351953E-11  3.10005799054780E-02
 cg2d: Sum(rhs),rhsMax =  -2.20435891762349E-11  3.14193897784730E-02
 cg2d: Sum(rhs),rhsMax =  -2.18003393115396E-11  3.18298073785249E-02
 cg2d: Sum(rhs),rhsMax =  -2.15809592418736E-11  3.22316656478831E-02
 cg2d: Sum(rhs),rhsMax =  -2.13969952866933E-11  3.26248016907348E-02
 cg2d: Sum(rhs),rhsMax =  -2.12160289336794E-11  3.30090568384207E-02
 cg2d: Sum(rhs),rhsMax =  -2.10245154619315E-11  3.33842767104481E-02
 cg2d: Sum(rhs),rhsMax =  -2.08369987930723E-11  3.37503112720829E-02
 cg2d: Sum(rhs),rhsMax =  -2.06693551163539E-11  3.41070148870103E-02
 cg2d: Sum(rhs),rhsMax =  -2.05077066439685E-11  3.44542463669388E-02
 cg2d: Sum(rhs),rhsMax =  -2.03551620003850E-11  3.47918690181968E-02
 cg2d: Sum(rhs),rhsMax =  -2.01946237510242E-11  3.51197506885934E-02
 cg2d: Sum(rhs),rhsMax =  -2.00522931592673E-11  3.54377638128283E-02
 cg2d: Sum(rhs),rhsMax =  -1.99089633667882E-11  3.57457854501424E-02
 cg2d: Sum(rhs),rhsMax =  -1.98567828846308E-11  3.60436973183705E-02
 cg2d: Sum(rhs),rhsMax =  -1.97939442614370E-11  3.63313858240515E-02
 cg2d: Sum(rhs),rhsMax =  -1.97559746339948E-11  3.66087420881192E-02
 cg2d: Sum(rhs),rhsMax =  -1.96945793007330E-11  3.68756619670425E-02
 cg2d: Sum(rhs),rhsMax =  -1.96275218300457E-11  3.71320460698889E-02
 cg2d: Sum(rhs),rhsMax =  -1.95902183364183E-11  3.73777997724070E-02
 cg2d: Sum(rhs),rhsMax =  -1.95736760133514E-11  3.76128332296450E-02
 cg2d: Sum(rhs),rhsMax =  -1.94961824462325E-11  3.78370613887537E-02
 cg2d: Sum(rhs),rhsMax =  -1.94282367971255E-11  3.80504040034153E-02
 cg2d: Sum(rhs),rhsMax =  -1.94259053287738E-11  3.82527856508435E-02
 cg2d: Sum(rhs),rhsMax =  -1.93537408321731E-11  3.84441357511484E-02
 cg2d: Sum(rhs),rhsMax =  -1.93384197544333E-11  3.86243885894182E-02
 cg2d: Sum(rhs),rhsMax =  -1.93346449961496E-11  3.87934833384191E-02
 cg2d: Sum(rhs),rhsMax =  -1.93765004041779E-11  3.89513640795326E-02
 cg2d: Sum(rhs),rhsMax =  -1.94054772251206E-11  3.90979798191935E-02
 cg2d: Sum(rhs),rhsMax =  -1.94736449188326E-11  3.92332844977113E-02
 cg2d: Sum(rhs),rhsMax =  -1.94970706246522E-11  3.93572369892024E-02
 cg2d: Sum(rhs),rhsMax =  -1.95198301966570E-11  3.94698010902299E-02
 cg2d: Sum(rhs),rhsMax =  -1.95506943967416E-11  3.95709454965284E-02
 cg2d: Sum(rhs),rhsMax =  -1.95744531694686E-11  3.96606437686908E-02
 cg2d: Sum(rhs),rhsMax =  -1.96499483351431E-11  3.97388742888373E-02
 cg2d: Sum(rhs),rhsMax =  -1.96940241892207E-11  3.98056202111507E-02
 cg2d: Sum(rhs),rhsMax =  -1.97569738347170E-11  3.98608694096723E-02
 cg2d: Sum(rhs),rhsMax =  -1.97678540203583E-11  3.99046144268535E-02
 cg2d: Sum(rhs),rhsMax =  -1.96744842639873E-11  3.99368524261681E-02
 cg2d: Sum(rhs),rhsMax =  -1.96014315889670E-11  3.99575851509382E-02
 cg2d: Sum(rhs),rhsMax =  -1.95797822399868E-11  3.99668188912738E-02
 cg2d: Sum(rhs),rhsMax =  -1.95387039880757E-11  3.99645644596989E-02
 cg2d: Sum(rhs),rhsMax =  -1.95194971297497E-11  3.99508371748377E-02
 cg2d: Sum(rhs),rhsMax =  -1.94809723907952E-11  3.99256568521143E-02
 cg2d: Sum(rhs),rhsMax =  -1.94571025957657E-11  3.98890477993717E-02
 cg2d: Sum(rhs),rhsMax =  -1.94425586741431E-11  3.98410388153282E-02
 cg2d: Sum(rhs),rhsMax =  -1.93649540847218E-11  3.97816631887341E-02
 cg2d: Sum(rhs),rhsMax =  -1.93437488249515E-11  3.97109586963294E-02
 cg2d: Sum(rhs),rhsMax =  -1.93322025054954E-11  3.96289675980628E-02
 cg2d: Sum(rhs),rhsMax =  -1.92977855917320E-11  3.95357366284045E-02
 cg2d: Sum(rhs),rhsMax =  -1.92574844959381E-11  3.94313169829587E-02
 cg2d: Sum(rhs),rhsMax =  -1.92394988829392E-11  3.93157642999278E-02
 cg2d: Sum(rhs),rhsMax =  -1.92398319498466E-11  3.91891386363308E-02
 cg2d: Sum(rhs),rhsMax =  -1.90925053544788E-11  3.90515044392012E-02
 cg2d: Sum(rhs),rhsMax =  -1.91167082164156E-11  3.89029305129411E-02
 cg2d: Sum(rhs),rhsMax =  -1.91289206696865E-11  3.87434899816958E-02
 cg2d: Sum(rhs),rhsMax =  -1.91495708179446E-11  3.85732602488452E-02
 cg2d: Sum(rhs),rhsMax =  -1.91843207986153E-11  3.83923229546257E-02
 cg2d: Sum(rhs),rhsMax =  -1.92000859655650E-11  3.82007639323828E-02
 cg2d: Sum(rhs),rhsMax =  -1.92490468009510E-11  3.79986731637228E-02
 cg2d: Sum(rhs),rhsMax =  -1.92489357786485E-11  3.77861447326727E-02
 cg2d: Sum(rhs),rhsMax =  -1.93042248852748E-11  3.75632767789378E-02
 cg2d: Sum(rhs),rhsMax =  -1.93474125609328E-11  3.73301714504812E-02
 cg2d: Sum(rhs),rhsMax =  -1.93779436941099E-11  3.70869348558603E-02
 cg2d: Sum(rhs),rhsMax =  -1.94166904776694E-11  3.68336770169349E-02
 cg2d: Sum(rhs),rhsMax =  -1.94865235059183E-11  3.65705118226043E-02
 cg2d: Sum(rhs),rhsMax =  -1.95227167765211E-11  3.62975569840484E-02
(PID.TID 0000.0001)      cg2d_init_res =   4.27311056750891E-02
(PID.TID 0000.0001)      cg2d_iters(min,last) =      -1      36
(PID.TID 0000.0001)      cg2d_last_res =   9.77296329620235E-14
(PID.TID 0000.0001) // =======================================================
(PID.TID 0000.0001) // Begin MONITOR dynamic field statistics
(PID.TID 0000.0001) // =======================================================
(PID.TID 0000.0001) %MON time_tsnumber                =                  4320
(PID.TID 0000.0001) %MON time_secondsf                =   6.4800000000000E+04
(PID.TID 0000.0001) %MON dynstat_eta_max              =   6.1354506767360E-03
(PID.TID 0000.0001) %MON dynstat_eta_min              =  -5.7941648825129E-03
(PID.TID 0000.0001) %MON dynstat_eta_mean             =   1.5114709456556E-15
(PID.TID 0000.0001) %MON dynstat_eta_sd               =   3.3796224010489E-03
(PID.TID 0000.0001) %MON dynstat_eta_del2             =   4.4476665582660E-06
(PID.TID 0000.0001) %MON dynstat_uvel_max             =   3.1413394414642E-01
(PID.TID 0000.0001) %MON dynstat_uvel_min             =  -6.0915608408973E-02
(PID.TID 0000.0001) %MON dynstat_uvel_mean            =   6.8430339915960E-02
(PID.TID 0000.0001) %MON dynstat_uvel_sd              =   3.9025551647453E-02
(PID.TID 0000.0001) %MON dynstat_uvel_del2            =   8.6243799851745E-05
(PID.TID 0000.0001) %MON dynstat_vvel_max             =   0.0000000000000E+00
(PID.TID 0000.0001) %MON dynstat_vvel_min             =   0.0000000000000E+00
(PID.TID 0000.0001) %MON dynstat_vvel_mean            =   0.0000000000000E+00
(PID.TID 0000.0001) %MON dynstat_vvel_sd              =   0.0000000000000E+00
(PID.TID 0000.0001) %MON dynstat_vvel_del2            =   0.0000000000000E+00
(PID.TID 0000.0001) %MON dynstat_wvel_max             =   2.3912227728243E-03
(PID.TID 0000.0001) %MON dynstat_wvel_min             =  -3.9787626048366E-03
(PID.TID 0000.0001) %MON dynstat_wvel_mean            =  -4.2530609674405E-21
(PID.TID 0000.0001) %MON dynstat_wvel_sd              =   2.4109920502288E-04
(PID.TID 0000.0001) %MON dynstat_wvel_del2            =   3.6036883604186E-06
(PID.TID 0000.0001) %MON dynstat_theta_max            =   1.5000000000013E+01
(PID.TID 0000.0001) %MON dynstat_theta_min            =   9.9999999999923E+00
(PID.TID 0000.0001) %MON dynstat_theta_mean           =   1.3324334805004E+01
(PID.TID 0000.0001) %MON dynstat_theta_sd             =   2.3133420670278E+00
(PID.TID 0000.0001) %MON dynstat_theta_del2           =   3.2063484040016E-04
(PID.TID 0000.0001) %MON dynstat_salt_max             =   3.5000000000000E+01
(PID.TID 0000.0001) %MON dynstat_salt_min             =   3.5000000000000E+01
(PID.TID 0000.0001) %MON dynstat_salt_mean            =   3.5000000000000E+01
(PID.TID 0000.0001) %MON dynstat_salt_sd              =   2.1316282072803E-14
(PID.TID 0000.0001) %MON dynstat_salt_del2            =   0.0000000000000E+00
(PID.TID 0000.0001) %MON dynstat_sst_max              =   1.5000000000001E+01
(PID.TID 0000.0001) %MON dynstat_sst_min              =   1.4999999999992E+01
(PID.TID 0000.0001) %MON dynstat_sst_mean             =   1.4999999999994E+01
(PID.TID 0000.0001) %MON dynstat_sst_sd               =   2.9389713649354E-12
(PID.TID 0000.0001) %MON dynstat_sst_del2             =   2.5835179342584E-14
(PID.TID 0000.0001) %MON dynstat_sss_max              =   3.5000000000000E+01
(PID.TID 0000.0001) %MON dynstat_sss_min              =   3.5000000000000E+01
(PID.TID 0000.0001) %MON dynstat_sss_mean             =   3.5000000000000E+01
(PID.TID 0000.0001) %MON dynstat_sss_sd               =   7.8159700933611E-14
(PID.TID 0000.0001) %MON dynstat_sss_del2             =   0.0000000000000E+00
(PID.TID 0000.0001) %MON forcing_qnet_max             =   0.0000000000000E+00
(PID.TID 0000.0001) %MON forcing_qnet_min             =   0.0000000000000E+00
(PID.TID 0000.0001) %MON forcing_qnet_mean            =   0.0000000000000E+00
(PID.TID 0000.0001) %MON forcing_qnet_sd              =   0.0000000000000E+00
(PID.TID 0000.0001) %MON forcing_qnet_del2            =   0.0000000000000E+00
(PID.TID 0000.0001) %MON forcing_qsw_max              =   0.0000000000000E+00
(PID.TID 0000.0001) %MON forcing_qsw_min              =   0.0000000000000E+00
(PID.TID 0000.0001) %MON forcing_qsw_mean             =   0.0000000000000E+00
(PID.TID 0000.0001) %MON forcing_qsw_sd               =   0.0000000000000E+00
(PID.TID 0000.0001) %MON forcing_qsw_del2             =   0.0000000000000E+00
(PID.TID 0000.0001) %MON forcing_empmr_max            =   0.0000000000000E+00
(PID.TID 0000.0001) %MON forcing_empmr_min            =   0.0000000000000E+00
(PID.TID 0000.0001) %MON forcing_empmr_mean           =   0.0000000000000E+00
(PID.TID 0000.0001) %MON forcing_empmr_sd             =   0.0000000000000E+00
(PID.TID 0000.0001) %MON forcing_empmr_del2           =   0.0000000000000E+00
(PID.TID 0000.0001) %MON forcing_fu_max               =   0.0000000000000E+00
(PID.TID 0000.0001) %MON forcing_fu_min               =   0.0000000000000E+00
(PID.TID 0000.0001) %MON forcing_fu_mean              =   0.0000000000000E+00
(PID.TID 0000.0001) %MON forcing_fu_sd                =   0.0000000000000E+00
(PID.TID 0000.0001) %MON forcing_fu_del2              =   0.0000000000000E+00
(PID.TID 0000.0001) %MON forcing_fv_max               =   0.0000000000000E+00
(PID.TID 0000.0001) %MON forcing_fv_min               =   0.0000000000000E+00
(PID.TID 0000.0001) %MON forcing_fv_mean              =   0.0000000000000E+00
(PID.TID 0000.0001) %MON forcing_fv_sd                =   0.0000000000000E+00
(PID.TID 0000.0001) %MON forcing_fv_del2              =   0.0000000000000E+00
(PID.TID 0000.0001) %MON advcfl_uvel_max              =   2.3560045810981E-02
(PID.TID 0000.0001) %MON advcfl_vvel_max              =   0.0000000000000E+00
(PID.TID 0000.0001) %MON advcfl_wvel_max              =   2.7824673330490E-02
(PID.TID 0000.0001) %MON advcfl_W_hf_max              =   2.8057483374440E-02
(PID.TID 0000.0001) %MON pe_b_mean                    =   2.8535339807450E-07
(PID.TID 0000.0001) %MON ke_max                       =   4.8148145918586E-02
(PID.TID 0000.0001) %MON ke_mean                      =   3.1112713109538E-03
(PID.TID 0000.0001) %MON ke_vol                       =   9.5889217545975E+10
(PID.TID 0000.0001) %MON vort_r_min                   =   0.0000000000000E+00
(PID.TID 0000.0001) %MON vort_r_max                   =   0.0000000000000E+00
(PID.TID 0000.0001) %MON vort_a_mean                  =   0.0000000000000E+00
(PID.TID 0000.0001) %MON vort_a_sd                    =   0.0000000000000E+00
(PID.TID 0000.0001) %MON vort_p_mean                  =   0.0000000000000E+00
(PID.TID 0000.0001) %MON vort_p_sd                    =   0.0000000000000E+00
(PID.TID 0000.0001) %MON surfExpan_theta_mean         =  -1.7698318461796E-18
(PID.TID 0000.0001) %MON surfExpan_salt_mean          =  -4.5483857921742E-19
(PID.TID 0000.0001) // =======================================================
(PID.TID 0000.0001) // End MONITOR dynamic field statistics
(PID.TID 0000.0001) // =======================================================
(PID.TID 0000.0001) // =======================================================
(PID.TID 0000.0001) // Begin OBCS MONITOR field statistics
(PID.TID 0000.0001) // =======================================================
(PID.TID 0000.0001) %MON obc_E_uVel_max               =   6.6809804669674E-02
(PID.TID 0000.0001) %MON obc_E_uVel_min               =   6.6809804669674E-02
(PID.TID 0000.0001) %MON obc_E_uVel_mean              =   6.6809804669674E-02
(PID.TID 0000.0001) %MON obc_E_uVel_sd                =  -1.7347234759768E-18
(PID.TID 0000.0001) %MON obc_E_uVel_Int               =   6.6809804669674E+04
(PID.TID 0000.0001) %MON obc_W_uVel_max               =   6.6809804669674E-02
(PID.TID 0000.0001) %MON obc_W_uVel_min               =   6.6809804669674E-02
(PID.TID 0000.0001) %MON obc_W_uVel_mean              =   6.6809804669674E-02
(PID.TID 0000.0001) %MON obc_W_uVel_sd                =  -1.7347234759768E-18
(PID.TID 0000.0001) %MON obc_W_uVel_Int               =   6.6809804669674E+04
(PID.TID 0000.0001) // =======================================================
(PID.TID 0000.0001) // End OBCS MONITOR field statistics
(PID.TID 0000.0001) // =======================================================
(PID.TID 0000.0001) %CHECKPOINT      4320 0000004320
 cg2d: Sum(rhs),rhsMax =  -1.95642391176420E-11  3.60149339915253E-02
 cg2d: Sum(rhs),rhsMax =  -1.96974658805971E-11  3.57227680722421E-02
 cg2d: Sum(rhs),rhsMax =  -1.98104865845039E-11  3.54211881483185E-02
 cg2d: Sum(rhs),rhsMax =  -1.99503746856067E-11  3.51103267935901E-02
 cg2d: Sum(rhs),rhsMax =  -2.00853778054011E-11  3.47903201880222E-02
 cg2d: Sum(rhs),rhsMax =  -2.02186045683561E-11  3.44613080687991E-02
 cg2d: Sum(rhs),rhsMax =  -2.03949079846666E-11  3.41234336776172E-02
 cg2d: Sum(rhs),rhsMax =  -2.05646610851318E-11  3.37768437041847E-02
 cg2d: Sum(rhs),rhsMax =  -2.07158734610857E-11  3.34216882263015E-02
 cg2d: Sum(rhs),rhsMax =  -2.08980610594267E-11  3.30581206471032E-02
 cg2d: Sum(rhs),rhsMax =  -2.10992334714888E-11  3.26862976301238E-02
 cg2d: Sum(rhs),rhsMax =  -2.12956319245450E-11  3.23063790327221E-02
 cg2d: Sum(rhs),rhsMax =  -2.14690487609914E-11  3.19185278383710E-02
 cg2d: Sum(rhs),rhsMax =  -2.16766604665963E-11  3.15229100881892E-02
 cg2d: Sum(rhs),rhsMax =  -2.19102513909775E-11  3.11196948119770E-02
 cg2d: Sum(rhs),rhsMax =  -2.21270779476868E-11  3.07090539589168E-02
 cg2d: Sum(rhs),rhsMax =  -2.23977503210904E-11  3.02911623267934E-02
 cg2d: Sum(rhs),rhsMax =  -2.26261231972558E-11  2.98661974927766E-02
 cg2d: Sum(rhs),rhsMax =  -2.29105623361647E-11  2.94343397446063E-02
 cg2d: Sum(rhs),rhsMax =  -2.31842323117348E-11  2.89957720107466E-02
 cg2d: Sum(rhs),rhsMax =  -2.34445796110094E-11  2.85506797898062E-02
 cg2d: Sum(rhs),rhsMax =  -2.37668773550581E-11  2.80992510795942E-02
 cg2d: Sum(rhs),rhsMax =  -2.40736319767620E-11  2.76416763061627E-02
 cg2d: Sum(rhs),rhsMax =  -2.44126940884826E-11  2.71781482531788E-02
 cg2d: Sum(rhs),rhsMax =  -2.47619702520296E-11  2.67088619922170E-02
 cg2d: Sum(rhs),rhsMax =  -2.51153542407678E-11  2.62340148130950E-02
 cg2d: Sum(rhs),rhsMax =  -2.54936072252576E-11  2.57538061559623E-02
 cg2d: Sum(rhs),rhsMax =  -2.58926213803079E-11  2.52684375454015E-02
 cg2d: Sum(rhs),rhsMax =  -2.63200572447886E-11  2.47781125266298E-02
 cg2d: Sum(rhs),rhsMax =  -2.67639244100337E-11  2.42830366043272E-02
 cg2d: Sum(rhs),rhsMax =  -2.72246669652532E-11  2.37834171831196E-02
 cg2d: Sum(rhs),rhsMax =  -2.77239342594271E-11  2.32794635066283E-02
 cg2d: Sum(rhs),rhsMax =  -2.82396328543655E-11  2.27713865962998E-02
 cg2d: Sum(rhs),rhsMax =  -2.87723178615806E-11  2.22593991902989E-02
 cg2d: Sum(rhs),rhsMax =  -2.94154700597460E-11  2.17437156809937E-02
 cg2d: Sum(rhs),rhsMax =  -3.00865998781319E-11  2.12245520496480E-02
 cg2d: Sum(rhs),rhsMax =  -3.07973646584969E-11  2.07021257972654E-02
 cg2d: Sum(rhs),rhsMax =  -3.15366621705948E-11  2.01766558709708E-02
 cg2d: Sum(rhs),rhsMax =  -3.23495674692253E-11  1.96483625857260E-02
 cg2d: Sum(rhs),rhsMax =  -3.31753513549415E-11  1.91174675415404E-02
 cg2d: Sum(rhs),rhsMax =  -3.40653061314811E-11  1.85841935366094E-02
 cg2d: Sum(rhs),rhsMax =  -3.50296458506705E-11  1.80487644770537E-02
 cg2d: Sum(rhs),rhsMax =  -3.60306229296725E-11  1.75114052838862E-02
 cg2d: Sum(rhs),rhsMax =  -3.71175312707805E-11  1.69723417979053E-02
 cg2d: Sum(rhs),rhsMax =  -3.82652798336380E-11  1.64318006833431E-02
 cg2d: Sum(rhs),rhsMax =  -3.94947408111079E-11  1.58900093311512E-02
 cg2d: Sum(rhs),rhsMax =  -4.08080236269370E-11  1.53471957629421E-02
 cg2d: Sum(rhs),rhsMax =  -4.22354373696976E-11  1.48035885368399E-02
 cg2d: Sum(rhs),rhsMax =  -4.37448965939780E-11  1.42594166567027E-02
 cg2d: Sum(rhs),rhsMax =  -4.54019044582310E-11  1.37149094861765E-02
 cg2d: Sum(rhs),rhsMax =  -4.71925831746489E-11  1.31702966686997E-02
 cg2d: Sum(rhs),rhsMax =  -4.91342522224159E-11  1.26258080538614E-02
 cg2d: Sum(rhs),rhsMax =  -5.12507813965613E-11  1.20816736295597E-02
 cg2d: Sum(rhs),rhsMax =  -5.35417266078753E-11  1.15381234584151E-02
 cg2d: Sum(rhs),rhsMax =  -5.60778090630265E-11  1.09953876161307E-02
 cg2d: Sum(rhs),rhsMax =  -5.88759041519893E-11  1.04536961290996E-02
 cg2d: Sum(rhs),rhsMax =  -6.19622131381448E-11  9.91327890868591E-03
 cg2d: Sum(rhs),rhsMax =  -6.53772591618917E-11  9.37436567987542E-03
 cg2d: Sum(rhs),rhsMax =  -6.92090829090830E-11  8.83718590283562E-03
 cg2d: Sum(rhs),rhsMax =  -7.35175254007459E-11  8.30196868583606E-03
 cg2d: Sum(rhs),rhsMax =  -7.84973197553995E-11  7.76894269342806E-03
 cg2d: Sum(rhs),rhsMax =  -8.41717251454099E-11  7.23833604883736E-03
 cg2d: Sum(rhs),rhsMax =  -9.07394714921850E-11  6.71037623173951E-03
 cg2d: Sum(rhs),rhsMax =  -9.63838453493793E-11  6.31302458364922E-03
 cg2d: Sum(rhs),rhsMax =  -9.17200204675339E-11  6.62677432985530E-03
 cg2d: Sum(rhs),rhsMax =  -8.75577665926386E-11  6.93767479464138E-03
 cg2d: Sum(rhs),rhsMax =  -8.37439562140219E-11  7.24559563910386E-03
 cg2d: Sum(rhs),rhsMax =  -8.03033750607085E-11  7.55040593976970E-03
 cg2d: Sum(rhs),rhsMax =  -7.68418523255932E-11  7.88131547694204E-03
 cg2d: Sum(rhs),rhsMax =  -7.37180420873340E-11  8.21029845730703E-03
 cg2d: Sum(rhs),rhsMax =  -7.07856273596263E-11  8.53564311004673E-03
 cg2d: Sum(rhs),rhsMax =  -6.80821232723616E-11  8.85721513317138E-03
 cg2d: Sum(rhs),rhsMax =  -6.56190657366551E-11  9.17488181196722E-03
 cg2d: Sum(rhs),rhsMax =  -6.33145480488650E-11  9.48851189551018E-03
 cg2d: Sum(rhs),rhsMax =  -6.12258577170621E-11  9.79797627736036E-03
 cg2d: Sum(rhs),rhsMax =  -5.92857984926809E-11  1.01031484364300E-02
 cg2d: Sum(rhs),rhsMax =  -5.75672842728636E-11  1.04039043012326E-02
 cg2d: Sum(rhs),rhsMax =  -5.58814661211215E-11  1.07001220129413E-02
 cg2d: Sum(rhs),rhsMax =  -5.43013967124750E-11  1.09916817219394E-02
 cg2d: Sum(rhs),rhsMax =  -5.28578292247062E-11  1.12784655239162E-02
 cg2d: Sum(rhs),rhsMax =  -5.13958875458798E-11  1.15794094142630E-02
 cg2d: Sum(rhs),rhsMax =  -5.00371966083435E-11  1.18756338558012E-02
 cg2d: Sum(rhs),rhsMax =  -4.87335172216774E-11  1.21666951300511E-02
 cg2d: Sum(rhs),rhsMax =  -4.75722794490707E-11  1.24524694716025E-02
 cg2d: Sum(rhs),rhsMax =  -4.64549509970880E-11  1.27328353296120E-02
 cg2d: Sum(rhs),rhsMax =  -4.53860282689789E-11  1.30076721109513E-02
 cg2d: Sum(rhs),rhsMax =  -4.44211889494284E-11  1.32768621965208E-02
 cg2d: Sum(rhs),rhsMax =  -4.34595692766493E-11  1.35402909684969E-02
 cg2d: Sum(rhs),rhsMax =  -4.26285673427174E-11  1.37978464675422E-02
 cg2d: Sum(rhs),rhsMax =  -4.18043377692356E-11  1.40494192449863E-02
 cg2d: Sum(rhs),rhsMax =  -4.10164124886592E-11  1.42949025259933E-02
 cg2d: Sum(rhs),rhsMax =  -4.02664568355249E-11  1.45341922602860E-02
 cg2d: Sum(rhs),rhsMax =  -3.95808941178188E-11  1.47671869506736E-02
 cg2d: Sum(rhs),rhsMax =  -3.89465126815480E-11  1.49937922266193E-02
 cg2d: Sum(rhs),rhsMax =  -3.82864850934084E-11  1.52139156611707E-02
 cg2d: Sum(rhs),rhsMax =  -3.76311204419721E-11  1.54274650396842E-02
 cg2d: Sum(rhs),rhsMax =  -3.70382613468223E-11  1.56343492680619E-02
 cg2d: Sum(rhs),rhsMax =  -3.64801522323432E-11  1.58344797150626E-02
 cg2d: Sum(rhs),rhsMax =  -3.59851037856629E-11  1.60277709353861E-02
 cg2d: Sum(rhs),rhsMax =  -3.54666296331629E-11  1.62141407378956E-02
 cg2d: Sum(rhs),rhsMax =  -3.50071083232706E-11  1.63935100370137E-02
 cg2d: Sum(rhs),rhsMax =  -3.45695694292658E-11  1.65658015746600E-02
 cg2d: Sum(rhs),rhsMax =  -3.41499051259575E-11  1.67309416001105E-02
 cg2d: Sum(rhs),rhsMax =  -3.37486705248580E-11  1.68888604602937E-02
 cg2d: Sum(rhs),rhsMax =  -3.33812977260095E-11  1.70394920349713E-02
 cg2d: Sum(rhs),rhsMax =  -3.30490079747392E-11  1.71827731722363E-02
 cg2d: Sum(rhs),rhsMax =  -3.27451399328993E-11  1.73186435751115E-02
 cg2d: Sum(rhs),rhsMax =  -3.24430482478988E-11  1.74470460012605E-02
 cg2d: Sum(rhs),rhsMax =  -3.21275228643003E-11  1.75679264969437E-02
 cg2d: Sum(rhs),rhsMax =  -3.18720605463341E-11  1.76812345167724E-02
 cg2d: Sum(rhs),rhsMax =  -3.16181525406023E-11  1.77869229343305E-02
 cg2d: Sum(rhs),rhsMax =  -3.14198667084042E-11  1.78849480121770E-02
 cg2d: Sum(rhs),rhsMax =  -3.12136982927314E-11  1.79752674533857E-02
 cg2d: Sum(rhs),rhsMax =  -3.09720027402705E-11  1.80578425894881E-02
 cg2d: Sum(rhs),rhsMax =  -3.07938119448181E-11  1.81326392598941E-02
 cg2d: Sum(rhs),rhsMax =  -3.06064062982614E-11  1.81996274993207E-02
 cg2d: Sum(rhs),rhsMax =  -3.04530844985607E-11  1.82587809932131E-02
 cg2d: Sum(rhs),rhsMax =  -3.03002067880698E-11  1.83100767883495E-02
 cg2d: Sum(rhs),rhsMax =  -3.02182723288524E-11  1.83534952806358E-02
 cg2d: Sum(rhs),rhsMax =  -3.00849345435950E-11  1.83890203236171E-02
 cg2d: Sum(rhs),rhsMax =  -3.00193203628396E-11  1.84166393317313E-02
 cg2d: Sum(rhs),rhsMax =  -2.98855384883723E-11  1.84363433364289E-02
 cg2d: Sum(rhs),rhsMax =  -2.98149283040061E-11  1.84481273686608E-02
 cg2d: Sum(rhs),rhsMax =  -2.97931679327235E-11  1.84519901910438E-02
 cg2d: Sum(rhs),rhsMax =  -2.97954994010752E-11  1.84479336855152E-02
 cg2d: Sum(rhs),rhsMax =  -2.97808444571501E-11  1.84359628651200E-02
 cg2d: Sum(rhs),rhsMax =  -2.97353253131405E-11  1.84160864930362E-02
 cg2d: Sum(rhs),rhsMax =  -2.98264746234622E-11  1.83883172510233E-02
 cg2d: Sum(rhs),rhsMax =  -2.99341662568509E-11  1.83526716655607E-02
 cg2d: Sum(rhs),rhsMax =  -3.00899305472058E-11  1.83091698125684E-02
 cg2d: Sum(rhs),rhsMax =  -3.02937674945269E-11  1.82578351993646E-02
 cg2d: Sum(rhs),rhsMax =  -3.05269143296982E-11  1.81986947980637E-02
 cg2d: Sum(rhs),rhsMax =  -3.06884517797812E-11  1.81317791076951E-02
 cg2d: Sum(rhs),rhsMax =  -3.08826297867881E-11  1.80571221847919E-02
 cg2d: Sum(rhs),rhsMax =  -3.11287662313475E-11  1.79747616419569E-02
 cg2d: Sum(rhs),rhsMax =  -3.13477022118036E-11  1.78847386337001E-02
 cg2d: Sum(rhs),rhsMax =  -3.16217052542811E-11  1.77870978419668E-02
 cg2d: Sum(rhs),rhsMax =  -3.19329007680835E-11  1.76818874624442E-02
 cg2d: Sum(rhs),rhsMax =  -3.21710436068656E-11  1.75691591922375E-02
 cg2d: Sum(rhs),rhsMax =  -3.23973070592842E-11  1.74489682006677E-02
 cg2d: Sum(rhs),rhsMax =  -3.26801918859587E-11  1.73213730947056E-02
 cg2d: Sum(rhs),rhsMax =  -3.29585247982322E-11  1.71864358887713E-02
 cg2d: Sum(rhs),rhsMax =  -3.32982530437675E-11  1.70442219704580E-02
 cg2d: Sum(rhs),rhsMax =  -3.36461969396851E-11  1.68948000209130E-02
 cg2d: Sum(rhs),rhsMax =  -3.40096839579473E-11  1.67382422044693E-02
 cg2d: Sum(rhs),rhsMax =  -3.44275719044163E-11  1.65746238189273E-02
 cg2d: Sum(rhs),rhsMax =  -3.48382434012251E-11  1.64040229732425E-02
 cg2d: Sum(rhs),rhsMax =  -3.52970985773027E-11  1.62265205885363E-02
 cg2d: Sum(rhs),rhsMax =  -3.58023610758096E-11  1.60422005441151E-02
 cg2d: Sum(rhs),rhsMax =  -3.62909702289471E-11  1.58511497693195E-02
 cg2d: Sum(rhs),rhsMax =  -3.68317598642420E-11  1.56534580513572E-02
 cg2d: Sum(rhs),rhsMax =  -3.74340558551012E-11  1.54492181475043E-02
 cg2d: Sum(rhs),rhsMax =  -3.80151465861900E-11  1.52385257174526E-02
 cg2d: Sum(rhs),rhsMax =  -3.86677356800647E-11  1.50214791805798E-02
 cg2d: Sum(rhs),rhsMax =  -3.93400867437776E-11  1.47981796206287E-02
 cg2d: Sum(rhs),rhsMax =  -4.00800503896903E-11  1.45687318538696E-02
 cg2d: Sum(rhs),rhsMax =  -4.07907041477529E-11  1.43332396221428E-02
 cg2d: Sum(rhs),rhsMax =  -4.15840695211500E-11  1.40918091270132E-02
 cg2d: Sum(rhs),rhsMax =  -4.23658885750910E-11  1.38470810428512E-02
 cg2d: Sum(rhs),rhsMax =  -4.31960023306033E-11  1.35967851177908E-02
 cg2d: Sum(rhs),rhsMax =  -4.40699698955882E-11  1.33406143659514E-02
 cg2d: Sum(rhs),rhsMax =  -4.50530723838938E-11  1.30786913399264E-02
 cg2d: Sum(rhs),rhsMax =  -4.60654847600495E-11  1.28111411411434E-02
 cg2d: Sum(rhs),rhsMax =  -4.71241934363320E-11  1.25380914752139E-02
 cg2d: Sum(rhs),rhsMax =  -4.82763273801368E-11  1.22596725993736E-02
 cg2d: Sum(rhs),rhsMax =  -4.94833618525092E-11  1.19760172146451E-02
 cg2d: Sum(rhs),rhsMax =  -5.08137421029176E-11  1.16872603461823E-02
 cg2d: Sum(rhs),rhsMax =  -5.22046295081680E-11  1.13935391557713E-02
 cg2d: Sum(rhs),rhsMax =  -5.37121458421552E-11  1.10949928804833E-02
 cg2d: Sum(rhs),rhsMax =  -5.51923506897367E-11  1.08204987128227E-02
 cg2d: Sum(rhs),rhsMax =  -5.67386693184346E-11  1.05436804432971E-02
 cg2d: Sum(rhs),rhsMax =  -5.84101655931590E-11  1.02627387406563E-02
 cg2d: Sum(rhs),rhsMax =  -6.01944605271854E-11  9.97779806377314E-03
 cg2d: Sum(rhs),rhsMax =  -6.20815621132920E-11  9.68898441888540E-03
 cg2d: Sum(rhs),rhsMax =  -6.41111330690336E-11  9.39642440287188E-03
 cg2d: Sum(rhs),rhsMax =  -6.63503141318245E-11  9.10024539952728E-03
 cg2d: Sum(rhs),rhsMax =  -6.87331025428506E-11  8.80057622980626E-03
 cg2d: Sum(rhs),rhsMax =  -7.12930270374557E-11  8.49754734774410E-03
 cg2d: Sum(rhs),rhsMax =  -7.41007810667327E-11  8.19128907807351E-03
 cg2d: Sum(rhs),rhsMax =  -7.71514727104794E-11  7.88193281648318E-03
 cg2d: Sum(rhs),rhsMax =  -8.03895179590786E-11  7.56961197286782E-03
 cg2d: Sum(rhs),rhsMax =  -8.39361774529479E-11  7.25446173485226E-03
 cg2d: Sum(rhs),rhsMax =  -8.78794814695993E-11  6.93661865319549E-03
 cg2d: Sum(rhs),rhsMax =  -9.22187881613468E-11  6.61622046413639E-03
 cg2d: Sum(rhs),rhsMax =  -9.70445390713337E-11  6.29341345530237E-03
 cg2d: Sum(rhs),rhsMax =  -1.02408970192869E-10  5.96834696615312E-03
 cg2d: Sum(rhs),rhsMax =  -9.91380866288694E-11  6.16961221460517E-03
 cg2d: Sum(rhs),rhsMax =  -9.23330301105807E-11  6.63044540793366E-03
 cg2d: Sum(rhs),rhsMax =  -8.63357163538581E-11  7.09736389660005E-03
 cg2d: Sum(rhs),rhsMax =  -8.09171618598725E-11  7.57975536519943E-03
 cg2d: Sum(rhs),rhsMax =  -7.60008722622274E-11  8.07699181819255E-03
 cg2d: Sum(rhs),rhsMax =  -7.14005521373906E-11  8.60409985358584E-03
 cg2d: Sum(rhs),rhsMax =  -6.73125999384183E-11  9.13289584251566E-03
 cg2d: Sum(rhs),rhsMax =  -6.37478958509519E-11  9.66314317305615E-03
 cg2d: Sum(rhs),rhsMax =  -6.05427930011615E-11  1.01946050815004E-02
 cg2d: Sum(rhs),rhsMax =  -5.76463321522169E-11  1.07270447765626E-02
 cg2d: Sum(rhs),rhsMax =  -5.50198775428612E-11  1.12602255559671E-02
 cg2d: Sum(rhs),rhsMax =  -5.26363397312934E-11  1.17939109162364E-02
 cg2d: Sum(rhs),rhsMax =  -5.04549735325099E-11  1.23278646566090E-02
 cg2d: Sum(rhs),rhsMax =  -4.84525752852960E-11  1.28618509780118E-02
 cg2d: Sum(rhs),rhsMax =  -4.66143790234241E-11  1.33956345779531E-02
 cg2d: Sum(rhs),rhsMax =  -4.49182913087043E-11  1.39289807421439E-02
 cg2d: Sum(rhs),rhsMax =  -4.33476587957671E-11  1.44616554336308E-02
 cg2d: Sum(rhs),rhsMax =  -4.18880485852924E-11  1.49934253801969E-02
 cg2d: Sum(rhs),rhsMax =  -4.05390165880704E-11  1.55240581607470E-02
 cg2d: Sum(rhs),rhsMax =  -3.92624821543563E-11  1.60533222912929E-02
 cg2d: Sum(rhs),rhsMax =  -3.80833142799020E-11  1.65809873110082E-02
 cg2d: Sum(rhs),rhsMax =  -3.69740904559990E-11  1.71068238686680E-02
 cg2d: Sum(rhs),rhsMax =  -3.59476892697330E-11  1.76306038095928E-02
 cg2d: Sum(rhs),rhsMax =  -3.49957840484194E-11  1.81521002635612E-02
 cg2d: Sum(rhs),rhsMax =  -3.40720784919313E-11  1.86710877338923E-02
 cg2d: Sum(rhs),rhsMax =  -3.32039951089769E-11  1.91873421879743E-02
 cg2d: Sum(rhs),rhsMax =  -3.24038573751295E-11  1.97006411497170E-02
 cg2d: Sum(rhs),rhsMax =  -3.16329185068298E-11  2.02107637942254E-02
 cg2d: Sum(rhs),rhsMax =  -3.09130498976629E-11  2.07174910445485E-02
 cg2d: Sum(rhs),rhsMax =  -3.02438074584188E-11  2.12206056697572E-02
 cg2d: Sum(rhs),rhsMax =  -2.95742319522674E-11  2.17198923830188E-02
 cg2d: Sum(rhs),rhsMax =  -2.90325541385528E-11  2.22151379379959E-02
 cg2d: Sum(rhs),rhsMax =  -2.85044210457386E-11  2.27061312219729E-02
 cg2d: Sum(rhs),rhsMax =  -2.80047096623548E-11  2.31926633446668E-02
 cg2d: Sum(rhs),rhsMax =  -2.75398592819442E-11  2.36745277225902E-02
 cg2d: Sum(rhs),rhsMax =  -2.70929945145326E-11  2.41515201598216E-02
 cg2d: Sum(rhs),rhsMax =  -2.66577870888796E-11  2.46234389267657E-02
 cg2d: Sum(rhs),rhsMax =  -2.62319055366333E-11  2.50900848388416E-02
 cg2d: Sum(rhs),rhsMax =  -2.58624233140381E-11  2.55512613364249E-02
 cg2d: Sum(rhs),rhsMax =  -2.54790633036350E-11  2.60067745654161E-02
 cg2d: Sum(rhs),rhsMax =  -2.51334508760692E-11  2.64564334592681E-02
 cg2d: Sum(rhs),rhsMax =  -2.47951659204659E-11  2.69000498209956E-02
 cg2d: Sum(rhs),rhsMax =  -2.44788633807502E-11  2.73374384033829E-02
 cg2d: Sum(rhs),rhsMax =  -2.41603403949853E-11  2.77684169859705E-02
 cg2d: Sum(rhs),rhsMax =  -2.38633557358980E-11  2.81928064482528E-02
 cg2d: Sum(rhs),rhsMax =  -2.36021202582037E-11  2.86104308395349E-02
 cg2d: Sum(rhs),rhsMax =  -2.32915908782161E-11  2.90211174466990E-02
 cg2d: Sum(rhs),rhsMax =  -2.30707675186181E-11  2.94246968614548E-02
 cg2d: Sum(rhs),rhsMax =  -2.28272956093178E-11  2.98210030483899E-02
 cg2d: Sum(rhs),rhsMax =  -2.25889307259308E-11  3.02098734143883E-02
 cg2d: Sum(rhs),rhsMax =  -2.23702167900797E-11  3.05911488790044E-02
 cg2d: Sum(rhs),rhsMax =  -2.21350715534641E-11  3.09646739438569E-02
 cg2d: Sum(rhs),rhsMax =  -2.19336770967971E-11  3.13302967612395E-02
 cg2d: Sum(rhs),rhsMax =  -2.17627027510048E-11  3.16878691992196E-02
 cg2d: Sum(rhs),rhsMax =  -2.15765183497751E-11  3.20372468998643E-02
 cg2d: Sum(rhs),rhsMax =  -2.14002149334647E-11  3.23782893354254E-02
 cg2d: Sum(rhs),rhsMax =  -2.12306838776044E-11  3.27108598579880E-02
 cg2d: Sum(rhs),rhsMax =  -2.10560457958309E-11  3.30348257464506E-02
 cg2d: Sum(rhs),rhsMax =  -2.08910666543716E-11  3.33500582519116E-02
 cg2d: Sum(rhs),rhsMax =  -2.07345252078994E-11  3.36564326419684E-02
 cg2d: Sum(rhs),rhsMax =  -2.06332728680536E-11  3.39538282436239E-02
 cg2d: Sum(rhs),rhsMax =  -2.04756211985568E-11  3.42421284838150E-02
 cg2d: Sum(rhs),rhsMax =  -2.04257721847512E-11  3.45212209260727E-02
 cg2d: Sum(rhs),rhsMax =  -2.03383976327132E-11  3.47909973026709E-02
 cg2d: Sum(rhs),rhsMax =  -2.03057570757892E-11  3.50513535411813E-02
 cg2d: Sum(rhs),rhsMax =  -2.02678984706495E-11  3.53021897854575E-02
 cg2d: Sum(rhs),rhsMax =  -2.02216021705226E-11  3.55434104118621E-02
 cg2d: Sum(rhs),rhsMax =  -2.01697547552726E-11  3.57749240420898E-02
 cg2d: Sum(rhs),rhsMax =  -2.00971461694621E-11  3.59966435540063E-02
 cg2d: Sum(rhs),rhsMax =  -2.00591765420199E-11  3.62084860915004E-02
 cg2d: Sum(rhs),rhsMax =  -2.00338634570585E-11  3.64103730734742E-02
 cg2d: Sum(rhs),rhsMax =  -1.99879002238390E-11  3.66022302017130E-02
 cg2d: Sum(rhs),rhsMax =  -1.99744665252410E-11  3.67839874674595E-02
 cg2d: Sum(rhs),rhsMax =  -1.99257277344600E-11  3.69555791569604E-02
 cg2d: Sum(rhs),rhsMax =  -1.99098515452079E-11  3.71169438585151E-02
 cg2d: Sum(rhs),rhsMax =  -1.98544514162791E-11  3.72680244726689E-02
 cg2d: Sum(rhs),rhsMax =  -1.99176231063802E-11  3.74087682273936E-02
 cg2d: Sum(rhs),rhsMax =  -1.99577021575692E-11  3.75391266990945E-02
 cg2d: Sum(rhs),rhsMax =  -2.00031102792764E-11  3.76590558380005E-02
 cg2d: Sum(rhs),rhsMax =  -2.00606198319520E-11  3.77685159944513E-02
 cg2d: Sum(rhs),rhsMax =  -2.00492955571008E-11  3.78674719417193E-02
 cg2d: Sum(rhs),rhsMax =  -2.01115790687822E-11  3.79558928915832E-02
 cg2d: Sum(rhs),rhsMax =  -2.01150207601586E-11  3.80337525006245E-02
 cg2d: Sum(rhs),rhsMax =  -2.01771932495376E-11  3.81010288673592E-02
 cg2d: Sum(rhs),rhsMax =  -2.02167171892143E-11  3.81577045220477E-02
 cg2d: Sum(rhs),rhsMax =  -2.02378114266821E-11  3.82037664118311E-02
 cg2d: Sum(rhs),rhsMax =  -2.02363681367501E-11  3.82392058836561E-02
 cg2d: Sum(rhs),rhsMax =  -2.02252659065039E-11  3.82640186665993E-02
 cg2d: Sum(rhs),rhsMax =  -2.01414440681447E-11  3.82782048536520E-02
 cg2d: Sum(rhs),rhsMax =  -2.01293426371763E-11  3.82817688827248E-02
 cg2d: Sum(rhs),rhsMax =  -2.00999217270237E-11  3.82747195157944E-02
 cg2d: Sum(rhs),rhsMax =  -2.00693905938465E-11  3.82570698151557E-02
 cg2d: Sum(rhs),rhsMax =  -1.99926741828449E-11  3.82288371169222E-02
 cg2d: Sum(rhs),rhsMax =  -1.99074090545537E-11  3.81900430020372E-02
 cg2d: Sum(rhs),rhsMax =  -1.98977501142394E-11  3.81407132666304E-02
 cg2d: Sum(rhs),rhsMax =  -1.98796534789381E-11  3.80808778938157E-02
 cg2d: Sum(rhs),rhsMax =  -2.00293115426575E-11  3.80105710289004E-02
 cg2d: Sum(rhs),rhsMax =  -1.99587013582914E-11  3.79298309592212E-02
 cg2d: Sum(rhs),rhsMax =  -1.98945304674680E-11  3.78387000986034E-02
 cg2d: Sum(rhs),rhsMax =  -1.98258076622437E-11  3.77372249751553E-02
 cg2d: Sum(rhs),rhsMax =  -1.97569738347170E-11  3.76254562201921E-02
 cg2d: Sum(rhs),rhsMax =  -1.97802885182341E-11  3.75034485557330E-02
 cg2d: Sum(rhs),rhsMax =  -1.98195904133058E-11  3.73712607783557E-02
 cg2d: Sum(rhs),rhsMax =  -1.98295824205275E-11  3.72289557381607E-02
 cg2d: Sum(rhs),rhsMax =  -1.98662197803401E-11  3.70766003129734E-02
 cg2d: Sum(rhs),rhsMax =  -1.99087413221832E-11  3.69142653794367E-02
 cg2d: Sum(rhs),rhsMax =  -1.99437133474589E-11  3.67420257814523E-02
 cg2d: Sum(rhs),rhsMax =  -1.99621430496677E-11  3.65599602997325E-02
 cg2d: Sum(rhs),rhsMax =  -1.99891214691661E-11  3.63681516240929E-02
 cg2d: Sum(rhs),rhsMax =  -2.00405247952062E-11  3.61666863291119E-02
 cg2d: Sum(rhs),rhsMax =  -2.00695016161490E-11  3.59556548527079E-02
 cg2d: Sum(rhs),rhsMax =  -2.01157979162758E-11  3.57351514763181E-02
 cg2d: Sum(rhs),rhsMax =  -2.01545446998352E-11  3.55052743048860E-02
 cg2d: Sum(rhs),rhsMax =  -2.02009520222646E-11  3.52661252447807E-02
 cg2d: Sum(rhs),rhsMax =  -2.02473593446939E-11  3.50178099780190E-02
 cg2d: Sum(rhs),rhsMax =  -2.02915462210740E-11  3.47604379316153E-02
 cg2d: Sum(rhs),rhsMax =  -2.03433936363240E-11  3.44941222414010E-02
 cg2d: Sum(rhs),rhsMax =  -2.04959382799075E-11  3.42189797101408E-02
 cg2d: Sum(rhs),rhsMax =  -2.06129557867030E-11  3.39351307601461E-02
 cg2d: Sum(rhs),rhsMax =  -2.07424077913743E-11  3.36426993808384E-02
 cg2d: Sum(rhs),rhsMax =  -2.09078310220434E-11  3.33418130718416E-02
 cg2d: Sum(rhs),rhsMax =  -2.10664818922623E-11  3.30326027822348E-02
 cg2d: Sum(rhs),rhsMax =  -2.12165840451917E-11  3.27152028466240E-02
 cg2d: Sum(rhs),rhsMax =  -2.13687956218678E-11  3.23897509187133E-02
 cg2d: Sum(rhs),rhsMax =  -2.15457651719930E-11  3.20563879030925E-02
 cg2d: Sum(rhs),rhsMax =  -2.17349471753892E-11  3.17152578859864E-02
 cg2d: Sum(rhs),rhsMax =  -2.19247953126001E-11  3.13665080657494E-02
 cg2d: Sum(rhs),rhsMax =  -2.21263007915695E-11  3.10102886839336E-02
 cg2d: Sum(rhs),rhsMax =  -2.23109308805647E-11  3.06467529577881E-02
 cg2d: Sum(rhs),rhsMax =  -2.25268692588543E-11  3.02760570149731E-02
 cg2d: Sum(rhs),rhsMax =  -2.27501351091064E-11  2.98983598311211E-02
 cg2d: Sum(rhs),rhsMax =  -2.29870567025614E-11  2.95138231699903E-02
 cg2d: Sum(rhs),rhsMax =  -2.32286412327198E-11  2.91226115257133E-02
 cg2d: Sum(rhs),rhsMax =  -2.34721131420201E-11  2.87248920660548E-02
 cg2d: Sum(rhs),rhsMax =  -2.37493358312690E-11  2.83208345752107E-02
 cg2d: Sum(rhs),rhsMax =  -2.40318875910361E-11  2.79106113937784E-02
 cg2d: Sum(rhs),rhsMax =  -2.43216558004633E-11  2.74943973571001E-02
 cg2d: Sum(rhs),rhsMax =  -2.46129783221249E-11  2.70723697313969E-02
 cg2d: Sum(rhs),rhsMax =  -2.49360532222909E-11  2.66447081466639E-02
 cg2d: Sum(rhs),rhsMax =  -2.52650123044873E-11  2.62115945275635E-02
 cg2d: Sum(rhs),rhsMax =  -2.56217269622994E-11  2.57732130237446E-02
 cg2d: Sum(rhs),rhsMax =  -2.59845478467469E-11  2.53297499411905E-02
 cg2d: Sum(rhs),rhsMax =  -2.63457033966574E-11  2.48813936746142E-02
 cg2d: Sum(rhs),rhsMax =  -2.67589284064229E-11  2.44283346405772E-02
 cg2d: Sum(rhs),rhsMax =  -2.71721534161884E-11  2.39707652126614E-02
 cg2d: Sum(rhs),rhsMax =  -2.76113576447301E-11  2.35088796581233E-02
 cg2d: Sum(rhs),rhsMax =  -2.80769851812579E-11  2.30428740753317E-02
 cg2d: Sum(rhs),rhsMax =  -2.85622636653216E-11  2.25729463312920E-02
 cg2d: Sum(rhs),rhsMax =  -2.90424351234719E-11  2.20992959986000E-02
 cg2d: Sum(rhs),rhsMax =  -2.96024316170929E-11  2.16221242911852E-02
 cg2d: Sum(rhs),rhsMax =  -3.01699776272812E-11  2.11416339996280E-02
 cg2d: Sum(rhs),rhsMax =  -3.08153502714958E-11  2.06580294217758E-02
 cg2d: Sum(rhs),rhsMax =  -3.15015791230167E-11  2.01715162904518E-02
 cg2d: Sum(rhs),rhsMax =  -3.22351034753865E-11  1.96823016990695E-02
 cg2d: Sum(rhs),rhsMax =  -3.29978266933040E-11  1.91905940249550E-02
 cg2d: Sum(rhs),rhsMax =  -3.38197247984340E-11  1.86966028502869E-02
 cg2d: Sum(rhs),rhsMax =  -3.46778161741668E-11  1.82005388806219E-02
 cg2d: Sum(rhs),rhsMax =  -3.55837581622609E-11  1.77026138609278E-02
 cg2d: Sum(rhs),rhsMax =  -3.65543151303882E-11  1.72030404889658E-02
 cg2d: Sum(rhs),rhsMax =  -3.75907083238758E-11  1.67020323259152E-02
 cg2d: Sum(rhs),rhsMax =  -3.86888299175325E-11  1.61998037044766E-02
 cg2d: Sum(rhs),rhsMax =  -3.98571176063456E-11  1.56965696352514E-02
 cg2d: Sum(rhs),rhsMax =  -4.11081169104932E-11  1.51925457127548E-02
 cg2d: Sum(rhs),rhsMax =  -4.24476009897035E-11  1.46879480226715E-02
 cg2d: Sum(rhs),rhsMax =  -4.38710179295754E-11  1.41829930517233E-02
 cg2d: Sum(rhs),rhsMax =  -4.53985737891571E-11  1.36778976008830E-02
 cg2d: Sum(rhs),rhsMax =  -4.70498084936821E-11  1.31728787019060E-02
 cg2d: Sum(rhs),rhsMax =  -4.88358242733966E-11  1.26681535365815E-02
 cg2d: Sum(rhs),rhsMax =  -5.07714981168306E-11  1.21639393579175E-02
 cg2d: Sum(rhs),rhsMax =  -5.28661558973909E-11  1.16604534126120E-02
 cg2d: Sum(rhs),rhsMax =  -5.51538814619335E-11  1.11579128644058E-02
 cg2d: Sum(rhs),rhsMax =  -5.76506620220130E-11  1.06565347179821E-02
 cg2d: Sum(rhs),rhsMax =  -6.03721517222766E-11  1.01565357428383E-02
 cg2d: Sum(rhs),rhsMax =  -6.33876839906122E-11  9.65813239604552E-03
 cg2d: Sum(rhs),rhsMax =  -6.67111366148276E-11  9.16154074223717E-03
 cg2d: Sum(rhs),rhsMax =  -7.03889724285034E-11  8.66697636891845E-03
 cg2d: Sum(rhs),rhsMax =  -7.44950212627771E-11  8.17465429479297E-03
 cg2d: Sum(rhs),rhsMax =  -7.90980059228730E-11  7.68478886994158E-03
 cg2d: Sum(rhs),rhsMax =  -8.43443093145879E-11  7.19759366725040E-03
 cg2d: Sum(rhs),rhsMax =  -8.46900327644562E-11  7.16315640174113E-03
 cg2d: Sum(rhs),rhsMax =  -8.11359868180261E-11  7.47153163021612E-03
 cg2d: Sum(rhs),rhsMax =  -7.79167563802474E-11  7.77706528897639E-03
 cg2d: Sum(rhs),rhsMax =  -7.48502926306571E-11  8.07962746120993E-03
 cg2d: Sum(rhs),rhsMax =  -7.20524612196627E-11  8.37908859969189E-03
 cg2d: Sum(rhs),rhsMax =  -6.94632823483587E-11  8.67532049833137E-03
 cg2d: Sum(rhs),rhsMax =  -6.70951037784473E-11  8.96819688754712E-03
 cg2d: Sum(rhs),rhsMax =  -6.48599507435677E-11  9.25759344868319E-03
 cg2d: Sum(rhs),rhsMax =  -6.27818491638621E-11  9.54338761619651E-03
 cg2d: Sum(rhs),rhsMax =  -6.08867123386148E-11  9.82545975482123E-03
 cg2d: Sum(rhs),rhsMax =  -5.90693327584546E-11  1.01036915279807E-02
 cg2d: Sum(rhs),rhsMax =  -5.76141634400784E-11  1.03779659393886E-02
 cg2d: Sum(rhs),rhsMax =  -5.60890223155752E-11  1.06481671352312E-02
 cg2d: Sum(rhs),rhsMax =  -5.46476752738556E-11  1.09141810660933E-02
 cg2d: Sum(rhs),rhsMax =  -5.32545674225560E-11  1.11758963546623E-02
 cg2d: Sum(rhs),rhsMax =  -5.19969067802606E-11  1.14332041415767E-02
 cg2d: Sum(rhs),rhsMax =  -5.08278419353303E-11  1.16859973487377E-02
 cg2d: Sum(rhs),rhsMax =  -4.96512275738326E-11  1.19451784139392E-02
 cg2d: Sum(rhs),rhsMax =  -4.83664219785851E-11  1.22472470916797E-02
 cg2d: Sum(rhs),rhsMax =  -4.71551686587190E-11  1.25476160209095E-02
 cg2d: Sum(rhs),rhsMax =  -4.60079196962226E-11  1.28424319225266E-02
 cg2d: Sum(rhs),rhsMax =  -4.49228987342565E-11  1.31315709882690E-02
 cg2d: Sum(rhs),rhsMax =  -4.39079883562954E-11  1.34149118823409E-02
 cg2d: Sum(rhs),rhsMax =  -4.29897784037792E-11  1.36923357988921E-02
 cg2d: Sum(rhs),rhsMax =  -4.21034318520697E-11  1.39637265156338E-02
 cg2d: Sum(rhs),rhsMax =  -4.12402889615748E-11  1.42289691494475E-02
 cg2d: Sum(rhs),rhsMax =  -4.04528077702082E-11  1.44879485337315E-02
 cg2d: Sum(rhs),rhsMax =  -3.97183952394187E-11  1.47405535020798E-02
 cg2d: Sum(rhs),rhsMax =  -3.89915322251966E-11  1.49866779219365E-02
 cg2d: Sum(rhs),rhsMax =  -3.82711640156685E-11  1.52262198762939E-02
 cg2d: Sum(rhs),rhsMax =  -3.76148001635102E-11  1.54590806132449E-02
 cg2d: Sum(rhs),rhsMax =  -3.69885233553191E-11  1.56851648671130E-02
 cg2d: Sum(rhs),rhsMax =  -3.63935548364225E-11  1.59043802489363E-02
 cg2d: Sum(rhs),rhsMax =  -3.58292284730055E-11  1.61166369149580E-02
 cg2d: Sum(rhs),rhsMax =  -3.53436169220345E-11  1.63218505638868E-02
 cg2d: Sum(rhs),rhsMax =  -3.48238105019050E-11  1.65199382667781E-02
 cg2d: Sum(rhs),rhsMax =  -3.43829409388263E-11  1.67108181207625E-02
 cg2d: Sum(rhs),rhsMax =  -3.39351879929950E-11  1.68944106998423E-02
 cg2d: Sum(rhs),rhsMax =  -3.35186323141556E-11  1.70706403023391E-02
 cg2d: Sum(rhs),rhsMax =  -3.31012994791990E-11  1.72394352968268E-02
 cg2d: Sum(rhs),rhsMax =  -3.27433635760599E-11  1.74007276274267E-02
 cg2d: Sum(rhs),rhsMax =  -3.24141824492585E-11  1.75544525244300E-02
 cg2d: Sum(rhs),rhsMax =  -3.20719006907666E-11  1.77005509035674E-02
 cg2d: Sum(rhs),rhsMax =  -3.17852411058084E-11  1.78389704886724E-02
 cg2d: Sum(rhs),rhsMax =  -3.15512060922174E-11  1.79696604748621E-02
 cg2d: Sum(rhs),rhsMax =  -3.12676551317281E-11  1.80925704855512E-02
 cg2d: Sum(rhs),rhsMax =  -3.10453884821982E-11  1.82076518410796E-02
 cg2d: Sum(rhs),rhsMax =  -3.08214564981313E-11  1.83148590328766E-02
 cg2d: Sum(rhs),rhsMax =  -3.06088487889156E-11  1.84141504714373E-02
 cg2d: Sum(rhs),rhsMax =  -3.03306268989445E-11  1.85054885614393E-02
 cg2d: Sum(rhs),rhsMax =  -3.01311198214194E-11  1.85888391182196E-02
 cg2d: Sum(rhs),rhsMax =  -2.99277269633080E-11  1.86641711391211E-02
 cg2d: Sum(rhs),rhsMax =  -2.97495361678557E-11  1.87314574593465E-02
 cg2d: Sum(rhs),rhsMax =  -2.96112023789874E-11  1.87906747701910E-02
 cg2d: Sum(rhs),rhsMax =  -2.94549939994226E-11  1.88418035570932E-02
 cg2d: Sum(rhs),rhsMax =  -2.93469692991266E-11  1.88848281028998E-02
 cg2d: Sum(rhs),rhsMax =  -2.92481594499350E-11  1.89197363769254E-02
 cg2d: Sum(rhs),rhsMax =  -2.91092705495544E-11  1.89465199513676E-02
 cg2d: Sum(rhs),rhsMax =  -2.90431012572867E-11  1.89651739901644E-02
 cg2d: Sum(rhs),rhsMax =  -2.89693824484516E-11  1.89756972819956E-02
 cg2d: Sum(rhs),rhsMax =  -2.89128720964982E-11  1.89780922742051E-02
 cg2d: Sum(rhs),rhsMax =  -2.88754575805683E-11  1.89723650849077E-02
 cg2d: Sum(rhs),rhsMax =  -2.88715717999821E-11  1.89585254590858E-02
 cg2d: Sum(rhs),rhsMax =  -2.89765988981117E-11  1.89365862290533E-02
 cg2d: Sum(rhs),rhsMax =  -2.90992785423327E-11  1.89065640530995E-02
 cg2d: Sum(rhs),rhsMax =  -2.92519342082187E-11  1.88684794272741E-02
 cg2d: Sum(rhs),rhsMax =  -2.94571034231694E-11  1.88223561939798E-02
 cg2d: Sum(rhs),rhsMax =  -2.96431768020966E-11  1.87682221475335E-02
 cg2d: Sum(rhs),rhsMax =  -2.97797342341255E-11  1.87061089282666E-02
 cg2d: Sum(rhs),rhsMax =  -2.99873459397304E-11  1.86360517206457E-02
 cg2d: Sum(rhs),rhsMax =  -3.01680902481394E-11  1.85580890894034E-02
 cg2d: Sum(rhs),rhsMax =  -3.03893576969472E-11  1.84722631942927E-02
 cg2d: Sum(rhs),rhsMax =  -3.06165093277855E-11  1.83786200593178E-02
 cg2d: Sum(rhs),rhsMax =  -3.08530978543331E-11  1.82772091815744E-02
 cg2d: Sum(rhs),rhsMax =  -3.11661807472774E-11  1.81680833221702E-02
 cg2d: Sum(rhs),rhsMax =  -3.14496206854642E-11  1.80512985279367E-02
 cg2d: Sum(rhs),rhsMax =  -3.17107451408560E-11  1.79269141524580E-02
 cg2d: Sum(rhs),rhsMax =  -3.20141690934861E-11  1.77949929723925E-02
 cg2d: Sum(rhs),rhsMax =  -3.23061577489625E-11  1.76556013288382E-02
 cg2d: Sum(rhs),rhsMax =  -3.26354498980663E-11  1.75088083589690E-02
 cg2d: Sum(rhs),rhsMax =  -3.29689608946637E-11  1.73546864527993E-02
 cg2d: Sum(rhs),rhsMax =  -3.33336691582531E-11  1.71933115121661E-02
 cg2d: Sum(rhs),rhsMax =  -3.37312400233714E-11  1.70366877128118E-02
 cg2d: Sum(rhs),rhsMax =  -3.41150441229843E-11  1.68747981425018E-02
 cg2d: Sum(rhs),rhsMax =  -3.45158346348740E-11  1.67056345017832E-02
 cg2d: Sum(rhs),rhsMax =  -3.49471562799408E-11  1.65292934425811E-02
 cg2d: Sum(rhs),rhsMax =  -3.54278828496035E-11  1.63458718262856E-02
 cg2d: Sum(rhs),rhsMax =  -3.59510199388069E-11  1.61554663491939E-02
 cg2d: Sum(rhs),rhsMax =  -3.64521746121227E-11  1.59581751911091E-02
 cg2d: Sum(rhs),rhsMax =  -3.70223851575702E-11  1.57540995107765E-02
 cg2d: Sum(rhs),rhsMax =  -3.76140230073929E-11  1.55433439589842E-02
 cg2d: Sum(rhs),rhsMax =  -3.82214260241653E-11  1.53260165686811E-02
 cg2d: Sum(rhs),rhsMax =  -3.89217547080989E-11  1.51022284384554E-02
 cg2d: Sum(rhs),rhsMax =  -3.96090937826443E-11  1.48720934458357E-02
 cg2d: Sum(rhs),rhsMax =  -4.03696520656638E-11  1.46357286239210E-02
 cg2d: Sum(rhs),rhsMax =  -4.11638501063294E-11  1.43932543054612E-02
 cg2d: Sum(rhs),rhsMax =  -4.19392298667276E-11  1.41447925908407E-02
 cg2d: Sum(rhs),rhsMax =  -4.27591295704133E-11  1.38904672411087E-02
 cg2d: Sum(rhs),rhsMax =  -4.36471969678109E-11  1.36304040978735E-02
 cg2d: Sum(rhs),rhsMax =  -4.45798398196473E-11  1.33647315683552E-02
 cg2d: Sum(rhs),rhsMax =  -4.55402937582505E-11  1.30935806695012E-02
 cg2d: Sum(rhs),rhsMax =  -4.65926741632927E-11  1.28170849006785E-02
 cg2d: Sum(rhs),rhsMax =  -4.77320960534655E-11  1.25353800008208E-02
 cg2d: Sum(rhs),rhsMax =  -4.89224216693174E-11  1.22486038199092E-02
 cg2d: Sum(rhs),rhsMax =  -5.01930164098496E-11  1.19568988617818E-02
 cg2d: Sum(rhs),rhsMax =  -5.15447129423308E-11  1.16604107407553E-02
 cg2d: Sum(rhs),rhsMax =  -5.29977173258089E-11  1.13592852017428E-02
 cg2d: Sum(rhs),rhsMax =  -5.45175016242183E-11  1.10536678802146E-02
 cg2d: Sum(rhs),rhsMax =  -5.62060953335219E-11  1.07437052634600E-02
 cg2d: Sum(rhs),rhsMax =  -5.79822301283173E-11  1.04295455521077E-02
 cg2d: Sum(rhs),rhsMax =  -5.98986693578496E-11  1.01113389632333E-02
 cg2d: Sum(rhs),rhsMax =  -6.19857498662668E-11  9.78923764877819E-03
 cg2d: Sum(rhs),rhsMax =  -6.42036840359239E-11  9.46339562862066E-03
 cg2d: Sum(rhs),rhsMax =  -6.66532662396691E-11  9.13396825801294E-03
 cg2d: Sum(rhs),rhsMax =  -6.92606180741073E-11  8.80111199993562E-03
(PID.TID 0000.0001)      cg2d_init_res =   2.64896455152890E-01
(PID.TID 0000.0001)      cg2d_iters(min,last) =      -1      38
(PID.TID 0000.0001)      cg2d_last_res =   8.30848832753365E-14
(PID.TID 0000.0001) // =======================================================
(PID.TID 0000.0001) // Begin MONITOR dynamic field statistics
(PID.TID 0000.0001) // =======================================================
(PID.TID 0000.0001) %MON time_tsnumber                =                  4800
(PID.TID 0000.0001) %MON time_secondsf                =   7.2000000000000E+04
(PID.TID 0000.0001) %MON dynstat_eta_max              =   1.8722559853379E-03
(PID.TID 0000.0001) %MON dynstat_eta_min              =  -1.7804377840513E-03
(PID.TID 0000.0001) %MON dynstat_eta_mean             =   1.3083434773499E-15
(PID.TID 0000.0001) %MON dynstat_eta_sd               =   1.1187569718402E-03
(PID.TID 0000.0001) %MON dynstat_eta_del2             =   5.2929865044175E-06
(PID.TID 0000.0001) %MON dynstat_uvel_max             =   3.2102904163651E-01
(PID.TID 0000.0001) %MON dynstat_uvel_min             =  -5.9430068196526E-02
(PID.TID 0000.0001) %MON dynstat_uvel_mean            =   6.7589873675702E-02
(PID.TID 0000.0001) %MON dynstat_uvel_sd              =   4.0151760247816E-02
(PID.TID 0000.0001) %MON dynstat_uvel_del2            =   8.7458429902554E-05
(PID.TID 0000.0001) %MON dynstat_vvel_max             =   0.0000000000000E+00
(PID.TID 0000.0001) %MON dynstat_vvel_min             =   0.0000000000000E+00
(PID.TID 0000.0001) %MON dynstat_vvel_mean            =   0.0000000000000E+00
(PID.TID 0000.0001) %MON dynstat_vvel_sd              =   0.0000000000000E+00
(PID.TID 0000.0001) %MON dynstat_vvel_del2            =   0.0000000000000E+00
(PID.TID 0000.0001) %MON dynstat_wvel_max             =   2.1718106891523E-03
(PID.TID 0000.0001) %MON dynstat_wvel_min             =  -4.1750509053449E-03
(PID.TID 0000.0001) %MON dynstat_wvel_mean            =  -6.3707920856062E-22
(PID.TID 0000.0001) %MON dynstat_wvel_sd              =   2.3593380202024E-04
(PID.TID 0000.0001) %MON dynstat_wvel_del2            =   3.0396530705219E-06
(PID.TID 0000.0001) %MON dynstat_theta_max            =   1.5000000000014E+01
(PID.TID 0000.0001) %MON dynstat_theta_min            =   9.9999999999915E+00
(PID.TID 0000.0001) %MON dynstat_theta_mean           =   1.3318321576005E+01
(PID.TID 0000.0001) %MON dynstat_theta_sd             =   2.3145261795960E+00
(PID.TID 0000.0001) %MON dynstat_theta_del2           =   3.0932832387890E-04
(PID.TID 0000.0001) %MON dynstat_salt_max             =   3.5000000000000E+01
(PID.TID 0000.0001) %MON dynstat_salt_min             =   3.5000000000000E+01
(PID.TID 0000.0001) %MON dynstat_salt_mean            =   3.5000000000000E+01
(PID.TID 0000.0001) %MON dynstat_salt_sd              =   2.1316282072803E-14
(PID.TID 0000.0001) %MON dynstat_salt_del2            =   0.0000000000000E+00
(PID.TID 0000.0001) %MON dynstat_sst_max              =   1.5000000000000E+01
(PID.TID 0000.0001) %MON dynstat_sst_min              =   1.4999999999991E+01
(PID.TID 0000.0001) %MON dynstat_sst_mean             =   1.4999999999994E+01
(PID.TID 0000.0001) %MON dynstat_sst_sd               =   3.2368628706955E-12
(PID.TID 0000.0001) %MON dynstat_sst_del2             =   2.6962918049893E-14
(PID.TID 0000.0001) %MON dynstat_sss_max              =   3.5000000000000E+01
(PID.TID 0000.0001) %MON dynstat_sss_min              =   3.5000000000000E+01
(PID.TID 0000.0001) %MON dynstat_sss_mean             =   3.5000000000000E+01
(PID.TID 0000.0001) %MON dynstat_sss_sd               =   7.8159700933611E-14
(PID.TID 0000.0001) %MON dynstat_sss_del2             =   0.0000000000000E+00
(PID.TID 0000.0001) %MON forcing_qnet_max             =   0.0000000000000E+00
(PID.TID 0000.0001) %MON forcing_qnet_min             =   0.0000000000000E+00
(PID.TID 0000.0001) %MON forcing_qnet_mean            =   0.0000000000000E+00
(PID.TID 0000.0001) %MON forcing_qnet_sd              =   0.0000000000000E+00
(PID.TID 0000.0001) %MON forcing_qnet_del2            =   0.0000000000000E+00
(PID.TID 0000.0001) %MON forcing_qsw_max              =   0.0000000000000E+00
(PID.TID 0000.0001) %MON forcing_qsw_min              =   0.0000000000000E+00
(PID.TID 0000.0001) %MON forcing_qsw_mean             =   0.0000000000000E+00
(PID.TID 0000.0001) %MON forcing_qsw_sd               =   0.0000000000000E+00
(PID.TID 0000.0001) %MON forcing_qsw_del2             =   0.0000000000000E+00
(PID.TID 0000.0001) %MON forcing_empmr_max            =   0.0000000000000E+00
(PID.TID 0000.0001) %MON forcing_empmr_min            =   0.0000000000000E+00
(PID.TID 0000.0001) %MON forcing_empmr_mean           =   0.0000000000000E+00
(PID.TID 0000.0001) %MON forcing_empmr_sd             =   0.0000000000000E+00
(PID.TID 0000.0001) %MON forcing_empmr_del2           =   0.0000000000000E+00
(PID.TID 0000.0001) %MON forcing_fu_max               =   0.0000000000000E+00
(PID.TID 0000.0001) %MON forcing_fu_min               =   0.0000000000000E+00
(PID.TID 0000.0001) %MON forcing_fu_mean              =   0.0000000000000E+00
(PID.TID 0000.0001) %MON forcing_fu_sd                =   0.0000000000000E+00
(PID.TID 0000.0001) %MON forcing_fu_del2              =   0.0000000000000E+00
(PID.TID 0000.0001) %MON forcing_fv_max               =   0.0000000000000E+00
(PID.TID 0000.0001) %MON forcing_fv_min               =   0.0000000000000E+00
(PID.TID 0000.0001) %MON forcing_fv_mean              =   0.0000000000000E+00
(PID.TID 0000.0001) %MON forcing_fv_sd                =   0.0000000000000E+00
(PID.TID 0000.0001) %MON forcing_fv_del2              =   0.0000000000000E+00
(PID.TID 0000.0001) %MON advcfl_uvel_max              =   2.4077178122738E-02
(PID.TID 0000.0001) %MON advcfl_vvel_max              =   0.0000000000000E+00
(PID.TID 0000.0001) %MON advcfl_wvel_max              =   2.9670454105441E-02
(PID.TID 0000.0001) %MON advcfl_W_hf_max              =   2.9883466712136E-02
(PID.TID 0000.0001) %MON pe_b_mean                    =   3.1269302796513E-08
(PID.TID 0000.0001) %MON ke_max                       =   4.6226309757646E-02
(PID.TID 0000.0001) %MON ke_mean                      =   3.0985537957440E-03
(PID.TID 0000.0001) %MON ke_vol                       =   9.5889217545975E+10
(PID.TID 0000.0001) %MON vort_r_min                   =   0.0000000000000E+00
(PID.TID 0000.0001) %MON vort_r_max                   =   0.0000000000000E+00
(PID.TID 0000.0001) %MON vort_a_mean                  =   0.0000000000000E+00
(PID.TID 0000.0001) %MON vort_a_sd                    =   0.0000000000000E+00
(PID.TID 0000.0001) %MON vort_p_mean                  =   0.0000000000000E+00
(PID.TID 0000.0001) %MON vort_p_sd                    =   0.0000000000000E+00
(PID.TID 0000.0001) %MON surfExpan_theta_mean         =   2.7982814636961E-18
(PID.TID 0000.0001) %MON surfExpan_salt_mean          =  -1.4431930353879E-19
(PID.TID 0000.0001) // =======================================================
(PID.TID 0000.0001) // End MONITOR dynamic field statistics
(PID.TID 0000.0001) // =======================================================
(PID.TID 0000.0001) // =======================================================
(PID.TID 0000.0001) // Begin OBCS MONITOR field statistics
(PID.TID 0000.0001) // =======================================================
(PID.TID 0000.0001) %MON obc_E_uVel_max               =   6.6809804669674E-02
(PID.TID 0000.0001) %MON obc_E_uVel_min               =   6.6809804669674E-02
(PID.TID 0000.0001) %MON obc_E_uVel_mean              =   6.6809804669674E-02
(PID.TID 0000.0001) %MON obc_E_uVel_sd                =  -1.7347234759768E-18
(PID.TID 0000.0001) %MON obc_E_uVel_Int               =   6.6809804669674E+04
(PID.TID 0000.0001) %MON obc_W_uVel_max               =   6.6809804669674E-02
(PID.TID 0000.0001) %MON obc_W_uVel_min               =   6.6809804669674E-02
(PID.TID 0000.0001) %MON obc_W_uVel_mean              =   6.6809804669674E-02
(PID.TID 0000.0001) %MON obc_W_uVel_sd                =  -1.7347234759768E-18
(PID.TID 0000.0001) %MON obc_W_uVel_Int               =   6.6809804669674E+04
(PID.TID 0000.0001) // =======================================================
(PID.TID 0000.0001) // End OBCS MONITOR field statistics
(PID.TID 0000.0001) // =======================================================
 cg2d: Sum(rhs),rhsMax =  -7.21382718100669E-11  8.46498620260886E-03
 cg2d: Sum(rhs),rhsMax =  -7.52683193550041E-11  8.12575134588256E-03
 cg2d: Sum(rhs),rhsMax =  -7.86848919354100E-11  7.78356812226755E-03
 cg2d: Sum(rhs),rhsMax =  -8.24423029843757E-11  7.43859753546574E-03
 cg2d: Sum(rhs),rhsMax =  -8.65522653548112E-11  7.09100129348069E-03
 cg2d: Sum(rhs),rhsMax =  -9.11187236773969E-11  6.74094204378218E-03
 cg2d: Sum(rhs),rhsMax =  -9.57699475279128E-11  6.41713213356316E-03
 cg2d: Sum(rhs),rhsMax =  -8.99411656263283E-11  6.83729983520997E-03
 cg2d: Sum(rhs),rhsMax =  -8.47754644262011E-11  7.25958415047519E-03
 cg2d: Sum(rhs),rhsMax =  -7.99751376234781E-11  7.69855126729885E-03
 cg2d: Sum(rhs),rhsMax =  -7.53311302226223E-11  8.17769018764323E-03
 cg2d: Sum(rhs),rhsMax =  -7.12528369639642E-11  8.65886978188829E-03
 cg2d: Sum(rhs),rhsMax =  -6.75903777391795E-11  9.14187661712403E-03
 cg2d: Sum(rhs),rhsMax =  -6.42965680697216E-11  9.62649679257388E-03
 cg2d: Sum(rhs),rhsMax =  -6.13104012003873E-11  1.01125160472957E-02
 cg2d: Sum(rhs),rhsMax =  -5.86023451987217E-11  1.05997198669771E-02
 cg2d: Sum(rhs),rhsMax =  -5.61251045638755E-11  1.10878935898895E-02
 cg2d: Sum(rhs),rhsMax =  -5.38451505605053E-11  1.15768225119634E-02
 cg2d: Sum(rhs),rhsMax =  -5.17482723338958E-11  1.20662919896786E-02
 cg2d: Sum(rhs),rhsMax =  -4.98208141408440E-11  1.25560875426680E-02
 cg2d: Sum(rhs),rhsMax =  -4.80366857402714E-11  1.30459949531768E-02
 cg2d: Sum(rhs),rhsMax =  -4.63822313889750E-11  1.35358003614701E-02
 cg2d: Sum(rhs),rhsMax =  -4.48301396005490E-11  1.40252903569899E-02
 cg2d: Sum(rhs),rhsMax =  -4.33961755419432E-11  1.45142520655439E-02
 cg2d: Sum(rhs),rhsMax =  -4.20466994555113E-11  1.50024732331870E-02
 cg2d: Sum(rhs),rhsMax =  -4.07982536643203E-11  1.54897423077836E-02
 cg2d: Sum(rhs),rhsMax =  -3.96359611798403E-11  1.59758485194939E-02
 cg2d: Sum(rhs),rhsMax =  -3.85110832112900E-11  1.64605819614679E-02
 cg2d: Sum(rhs),rhsMax =  -3.74845710027216E-11  1.69437336716123E-02
 cg2d: Sum(rhs),rhsMax =  -3.65030228266505E-11  1.74250957152957E-02
 cg2d: Sum(rhs),rhsMax =  -3.55981910615810E-11  1.79044612675927E-02
 cg2d: Sum(rhs),rhsMax =  -3.47074591289243E-11  1.83816246928581E-02
 cg2d: Sum(rhs),rhsMax =  -3.39080985511941E-11  1.88563816197886E-02
 cg2d: Sum(rhs),rhsMax =  -3.31175087353586E-11  1.93285290118846E-02
 cg2d: Sum(rhs),rhsMax =  -3.23956417247473E-11  1.97978652357383E-02
 cg2d: Sum(rhs),rhsMax =  -3.16948689516039E-11  2.02641901316224E-02
 cg2d: Sum(rhs),rhsMax =  -3.10849124218748E-11  2.07273050912525E-02
 cg2d: Sum(rhs),rhsMax =  -3.04959391073112E-11  2.11870131458682E-02
 cg2d: Sum(rhs),rhsMax =  -2.99461566655168E-11  2.16431190644725E-02
 cg2d: Sum(rhs),rhsMax =  -2.94254620669676E-11  2.20954294584866E-02
 cg2d: Sum(rhs),rhsMax =  -2.89347434900833E-11  2.25437528866625E-02
 cg2d: Sum(rhs),rhsMax =  -2.84559042995625E-11  2.29878999537357E-02
 cg2d: Sum(rhs),rhsMax =  -2.80200307400946E-11  2.34276833979938E-02
 cg2d: Sum(rhs),rhsMax =  -2.75923728310090E-11  2.38629181658992E-02
 cg2d: Sum(rhs),rhsMax =  -2.71774824867066E-11  2.42934214749648E-02
 cg2d: Sum(rhs),rhsMax =  -2.67831312683597E-11  2.47190128682651E-02
 cg2d: Sum(rhs),rhsMax =  -2.64256394544304E-11  2.51395142647804E-02
 cg2d: Sum(rhs),rhsMax =  -2.60709231980627E-11  2.55547500093300E-02
 cg2d: Sum(rhs),rhsMax =  -2.57222021460279E-11  2.59645469246543E-02
 cg2d: Sum(rhs),rhsMax =  -2.54118948106452E-11  2.63687343668699E-02
 cg2d: Sum(rhs),rhsMax =  -2.50968135162566E-11  2.67671442845102E-02
 cg2d: Sum(rhs),rhsMax =  -2.47962761434906E-11  2.71596112808652E-02
 cg2d: Sum(rhs),rhsMax =  -2.45242715024574E-11  2.75459726792567E-02
 cg2d: Sum(rhs),rhsMax =  -2.42478259693257E-11  2.79260685907346E-02
 cg2d: Sum(rhs),rhsMax =  -2.39808173319034E-11  2.82997419839486E-02
 cg2d: Sum(rhs),rhsMax =  -2.37189157203943E-11  2.86668387593390E-02
 cg2d: Sum(rhs),rhsMax =  -2.34700037182733E-11  2.90272078254829E-02
 cg2d: Sum(rhs),rhsMax =  -2.32504016040025E-11  2.93807011758507E-02
 cg2d: Sum(rhs),rhsMax =  -2.30346852703178E-11  2.97271739683036E-02
 cg2d: Sum(rhs),rhsMax =  -2.28230767618243E-11  3.00664846058637E-02
 cg2d: Sum(rhs),rhsMax =  -2.26133556324726E-11  3.03984948152492E-02
 cg2d: Sum(rhs),rhsMax =  -2.24138485549474E-11  3.07230697194621E-02
 cg2d: Sum(rhs),rhsMax =  -2.22392104731739E-11  3.10400778989660E-02
 cg2d: Sum(rhs),rhsMax =  -2.20771179115786E-11  3.13493914400041E-02
 cg2d: Sum(rhs),rhsMax =  -2.19002593837558E-11  3.16508859699170E-02
 cg2d: Sum(rhs),rhsMax =  -2.17428297588640E-11  3.19444406827768E-02
 cg2d: Sum(rhs),rhsMax =  -2.15792939073367E-11  3.22299383595444E-02
 cg2d: Sum(rhs),rhsMax =  -2.14603890213994E-11  3.25072653876573E-02
 cg2d: Sum(rhs),rhsMax =  -2.13892237255209E-11  3.27763117829501E-02
 cg2d: Sum(rhs),rhsMax =  -2.13062900655814E-11  3.30369712136599E-02
 cg2d: Sum(rhs),rhsMax =  -2.12335704574684E-11  3.32891410236389E-02
 cg2d: Sum(rhs),rhsMax =  -2.11738404587436E-11  3.35327222506200E-02
 cg2d: Sum(rhs),rhsMax =  -2.11041184527971E-11  3.37676196370069E-02
 cg2d: Sum(rhs),rhsMax =  -2.10480521900536E-11  3.39937416337312E-02
 cg2d: Sum(rhs),rhsMax =  -2.09918749050075E-11  3.42110004004982E-02
 cg2d: Sum(rhs),rhsMax =  -2.09376960214058E-11  3.44193118075947E-02
 cg2d: Sum(rhs),rhsMax =  -2.08819628255696E-11  3.46185954443771E-02
 cg2d: Sum(rhs),rhsMax =  -2.08322248340664E-11  3.48087746377632E-02
 cg2d: Sum(rhs),rhsMax =  -2.07855954670322E-11  3.49897764813790E-02
 cg2d: Sum(rhs),rhsMax =  -2.07467376611703E-11  3.51615318734149E-02
 cg2d: Sum(rhs),rhsMax =  -2.07096562121478E-11  3.53239755602249E-02
 cg2d: Sum(rhs),rhsMax =  -2.06554773285461E-11  3.54770461816391E-02
 cg2d: Sum(rhs),rhsMax =  -2.06197281471532E-11  3.56206863146528E-02
 cg2d: Sum(rhs),rhsMax =  -2.06744621422672E-11  3.57548425131008E-02
 cg2d: Sum(rhs),rhsMax =  -2.07167616395054E-11  3.58794653417393E-02
 cg2d: Sum(rhs),rhsMax =  -2.07971417864883E-11  3.59945094038448E-02
 cg2d: Sum(rhs),rhsMax =  -2.08135730872527E-11  3.60999333621132E-02
 cg2d: Sum(rhs),rhsMax =  -2.08656425471077E-11  3.61956999533281E-02
 cg2d: Sum(rhs),rhsMax =  -2.08831840708967E-11  3.62817759979592E-02
 cg2d: Sum(rhs),rhsMax =  -2.09360306868689E-11  3.63581324064191E-02
 cg2d: Sum(rhs),rhsMax =  -2.09366968206837E-11  3.64247441836130E-02
 cg2d: Sum(rhs),rhsMax =  -2.10620410001638E-11  3.64815904326124E-02
 cg2d: Sum(rhs),rhsMax =  -2.11037853858898E-11  3.65286543570116E-02
 cg2d: Sum(rhs),rhsMax =  -2.11716200126943E-11  3.65659232603524E-02
 cg2d: Sum(rhs),rhsMax =  -2.12483364236959E-11  3.65933885406105E-02
 cg2d: Sum(rhs),rhsMax =  -2.12040385250134E-11  3.66110456784510E-02
 cg2d: Sum(rhs),rhsMax =  -2.12151407552597E-11  3.66188942196314E-02
 cg2d: Sum(rhs),rhsMax =  -2.11567430241644E-11  3.66169377538372E-02
 cg2d: Sum(rhs),rhsMax =  -2.10882422635450E-11  3.66051838934180E-02
 cg2d: Sum(rhs),rhsMax =  -2.10450545878871E-11  3.65836442557066E-02
 cg2d: Sum(rhs),rhsMax =  -2.09680051099781E-11  3.65523344507581E-02
 cg2d: Sum(rhs),rhsMax =  -2.08962847025873E-11  3.65112740743305E-02
 cg2d: Sum(rhs),rhsMax =  -2.08697503722988E-11  3.64604867040185E-02
 cg2d: Sum(rhs),rhsMax =  -2.08311146110418E-11  3.63999998954629E-02
 cg2d: Sum(rhs),rhsMax =  -2.08009165447720E-11  3.63298451761390E-02
 cg2d: Sum(rhs),rhsMax =  -2.07417416575595E-11  3.62500580356119E-02
 cg2d: Sum(rhs),rhsMax =  -2.07037720301173E-11  3.61606779127673E-02
 cg2d: Sum(rhs),rhsMax =  -2.06588079976200E-11  3.60617481814704E-02
 cg2d: Sum(rhs),rhsMax =  -2.05989669765927E-11  3.59533161357822E-02
 cg2d: Sum(rhs),rhsMax =  -2.05551131671200E-11  3.58354329744983E-02
 cg2d: Sum(rhs),rhsMax =  -2.05800931851741E-11  3.57081537831974E-02
 cg2d: Sum(rhs),rhsMax =  -2.06223926824123E-11  3.55715375110500E-02
 cg2d: Sum(rhs),rhsMax =  -2.06493711019107E-11  3.54256469402578E-02
 cg2d: Sum(rhs),rhsMax =  -2.06730188523352E-11  3.52705486481521E-02
 cg2d: Sum(rhs),rhsMax =  -2.06894501530996E-11  3.51063129632965E-02
 cg2d: Sum(rhs),rhsMax =  -2.07123207474069E-11  3.49330139182168E-02
 cg2d: Sum(rhs),rhsMax =  -2.07645012295643E-11  3.47507292015029E-02
 cg2d: Sum(rhs),rhsMax =  -2.08055794814754E-11  3.45595401129137E-02
 cg2d: Sum(rhs),rhsMax =  -2.08306705218320E-11  3.43595315229190E-02
 cg2d: Sum(rhs),rhsMax =  -2.08966177694947E-11  3.41507918369374E-02
 cg2d: Sum(rhs),rhsMax =  -2.09546824336826E-11  3.39334129637361E-02
 cg2d: Sum(rhs),rhsMax =  -2.10003125999947E-11  3.37074902870498E-02
 cg2d: Sum(rhs),rhsMax =  -2.10323980454064E-11  3.34731226392729E-02
 cg2d: Sum(rhs),rhsMax =  -2.10680362044968E-11  3.32304122759261E-02
 cg2d: Sum(rhs),rhsMax =  -2.11390904780728E-11  3.29794648494790E-02
 cg2d: Sum(rhs),rhsMax =  -2.12075912386922E-11  3.27203893811128E-02
 cg2d: Sum(rhs),rhsMax =  -2.13553619232698E-11  3.24532982293254E-02
 cg2d: Sum(rhs),rhsMax =  -2.14726014746702E-11  3.21783070550268E-02
 cg2d: Sum(rhs),rhsMax =  -2.16411333298083E-11  3.18955347836474E-02
 cg2d: Sum(rhs),rhsMax =  -2.17855733453121E-11  3.16051035651540E-02
 cg2d: Sum(rhs),rhsMax =  -2.19365636766611E-11  3.13071387322509E-02
 cg2d: Sum(rhs),rhsMax =  -2.21144214052060E-11  3.10017687556988E-02
 cg2d: Sum(rhs),rhsMax =  -2.22898366430968E-11  3.06891251946632E-02
 cg2d: Sum(rhs),rhsMax =  -2.24865681630604E-11  3.03693426403916E-02
 cg2d: Sum(rhs),rhsMax =  -2.26834107053264E-11  3.00425586536182E-02
 cg2d: Sum(rhs),rhsMax =  -2.28758123554940E-11  2.97089136990121E-02
 cg2d: Sum(rhs),rhsMax =  -2.30860885963580E-11  2.93685510824315E-02
 cg2d: Sum(rhs),rhsMax =  -2.33142394279184E-11  2.90216168952324E-02
 cg2d: Sum(rhs),rhsMax =  -2.35306218954179E-11  2.86682599682672E-02
 cg2d: Sum(rhs),rhsMax =  -2.37885267040383E-11  2.83086318335019E-02
 cg2d: Sum(rhs),rhsMax =  -2.40261144313081E-11  2.79428866867582E-02
 cg2d: Sum(rhs),rhsMax =  -2.42958986262920E-11  2.75711813441182E-02
 cg2d: Sum(rhs),rhsMax =  -2.45564679701715E-11  2.71936751870416E-02
 cg2d: Sum(rhs),rhsMax =  -2.48480125364381E-11  2.68105300959497E-02
 cg2d: Sum(rhs),rhsMax =  -2.51385579019825E-11  2.64219103766192E-02
 cg2d: Sum(rhs),rhsMax =  -2.54450904790815E-11  2.60279826861020E-02
 cg2d: Sum(rhs),rhsMax =  -2.57818211224503E-11  2.56289159641628E-02
 cg2d: Sum(rhs),rhsMax =  -2.61232147025225E-11  2.52248813720376E-02
 cg2d: Sum(rhs),rhsMax =  -2.64812616279642E-11  2.48160522399865E-02
 cg2d: Sum(rhs),rhsMax =  -2.68394195757082E-11  2.44026040161655E-02
 cg2d: Sum(rhs),rhsMax =  -2.72208922069694E-11  2.39847142115029E-02
 cg2d: Sum(rhs),rhsMax =  -2.76298983692413E-11  2.35625623362578E-02
 cg2d: Sum(rhs),rhsMax =  -2.80350187509271E-11  2.31363298268474E-02
 cg2d: Sum(rhs),rhsMax =  -2.84993140198253E-11  2.27061999646563E-02
 cg2d: Sum(rhs),rhsMax =  -2.89567259059709E-11  2.22723577906792E-02
 cg2d: Sum(rhs),rhsMax =  -2.94505531073241E-11  2.18349900203212E-02
 cg2d: Sum(rhs),rhsMax =  -2.99638092116083E-11  2.13942849615354E-02
 cg2d: Sum(rhs),rhsMax =  -3.04839486986452E-11  2.09504324373553E-02
 cg2d: Sum(rhs),rhsMax =  -3.10520498203459E-11  2.05036237117262E-02
 cg2d: Sum(rhs),rhsMax =  -3.16509041198287E-11  2.00540514162243E-02
 cg2d: Sum(rhs),rhsMax =  -3.22585291812061E-11  1.96019094752006E-02
 cg2d: Sum(rhs),rhsMax =  -3.29908322882488E-11  1.91473930278281E-02
 cg2d: Sum(rhs),rhsMax =  -3.37397887406610E-11  1.86906983467522E-02
 cg2d: Sum(rhs),rhsMax =  -3.45405926083231E-11  1.82320227547110E-02
 cg2d: Sum(rhs),rhsMax =  -3.53774787242855E-11  1.77715645377402E-02
 cg2d: Sum(rhs),rhsMax =  -3.62656571439857E-11  1.73095228557403E-02
 cg2d: Sum(rhs),rhsMax =  -3.71942476817821E-11  1.68460976517498E-02
 cg2d: Sum(rhs),rhsMax =  -3.81941145377596E-11  1.63814895597827E-02
 cg2d: Sum(rhs),rhsMax =  -3.92255117276363E-11  1.59158998113446E-02
 cg2d: Sum(rhs),rhsMax =  -4.03542754767727E-11  1.54495301411290E-02
 cg2d: Sum(rhs),rhsMax =  -4.15306677936655E-11  1.49825826927284E-02
 cg2d: Sum(rhs),rhsMax =  -4.27997637331146E-11  1.45152599254062E-02
 cg2d: Sum(rhs),rhsMax =  -4.41544578677622E-11  1.40477645230295E-02
 cg2d: Sum(rhs),rhsMax =  -4.56038540264103E-11  1.35802993061565E-02
 cg2d: Sum(rhs),rhsMax =  -4.71462868745220E-11  1.31130671479270E-02
 cg2d: Sum(rhs),rhsMax =  -4.88005191812135E-11  1.26462708938348E-02
 cg2d: Sum(rhs),rhsMax =  -5.05925301652610E-11  1.21801132847506E-02
 cg2d: Sum(rhs),rhsMax =  -5.25188781352881E-11  1.17147968819188E-02
 cg2d: Sum(rhs),rhsMax =  -5.45823386488564E-11  1.12505239922619E-02
 cg2d: Sum(rhs),rhsMax =  -5.68199931549884E-11  1.07874965923205E-02
 cg2d: Sum(rhs),rhsMax =  -5.92513815789175E-11  1.03259162495055E-02
 cg2d: Sum(rhs),rhsMax =  -6.19292950254646E-11  9.86598403990538E-03
 cg2d: Sum(rhs),rhsMax =  -6.48149867110703E-11  9.40790046249846E-03
 cg2d: Sum(rhs),rhsMax =  -6.80165368471819E-11  8.95186535012120E-03
 cg2d: Sum(rhs),rhsMax =  -7.15303927201205E-11  8.49807777787247E-03
 cg2d: Sum(rhs),rhsMax =  -7.54198370422898E-11  8.04673596980031E-03
 cg2d: Sum(rhs),rhsMax =  -7.92986787345740E-11  7.64202969336762E-03
 cg2d: Sum(rhs),rhsMax =  -7.57576223975320E-11  7.98434352506046E-03
 cg2d: Sum(rhs),rhsMax =  -7.25344506680159E-11  8.32398695744244E-03
 cg2d: Sum(rhs),rhsMax =  -6.96246393872002E-11  8.66081178816795E-03
 cg2d: Sum(rhs),rhsMax =  -6.69022892640925E-11  8.99467095964756E-03
 cg2d: Sum(rhs),rhsMax =  -6.44296560547986E-11  9.32541866288708E-03
 cg2d: Sum(rhs),rhsMax =  -6.21178247728338E-11  9.65291042246130E-03
 cg2d: Sum(rhs),rhsMax =  -6.00231461755918E-11  9.97700309177732E-03
 cg2d: Sum(rhs),rhsMax =  -5.80662878890692E-11  1.02975547931819E-02
 cg2d: Sum(rhs),rhsMax =  -5.62524540836939E-11  1.06144253640619E-02
 cg2d: Sum(rhs),rhsMax =  -5.45530981499454E-11  1.09274760986967E-02
 cg2d: Sum(rhs),rhsMax =  -5.29700033835567E-11  1.12365701818383E-02
 cg2d: Sum(rhs),rhsMax =  -5.13026843229625E-11  1.15415727805231E-02
 cg2d: Sum(rhs),rhsMax =  -5.00144925474899E-11  1.18423498728538E-02
 cg2d: Sum(rhs),rhsMax =  -4.87180851216351E-11  1.21387692349933E-02
 cg2d: Sum(rhs),rhsMax =  -4.75288419732323E-11  1.24307009808480E-02
 cg2d: Sum(rhs),rhsMax =  -4.64312199799366E-11  1.27180176680835E-02
 cg2d: Sum(rhs),rhsMax =  -4.53535542455086E-11  1.30005941817327E-02
 cg2d: Sum(rhs),rhsMax =  -4.43483583190130E-11  1.32783075972554E-02
 cg2d: Sum(rhs),rhsMax =  -4.34174918240160E-11  1.35510371218529E-02
 cg2d: Sum(rhs),rhsMax =  -4.25321999841799E-11  1.38186641222752E-02
 cg2d: Sum(rhs),rhsMax =  -4.16917056433874E-11  1.40810721916239E-02
 cg2d: Sum(rhs),rhsMax =  -4.08915123983888E-11  1.43381472466224E-02
 cg2d: Sum(rhs),rhsMax =  -4.01605415589756E-11  1.45897775558665E-02
 cg2d: Sum(rhs),rhsMax =  -3.93806098841765E-11  1.48358537870624E-02
 cg2d: Sum(rhs),rhsMax =  -3.86387033479707E-11  1.50762690810111E-02
 cg2d: Sum(rhs),rhsMax =  -3.79473119593854E-11  1.53109191233873E-02
 cg2d: Sum(rhs),rhsMax =  -3.72984421126432E-11  1.55397022233566E-02
 cg2d: Sum(rhs),rhsMax =  -3.66869312706797E-11  1.57625192997105E-02
 cg2d: Sum(rhs),rhsMax =  -3.60910745733634E-11  1.59792738631023E-02
 cg2d: Sum(rhs),rhsMax =  -3.55525053841177E-11  1.61898720584535E-02
 cg2d: Sum(rhs),rhsMax =  -3.50565687590176E-11  1.63942227462264E-02
 cg2d: Sum(rhs),rhsMax =  -3.45463102568999E-11  1.65922375748672E-02
 cg2d: Sum(rhs),rhsMax =  -3.40616423954998E-11  1.67838310238478E-02
 cg2d: Sum(rhs),rhsMax =  -3.36266570144517E-11  1.69689204292801E-02
 cg2d: Sum(rhs),rhsMax =  -3.32011640402641E-11  1.71474260821712E-02
 cg2d: Sum(rhs),rhsMax =  -3.28372329327919E-11  1.73192713175848E-02
 cg2d: Sum(rhs),rhsMax =  -3.24693605335824E-11  1.74843823479087E-02
 cg2d: Sum(rhs),rhsMax =  -3.21161430782979E-11  1.76426883466417E-02
 cg2d: Sum(rhs),rhsMax =  -3.17742498978646E-11  1.77941215782198E-02
 cg2d: Sum(rhs),rhsMax =  -3.14930859168783E-11  1.79386169551487E-02
 cg2d: Sum(rhs),rhsMax =  -3.11842773825788E-11  1.80761128040775E-02
 cg2d: Sum(rhs),rhsMax =  -3.09140490983850E-11  1.82065511321476E-02
 cg2d: Sum(rhs),rhsMax =  -3.06451530818208E-11  1.83298774353849E-02
 cg2d: Sum(rhs),rhsMax =  -3.04344882628982E-11  1.84460404598716E-02
 cg2d: Sum(rhs),rhsMax =  -3.02418090569745E-11  1.85549920656612E-02
 cg2d: Sum(rhs),rhsMax =  -2.99613667209542E-11  1.86566873644638E-02
 cg2d: Sum(rhs),rhsMax =  -2.97287749972952E-11  1.87510868198571E-02
 cg2d: Sum(rhs),rhsMax =  -2.95048430132283E-11  1.88381545080336E-02
 cg2d: Sum(rhs),rhsMax =  -2.93608470869344E-11  1.89178567062388E-02
 cg2d: Sum(rhs),rhsMax =  -2.91365820359601E-11  1.89901617726180E-02
 cg2d: Sum(rhs),rhsMax =  -2.89827051247471E-11  1.90550406332170E-02
 cg2d: Sum(rhs),rhsMax =  -2.88292723027439E-11  1.91124679688880E-02
 cg2d: Sum(rhs),rhsMax =  -2.87128099074607E-11  1.91624224080216E-02
 cg2d: Sum(rhs),rhsMax =  -2.86124457460346E-11  1.92048862175631E-02
 cg2d: Sum(rhs),rhsMax =  -2.84423595786620E-11  1.92398450023709E-02
 cg2d: Sum(rhs),rhsMax =  -2.83316703431069E-11  1.92672878010200E-02
 cg2d: Sum(rhs),rhsMax =  -2.82266432449774E-11  1.92872072202891E-02
 cg2d: Sum(rhs),rhsMax =  -2.81472622987167E-11  1.92995990861532E-02
 cg2d: Sum(rhs),rhsMax =  -2.80994116863553E-11  1.93044623905202E-02
 cg2d: Sum(rhs),rhsMax =  -2.80852008316401E-11  1.93017994326112E-02
 cg2d: Sum(rhs),rhsMax =  -2.80789835827022E-11  1.92916159711670E-02
 cg2d: Sum(rhs),rhsMax =  -2.81460410533896E-11  1.92739214630092E-02
 cg2d: Sum(rhs),rhsMax =  -2.82860401767948E-11  1.92487289165807E-02
 cg2d: Sum(rhs),rhsMax =  -2.83831846914495E-11  1.92160545783250E-02
 cg2d: Sum(rhs),rhsMax =  -2.85248491493917E-11  1.91759173138647E-02
 cg2d: Sum(rhs),rhsMax =  -2.86625168044452E-11  1.91283388499482E-02
 cg2d: Sum(rhs),rhsMax =  -2.88717938445870E-11  1.90733447269276E-02
 cg2d: Sum(rhs),rhsMax =  -2.90093504773381E-11  1.90109644024391E-02
 cg2d: Sum(rhs),rhsMax =  -2.91476842662064E-11  1.89412309044657E-02
 cg2d: Sum(rhs),rhsMax =  -2.93441937415651E-11  1.88641805947824E-02
 cg2d: Sum(rhs),rhsMax =  -2.95089508384194E-11  1.87798530939523E-02
 cg2d: Sum(rhs),rhsMax =  -2.97498692347631E-11  1.86882910529967E-02
 cg2d: Sum(rhs),rhsMax =  -2.99600344533246E-11  1.85895404349635E-02
 cg2d: Sum(rhs),rhsMax =  -3.02101677007727E-11  1.84836505844941E-02
 cg2d: Sum(rhs),rhsMax =  -3.05047098692057E-11  1.83706740998761E-02
 cg2d: Sum(rhs),rhsMax =  -3.08236769441805E-11  1.82506666963684E-02
 cg2d: Sum(rhs),rhsMax =  -3.10903525146955E-11  1.81236875018397E-02
 cg2d: Sum(rhs),rhsMax =  -3.13640780014168E-11  1.79897990740859E-02
 cg2d: Sum(rhs),rhsMax =  -3.16228709884570E-11  1.78490667729460E-02
 cg2d: Sum(rhs),rhsMax =  -3.19662074588223E-11  1.77015586375751E-02
 cg2d: Sum(rhs),rhsMax =  -3.22872839575439E-11  1.75473455206013E-02
 cg2d: Sum(rhs),rhsMax =  -3.26648708082189E-11  1.73865012302185E-02
 cg2d: Sum(rhs),rhsMax =  -3.30286908933886E-11  1.72191025748671E-02
 cg2d: Sum(rhs),rhsMax =  -3.34188787753931E-11  1.70452293226761E-02
 cg2d: Sum(rhs),rhsMax =  -3.38730155036160E-11  1.68649641271723E-02
 cg2d: Sum(rhs),rhsMax =  -3.43051698159513E-11  1.66783934971765E-02
 cg2d: Sum(rhs),rhsMax =  -3.47470940909034E-11  1.64856067700687E-02
 cg2d: Sum(rhs),rhsMax =  -3.52763374067422E-11  1.62866950204686E-02
 cg2d: Sum(rhs),rhsMax =  -3.57812113271905E-11  1.60817513274463E-02
 cg2d: Sum(rhs),rhsMax =  -3.63256646984667E-11  1.58708713920797E-02
 cg2d: Sum(rhs),rhsMax =  -3.69392849641770E-11  1.56541538505682E-02
 cg2d: Sum(rhs),rhsMax =  -3.75518505180139E-11  1.54317001987856E-02
 cg2d: Sum(rhs),rhsMax =  -3.82019971212344E-11  1.52036145419346E-02
 cg2d: Sum(rhs),rhsMax =  -3.89230314645772E-11  1.49700033769659E-02
 cg2d: Sum(rhs),rhsMax =  -3.96240262823255E-11  1.47309753591970E-02
 cg2d: Sum(rhs),rhsMax =  -4.03791999836756E-11  1.44866412226308E-02
 cg2d: Sum(rhs),rhsMax =  -4.11978784420342E-11  1.42371141445193E-02
 cg2d: Sum(rhs),rhsMax =  -4.20566359515817E-11  1.39825097117343E-02
 cg2d: Sum(rhs),rhsMax =  -4.28875268632112E-11  1.37229461467841E-02
 cg2d: Sum(rhs),rhsMax =  -4.37782587958679E-11  1.34585436351787E-02
 cg2d: Sum(rhs),rhsMax =  -4.47519243884642E-11  1.31894240525591E-02
 cg2d: Sum(rhs),rhsMax =  -4.57395232800195E-11  1.29157110165356E-02
 cg2d: Sum(rhs),rhsMax =  -4.68097782757582E-11  1.26375300059917E-02
 cg2d: Sum(rhs),rhsMax =  -4.79100648043129E-11  1.23550084048449E-02
 cg2d: Sum(rhs),rhsMax =  -4.91412188718954E-11  1.20682754565978E-02
 cg2d: Sum(rhs),rhsMax =  -5.04359609632132E-11  1.17774621748660E-02
 cg2d: Sum(rhs),rhsMax =  -5.18045328856687E-11  1.14827012518434E-02
 cg2d: Sum(rhs),rhsMax =  -5.32608124270695E-11  1.11841269813189E-02
 cg2d: Sum(rhs),rhsMax =  -5.48164014180230E-11  1.08818751938652E-02
 cg2d: Sum(rhs),rhsMax =  -5.64786550860674E-11  1.05760831964542E-02
 cg2d: Sum(rhs),rhsMax =  -5.82694170692122E-11  1.02668897114400E-02
 cg2d: Sum(rhs),rhsMax =  -6.02167898877681E-11  9.95443481363910E-03
 cg2d: Sum(rhs),rhsMax =  -6.22513464387797E-11  9.63885986601527E-03
 cg2d: Sum(rhs),rhsMax =  -6.45137710614252E-11  9.32030745449880E-03
 cg2d: Sum(rhs),rhsMax =  -6.69127808716752E-11  8.99892132202369E-03
 cg2d: Sum(rhs),rhsMax =  -6.94819063395968E-11  8.67484630171089E-03
 cg2d: Sum(rhs),rhsMax =  -7.23304194316654E-11  8.34822824929595E-03
 cg2d: Sum(rhs),rhsMax =  -7.53938300679380E-11  8.01921397511181E-03
 cg2d: Sum(rhs),rhsMax =  -7.87667431279004E-11  7.68795117599622E-03
 cg2d: Sum(rhs),rhsMax =  -8.24864621051802E-11  7.35458840369909E-03
 cg2d: Sum(rhs),rhsMax =  -8.65696958562978E-11  7.01927539599124E-03
 cg2d: Sum(rhs),rhsMax =  -8.27266033454066E-11  7.35341719653126E-03
 cg2d: Sum(rhs),rhsMax =  -7.85727038987716E-11  7.75401114082529E-03
 cg2d: Sum(rhs),rhsMax =  -7.44930228613327E-11  8.19177530869375E-03
 cg2d: Sum(rhs),rhsMax =  -7.07893743623345E-11  8.63169254107262E-03
 cg2d: Sum(rhs),rhsMax =  -6.74471589690029E-11  9.07356846748831E-03
 cg2d: Sum(rhs),rhsMax =  -6.44047037923201E-11  9.51720812959270E-03
 cg2d: Sum(rhs),rhsMax =  -6.16329209890409E-11  9.96241606857820E-03
 cg2d: Sum(rhs),rhsMax =  -5.90960613777725E-11  1.04089964117361E-02
 cg2d: Sum(rhs),rhsMax =  -5.67600411116587E-11  1.08567529575922E-02
 cg2d: Sum(rhs),rhsMax =  -5.45846701172081E-11  1.13054892634641E-02
 cg2d: Sum(rhs),rhsMax =  -5.25828269815065E-11  1.17550087354232E-02
 cg2d: Sum(rhs),rhsMax =  -5.07367481361598E-11  1.22051147196875E-02
 cg2d: Sum(rhs),rhsMax =  -4.90077978199110E-11  1.26556105940154E-02
 cg2d: Sum(rhs),rhsMax =  -4.74128514227345E-11  1.31062998579355E-02
 cg2d: Sum(rhs),rhsMax =  -4.59123850049536E-11  1.35569862212131E-02
 cg2d: Sum(rhs),rhsMax =  -4.45001813176304E-11  1.40074736905251E-02
 cg2d: Sum(rhs),rhsMax =  -4.31753521823453E-11  1.44575666547113E-02
 cg2d: Sum(rhs),rhsMax =  -4.19455581379680E-11  1.49070699691309E-02
 cg2d: Sum(rhs),rhsMax =  -4.07892608578209E-11  1.53557890396154E-02
 cg2d: Sum(rhs),rhsMax =  -3.97056831857867E-11  1.58035299063598E-02
 cg2d: Sum(rhs),rhsMax =  -3.86768395088666E-11  1.62500993279022E-02
 cg2d: Sum(rhs),rhsMax =  -3.77046172062023E-11  1.66953048651665E-02
 cg2d: Sum(rhs),rhsMax =  -3.67816888058314E-11  1.71389549654008E-02
 cg2d: Sum(rhs),rhsMax =  -3.59071661293342E-11  1.75808590457625E-02
 cg2d: Sum(rhs),rhsMax =  -3.50838247342722E-11  1.80208275762585E-02
 cg2d: Sum(rhs),rhsMax =  -3.43196582264227E-11  1.84586721617457E-02
 cg2d: Sum(rhs),rhsMax =  -3.35754757330164E-11  1.88942056227197E-02
 cg2d: Sum(rhs),rhsMax =  -3.29370974938570E-11  1.93272420746443E-02
 cg2d: Sum(rhs),rhsMax =  -3.23219229159122E-11  1.97575970056136E-02
 cg2d: Sum(rhs),rhsMax =  -3.17315063114165E-11  2.01850873521733E-02
 cg2d: Sum(rhs),rhsMax =  -3.11862757840231E-11  2.06095315731750E-02
 cg2d: Sum(rhs),rhsMax =  -3.06509262415489E-11  2.10307497215649E-02
 cg2d: Sum(rhs),rhsMax =  -3.01489944121158E-11  2.14485635140118E-02
 cg2d: Sum(rhs),rhsMax =  -2.96571656122069E-11  2.18627963982129E-02
 cg2d: Sum(rhs),rhsMax =  -2.92242896549055E-11  2.22732736176674E-02
 cg2d: Sum(rhs),rhsMax =  -2.87805335119629E-11  2.26798222738382E-02
 cg2d: Sum(rhs),rhsMax =  -2.83590928518151E-11  2.30822713859585E-02
 cg2d: Sum(rhs),rhsMax =  -2.79603007413698E-11  2.34804519491205E-02
 cg2d: Sum(rhs),rhsMax =  -2.75743872180101E-11  2.38741969914371E-02
 cg2d: Sum(rhs),rhsMax =  -2.72136757573094E-11  2.42633416308582E-02
 cg2d: Sum(rhs),rhsMax =  -2.68727262664470E-11  2.46477231317724E-02
 cg2d: Sum(rhs),rhsMax =  -2.65236721475048E-11  2.50271809618393E-02
 cg2d: Sum(rhs),rhsMax =  -2.62252441984856E-11  2.54015568462775E-02
 cg2d: Sum(rhs),rhsMax =  -2.59081645026527E-11  2.57706948212396E-02
 cg2d: Sum(rhs),rhsMax =  -2.56032972600906E-11  2.61344412863816E-02
 cg2d: Sum(rhs),rhsMax =  -2.53128629168486E-11  2.64926450569063E-02
 cg2d: Sum(rhs),rhsMax =  -2.50519605060617E-11  2.68451574151554E-02
 cg2d: Sum(rhs),rhsMax =  -2.48054909945949E-11  2.71918321634056E-02
 cg2d: Sum(rhs),rhsMax =  -2.45478082305794E-11  2.75325256773600E-02
 cg2d: Sum(rhs),rhsMax =  -2.43167708191550E-11  2.78670969601519E-02
 cg2d: Sum(rhs),rhsMax =  -2.40774067350458E-11  2.81954076970016E-02
 cg2d: Sum(rhs),rhsMax =  -2.38662423157621E-11  2.85173223108661E-02
 cg2d: Sum(rhs),rhsMax =  -2.36451969115592E-11  2.88327080196147E-02
 cg2d: Sum(rhs),rhsMax =  -2.34559038858606E-11  2.91414348953271E-02
 cg2d: Sum(rhs),rhsMax =  -2.32545094291936E-11  2.94433759265507E-02
 cg2d: Sum(rhs),rhsMax =  -2.30713226301305E-11  2.97384070823994E-02
 cg2d: Sum(rhs),rhsMax =  -2.29006813512456E-11  3.00264073786094E-02
 cg2d: Sum(rhs),rhsMax =  -2.27263763363794E-11  3.03072589447069E-02
 cg2d: Sum(rhs),rhsMax =  -2.25645058193891E-11  3.05808470907172E-02
 cg2d: Sum(rhs),rhsMax =  -2.24122942427130E-11  3.08470603716892E-02
 cg2d: Sum(rhs),rhsMax =  -2.22687424056289E-11  3.11057906483983E-02
 cg2d: Sum(rhs),rhsMax =  -2.22096785407189E-11  3.13569331428182E-02
 cg2d: Sum(rhs),rhsMax =  -2.21291873714335E-11  3.16003864872162E-02
 cg2d: Sum(rhs),rhsMax =  -2.20583551424625E-11  3.18360527659512E-02
 cg2d: Sum(rhs),rhsMax =  -2.20125029315454E-11  3.20638375492700E-02
 cg2d: Sum(rhs),rhsMax =  -2.19402274126423E-11  3.22836499186575E-02
 cg2d: Sum(rhs),rhsMax =  -2.18896012427194E-11  3.24954024836609E-02
 cg2d: Sum(rhs),rhsMax =  -2.18409734742409E-11  3.26990113906163E-02
 cg2d: Sum(rhs),rhsMax =  -2.17786899625594E-11  3.28943963243180E-02
 cg2d: Sum(rhs),rhsMax =  -2.17431628257714E-11  3.30814805043149E-02
 cg2d: Sum(rhs),rhsMax =  -2.16804352248801E-11  3.32601906780759E-02
 cg2d: Sum(rhs),rhsMax =  -2.16526796492644E-11  3.34304571136186E-02
 cg2d: Sum(rhs),rhsMax =  -2.16303641664695E-11  3.35922135947290E-02
 cg2d: Sum(rhs),rhsMax =  -2.15791828850342E-11  3.37453974198571E-02
 cg2d: Sum(rhs),rhsMax =  -2.15324424956975E-11  3.38899494077790E-02
 cg2d: Sum(rhs),rhsMax =  -2.14919193552987E-11  3.40258139113353E-02
 cg2d: Sum(rhs),rhsMax =  -2.14724904523678E-11  3.41529388394269E-02
 cg2d: Sum(rhs),rhsMax =  -2.15057971431065E-11  3.42712756865847E-02
 cg2d: Sum(rhs),rhsMax =  -2.15628626065723E-11  3.43807795686994E-02
 cg2d: Sum(rhs),rhsMax =  -2.16088258397917E-11  3.44814092629220E-02
 cg2d: Sum(rhs),rhsMax =  -2.16506812478201E-11  3.45731272493376E-02
 cg2d: Sum(rhs),rhsMax =  -2.16827666932318E-11  3.46558997518028E-02
 cg2d: Sum(rhs),rhsMax =  -2.17152962278533E-11  3.47296967753400E-02
 cg2d: Sum(rhs),rhsMax =  -2.17426077142591E-11  3.47944921377454E-02
 cg2d: Sum(rhs),rhsMax =  -2.17543760783201E-11  3.48502634936022E-02
 cg2d: Sum(rhs),rhsMax =  -2.18506324145551E-11  3.48969923496741E-02
 cg2d: Sum(rhs),rhsMax =  -2.18298712439946E-11  3.49346640715838E-02
 cg2d: Sum(rhs),rhsMax =  -2.18579598865176E-11  3.49632678825942E-02
 cg2d: Sum(rhs),rhsMax =  -2.18925988448859E-11  3.49827968560017E-02
 cg2d: Sum(rhs),rhsMax =  -2.18942641794229E-11  3.49932479030031E-02
 cg2d: Sum(rhs),rhsMax =  -2.18336460022783E-11  3.49946217578563E-02
 cg2d: Sum(rhs),rhsMax =  -2.17815765424234E-11  3.49869229618128E-02
 cg2d: Sum(rhs),rhsMax =  -2.17513784761536E-11  3.49701598469943E-02
 cg2d: Sum(rhs),rhsMax =  -2.16695550392387E-11  3.49443445200988E-02
 cg2d: Sum(rhs),rhsMax =  -2.15829576433180E-11  3.49094928470956E-02
 cg2d: Sum(rhs),rhsMax =  -2.14969153589095E-11  3.48656244385033E-02
 cg2d: Sum(rhs),rhsMax =  -2.14741557869047E-11  3.48127626353509E-02
 cg2d: Sum(rhs),rhsMax =  -2.14401829623512E-11  3.47509344959151E-02
 cg2d: Sum(rhs),rhsMax =  -2.13791206959968E-11  3.46801707832688E-02
 cg2d: Sum(rhs),rhsMax =  -2.13712381125220E-11  3.46005059535189E-02
 cg2d: Sum(rhs),rhsMax =  -2.13028483742050E-11  3.45119781444085E-02
 cg2d: Sum(rhs),rhsMax =  -2.12779793784534E-11  3.44146291637605E-02
 cg2d: Sum(rhs),rhsMax =  -2.11980433206804E-11  3.43085044770709E-02
 cg2d: Sum(rhs),rhsMax =  -2.11649586745466E-11  3.41936531934781E-02
 cg2d: Sum(rhs),rhsMax =  -2.11859418897120E-11  3.40701280493292E-02
 cg2d: Sum(rhs),rhsMax =  -2.12152517775621E-11  3.39379853886684E-02
 cg2d: Sum(rhs),rhsMax =  -2.12575512748003E-11  3.37972851401825E-02
 cg2d: Sum(rhs),rhsMax =  -2.12903028540268E-11  3.36480907904484E-02
 cg2d: Sum(rhs),rhsMax =  -2.13270512361419E-11  3.34904693538730E-02
 cg2d: Sum(rhs),rhsMax =  -2.13724593578490E-11  3.33244913398835E-02
 cg2d: Sum(rhs),rhsMax =  -2.14117612529208E-11  3.31502307172492E-02
 cg2d: Sum(rhs),rhsMax =  -2.14502859918753E-11  3.29677648774416E-02
 cg2d: Sum(rhs),rhsMax =  -2.15063522546188E-11  3.27771745976588E-02
 cg2d: Sum(rhs),rhsMax =  -2.15647499857141E-11  3.25785440039560E-02
 cg2d: Sum(rhs),rhsMax =  -2.16260342966734E-11  3.23719605348554E-02
 cg2d: Sum(rhs),rhsMax =  -2.16767714888988E-11  3.21575149058660E-02
 cg2d: Sum(rhs),rhsMax =  -2.17391660228827E-11  3.19353010754432E-02
 cg2d: Sum(rhs),rhsMax =  -2.18012274899593E-11  3.17054162128857E-02
 cg2d: Sum(rhs),rhsMax =  -2.18710605182082E-11  3.14679606684146E-02
 cg2d: Sum(rhs),rhsMax =  -2.19387841227103E-11  3.12230379452033E-02
 cg2d: Sum(rhs),rhsMax =  -2.20726770194801E-11  3.09707546725515E-02
 cg2d: Sum(rhs),rhsMax =  -2.22044604925031E-11  3.07112205789262E-02
 cg2d: Sum(rhs),rhsMax =  -2.23556728684571E-11  3.04445484633402E-02
 cg2d: Sum(rhs),rhsMax =  -2.25136576048612E-11  3.01708541636706E-02
 cg2d: Sum(rhs),rhsMax =  -2.26891838650545E-11  2.98902565208483E-02
 cg2d: Sum(rhs),rhsMax =  -2.28479457575759E-11  2.96028773384060E-02
 cg2d: Sum(rhs),rhsMax =  -2.30332419803858E-11  2.93088413373797E-02
 cg2d: Sum(rhs),rhsMax =  -2.32217578499672E-11  2.90082761069279E-02
 cg2d: Sum(rhs),rhsMax =  -2.34043895375180E-11  2.87013120512495E-02
 cg2d: Sum(rhs),rhsMax =  -2.36124453323328E-11  2.83880823334438E-02
 cg2d: Sum(rhs),rhsMax =  -2.38068453839446E-11  2.80687228169127E-02
 cg2d: Sum(rhs),rhsMax =  -2.40271136320303E-11  2.77433720048242E-02
 cg2d: Sum(rhs),rhsMax =  -2.42552644635907E-11  2.74121709780947E-02
 cg2d: Sum(rhs),rhsMax =  -2.45037323765018E-11  2.70752633323011E-02
 cg2d: Sum(rhs),rhsMax =  -2.47469822411972E-11  2.67327951139014E-02
 cg2d: Sum(rhs),rhsMax =  -2.50043319383053E-11  2.63849147560875E-02
 cg2d: Sum(rhs),rhsMax =  -2.52808884937394E-11  2.60317730145372E-02
 cg2d: Sum(rhs),rhsMax =  -2.55749865729626E-11  2.56735229032941E-02
 cg2d: Sum(rhs),rhsMax =  -2.58565391320076E-11  2.53103196310236E-02
 cg2d: Sum(rhs),rhsMax =  -2.61762833630996E-11  2.49423205379590E-02
 cg2d: Sum(rhs),rhsMax =  -2.64726018883721E-11  2.45696850338790E-02
 cg2d: Sum(rhs),rhsMax =  -2.68505218059545E-11  2.41925745373490E-02
 cg2d: Sum(rhs),rhsMax =  -2.71855871147864E-11  2.38111524165221E-02
 cg2d: Sum(rhs),rhsMax =  -2.75508504898880E-11  2.34255839301053E-02
 cg2d: Sum(rhs),rhsMax =  -2.79370970801551E-11  2.30360361668084E-02
 cg2d: Sum(rhs),rhsMax =  -2.83285617186380E-11  2.26426779855923E-02
 cg2d: Sum(rhs),rhsMax =  -2.87401213938665E-11  2.22456799530721E-02
 cg2d: Sum(rhs),rhsMax =  -2.91742185964949E-11  2.18452142771270E-02
 cg2d: Sum(rhs),rhsMax =  -2.96461744042631E-11  2.14414547365746E-02
 cg2d: Sum(rhs),rhsMax =  -3.01131342084204E-11  2.10345766073265E-02
 cg2d: Sum(rhs),rhsMax =  -3.06148439932485E-11  2.06247565857684E-02
 cg2d: Sum(rhs),rhsMax =  -3.11256576068786E-11  2.02121727102125E-02
 cg2d: Sum(rhs),rhsMax =  -3.16949799739064E-11  1.97970042812035E-02
 cg2d: Sum(rhs),rhsMax =  -3.22709636790819E-11  1.93794317813197E-02
 cg2d: Sum(rhs),rhsMax =  -3.28753690936878E-11  1.89596367949330E-02
 cg2d: Sum(rhs),rhsMax =  -3.35094174630512E-11  1.85378019282077E-02
 cg2d: Sum(rhs),rhsMax =  -3.41675576720490E-11  1.81141107294304E-02
 cg2d: Sum(rhs),rhsMax =  -3.49316131575961E-11  1.76887476095824E-02
 cg2d: Sum(rhs),rhsMax =  -3.57361917835419E-11  1.72618977629249E-02
 cg2d: Sum(rhs),rhsMax =  -3.65987240513732E-11  1.68337470873086E-02
 cg2d: Sum(rhs),rhsMax =  -3.74896780286349E-11  1.64044821039770E-02
 cg2d: Sum(rhs),rhsMax =  -3.84388076923869E-11  1.59742898767951E-02
 cg2d: Sum(rhs),rhsMax =  -3.94460020203269E-11  1.55433579309977E-02
 cg2d: Sum(rhs),rhsMax =  -4.05044886520045E-11  1.51118741716002E-02
 cg2d: Sum(rhs),rhsMax =  -4.16284784421350E-11  1.46800268015574E-02
 cg2d: Sum(rhs),rhsMax =  -4.28368451821370E-11  1.42480042401585E-02
 cg2d: Sum(rhs),rhsMax =  -4.41067182777033E-11  1.38159950390466E-02
 cg2d: Sum(rhs),rhsMax =  -4.54523085835490E-11  1.33841877977728E-02
 cg2d: Sum(rhs),rhsMax =  -4.69018157644996E-11  1.29527710788393E-02
 cg2d: Sum(rhs),rhsMax =  -4.84371431852537E-11  1.25219333224548E-02
 cg2d: Sum(rhs),rhsMax =  -5.00766095257177E-11  1.20918627613872E-02
 cg2d: Sum(rhs),rhsMax =  -5.18345366629092E-11  1.16627473362599E-02
(PID.TID 0000.0001)      cg2d_init_res =   1.93119042629513E-01
(PID.TID 0000.0001)      cg2d_iters(min,last) =      -1      38
(PID.TID 0000.0001)      cg2d_last_res =   5.97298361207939E-14
(PID.TID 0000.0001) // =======================================================
(PID.TID 0000.0001) // Begin MONITOR dynamic field statistics
(PID.TID 0000.0001) // =======================================================
(PID.TID 0000.0001) %MON time_tsnumber                =                  5280
(PID.TID 0000.0001) %MON time_secondsf                =   7.9200000000000E+04
(PID.TID 0000.0001) %MON dynstat_eta_max              =   1.9679233876822E-03
(PID.TID 0000.0001) %MON dynstat_eta_min              =  -1.2244563015889E-03
(PID.TID 0000.0001) %MON dynstat_eta_mean             =   1.2934258806871E-15
(PID.TID 0000.0001) %MON dynstat_eta_sd               =   7.6286857269817E-04
(PID.TID 0000.0001) %MON dynstat_eta_del2             =   4.8749428836103E-06
(PID.TID 0000.0001) %MON dynstat_uvel_max             =   3.3047061128509E-01
(PID.TID 0000.0001) %MON dynstat_uvel_min             =  -5.8937035587614E-02
(PID.TID 0000.0001) %MON dynstat_uvel_mean            =   6.8582143860561E-02
(PID.TID 0000.0001) %MON dynstat_uvel_sd              =   4.0391884915008E-02
(PID.TID 0000.0001) %MON dynstat_uvel_del2            =   9.0477846984673E-05
(PID.TID 0000.0001) %MON dynstat_vvel_max             =   0.0000000000000E+00
(PID.TID 0000.0001) %MON dynstat_vvel_min             =   0.0000000000000E+00
(PID.TID 0000.0001) %MON dynstat_vvel_mean            =   0.0000000000000E+00
(PID.TID 0000.0001) %MON dynstat_vvel_sd              =   0.0000000000000E+00
(PID.TID 0000.0001) %MON dynstat_vvel_del2            =   0.0000000000000E+00
(PID.TID 0000.0001) %MON dynstat_wvel_max             =   1.9010256920563E-03
(PID.TID 0000.0001) %MON dynstat_wvel_min             =  -4.0567872606510E-03
(PID.TID 0000.0001) %MON dynstat_wvel_mean            =  -2.2075526668880E-21
(PID.TID 0000.0001) %MON dynstat_wvel_sd              =   2.3883980802202E-04
(PID.TID 0000.0001) %MON dynstat_wvel_del2            =   4.0652011607358E-06
(PID.TID 0000.0001) %MON dynstat_theta_max            =   1.5000000000016E+01
(PID.TID 0000.0001) %MON dynstat_theta_min            =   9.9999999999906E+00
(PID.TID 0000.0001) %MON dynstat_theta_mean           =   1.3316179885004E+01
(PID.TID 0000.0001) %MON dynstat_theta_sd             =   2.3135702672714E+00
(PID.TID 0000.0001) %MON dynstat_theta_del2           =   3.2086214710124E-04
(PID.TID 0000.0001) %MON dynstat_salt_max             =   3.5000000000000E+01
(PID.TID 0000.0001) %MON dynstat_salt_min             =   3.5000000000000E+01
(PID.TID 0000.0001) %MON dynstat_salt_mean            =   3.5000000000000E+01
(PID.TID 0000.0001) %MON dynstat_salt_sd              =   2.1316282072803E-14
(PID.TID 0000.0001) %MON dynstat_salt_del2            =   0.0000000000000E+00
(PID.TID 0000.0001) %MON dynstat_sst_max              =   1.5000000000000E+01
(PID.TID 0000.0001) %MON dynstat_sst_min              =   1.4999999999991E+01
(PID.TID 0000.0001) %MON dynstat_sst_mean             =   1.4999999999993E+01
(PID.TID 0000.0001) %MON dynstat_sst_sd               =   3.4988738298462E-12
(PID.TID 0000.0001) %MON dynstat_sst_del2             =   2.9725199364454E-14
(PID.TID 0000.0001) %MON dynstat_sss_max              =   3.5000000000000E+01
(PID.TID 0000.0001) %MON dynstat_sss_min              =   3.5000000000000E+01
(PID.TID 0000.0001) %MON dynstat_sss_mean             =   3.5000000000000E+01
(PID.TID 0000.0001) %MON dynstat_sss_sd               =   7.8159700933611E-14
(PID.TID 0000.0001) %MON dynstat_sss_del2             =   0.0000000000000E+00
(PID.TID 0000.0001) %MON forcing_qnet_max             =   0.0000000000000E+00
(PID.TID 0000.0001) %MON forcing_qnet_min             =   0.0000000000000E+00
(PID.TID 0000.0001) %MON forcing_qnet_mean            =   0.0000000000000E+00
(PID.TID 0000.0001) %MON forcing_qnet_sd              =   0.0000000000000E+00
(PID.TID 0000.0001) %MON forcing_qnet_del2            =   0.0000000000000E+00
(PID.TID 0000.0001) %MON forcing_qsw_max              =   0.0000000000000E+00
(PID.TID 0000.0001) %MON forcing_qsw_min              =   0.0000000000000E+00
(PID.TID 0000.0001) %MON forcing_qsw_mean             =   0.0000000000000E+00
(PID.TID 0000.0001) %MON forcing_qsw_sd               =   0.0000000000000E+00
(PID.TID 0000.0001) %MON forcing_qsw_del2             =   0.0000000000000E+00
(PID.TID 0000.0001) %MON forcing_empmr_max            =   0.0000000000000E+00
(PID.TID 0000.0001) %MON forcing_empmr_min            =   0.0000000000000E+00
(PID.TID 0000.0001) %MON forcing_empmr_mean           =   0.0000000000000E+00
(PID.TID 0000.0001) %MON forcing_empmr_sd             =   0.0000000000000E+00
(PID.TID 0000.0001) %MON forcing_empmr_del2           =   0.0000000000000E+00
(PID.TID 0000.0001) %MON forcing_fu_max               =   0.0000000000000E+00
(PID.TID 0000.0001) %MON forcing_fu_min               =   0.0000000000000E+00
(PID.TID 0000.0001) %MON forcing_fu_mean              =   0.0000000000000E+00
(PID.TID 0000.0001) %MON forcing_fu_sd                =   0.0000000000000E+00
(PID.TID 0000.0001) %MON forcing_fu_del2              =   0.0000000000000E+00
(PID.TID 0000.0001) %MON forcing_fv_max               =   0.0000000000000E+00
(PID.TID 0000.0001) %MON forcing_fv_min               =   0.0000000000000E+00
(PID.TID 0000.0001) %MON forcing_fv_mean              =   0.0000000000000E+00
(PID.TID 0000.0001) %MON forcing_fv_sd                =   0.0000000000000E+00
(PID.TID 0000.0001) %MON forcing_fv_del2              =   0.0000000000000E+00
(PID.TID 0000.0001) %MON advcfl_uvel_max              =   2.4785295846382E-02
(PID.TID 0000.0001) %MON advcfl_vvel_max              =   0.0000000000000E+00
(PID.TID 0000.0001) %MON advcfl_wvel_max              =   3.4259426728440E-02
(PID.TID 0000.0001) %MON advcfl_W_hf_max              =   3.4546076585839E-02
(PID.TID 0000.0001) %MON pe_b_mean                    =   1.4539388337725E-08
(PID.TID 0000.0001) %MON ke_max                       =   4.6949544520094E-02
(PID.TID 0000.0001) %MON ke_mean                      =   3.1766583265672E-03
(PID.TID 0000.0001) %MON ke_vol                       =   9.5889217545975E+10
(PID.TID 0000.0001) %MON vort_r_min                   =   0.0000000000000E+00
(PID.TID 0000.0001) %MON vort_r_max                   =   0.0000000000000E+00
(PID.TID 0000.0001) %MON vort_a_mean                  =   0.0000000000000E+00
(PID.TID 0000.0001) %MON vort_a_sd                    =   0.0000000000000E+00
(PID.TID 0000.0001) %MON vort_p_mean                  =   0.0000000000000E+00
(PID.TID 0000.0001) %MON vort_p_sd                    =   0.0000000000000E+00
(PID.TID 0000.0001) %MON surfExpan_theta_mean         =  -3.2527708833082E-18
(PID.TID 0000.0001) %MON surfExpan_salt_mean          =  -2.5023105049065E-19
(PID.TID 0000.0001) // =======================================================
(PID.TID 0000.0001) // End MONITOR dynamic field statistics
(PID.TID 0000.0001) // =======================================================
(PID.TID 0000.0001) // =======================================================
(PID.TID 0000.0001) // Begin OBCS MONITOR field statistics
(PID.TID 0000.0001) // =======================================================
(PID.TID 0000.0001) %MON obc_E_uVel_max               =   6.6809804669674E-02
(PID.TID 0000.0001) %MON obc_E_uVel_min               =   6.6809804669674E-02
(PID.TID 0000.0001) %MON obc_E_uVel_mean              =   6.6809804669674E-02
(PID.TID 0000.0001) %MON obc_E_uVel_sd                =  -1.7347234759768E-18
(PID.TID 0000.0001) %MON obc_E_uVel_Int               =   6.6809804669674E+04
(PID.TID 0000.0001) %MON obc_W_uVel_max               =   6.6809804669674E-02
(PID.TID 0000.0001) %MON obc_W_uVel_min               =   6.6809804669674E-02
(PID.TID 0000.0001) %MON obc_W_uVel_mean              =   6.6809804669674E-02
(PID.TID 0000.0001) %MON obc_W_uVel_sd                =  -1.7347234759768E-18
(PID.TID 0000.0001) %MON obc_W_uVel_Int               =   6.6809804669674E+04
(PID.TID 0000.0001) // =======================================================
(PID.TID 0000.0001) // End OBCS MONITOR field statistics
(PID.TID 0000.0001) // =======================================================
 cg2d: Sum(rhs),rhsMax =  -5.37159206004389E-11  1.12347746114024E-02
 cg2d: Sum(rhs),rhsMax =  -5.57393575739695E-11  1.08081316910367E-02
 cg2d: Sum(rhs),rhsMax =  -5.79247205756417E-11  1.03830051353494E-02
 cg2d: Sum(rhs),rhsMax =  -6.02924932202598E-11  9.95958087597927E-03
 cg2d: Sum(rhs),rhsMax =  -6.28532781377089E-11  9.53804413063685E-03
 cg2d: Sum(rhs),rhsMax =  -6.56548149180480E-11  9.11857931689757E-03
 cg2d: Sum(rhs),rhsMax =  -6.86890544443486E-11  8.70136996555185E-03
 cg2d: Sum(rhs),rhsMax =  -7.09334813109308E-11  8.41246838395201E-03
 cg2d: Sum(rhs),rhsMax =  -6.82308098909346E-11  8.73443007770537E-03
 cg2d: Sum(rhs),rhsMax =  -6.57168208739733E-11  9.05385162986103E-03
 cg2d: Sum(rhs),rhsMax =  -6.34091668061387E-11  9.37059524521224E-03
 cg2d: Sum(rhs),rhsMax =  -6.12516148912334E-11  9.68452429213438E-03
 cg2d: Sum(rhs),rhsMax =  -5.92479676431168E-11  9.99550336547664E-03
 cg2d: Sum(rhs),rhsMax =  -5.74065517344735E-11  1.03033983420859E-02
 cg2d: Sum(rhs),rhsMax =  -5.56246576577379E-11  1.06080764303808E-02
 cg2d: Sum(rhs),rhsMax =  -5.39997838111539E-11  1.09094062226462E-02
 cg2d: Sum(rhs),rhsMax =  -5.25276176721601E-11  1.12072577674713E-02
 cg2d: Sum(rhs),rhsMax =  -5.10867684960781E-11  1.15015026587062E-02
 cg2d: Sum(rhs),rhsMax =  -4.97549570988021E-11  1.17920141045033E-02
 cg2d: Sum(rhs),rhsMax =  -4.85276888118058E-11  1.20786669762677E-02
 cg2d: Sum(rhs),rhsMax =  -4.73028838321454E-11  1.23613378514368E-02
 cg2d: Sum(rhs),rhsMax =  -4.61898852499587E-11  1.26399050620203E-02
 cg2d: Sum(rhs),rhsMax =  -4.51284148939024E-11  1.29142487484240E-02
 cg2d: Sum(rhs),rhsMax =  -4.41469361067703E-11  1.31842509165792E-02
 cg2d: Sum(rhs),rhsMax =  -4.32117119864017E-11  1.34497954950141E-02
 cg2d: Sum(rhs),rhsMax =  -4.23440726926572E-11  1.37107683893263E-02
 cg2d: Sum(rhs),rhsMax =  -4.14797640679865E-11  1.39670575333093E-02
 cg2d: Sum(rhs),rhsMax =  -4.06188971346921E-11  1.42185529373652E-02
 cg2d: Sum(rhs),rhsMax =  -3.97711308330884E-11  1.44651467102305E-02
 cg2d: Sum(rhs),rhsMax =  -3.89208387741036E-11  1.47067331296930E-02
 cg2d: Sum(rhs),rhsMax =  -3.83659215508203E-11  1.49432087012416E-02
 cg2d: Sum(rhs),rhsMax =  -3.78457820637834E-11  1.51744722031966E-02
 cg2d: Sum(rhs),rhsMax =  -3.72590291952690E-11  1.54004247269996E-02
 cg2d: Sum(rhs),rhsMax =  -3.66843777577230E-11  1.56209697191196E-02
 cg2d: Sum(rhs),rhsMax =  -3.61383700742124E-11  1.58360130263162E-02
 cg2d: Sum(rhs),rhsMax =  -3.56324414418907E-11  1.60454629436462E-02
 cg2d: Sum(rhs),rhsMax =  -3.51410012200404E-11  1.62492302629247E-02
 cg2d: Sum(rhs),rhsMax =  -3.46369599668606E-11  1.64472283210369E-02
 cg2d: Sum(rhs),rhsMax =  -3.42163519739813E-11  1.66393730484267E-02
 cg2d: Sum(rhs),rhsMax =  -3.37678773831840E-11  1.68255830316973E-02
 cg2d: Sum(rhs),rhsMax =  -3.33582605982485E-11  1.70057795720562E-02
 cg2d: Sum(rhs),rhsMax =  -3.29593019543495E-11  1.71798866894007E-02
 cg2d: Sum(rhs),rhsMax =  -3.25915960885936E-11  1.73478311387683E-02
 cg2d: Sum(rhs),rhsMax =  -3.22500359750677E-11  1.75095424649417E-02
 cg2d: Sum(rhs),rhsMax =  -3.19211324040225E-11  1.76649530677112E-02
 cg2d: Sum(rhs),rhsMax =  -3.16089376894979E-11  1.78139982565646E-02
 cg2d: Sum(rhs),rhsMax =  -3.13109538296885E-11  1.79566162805589E-02
 cg2d: Sum(rhs),rhsMax =  -3.10181325069436E-11  1.80927483368314E-02
 cg2d: Sum(rhs),rhsMax =  -3.07515124475799E-11  1.82223385692831E-02
 cg2d: Sum(rhs),rhsMax =  -3.05226399710534E-11  1.83453340685012E-02
 cg2d: Sum(rhs),rhsMax =  -3.02831093534905E-11  1.84616848719245E-02
 cg2d: Sum(rhs),rhsMax =  -3.00537372766030E-11  1.85713439623660E-02
 cg2d: Sum(rhs),rhsMax =  -2.98218116867588E-11  1.86742672692517E-02
 cg2d: Sum(rhs),rhsMax =  -2.95794500004831E-11  1.87704136746764E-02
 cg2d: Sum(rhs),rhsMax =  -2.93894908409698E-11  1.88597450243970E-02
 cg2d: Sum(rhs),rhsMax =  -2.91920931871914E-11  1.89422261425551E-02
 cg2d: Sum(rhs),rhsMax =  -2.89980817136382E-11  1.90178248481470E-02
 cg2d: Sum(rhs),rhsMax =  -2.88386536873020E-11  1.90865119749713E-02
 cg2d: Sum(rhs),rhsMax =  -2.87052048797420E-11  1.91482614004117E-02
 cg2d: Sum(rhs),rhsMax =  -2.85783063880274E-11  1.92030502207360E-02
 cg2d: Sum(rhs),rhsMax =  -2.84664514182964E-11  1.92508587688579E-02
 cg2d: Sum(rhs),rhsMax =  -2.83651990784506E-11  1.92916704235458E-02
 cg2d: Sum(rhs),rhsMax =  -2.82185941280488E-11  1.93254716001169E-02
 cg2d: Sum(rhs),rhsMax =  -2.80932499485687E-11  1.93522518326980E-02
 cg2d: Sum(rhs),rhsMax =  -2.79873901831706E-11  1.93720038542278E-02
 cg2d: Sum(rhs),rhsMax =  -2.79311573869734E-11  1.93847236309813E-02
 cg2d: Sum(rhs),rhsMax =  -2.78316258928157E-11  1.93904103530471E-02
 cg2d: Sum(rhs),rhsMax =  -2.77747269628037E-11  1.93890664002881E-02
 cg2d: Sum(rhs),rhsMax =  -2.77544653926043E-11  1.93806973014192E-02
 cg2d: Sum(rhs),rhsMax =  -2.78031486722341E-11  1.93653116953727E-02
 cg2d: Sum(rhs),rhsMax =  -2.78689293864431E-11  1.93429212976170E-02
 cg2d: Sum(rhs),rhsMax =  -2.79625211874190E-11  1.93135408715703E-02
 cg2d: Sum(rhs),rhsMax =  -2.80694911758417E-11  1.92771882051783E-02
 cg2d: Sum(rhs),rhsMax =  -2.82225354197863E-11  1.92338840931244E-02
 cg2d: Sum(rhs),rhsMax =  -2.84175460940617E-11  1.91836523250435E-02
 cg2d: Sum(rhs),rhsMax =  -2.85971246682948E-11  1.91265196794543E-02
 cg2d: Sum(rhs),rhsMax =  -2.87668777687600E-11  1.90625159222824E-02
 cg2d: Sum(rhs),rhsMax =  -2.89239188155932E-11  1.89916738081830E-02
 cg2d: Sum(rhs),rhsMax =  -2.90930057822436E-11  1.89140290829164E-02
 cg2d: Sum(rhs),rhsMax =  -2.92951218838766E-11  1.88296204849284E-02
 cg2d: Sum(rhs),rhsMax =  -2.95078961265460E-11  1.87384897430959E-02
 cg2d: Sum(rhs),rhsMax =  -2.97655233794103E-11  1.86406815679947E-02
 cg2d: Sum(rhs),rhsMax =  -3.00072744430224E-11  1.85362436351346E-02
 cg2d: Sum(rhs),rhsMax =  -3.03003178103722E-11  1.84252265564306E-02
 cg2d: Sum(rhs),rhsMax =  -3.06016323392555E-11  1.83076838668819E-02
 cg2d: Sum(rhs),rhsMax =  -3.09370862261460E-11  1.81836720001308E-02
 cg2d: Sum(rhs),rhsMax =  -3.11852210721497E-11  1.80532502551858E-02
 cg2d: Sum(rhs),rhsMax =  -3.14664405642873E-11  1.79164807575733E-02
 cg2d: Sum(rhs),rhsMax =  -3.17449400100145E-11  1.77734284172609E-02
 cg2d: Sum(rhs),rhsMax =  -3.21038751138758E-11  1.76241608847752E-02
 cg2d: Sum(rhs),rhsMax =  -3.23859272732818E-11  1.74687485670226E-02
 cg2d: Sum(rhs),rhsMax =  -3.27761706664376E-11  1.73072645028357E-02
 cg2d: Sum(rhs),rhsMax =  -3.31507599149461E-11  1.71397842844934E-02
 cg2d: Sum(rhs),rhsMax =  -3.35375616167255E-11  1.69663860412359E-02
 cg2d: Sum(rhs),rhsMax =  -3.39563932527653E-11  1.67871504299498E-02
 cg2d: Sum(rhs),rhsMax =  -3.44300699062217E-11  1.66021606049612E-02
 cg2d: Sum(rhs),rhsMax =  -3.49008599798140E-11  1.64115021698017E-02
 cg2d: Sum(rhs),rhsMax =  -3.54019036308273E-11  1.62152631239965E-02
 cg2d: Sum(rhs),rhsMax =  -3.59169916031021E-11  1.60135338141448E-02
 cg2d: Sum(rhs),rhsMax =  -3.64940300201511E-11  1.58064068914645E-02
 cg2d: Sum(rhs),rhsMax =  -3.70888875167452E-11  1.55939772746844E-02
 cg2d: Sum(rhs),rhsMax =  -3.76777498090064E-11  1.53763421113807E-02
 cg2d: Sum(rhs),rhsMax =  -3.83332254827451E-11  1.51536007374473E-02
 cg2d: Sum(rhs),rhsMax =  -3.90118493065472E-11  1.49258546344479E-02
 cg2d: Sum(rhs),rhsMax =  -3.97237798210881E-11  1.46932073836904E-02
 cg2d: Sum(rhs),rhsMax =  -4.04629663108835E-11  1.44557646159560E-02
 cg2d: Sum(rhs),rhsMax =  -4.12332945565197E-11  1.42136339567049E-02
 cg2d: Sum(rhs),rhsMax =  -4.21035151187965E-11  1.39669249674519E-02
 cg2d: Sum(rhs),rhsMax =  -4.29881685803934E-11  1.37157490844154E-02
 cg2d: Sum(rhs),rhsMax =  -4.39054903544900E-11  1.34602195556231E-02
 cg2d: Sum(rhs),rhsMax =  -4.48326376023545E-11  1.32004513776836E-02
 cg2d: Sum(rhs),rhsMax =  -4.57664739439423E-11  1.29365612335041E-02
 cg2d: Sum(rhs),rhsMax =  -4.68072802739528E-11  1.26686674322826E-02
 cg2d: Sum(rhs),rhsMax =  -4.78572736994920E-11  1.23968898357784E-02
 cg2d: Sum(rhs),rhsMax =  -4.90354978843754E-11  1.21213498156325E-02
 cg2d: Sum(rhs),rhsMax =  -5.02601987806273E-11  1.18421702233355E-02
 cg2d: Sum(rhs),rhsMax =  -5.15586184857142E-11  1.15594753540348E-02
 cg2d: Sum(rhs),rhsMax =  -5.29265450910366E-11  1.12733909006412E-02
 cg2d: Sum(rhs),rhsMax =  -5.44064376883924E-11  1.09840439041325E-02
 cg2d: Sum(rhs),rhsMax =  -5.59556767240621E-11  1.06915627058538E-02
 cg2d: Sum(rhs),rhsMax =  -5.76422173881319E-11  1.03960769028361E-02
 cg2d: Sum(rhs),rhsMax =  -5.94294960465369E-11  1.00977173031895E-02
 cg2d: Sum(rhs),rhsMax =  -6.13249589997977E-11  9.79661587768948E-03
 cg2d: Sum(rhs),rhsMax =  -6.34065022708796E-11  9.49290570505597E-03
 cg2d: Sum(rhs),rhsMax =  -6.55893950263220E-11  9.18672091046099E-03
 cg2d: Sum(rhs),rhsMax =  -6.79474254638990E-11  8.87819659830232E-03
 cg2d: Sum(rhs),rhsMax =  -7.05321356875288E-11  8.56746878095021E-03
 cg2d: Sum(rhs),rhsMax =  -7.32904847922100E-11  8.25467430523867E-03
 cg2d: Sum(rhs),rhsMax =  -7.63252239188716E-11  7.93995077561244E-03
 cg2d: Sum(rhs),rhsMax =  -7.82141573729689E-11  7.75856151224177E-03
 cg2d: Sum(rhs),rhsMax =  -7.44843076105894E-11  8.15788383369146E-03
 cg2d: Sum(rhs),rhsMax =  -7.10818071070207E-11  8.55944735061878E-03
 cg2d: Sum(rhs),rhsMax =  -6.79853950913412E-11  8.96307590554309E-03
 cg2d: Sum(rhs),rhsMax =  -6.51239617788235E-11  9.36859268127869E-03
 cg2d: Sum(rhs),rhsMax =  -6.25079432658993E-11  9.77582026461704E-03
 cg2d: Sum(rhs),rhsMax =  -6.00985927690090E-11  1.01845807089145E-02
 cg2d: Sum(rhs),rhsMax =  -5.78491698988159E-11  1.05946955969455E-02
 cg2d: Sum(rhs),rhsMax =  -5.57712764859275E-11  1.10059861052729E-02
 cg2d: Sum(rhs),rhsMax =  -5.38435962482708E-11  1.14182730711600E-02
 cg2d: Sum(rhs),rhsMax =  -5.20397058778599E-11  1.18313770627398E-02
 cg2d: Sum(rhs),rhsMax =  -5.03616037761390E-11  1.22451184528090E-02
 cg2d: Sum(rhs),rhsMax =  -4.87859752595909E-11  1.26593174962551E-02
 cg2d: Sum(rhs),rhsMax =  -4.73223682462276E-11  1.30737944107911E-02
 cg2d: Sum(rhs),rhsMax =  -4.59364768445880E-11  1.34883694603997E-02
 cg2d: Sum(rhs),rhsMax =  -4.46357395489372E-11  1.39028630406921E-02
 cg2d: Sum(rhs),rhsMax =  -4.33866276239314E-11  1.43170957652899E-02
 cg2d: Sum(rhs),rhsMax =  -4.22304413660868E-11  1.47308885523351E-02
 cg2d: Sum(rhs),rhsMax =  -4.11291001256586E-11  1.51440627103110E-02
 cg2d: Sum(rhs),rhsMax =  -4.00945943113129E-11  1.55564400225105E-02
 cg2d: Sum(rhs),rhsMax =  -3.91177090719452E-11  1.59678428296733E-02
 cg2d: Sum(rhs),rhsMax =  -3.81914500025005E-11  1.63780941105243E-02
 cg2d: Sum(rhs),rhsMax =  -3.73078234972013E-11  1.67870175601397E-02
 cg2d: Sum(rhs),rhsMax =  -3.64842600575344E-11  1.71944376662323E-02
 cg2d: Sum(rhs),rhsMax =  -3.56944473978160E-11  1.76001797835733E-02
 cg2d: Sum(rhs),rhsMax =  -3.49817952383091E-11  1.80040702068338E-02
 cg2d: Sum(rhs),rhsMax =  -3.43290951221320E-11  1.84059362421524E-02
 cg2d: Sum(rhs),rhsMax =  -3.37110339643232E-11  1.88056062777055E-02
 cg2d: Sum(rhs),rhsMax =  -3.31152882893093E-11  1.92029098535010E-02
 cg2d: Sum(rhs),rhsMax =  -3.25360849373624E-11  1.95976777305344E-02
 cg2d: Sum(rhs),rhsMax =  -3.19964055250921E-11  1.99897419593659E-02
 cg2d: Sum(rhs),rhsMax =  -3.14791526179192E-11  2.03789359480973E-02
 cg2d: Sum(rhs),rhsMax =  -3.09712255841532E-11  2.07650945296625E-02
 cg2d: Sum(rhs),rhsMax =  -3.05045988469033E-11  2.11480540283072E-02
 cg2d: Sum(rhs),rhsMax =  -3.00480751391774E-11  2.15276523251036E-02
 cg2d: Sum(rhs),rhsMax =  -2.96117574904997E-11  2.19037289223550E-02
 cg2d: Sum(rhs),rhsMax =  -2.91850987821363E-11  2.22761250066074E-02
 cg2d: Sum(rhs),rhsMax =  -2.87985191249618E-11  2.26446835103995E-02
 cg2d: Sum(rhs),rhsMax =  -2.84193779620523E-11  2.30092491731139E-02
 cg2d: Sum(rhs),rhsMax =  -2.80367951077665E-11  2.33696686003905E-02
 cg2d: Sum(rhs),rhsMax =  -2.76638711937949E-11  2.37257903222650E-02
 cg2d: Sum(rhs),rhsMax =  -2.73483458101964E-11  2.40774648502444E-02
 cg2d: Sum(rhs),rhsMax =  -2.70293787352216E-11  2.44245447335221E-02
 cg2d: Sum(rhs),rhsMax =  -2.66986432961858E-11  2.47668846144774E-02
 cg2d: Sum(rhs),rhsMax =  -2.64201993616098E-11  2.51043412835002E-02
 cg2d: Sum(rhs),rhsMax =  -2.61395349809845E-11  2.54367737330831E-02
 cg2d: Sum(rhs),rhsMax =  -2.58487675708352E-11  2.57640432110599E-02
 cg2d: Sum(rhs),rhsMax =  -2.56010768140413E-11  2.60860132732874E-02
 cg2d: Sum(rhs),rhsMax =  -2.53418397377914E-11  2.64025498342813E-02
 cg2d: Sum(rhs),rhsMax =  -2.50981457838861E-11  2.67135212165856E-02
 cg2d: Sum(rhs),rhsMax =  -2.48681075731838E-11  2.70187981990370E-02
 cg2d: Sum(rhs),rhsMax =  -2.46621612021158E-11  2.73182540639460E-02
 cg2d: Sum(rhs),rhsMax =  -2.44623210576833E-11  2.76117646433448E-02
 cg2d: Sum(rhs),rhsMax =  -2.42388331628263E-11  2.78992083645742E-02
 cg2d: Sum(rhs),rhsMax =  -2.40624187242133E-11  2.81804662955147E-02
 cg2d: Sum(rhs),rhsMax =  -2.38705721855581E-11  2.84554221896630E-02
 cg2d: Sum(rhs),rhsMax =  -2.36893837879393E-11  2.87239625310184E-02
 cg2d: Sum(rhs),rhsMax =  -2.35068631226909E-11  2.89859765784600E-02
 cg2d: Sum(rhs),rhsMax =  -2.33408847805094E-11  2.92413564090841E-02
 cg2d: Sum(rhs),rhsMax =  -2.31913377390924E-11  2.94899969599262E-02
 cg2d: Sum(rhs),rhsMax =  -2.30991892280485E-11  2.97317960676476E-02
 cg2d: Sum(rhs),rhsMax =  -2.30110375198933E-11  2.99666545060728E-02
 cg2d: Sum(rhs),rhsMax =  -2.29329888412622E-11  3.01944760218062E-02
 cg2d: Sum(rhs),rhsMax =  -2.28524976719768E-11  3.04151673684148E-02
 cg2d: Sum(rhs),rhsMax =  -2.27733387703211E-11  3.06286383397576E-02
 cg2d: Sum(rhs),rhsMax =  -2.26976215600416E-11  3.08348018029599E-02
 cg2d: Sum(rhs),rhsMax =  -2.26517693491246E-11  3.10335737313265E-02
 cg2d: Sum(rhs),rhsMax =  -2.25772733841723E-11  3.12248732372364E-02
 cg2d: Sum(rhs),rhsMax =  -2.25169882739351E-11  3.14086226048509E-02
 cg2d: Sum(rhs),rhsMax =  -2.24656959701974E-11  3.15847473223301E-02
 cg2d: Sum(rhs),rhsMax =  -2.24076313060095E-11  3.17531761131973E-02
 cg2d: Sum(rhs),rhsMax =  -2.23493445972167E-11  3.19138409665122E-02
 cg2d: Sum(rhs),rhsMax =  -2.23052687431391E-11  3.20666771655751E-02
 cg2d: Sum(rhs),rhsMax =  -2.22766249891038E-11  3.22116233149703E-02
 cg2d: Sum(rhs),rhsMax =  -2.22112328529533E-11  3.23486213658630E-02
 cg2d: Sum(rhs),rhsMax =  -2.21825890989180E-11  3.24776166395573E-02
 cg2d: Sum(rhs),rhsMax =  -2.21633822405920E-11  3.25985578494095E-02
 cg2d: Sum(rhs),rhsMax =  -2.22268869976006E-11  3.27113971212361E-02
 cg2d: Sum(rhs),rhsMax =  -2.23129292820090E-11  3.28160900123609E-02
 cg2d: Sum(rhs),rhsMax =  -2.24552598737660E-11  3.29125955294057E-02
 cg2d: Sum(rhs),rhsMax =  -2.24246177182863E-11  3.30008761448510E-02
 cg2d: Sum(rhs),rhsMax =  -2.24248397628912E-11  3.30808978123197E-02
 cg2d: Sum(rhs),rhsMax =  -2.24273932758479E-11  3.31526299804839E-02
 cg2d: Sum(rhs),rhsMax =  -2.24450458219394E-11  3.32160456054837E-02
 cg2d: Sum(rhs),rhsMax =  -2.24664731263147E-11  3.32711211617722E-02
 cg2d: Sum(rhs),rhsMax =  -2.25434115819212E-11  3.33178366513584E-02
 cg2d: Sum(rhs),rhsMax =  -2.25786056518018E-11  3.33561756114691E-02
 cg2d: Sum(rhs),rhsMax =  -2.26415552972981E-11  3.33861251207067E-02
 cg2d: Sum(rhs),rhsMax =  -2.26534346836615E-11  3.34076758038325E-02
 cg2d: Sum(rhs),rhsMax =  -2.26376695167119E-11  3.34208218353553E-02
 cg2d: Sum(rhs),rhsMax =  -2.26845209283510E-11  3.34255609422139E-02
 cg2d: Sum(rhs),rhsMax =  -2.26488827692606E-11  3.34218944057656E-02
 cg2d: Sum(rhs),rhsMax =  -2.25771623618698E-11  3.34098270632481E-02
 cg2d: Sum(rhs),rhsMax =  -2.25729435143762E-11  3.33893673092606E-02
 cg2d: Sum(rhs),rhsMax =  -2.25089946681578E-11  3.33605270965733E-02
 cg2d: Sum(rhs),rhsMax =  -2.24500418255502E-11  3.33233219365741E-02
 cg2d: Sum(rhs),rhsMax =  -2.23642215857467E-11  3.32777708996347E-02
 cg2d: Sum(rhs),rhsMax =  -2.23182583525272E-11  3.32238966141887E-02
 cg2d: Sum(rhs),rhsMax =  -2.23024931855775E-11  3.31617252640174E-02
 cg2d: Sum(rhs),rhsMax =  -2.22454277221118E-11  3.30912865833024E-02
 cg2d: Sum(rhs),rhsMax =  -2.22234453062242E-11  3.30126138490796E-02
 cg2d: Sum(rhs),rhsMax =  -2.21860307902944E-11  3.29257438708124E-02
 cg2d: Sum(rhs),rhsMax =  -2.21292983937360E-11  3.28307169768785E-02
 cg2d: Sum(rhs),rhsMax =  -2.20956586360899E-11  3.27275769978429E-02
 cg2d: Sum(rhs),rhsMax =  -2.21194174088168E-11  3.26163712464739E-02
 cg2d: Sum(rhs),rhsMax =  -2.21579421477713E-11  3.24971504945341E-02
 cg2d: Sum(rhs),rhsMax =  -2.21787033183318E-11  3.23699689469288E-02
 cg2d: Sum(rhs),rhsMax =  -2.22273310868104E-11  3.22348842121339E-02
 cg2d: Sum(rhs),rhsMax =  -2.22626361789935E-11  3.20919572700290E-02
 cg2d: Sum(rhs),rhsMax =  -2.22983853603864E-11  3.19412524377801E-02
 cg2d: Sum(rhs),rhsMax =  -2.23310259173104E-11  3.17828373341940E-02
 cg2d: Sum(rhs),rhsMax =  -2.23936424958993E-11  3.16167828429851E-02
 cg2d: Sum(rhs),rhsMax =  -2.24523732939019E-11  3.14431630753503E-02
 cg2d: Sum(rhs),rhsMax =  -2.24912310997638E-11  3.12620553321401E-02
 cg2d: Sum(rhs),rhsMax =  -2.25455210056680E-11  3.10735400657771E-02
 cg2d: Sum(rhs),rhsMax =  -2.26154650562194E-11  3.08777008419896E-02
 cg2d: Sum(rhs),rhsMax =  -2.26679786052841E-11  3.06746243014333E-02
 cg2d: Sum(rhs),rhsMax =  -2.27273755371016E-11  3.04644001213585E-02
 cg2d: Sum(rhs),rhsMax =  -2.28095320409238E-11  3.02471209775756E-02
 cg2d: Sum(rhs),rhsMax =  -2.28677077274142E-11  3.00228825069897E-02
 cg2d: Sum(rhs),rhsMax =  -2.29558594355694E-11  2.97917832708805E-02
 cg2d: Sum(rhs),rhsMax =  -2.30219177055346E-11  2.95539247188954E-02
 cg2d: Sum(rhs),rhsMax =  -2.31752395052354E-11  2.93094111534740E-02
 cg2d: Sum(rhs),rhsMax =  -2.33350005984789E-11  2.90583496942093E-02
 cg2d: Sum(rhs),rhsMax =  -2.35046426766417E-11  2.88008502415406E-02
 cg2d: Sum(rhs),rhsMax =  -2.36891617433344E-11  2.85370254391915E-02
 cg2d: Sum(rhs),rhsMax =  -2.38586927991946E-11  2.82669906348904E-02
 cg2d: Sum(rhs),rhsMax =  -2.40452102673316E-11  2.79908638390927E-02
 cg2d: Sum(rhs),rhsMax =  -2.42297293340243E-11  2.77087656815951E-02
 cg2d: Sum(rhs),rhsMax =  -2.44489983813878E-11  2.74208193660504E-02
 cg2d: Sum(rhs),rhsMax =  -2.46578313323198E-11  2.71271506224187E-02
 cg2d: Sum(rhs),rhsMax =  -2.48691067739060E-11  2.68278876573509E-02
 cg2d: Sum(rhs),rhsMax =  -2.51018095198674E-11  2.65231611024082E-02
 cg2d: Sum(rhs),rhsMax =  -2.53435050723283E-11  2.62131039599460E-02
 cg2d: Sum(rhs),rhsMax =  -2.55915288960296E-11  2.58978515464848E-02
 cg2d: Sum(rhs),rhsMax =  -2.58387755636136E-11  2.55775414334712E-02
 cg2d: Sum(rhs),rhsMax =  -2.61144439406280E-11  2.52523133855285E-02
 cg2d: Sum(rhs),rhsMax =  -2.64119837112275E-11  2.49223092965524E-02
 cg2d: Sum(rhs),rhsMax =  -2.67081912141975E-11  2.45876731242911E-02
 cg2d: Sum(rhs),rhsMax =  -2.70079514308463E-11  2.42485508242972E-02
 cg2d: Sum(rhs),rhsMax =  -2.73332467770615E-11  2.39050902842925E-02
 cg2d: Sum(rhs),rhsMax =  -2.76739742233190E-11  2.35574412600383E-02
 cg2d: Sum(rhs),rhsMax =  -2.80255818552178E-11  2.32057553137205E-02
 cg2d: Sum(rhs),rhsMax =  -2.83871814943382E-11  2.28501857556690E-02
 cg2d: Sum(rhs),rhsMax =  -2.87484480665512E-11  2.24908875899161E-02
 cg2d: Sum(rhs),rhsMax =  -2.91325852330715E-11  2.21280174637059E-02
 cg2d: Sum(rhs),rhsMax =  -2.95358182356154E-11  2.17617336205948E-02
 cg2d: Sum(rhs),rhsMax =  -2.99701374828487E-11  2.13921958555358E-02
 cg2d: Sum(rhs),rhsMax =  -3.04075653545510E-11  2.10195654726271E-02
 cg2d: Sum(rhs),rhsMax =  -3.08784109392946E-11  2.06440052425847E-02
 cg2d: Sum(rhs),rhsMax =  -3.13621351111237E-11  2.02656793575031E-02
 cg2d: Sum(rhs),rhsMax =  -3.18672865873282E-11  1.98847533811399E-02
 cg2d: Sum(rhs),rhsMax =  -3.23976401261916E-11  1.95013941929583E-02
 cg2d: Sum(rhs),rhsMax =  -3.29553051514608E-11  1.91157699233479E-02
 cg2d: Sum(rhs),rhsMax =  -3.35361738379447E-11  1.87280498797898E-02
 cg2d: Sum(rhs),rhsMax =  -3.41423556093901E-11  1.83384044630962E-02
 cg2d: Sum(rhs),rhsMax =  -3.47779582909880E-11  1.79470050734448E-02
 cg2d: Sum(rhs),rhsMax =  -3.54494211762812E-11  1.75540240066682E-02
 cg2d: Sum(rhs),rhsMax =  -3.61463081688385E-11  1.71596343420690E-02
 cg2d: Sum(rhs),rhsMax =  -3.69475561257104E-11  1.67640098238275E-02
 cg2d: Sum(rhs),rhsMax =  -3.77868847323271E-11  1.63673247387189E-02
 cg2d: Sum(rhs),rhsMax =  -3.86840559585266E-11  1.59697537933030E-02
 cg2d: Sum(rhs),rhsMax =  -3.96229715704521E-11  1.55714719939014E-02
 cg2d: Sum(rhs),rhsMax =  -4.06128464192079E-11  1.51726545324929E-02
 cg2d: Sum(rhs),rhsMax =  -4.16486845011832E-11  1.47734766812123E-02
 cg2d: Sum(rhs),rhsMax =  -4.27423652027414E-11  1.43741136973694E-02
 cg2d: Sum(rhs),rhsMax =  -4.39062119994560E-11  1.39747407399376E-02
 cg2d: Sum(rhs),rhsMax =  -4.51305659510126E-11  1.35755327973984E-02
 cg2d: Sum(rhs),rhsMax =  -4.64507321495944E-11  1.31766646257998E-02
 cg2d: Sum(rhs),rhsMax =  -4.78256323432902E-11  1.27783106950222E-02
 cg2d: Sum(rhs),rhsMax =  -4.92966778509185E-11  1.23806451406577E-02
 cg2d: Sum(rhs),rhsMax =  -5.08590947134735E-11  1.19838417186310E-02
 cg2d: Sum(rhs),rhsMax =  -5.25207655144300E-11  1.15880737597275E-02
 cg2d: Sum(rhs),rhsMax =  -5.43040057365829E-11  1.11935141214805E-02
 cg2d: Sum(rhs),rhsMax =  -5.61932722575875E-11  1.08003351353521E-02
 cg2d: Sum(rhs),rhsMax =  -5.82294212847501E-11  1.04087085477565E-02
 cg2d: Sum(rhs),rhsMax =  -6.03982974745065E-11  1.00188054541727E-02
 cg2d: Sum(rhs),rhsMax =  -6.27352059190400E-11  9.63079622632389E-03
 cg2d: Sum(rhs),rhsMax =  -6.52499165809672E-11  9.24485043311852E-03
 cg2d: Sum(rhs),rhsMax =  -6.79828970895358E-11  8.86113675667984E-03
 cg2d: Sum(rhs),rhsMax =  -7.09364234019461E-11  8.47982290528085E-03
 cg2d: Sum(rhs),rhsMax =  -7.20908333029513E-11  8.33152246835162E-03
 cg2d: Sum(rhs),rhsMax =  -6.95832280683817E-11  8.62177243036413E-03
 cg2d: Sum(rhs),rhsMax =  -6.72219502284577E-11  8.90950368175356E-03
 cg2d: Sum(rhs),rhsMax =  -6.50597353768489E-11  9.19459032707476E-03
 cg2d: Sum(rhs),rhsMax =  -6.30479002339257E-11  9.47690777313713E-03
 cg2d: Sum(rhs),rhsMax =  -6.11451167475963E-11  9.75633279376315E-03
 cg2d: Sum(rhs),rhsMax =  -5.93849414087799E-11  1.00327435860071E-02
 cg2d: Sum(rhs),rhsMax =  -5.77329573037133E-11  1.03060198180742E-02
 cg2d: Sum(rhs),rhsMax =  -5.61956037259392E-11  1.05760426707547E-02
 cg2d: Sum(rhs),rhsMax =  -5.47350220703180E-11  1.08426948743097E-02
 cg2d: Sum(rhs),rhsMax =  -5.33711200234599E-11  1.11058607425169E-02
 cg2d: Sum(rhs),rhsMax =  -5.21106421902395E-11  1.13654262055427E-02
 cg2d: Sum(rhs),rhsMax =  -5.08817016298124E-11  1.16212788425373E-02
 cg2d: Sum(rhs),rhsMax =  -4.97483582106995E-11  1.18733079153555E-02
 cg2d: Sum(rhs),rhsMax =  -4.86502088614671E-11  1.21214044044881E-02
 cg2d: Sum(rhs),rhsMax =  -4.76371442292844E-11  1.23654610476995E-02
 cg2d: Sum(rhs),rhsMax =  -4.66608834903681E-11  1.26053723812771E-02
 cg2d: Sum(rhs),rhsMax =  -4.57535398457054E-11  1.28410347834161E-02
 cg2d: Sum(rhs),rhsMax =  -4.48866221969269E-11  1.30723465190923E-02
 cg2d: Sum(rhs),rhsMax =  -4.40008030011541E-11  1.32992077857206E-02
 cg2d: Sum(rhs),rhsMax =  -4.31737423589595E-11  1.35215207588994E-02
 cg2d: Sum(rhs),rhsMax =  -4.23804324967136E-11  1.37391896381788E-02
 cg2d: Sum(rhs),rhsMax =  -4.16265355518419E-11  1.39521206926455E-02
 cg2d: Sum(rhs),rhsMax =  -4.08816869246209E-11  1.41602223059683E-02
 cg2d: Sum(rhs),rhsMax =  -4.01935984495339E-11  1.43634050206125E-02
 cg2d: Sum(rhs),rhsMax =  -3.95683485976406E-11  1.45615815812346E-02
 cg2d: Sum(rhs),rhsMax =  -3.89445697912549E-11  1.47546669774718E-02
 cg2d: Sum(rhs),rhsMax =  -3.83778564483350E-11  1.49425784845299E-02
 cg2d: Sum(rhs),rhsMax =  -3.78127529288008E-11  1.51252357041300E-02
 cg2d: Sum(rhs),rhsMax =  -3.72734065834379E-11  1.53025606079569E-02
 cg2d: Sum(rhs),rhsMax =  -3.67871844098033E-11  1.54744775818481E-02
 cg2d: Sum(rhs),rhsMax =  -3.63166163808160E-11  1.56409134682916E-02
 cg2d: Sum(rhs),rhsMax =  -3.58600371619389E-11  1.58017976030759E-02
 cg2d: Sum(rhs),rhsMax =  -3.54777873745604E-11  1.59570618467917E-02
 cg2d: Sum(rhs),rhsMax =  -3.50550699579344E-11  1.61066406153255E-02
 cg2d: Sum(rhs),rhsMax =  -3.46676576334914E-11  1.62504709121918E-02
 cg2d: Sum(rhs),rhsMax =  -3.43080563958154E-11  1.63884923620810E-02
 cg2d: Sum(rhs),rhsMax =  -3.39834826945662E-11  1.65206472428786E-02
 cg2d: Sum(rhs),rhsMax =  -3.36400907130496E-11  1.66468805138387E-02
 cg2d: Sum(rhs),rhsMax =  -3.33403304964008E-11  1.67671398391855E-02
 cg2d: Sum(rhs),rhsMax =  -3.30666050096795E-11  1.68813756078595E-02
 cg2d: Sum(rhs),rhsMax =  -3.28109761582596E-11  1.69895409507036E-02
 cg2d: Sum(rhs),rhsMax =  -3.24553162123209E-11  1.70915917561047E-02
 cg2d: Sum(rhs),rhsMax =  -3.21272453085442E-11  1.71874866844688E-02
 cg2d: Sum(rhs),rhsMax =  -3.18206017091427E-11  1.72771871814182E-02
 cg2d: Sum(rhs),rhsMax =  -3.15826809149655E-11  1.73606578142036E-02
 cg2d: Sum(rhs),rhsMax =  -3.12771475385887E-11  1.74378660801993E-02
 cg2d: Sum(rhs),rhsMax =  -3.10162451278018E-11  1.75087825894083E-02
 cg2d: Sum(rhs),rhsMax =  -3.08080227995333E-11  1.75733804421682E-02
 cg2d: Sum(rhs),rhsMax =  -3.06141223482825E-11  1.76316352042772E-02
 cg2d: Sum(rhs),rhsMax =  -3.03178038230101E-11  1.76835251178789E-02
 cg2d: Sum(rhs),rhsMax =  -3.00441338474400E-11  1.77290311341355E-02
 cg2d: Sum(rhs),rhsMax =  -2.97633584445123E-11  1.77681369147229E-02
 cg2d: Sum(rhs),rhsMax =  -2.94740898354462E-11  1.78008290808127E-02
 cg2d: Sum(rhs),rhsMax =  -2.93938762219170E-11  1.78270972679089E-02
 cg2d: Sum(rhs),rhsMax =  -2.94240742881868E-11  1.78469340739391E-02
 cg2d: Sum(rhs),rhsMax =  -2.94674840084497E-11  1.78603349889816E-02
 cg2d: Sum(rhs),rhsMax =  -2.94963498070899E-11  1.78672983509407E-02
 cg2d: Sum(rhs),rhsMax =  -2.94641533393758E-11  1.78678253317228E-02
 cg2d: Sum(rhs),rhsMax =  -2.95282132078967E-11  1.78619199404793E-02
 cg2d: Sum(rhs),rhsMax =  -2.96149771372711E-11  1.78495890300396E-02
 cg2d: Sum(rhs),rhsMax =  -2.96929703047510E-11  1.78308422992034E-02
 cg2d: Sum(rhs),rhsMax =  -2.98595037584448E-11  1.78056922902255E-02
 cg2d: Sum(rhs),rhsMax =  -3.00146019149850E-11  1.77741543810432E-02
 cg2d: Sum(rhs),rhsMax =  -3.01593194862448E-11  1.77362467734088E-02
 cg2d: Sum(rhs),rhsMax =  -3.03655989242202E-11  1.76919904797756E-02
 cg2d: Sum(rhs),rhsMax =  -3.05781511222847E-11  1.76414092258873E-02
 cg2d: Sum(rhs),rhsMax =  -3.07390779497041E-11  1.75845294535759E-02
 cg2d: Sum(rhs),rhsMax =  -3.08907899260191E-11  1.75213804740978E-02
 cg2d: Sum(rhs),rhsMax =  -3.10622638721725E-11  1.74519944358449E-02
 cg2d: Sum(rhs),rhsMax =  -3.12381787104243E-11  1.73764062406321E-02
 cg2d: Sum(rhs),rhsMax =  -3.15111270410284E-11  1.72946534960897E-02
 cg2d: Sum(rhs),rhsMax =  -3.17273429750742E-11  1.72067764322534E-02
 cg2d: Sum(rhs),rhsMax =  -3.19922421887497E-11  1.71128178990466E-02
 cg2d: Sum(rhs),rhsMax =  -3.22442628153397E-11  1.70128233190438E-02
 cg2d: Sum(rhs),rhsMax =  -3.25314775118102E-11  1.69068399850893E-02
 cg2d: Sum(rhs),rhsMax =  -3.28751470490829E-11  1.67949180509106E-02
 cg2d: Sum(rhs),rhsMax =  -3.31367711048358E-11  1.66771106580697E-02
 cg2d: Sum(rhs),rhsMax =  -3.34366423437871E-11  1.65534737497375E-02
 cg2d: Sum(rhs),rhsMax =  -3.37360139823772E-11  1.64240658501129E-02
 cg2d: Sum(rhs),rhsMax =  -3.40648620422712E-11  1.62889479339897E-02
 cg2d: Sum(rhs),rhsMax =  -3.44187456313705E-11  1.61481833823382E-02
 cg2d: Sum(rhs),rhsMax =  -3.47959994151381E-11  1.60018379734630E-02
 cg2d: Sum(rhs),rhsMax =  -3.51869644532599E-11  1.58499798704072E-02
 cg2d: Sum(rhs),rhsMax =  -3.55900309223500E-11  1.56926795917559E-02
 cg2d: Sum(rhs),rhsMax =  -3.60431684498508E-11  1.55300099703017E-02
 cg2d: Sum(rhs),rhsMax =  -3.64869801039447E-11  1.53620459573608E-02
 cg2d: Sum(rhs),rhsMax =  -3.69574371106296E-11  1.51888647778667E-02
 cg2d: Sum(rhs),rhsMax =  -3.74807407332867E-11  1.50105459556331E-02
 cg2d: Sum(rhs),rhsMax =  -3.80544484812617E-11  1.48271712154291E-02
 cg2d: Sum(rhs),rhsMax =  -3.86056187018369E-11  1.46388243771287E-02
 cg2d: Sum(rhs),rhsMax =  -3.92266219506610E-11  1.44455912942396E-02
 cg2d: Sum(rhs),rhsMax =  -3.98559518721697E-11  1.42475598290799E-02
 cg2d: Sum(rhs),rhsMax =  -4.05174227502414E-11  1.40448198372154E-02
 cg2d: Sum(rhs),rhsMax =  -4.11988776427563E-11  1.38374631431469E-02
 cg2d: Sum(rhs),rhsMax =  -4.19681789320947E-11  1.36255835044995E-02
 cg2d: Sum(rhs),rhsMax =  -4.27315127726757E-11  1.34092765689820E-02
 cg2d: Sum(rhs),rhsMax =  -4.35456393166334E-11  1.31886398295289E-02
 cg2d: Sum(rhs),rhsMax =  -4.43900194380120E-11  1.29637725840440E-02
 cg2d: Sum(rhs),rhsMax =  -4.53433401936820E-11  1.27347758983467E-02
 cg2d: Sum(rhs),rhsMax =  -4.63223348567965E-11  1.25017525670015E-02
 cg2d: Sum(rhs),rhsMax =  -4.72415162544593E-11  1.22648070692768E-02
 cg2d: Sum(rhs),rhsMax =  -4.82575090998694E-11  1.20240455215249E-02
 cg2d: Sum(rhs),rhsMax =  -4.92863111434261E-11  1.17795756271988E-02
 cg2d: Sum(rhs),rhsMax =  -5.04021824276890E-11  1.15315066264847E-02
 cg2d: Sum(rhs),rhsMax =  -5.15768538988937E-11  1.12799492474910E-02
 cg2d: Sum(rhs),rhsMax =  -5.28557753121106E-11  1.10250156574275E-02
 cg2d: Sum(rhs),rhsMax =  -5.41741443371713E-11  1.07668194122299E-02
 cg2d: Sum(rhs),rhsMax =  -5.55898348186812E-11  1.05054754042431E-02
 cg2d: Sum(rhs),rhsMax =  -5.71023332784915E-11  1.02410998085997E-02
 cg2d: Sum(rhs),rhsMax =  -5.86776599531547E-11  9.97381002910111E-03
 cg2d: Sum(rhs),rhsMax =  -6.04236799484070E-11  9.70372467494796E-03
 cg2d: Sum(rhs),rhsMax =  -6.22565055063973E-11  9.43096352815161E-03
 cg2d: Sum(rhs),rhsMax =  -6.41932340617046E-11  9.15564736905405E-03
 cg2d: Sum(rhs),rhsMax =  -6.62986054944525E-11  8.87789793070921E-03
 cg2d: Sum(rhs),rhsMax =  -6.85272116829339E-11  8.59783788972261E-03
 cg2d: Sum(rhs),rhsMax =  -7.09596825743120E-11  8.31559082790139E-03
 cg2d: Sum(rhs),rhsMax =  -7.35640437454776E-11  8.03128115750057E-03
 cg2d: Sum(rhs),rhsMax =  -7.63945573467595E-11  7.74503403257842E-03
 cg2d: Sum(rhs),rhsMax =  -7.61194995924086E-11  7.78328482052019E-03
 cg2d: Sum(rhs),rhsMax =  -7.28165305829975E-11  8.14794789632325E-03
 cg2d: Sum(rhs),rhsMax =  -6.97511493008562E-11  8.51489673521202E-03
 cg2d: Sum(rhs),rhsMax =  -6.69634903083249E-11  8.88397046644112E-03
 cg2d: Sum(rhs),rhsMax =  -6.43577413583785E-11  9.25500740409114E-03
 cg2d: Sum(rhs),rhsMax =  -6.19466145046488E-11  9.62784511788962E-03
 cg2d: Sum(rhs),rhsMax =  -5.97080163089458E-11  1.00023205056555E-02
 cg2d: Sum(rhs),rhsMax =  -5.76233505356072E-11  1.03782698674885E-02
 cg2d: Sum(rhs),rhsMax =  -5.56815704655378E-11  1.07555289818737E-02
 cg2d: Sum(rhs),rhsMax =  -5.38623590173870E-11  1.11339331839072E-02
 cg2d: Sum(rhs),rhsMax =  -5.21690468602287E-11  1.15133174458445E-02
 cg2d: Sum(rhs),rhsMax =  -5.05723241062128E-11  1.18935164601196E-02
 cg2d: Sum(rhs),rhsMax =  -4.90815166287462E-11  1.22743647248434E-02
 cg2d: Sum(rhs),rhsMax =  -4.76677586291885E-11  1.26556966315854E-02
 cg2d: Sum(rhs),rhsMax =  -4.63459270960698E-11  1.30373465549776E-02
 cg2d: Sum(rhs),rhsMax =  -4.50813830710217E-11  1.34191489433753E-02
 cg2d: Sum(rhs),rhsMax =  -4.38973302152590E-11  1.38009384095353E-02
 cg2d: Sum(rhs),rhsMax =  -4.27707869121718E-11  1.41825498200332E-02
 cg2d: Sum(rhs),rhsMax =  -4.16947587567051E-11  1.45638183820174E-02
 cg2d: Sum(rhs),rhsMax =  -4.06801259345002E-11  1.49445797258950E-02
 cg2d: Sum(rhs),rhsMax =  -3.97319954714703E-11  1.53246699826968E-02
 cg2d: Sum(rhs),rhsMax =  -3.88458154532145E-11  1.57039258551701E-02
 cg2d: Sum(rhs),rhsMax =  -3.79832831853832E-11  1.60821846820726E-02
 cg2d: Sum(rhs),rhsMax =  -3.71680464184010E-11  1.64592844956593E-02
 cg2d: Sum(rhs),rhsMax =  -3.64550611919867E-11  1.68350640728889E-02
 cg2d: Sum(rhs),rhsMax =  -3.57708307419102E-11  1.72093629812719E-02
 cg2d: Sum(rhs),rhsMax =  -3.51151330235666E-11  1.75820216213973E-02
 cg2d: Sum(rhs),rhsMax =  -3.44919648398445E-11  1.79528812672461E-02
 cg2d: Sum(rhs),rhsMax =  -3.38720163028938E-11  1.83217841065787E-02
 cg2d: Sum(rhs),rhsMax =  -3.33322258683211E-11  1.86885732832120E-02
 cg2d: Sum(rhs),rhsMax =  -3.27736726646322E-11  1.90530929427548E-02
 cg2d: Sum(rhs),rhsMax =  -3.22574189581815E-11  1.94151882829752E-02
 cg2d: Sum(rhs),rhsMax =  -3.17545989503287E-11  1.97747056094682E-02
 cg2d: Sum(rhs),rhsMax =  -3.12941894620167E-11  2.01314923967190E-02
 cg2d: Sum(rhs),rhsMax =  -3.08216785427362E-11  2.04853973540925E-02
 cg2d: Sum(rhs),rhsMax =  -3.03903568976693E-11  2.08362704957763E-02
 cg2d: Sum(rhs),rhsMax =  -2.99689162375216E-11  2.11839632133395E-02
 cg2d: Sum(rhs),rhsMax =  -2.95667934580024E-11  2.15283283493662E-02
 cg2d: Sum(rhs),rhsMax =  -2.91745516634023E-11  2.18692202705908E-02
 cg2d: Sum(rhs),rhsMax =  -2.87994073033815E-11  2.22064949391011E-02
 cg2d: Sum(rhs),rhsMax =  -2.84477996714827E-11  2.25400099804554E-02
 cg2d: Sum(rhs),rhsMax =  -2.80997447532627E-11  2.28696247479321E-02
 cg2d: Sum(rhs),rhsMax =  -2.77611267307520E-11  2.31952003825636E-02
 cg2d: Sum(rhs),rhsMax =  -2.74512634845792E-11  2.35165998691500E-02
 cg2d: Sum(rhs),rhsMax =  -2.71433986398506E-11  2.38336880888121E-02
 cg2d: Sum(rhs),rhsMax =  -2.68697286642805E-11  2.41463318678490E-02
 cg2d: Sum(rhs),rhsMax =  -2.65875099714208E-11  2.44544000248496E-02
 cg2d: Sum(rhs),rhsMax =  -2.63331578764792E-11  2.47577634169381E-02
 cg2d: Sum(rhs),rhsMax =  -2.60577115440697E-11  2.50562949858986E-02
 cg2d: Sum(rhs),rhsMax =  -2.57996957131468E-11  2.53498698047237E-02
 cg2d: Sum(rhs),rhsMax =  -2.55698795470494E-11  2.56383651248815E-02
(PID.TID 0000.0001)      cg2d_init_res =   5.79740072487778E-02
(PID.TID 0000.0001)      cg2d_iters(min,last) =      -1      37
(PID.TID 0000.0001)      cg2d_last_res =   4.73387297626812E-14
(PID.TID 0000.0001) // =======================================================
(PID.TID 0000.0001) // Begin MONITOR dynamic field statistics
(PID.TID 0000.0001) // =======================================================
(PID.TID 0000.0001) %MON time_tsnumber                =                  5760
(PID.TID 0000.0001) %MON time_secondsf                =   8.6400000000000E+04
(PID.TID 0000.0001) %MON dynstat_eta_max              =   4.3568043980925E-03
(PID.TID 0000.0001) %MON dynstat_eta_min              =  -3.7103109328818E-03
(PID.TID 0000.0001) %MON dynstat_eta_mean             =   1.4079033231505E-15
(PID.TID 0000.0001) %MON dynstat_eta_sd               =   1.8934820610514E-03
(PID.TID 0000.0001) %MON dynstat_eta_del2             =   4.6374277112528E-06
(PID.TID 0000.0001) %MON dynstat_uvel_max             =   3.1578079996455E-01
(PID.TID 0000.0001) %MON dynstat_uvel_min             =  -6.8871093159362E-02
(PID.TID 0000.0001) %MON dynstat_uvel_mean            =   6.7773288258951E-02
(PID.TID 0000.0001) %MON dynstat_uvel_sd              =   4.0172558689633E-02
(PID.TID 0000.0001) %MON dynstat_uvel_del2            =   9.1118390442795E-05
(PID.TID 0000.0001) %MON dynstat_vvel_max             =   0.0000000000000E+00
(PID.TID 0000.0001) %MON dynstat_vvel_min             =   0.0000000000000E+00
(PID.TID 0000.0001) %MON dynstat_vvel_mean            =   0.0000000000000E+00
(PID.TID 0000.0001) %MON dynstat_vvel_sd              =   0.0000000000000E+00
(PID.TID 0000.0001) %MON dynstat_vvel_del2            =   0.0000000000000E+00
(PID.TID 0000.0001) %MON dynstat_wvel_max             =   1.8332328688942E-03
(PID.TID 0000.0001) %MON dynstat_wvel_min             =  -4.1158399067888E-03
(PID.TID 0000.0001) %MON dynstat_wvel_mean            =   1.7698937989536E-21
(PID.TID 0000.0001) %MON dynstat_wvel_sd              =   2.2332375138697E-04
(PID.TID 0000.0001) %MON dynstat_wvel_del2            =   3.1133157782086E-06
(PID.TID 0000.0001) %MON dynstat_theta_max            =   1.5000000000018E+01
(PID.TID 0000.0001) %MON dynstat_theta_min            =   9.9999999999898E+00
(PID.TID 0000.0001) %MON dynstat_theta_mean           =   1.3315919132781E+01
(PID.TID 0000.0001) %MON dynstat_theta_sd             =   2.3123631355964E+00
(PID.TID 0000.0001) %MON dynstat_theta_del2           =   2.9390413106553E-04
(PID.TID 0000.0001) %MON dynstat_salt_max             =   3.5000000000000E+01
(PID.TID 0000.0001) %MON dynstat_salt_min             =   3.5000000000000E+01
(PID.TID 0000.0001) %MON dynstat_salt_mean            =   3.5000000000000E+01
(PID.TID 0000.0001) %MON dynstat_salt_sd              =   2.1316282072803E-14
(PID.TID 0000.0001) %MON dynstat_salt_del2            =   0.0000000000000E+00
(PID.TID 0000.0001) %MON dynstat_sst_max              =   1.5000000000000E+01
(PID.TID 0000.0001) %MON dynstat_sst_min              =   1.4999999999990E+01
(PID.TID 0000.0001) %MON dynstat_sst_mean             =   1.4999999999993E+01
(PID.TID 0000.0001) %MON dynstat_sst_sd               =   3.7782770964104E-12
(PID.TID 0000.0001) %MON dynstat_sst_del2             =   3.2117358131151E-14
(PID.TID 0000.0001) %MON dynstat_sss_max              =   3.5000000000000E+01
(PID.TID 0000.0001) %MON dynstat_sss_min              =   3.5000000000000E+01
(PID.TID 0000.0001) %MON dynstat_sss_mean             =   3.5000000000000E+01
(PID.TID 0000.0001) %MON dynstat_sss_sd               =   7.8159700933611E-14
(PID.TID 0000.0001) %MON dynstat_sss_del2             =   0.0000000000000E+00
(PID.TID 0000.0001) %MON forcing_qnet_max             =   0.0000000000000E+00
(PID.TID 0000.0001) %MON forcing_qnet_min             =   0.0000000000000E+00
(PID.TID 0000.0001) %MON forcing_qnet_mean            =   0.0000000000000E+00
(PID.TID 0000.0001) %MON forcing_qnet_sd              =   0.0000000000000E+00
(PID.TID 0000.0001) %MON forcing_qnet_del2            =   0.0000000000000E+00
(PID.TID 0000.0001) %MON forcing_qsw_max              =   0.0000000000000E+00
(PID.TID 0000.0001) %MON forcing_qsw_min              =   0.0000000000000E+00
(PID.TID 0000.0001) %MON forcing_qsw_mean             =   0.0000000000000E+00
(PID.TID 0000.0001) %MON forcing_qsw_sd               =   0.0000000000000E+00
(PID.TID 0000.0001) %MON forcing_qsw_del2             =   0.0000000000000E+00
(PID.TID 0000.0001) %MON forcing_empmr_max            =   0.0000000000000E+00
(PID.TID 0000.0001) %MON forcing_empmr_min            =   0.0000000000000E+00
(PID.TID 0000.0001) %MON forcing_empmr_mean           =   0.0000000000000E+00
(PID.TID 0000.0001) %MON forcing_empmr_sd             =   0.0000000000000E+00
(PID.TID 0000.0001) %MON forcing_empmr_del2           =   0.0000000000000E+00
(PID.TID 0000.0001) %MON forcing_fu_max               =   0.0000000000000E+00
(PID.TID 0000.0001) %MON forcing_fu_min               =   0.0000000000000E+00
(PID.TID 0000.0001) %MON forcing_fu_mean              =   0.0000000000000E+00
(PID.TID 0000.0001) %MON forcing_fu_sd                =   0.0000000000000E+00
(PID.TID 0000.0001) %MON forcing_fu_del2              =   0.0000000000000E+00
(PID.TID 0000.0001) %MON forcing_fv_max               =   0.0000000000000E+00
(PID.TID 0000.0001) %MON forcing_fv_min               =   0.0000000000000E+00
(PID.TID 0000.0001) %MON forcing_fv_mean              =   0.0000000000000E+00
(PID.TID 0000.0001) %MON forcing_fv_sd                =   0.0000000000000E+00
(PID.TID 0000.0001) %MON forcing_fv_del2              =   0.0000000000000E+00
(PID.TID 0000.0001) %MON advcfl_uvel_max              =   2.3683559997341E-02
(PID.TID 0000.0001) %MON advcfl_vvel_max              =   0.0000000000000E+00
(PID.TID 0000.0001) %MON advcfl_wvel_max              =   2.5810248270129E-02
(PID.TID 0000.0001) %MON advcfl_W_hf_max              =   2.6026203547043E-02
(PID.TID 0000.0001) %MON pe_b_mean                    =   8.9571341445856E-08
(PID.TID 0000.0001) %MON ke_max                       =   4.5913232886188E-02
(PID.TID 0000.0001) %MON ke_mean                      =   3.1119529285500E-03
(PID.TID 0000.0001) %MON ke_vol                       =   9.5889217545975E+10
(PID.TID 0000.0001) %MON vort_r_min                   =   0.0000000000000E+00
(PID.TID 0000.0001) %MON vort_r_max                   =   0.0000000000000E+00
(PID.TID 0000.0001) %MON vort_a_mean                  =   0.0000000000000E+00
(PID.TID 0000.0001) %MON vort_a_sd                    =   0.0000000000000E+00
(PID.TID 0000.0001) %MON vort_p_mean                  =   0.0000000000000E+00
(PID.TID 0000.0001) %MON vort_p_sd                    =   0.0000000000000E+00
(PID.TID 0000.0001) %MON surfExpan_theta_mean         =   2.3217367956803E-18
(PID.TID 0000.0001) %MON surfExpan_salt_mean          =  -2.8863860707758E-20
(PID.TID 0000.0001) // =======================================================
(PID.TID 0000.0001) // End MONITOR dynamic field statistics
(PID.TID 0000.0001) // =======================================================
(PID.TID 0000.0001) // =======================================================
(PID.TID 0000.0001) // Begin OBCS MONITOR field statistics
(PID.TID 0000.0001) // =======================================================
(PID.TID 0000.0001) %MON obc_E_uVel_max               =   6.6809804669674E-02
(PID.TID 0000.0001) %MON obc_E_uVel_min               =   6.6809804669674E-02
(PID.TID 0000.0001) %MON obc_E_uVel_mean              =   6.6809804669674E-02
(PID.TID 0000.0001) %MON obc_E_uVel_sd                =  -1.7347234759768E-18
(PID.TID 0000.0001) %MON obc_E_uVel_Int               =   6.6809804669674E+04
(PID.TID 0000.0001) %MON obc_W_uVel_max               =   6.6809804669674E-02
(PID.TID 0000.0001) %MON obc_W_uVel_min               =   6.6809804669674E-02
(PID.TID 0000.0001) %MON obc_W_uVel_mean              =   6.6809804669674E-02
(PID.TID 0000.0001) %MON obc_W_uVel_sd                =  -1.7347234759768E-18
(PID.TID 0000.0001) %MON obc_W_uVel_Int               =   6.6809804669674E+04
(PID.TID 0000.0001) // =======================================================
(PID.TID 0000.0001) // End OBCS MONITOR field statistics
(PID.TID 0000.0001) // =======================================================
(PID.TID 0000.0001) %CHECKPOINT      5760 0000005760
 cg2d: Sum(rhs),rhsMax =  -2.53528309457351E-11  2.59216604243207E-02
 cg2d: Sum(rhs),rhsMax =  -2.51282328278535E-11  2.61996374559518E-02
 cg2d: Sum(rhs),rhsMax =  -2.49081866243728E-11  2.64721802961077E-02
 cg2d: Sum(rhs),rhsMax =  -2.47196707547914E-11  2.67391753923094E-02
 cg2d: Sum(rhs),rhsMax =  -2.45272691046239E-11  2.70005116095932E-02
 cg2d: Sum(rhs),rhsMax =  -2.43338682537342E-11  2.72560802746842E-02
 cg2d: Sum(rhs),rhsMax =  -2.41363595776534E-11  2.75057752174289E-02
 cg2d: Sum(rhs),rhsMax =  -2.39573916260838E-11  2.77494928091096E-02
 cg2d: Sum(rhs),rhsMax =  -2.37813102543782E-11  2.79871319975273E-02
 cg2d: Sum(rhs),rhsMax =  -2.37162511851352E-11  2.82185943390374E-02
 cg2d: Sum(rhs),rhsMax =  -2.36348718374302E-11  2.84437840280215E-02
 cg2d: Sum(rhs),rhsMax =  -2.35490515976267E-11  2.86626079245523E-02
 cg2d: Sum(rhs),rhsMax =  -2.34863239967353E-11  2.88749755812278E-02
 cg2d: Sum(rhs),rhsMax =  -2.34015029576540E-11  2.90807992702802E-02
 cg2d: Sum(rhs),rhsMax =  -2.33473240740523E-11  2.92799940120881E-02
 cg2d: Sum(rhs),rhsMax =  -2.32731611760073E-11  2.94724776061142E-02
 cg2d: Sum(rhs),rhsMax =  -2.32176500247760E-11  2.96581706650631E-02
 cg2d: Sum(rhs),rhsMax =  -2.31596963828906E-11  2.98369966527256E-02
 cg2d: Sum(rhs),rhsMax =  -2.31078489676406E-11  3.00088819255925E-02
 cg2d: Sum(rhs),rhsMax =  -2.30563346192980E-11  3.01737557779236E-02
 cg2d: Sum(rhs),rhsMax =  -2.29912755500550E-11  3.03315504895810E-02
 cg2d: Sum(rhs),rhsMax =  -2.29439800492059E-11  3.04822013755916E-02
 cg2d: Sum(rhs),rhsMax =  -2.29130048268189E-11  3.06256468361142E-02
 cg2d: Sum(rhs),rhsMax =  -2.28587149209147E-11  3.07618284052463E-02
 cg2d: Sum(rhs),rhsMax =  -2.28338459251631E-11  3.08906907969528E-02
 cg2d: Sum(rhs),rhsMax =  -2.28089769294115E-11  3.10121819463542E-02
 cg2d: Sum(rhs),rhsMax =  -2.28908003663264E-11  3.11262530447209E-02
 cg2d: Sum(rhs),rhsMax =  -2.29873897694688E-11  3.12328585668069E-02
 cg2d: Sum(rhs),rhsMax =  -2.27989849221899E-11  3.13319562896032E-02
 cg2d: Sum(rhs),rhsMax =  -2.27579066702788E-11  3.14235073021865E-02
 cg2d: Sum(rhs),rhsMax =  -2.27421415033291E-11  3.15074760069947E-02
 cg2d: Sum(rhs),rhsMax =  -2.27335927860395E-11  3.15838301135090E-02
 cg2d: Sum(rhs),rhsMax =  -2.27334817637370E-11  3.16525406258870E-02
 cg2d: Sum(rhs),rhsMax =  -2.27433627486562E-11  3.17135818264938E-02
 cg2d: Sum(rhs),rhsMax =  -2.27646790307290E-11  3.17669312574904E-02
 cg2d: Sum(rhs),rhsMax =  -2.28539409619088E-11  3.18125697026359E-02
 cg2d: Sum(rhs),rhsMax =  -2.28879137864624E-11  3.18504811712624E-02
 cg2d: Sum(rhs),rhsMax =  -2.29488650305143E-11  3.18806528860186E-02
 cg2d: Sum(rhs),rhsMax =  -2.29931629291968E-11  3.19030752754866E-02
 cg2d: Sum(rhs),rhsMax =  -2.30196972594854E-11  3.19177419722262E-02
 cg2d: Sum(rhs),rhsMax =  -2.30336860695957E-11  3.19246498162253E-02
 cg2d: Sum(rhs),rhsMax =  -2.30317986904538E-11  3.19237988631980E-02
 cg2d: Sum(rhs),rhsMax =  -2.29610774837852E-11  3.19151923967207E-02
 cg2d: Sum(rhs),rhsMax =  -2.29342100865892E-11  3.18988369431204E-02
 cg2d: Sum(rhs),rhsMax =  -2.28717045303028E-11  3.18747422868541E-02
 cg2d: Sum(rhs),rhsMax =  -2.28176366690036E-11  3.18429214852134E-02
 cg2d: Sum(rhs),rhsMax =  -2.27430296817488E-11  3.18033908806721E-02
 cg2d: Sum(rhs),rhsMax =  -2.27059482327263E-11  3.17561701103302E-02
 cg2d: Sum(rhs),rhsMax =  -2.26644258916053E-11  3.17012821107312E-02
 cg2d: Sum(rhs),rhsMax =  -2.26298979555395E-11  3.16387531173750E-02
 cg2d: Sum(rhs),rhsMax =  -2.25974794432204E-11  3.15686126587115E-02
 cg2d: Sum(rhs),rhsMax =  -2.25557350574945E-11  3.14908935447908E-02
 cg2d: Sum(rhs),rhsMax =  -2.25105489803923E-11  3.14056318510593E-02
 cg2d: Sum(rhs),rhsMax =  -2.24668061932221E-11  3.13128668980427E-02
 cg2d: Sum(rhs),rhsMax =  -2.24080753952194E-11  3.12126412278408E-02
 cg2d: Sum(rhs),rhsMax =  -2.23674412325181E-11  3.11050005784495E-02
 cg2d: Sum(rhs),rhsMax =  -2.23800977749988E-11  3.09899938573542E-02
 cg2d: Sum(rhs),rhsMax =  -2.24231744283543E-11  3.08676731139782E-02
 cg2d: Sum(rhs),rhsMax =  -2.24639196133580E-11  3.07380935124571E-02
 cg2d: Sum(rhs),rhsMax =  -2.24968932371894E-11  3.06013133051782E-02
 cg2d: Sum(rhs),rhsMax =  -2.25387486452178E-11  3.04573938070180E-02
 cg2d: Sum(rhs),rhsMax =  -2.25933716180293E-11  3.03063993699981E-02
 cg2d: Sum(rhs),rhsMax =  -2.26397789404587E-11  3.01483973580057E-02
 cg2d: Sum(rhs),rhsMax =  -2.26921814672210E-11  2.99834581212484E-02
 cg2d: Sum(rhs),rhsMax =  -2.27283747378237E-11  2.98116549701711E-02
 cg2d: Sum(rhs),rhsMax =  -2.27872165581289E-11  2.96330641486280E-02
 cg2d: Sum(rhs),rhsMax =  -2.28397301071936E-11  2.94477648061269E-02
 cg2d: Sum(rhs),rhsMax =  -2.29103402915598E-11  2.92558389689612E-02
 cg2d: Sum(rhs),rhsMax =  -2.29900543047279E-11  2.90573715100259E-02
 cg2d: Sum(rhs),rhsMax =  -2.30470087458912E-11  2.88524501170944E-02
 cg2d: Sum(rhs),rhsMax =  -2.31249464022198E-11  2.86411652594475E-02
 cg2d: Sum(rhs),rhsMax =  -2.31922259175121E-11  2.84236101523850E-02
 cg2d: Sum(rhs),rhsMax =  -2.32852626069757E-11  2.81998807196894E-02
 cg2d: Sum(rhs),rhsMax =  -2.34376962282568E-11  2.79700755541704E-02
 cg2d: Sum(rhs),rhsMax =  -2.35965691430806E-11  2.77342958762856E-02
 cg2d: Sum(rhs),rhsMax =  -2.37833086558226E-11  2.74926454909072E-02
 cg2d: Sum(rhs),rhsMax =  -2.39384068123627E-11  2.72452307423781E-02
 cg2d: Sum(rhs),rhsMax =  -2.41109354703894E-11  2.69921604680389E-02
 cg2d: Sum(rhs),rhsMax =  -2.43223219342781E-11  2.67335459504047E-02
 cg2d: Sum(rhs),rhsMax =  -2.45088394024151E-11  2.64695008681379E-02
 cg2d: Sum(rhs),rhsMax =  -2.47228904015628E-11  2.62001412459320E-02
 cg2d: Sum(rhs),rhsMax =  -2.49384957129450E-11  2.59255854033914E-02
 cg2d: Sum(rhs),rhsMax =  -2.51528797790002E-11  2.56459539029951E-02
 cg2d: Sum(rhs),rhsMax =  -2.53936871530414E-11  2.53613694972462E-02
 cg2d: Sum(rhs),rhsMax =  -2.56304977241939E-11  2.50719570751428E-02
 cg2d: Sum(rhs),rhsMax =  -2.58807419939444E-11  2.47778436081342E-02
 cg2d: Sum(rhs),rhsMax =  -2.61420884939412E-11  2.44791580957397E-02
 cg2d: Sum(rhs),rhsMax =  -2.64156474472088E-11  2.41760315109983E-02
 cg2d: Sum(rhs),rhsMax =  -2.67114108609690E-11  2.38685967458648E-02
 cg2d: Sum(rhs),rhsMax =  -2.69931854646188E-11  2.35569885566004E-02
 cg2d: Sum(rhs),rhsMax =  -2.72960543057366E-11  2.32413435091172E-02
 cg2d: Sum(rhs),rhsMax =  -2.76099143547981E-11  2.29217999241553E-02
 cg2d: Sum(rhs),rhsMax =  -2.79278822290507E-11  2.25984978221092E-02
 cg2d: Sum(rhs),rhsMax =  -2.82561751774324E-11  2.22715788672874E-02
 cg2d: Sum(rhs),rhsMax =  -2.86121126791272E-11  2.19411863113743E-02
 cg2d: Sum(rhs),rhsMax =  -2.89857027269136E-11  2.16074649358691E-02
 cg2d: Sum(rhs),rhsMax =  -2.93872703949205E-11  2.12705609932977E-02
 cg2d: Sum(rhs),rhsMax =  -2.97755153866319E-11  2.09306221470077E-02
 cg2d: Sum(rhs),rhsMax =  -3.01935143554033E-11  2.05877974093932E-02
 cg2d: Sum(rhs),rhsMax =  -3.06358272084140E-11  2.02422370784330E-02
 cg2d: Sum(rhs),rhsMax =  -3.10848013995724E-11  1.98940926724825E-02
 cg2d: Sum(rhs),rhsMax =  -3.15604209433218E-11  1.95435168633253E-02
 cg2d: Sum(rhs),rhsMax =  -3.20711235346494E-11  1.91906634075572E-02
 cg2d: Sum(rhs),rhsMax =  -3.25672822043543E-11  1.88356870762112E-02
 cg2d: Sum(rhs),rhsMax =  -3.31124017094453E-11  1.84787435834931E-02
 cg2d: Sum(rhs),rhsMax =  -3.36648486864988E-11  1.81199895144638E-02
 cg2d: Sum(rhs),rhsMax =  -3.42552652909944E-11  1.77595822514560E-02
 cg2d: Sum(rhs),rhsMax =  -3.48759909840624E-11  1.73976798998082E-02
 cg2d: Sum(rhs),rhsMax =  -3.55264706541902E-11  1.70344412131684E-02
 cg2d: Sum(rhs),rhsMax =  -3.62039287438165E-11  1.66700255185839E-02
 cg2d: Sum(rhs),rhsMax =  -3.69022590263057E-11  1.63045926415560E-02
 cg2d: Sum(rhs),rhsMax =  -3.76479958319464E-11  1.59383028312296E-02
 cg2d: Sum(rhs),rhsMax =  -3.84727805169405E-11  1.55713166858651E-02
 cg2d: Sum(rhs),rhsMax =  -3.93498567063943E-11  1.52037950787177E-02
 cg2d: Sum(rhs),rhsMax =  -4.02717859060431E-11  1.48358990844170E-02
 cg2d: Sum(rhs),rhsMax =  -4.12248013503813E-11  1.44677899059263E-02
 cg2d: Sum(rhs),rhsMax =  -4.22368806596296E-11  1.40996288022069E-02
 cg2d: Sum(rhs),rhsMax =  -4.33156843726579E-11  1.37315770168037E-02
 cg2d: Sum(rhs),rhsMax =  -4.44493331031026E-11  1.33637957077018E-02
 cg2d: Sum(rhs),rhsMax =  -4.56497062373273E-11  1.29964458789072E-02
 cg2d: Sum(rhs),rhsMax =  -4.68943772702346E-11  1.26296883142091E-02
 cg2d: Sum(rhs),rhsMax =  -4.82203166285444E-11  1.22636835134361E-02
 cg2d: Sum(rhs),rhsMax =  -4.96338525834972E-11  1.18985916312202E-02
 cg2d: Sum(rhs),rhsMax =  -5.11208853026801E-11  1.15345724178814E-02
 cg2d: Sum(rhs),rhsMax =  -5.27012877782340E-11  1.11717851616219E-02
 cg2d: Sum(rhs),rhsMax =  -5.43778910788717E-11  1.08103886308644E-02
 cg2d: Sum(rhs),rhsMax =  -5.61643509477960E-11  1.04505410153367E-02
 cg2d: Sum(rhs),rhsMax =  -5.80920311854527E-11  1.00923998644364E-02
 cg2d: Sum(rhs),rhsMax =  -6.01211302964089E-11  9.73612202149251E-03
 cg2d: Sum(rhs),rhsMax =  -6.22913387537949E-11  9.38186355277239E-03
 cg2d: Sum(rhs),rhsMax =  -6.46305786666801E-11  9.02977967044040E-03
 cg2d: Sum(rhs),rhsMax =  -6.71644406757821E-11  8.68002464914027E-03
 cg2d: Sum(rhs),rhsMax =  -6.98765489914877E-11  8.33275173642358E-03
 cg2d: Sum(rhs),rhsMax =  -6.92907398125442E-11  8.38938091711813E-03
 cg2d: Sum(rhs),rhsMax =  -6.70872246644194E-11  8.65366976940711E-03
 cg2d: Sum(rhs),rhsMax =  -6.50192677476014E-11  8.91543463923526E-03
 cg2d: Sum(rhs),rhsMax =  -6.31231178438441E-11  9.17456206677603E-03
 cg2d: Sum(rhs),rhsMax =  -6.12963013679746E-11  9.43093971256704E-03
 cg2d: Sum(rhs),rhsMax =  -5.96440397071518E-11  9.68445643127081E-03
 cg2d: Sum(rhs),rhsMax =  -5.80270831385121E-11  9.93500234892129E-03
 cg2d: Sum(rhs),rhsMax =  -5.65937297025698E-11  1.01824689133289E-02
 cg2d: Sum(rhs),rhsMax =  -5.51768769563310E-11  1.04267489391064E-02
 cg2d: Sum(rhs),rhsMax =  -5.38711367181754E-11  1.06677366821713E-02
 cg2d: Sum(rhs),rhsMax =  -5.26396842781551E-11  1.09053279087874E-02
 cg2d: Sum(rhs),rhsMax =  -5.14433981524398E-11  1.11394199477751E-02
 cg2d: Sum(rhs),rhsMax =  -5.03526560724499E-11  1.13699117297048E-02
 cg2d: Sum(rhs),rhsMax =  -4.93353136121755E-11  1.15967038212137E-02
 cg2d: Sum(rhs),rhsMax =  -4.83440371068511E-11  1.18196984604724E-02
 cg2d: Sum(rhs),rhsMax =  -4.73732858496945E-11  1.20387995955423E-02
 cg2d: Sum(rhs),rhsMax =  -4.65130156612759E-11  1.22539129245370E-02
 cg2d: Sum(rhs),rhsMax =  -4.56747417665326E-11  1.24649459361196E-02
 cg2d: Sum(rhs),rhsMax =  -4.48444059664155E-11  1.26718079499156E-02
 cg2d: Sum(rhs),rhsMax =  -4.40357472708541E-11  1.28744100698146E-02
 cg2d: Sum(rhs),rhsMax =  -4.32595348431875E-11  1.30726652920974E-02
 cg2d: Sum(rhs),rhsMax =  -4.25089963229652E-11  1.32664886634845E-02
 cg2d: Sum(rhs),rhsMax =  -4.18097778620563E-11  1.34557972998838E-02
 cg2d: Sum(rhs),rhsMax =  -4.11494172070093E-11  1.36405103678396E-02
 cg2d: Sum(rhs),rhsMax =  -4.05027122951651E-11  1.38205490946339E-02
 cg2d: Sum(rhs),rhsMax =  -3.99224542313448E-11  1.39958368142861E-02
 cg2d: Sum(rhs),rhsMax =  -3.93581278679278E-11  1.41662990273473E-02
 cg2d: Sum(rhs),rhsMax =  -3.88285237296060E-11  1.43318634540199E-02
 cg2d: Sum(rhs),rhsMax =  -3.83269527226560E-11  1.44924600736081E-02
 cg2d: Sum(rhs),rhsMax =  -3.78451159299686E-11  1.46480211533950E-02
 cg2d: Sum(rhs),rhsMax =  -3.73843733747492E-11  1.47984812725950E-02
 cg2d: Sum(rhs),rhsMax =  -3.69561048430000E-11  1.49437773449334E-02
 cg2d: Sum(rhs),rhsMax =  -3.65472652141818E-11  1.50838486400449E-02
 cg2d: Sum(rhs),rhsMax =  -3.61431440332183E-11  1.52186368032508E-02
 cg2d: Sum(rhs),rhsMax =  -3.58001406297603E-11  1.53480858754496E-02
 cg2d: Sum(rhs),rhsMax =  -3.54186679984991E-11  1.54721423092062E-02
 cg2d: Sum(rhs),rhsMax =  -3.51100259976533E-11  1.55907549815375E-02
 cg2d: Sum(rhs),rhsMax =  -3.47934459021815E-11  1.57038752044183E-02
 cg2d: Sum(rhs),rhsMax =  -3.45155015679666E-11  1.58114567339876E-02
 cg2d: Sum(rhs),rhsMax =  -3.42503247985348E-11  1.59134557792918E-02
 cg2d: Sum(rhs),rhsMax =  -3.39692718398510E-11  1.60098310113363E-02
 cg2d: Sum(rhs),rhsMax =  -3.36601302386441E-11  1.61005435731797E-02
 cg2d: Sum(rhs),rhsMax =  -3.33528205054279E-11  1.61855570917385E-02
 cg2d: Sum(rhs),rhsMax =  -3.30921401392459E-11  1.62648376917660E-02
 cg2d: Sum(rhs),rhsMax =  -3.28013172179453E-11  1.63383540121741E-02
 cg2d: Sum(rhs),rhsMax =  -3.25710014514868E-11  1.64060772244853E-02
 cg2d: Sum(rhs),rhsMax =  -3.23785442901681E-11  1.64679810528112E-02
 cg2d: Sum(rhs),rhsMax =  -3.21830340155316E-11  1.65240417944030E-02
 cg2d: Sum(rhs),rhsMax =  -3.18799986409601E-11  1.65742383394684E-02
 cg2d: Sum(rhs),rhsMax =  -3.19436144202712E-11  1.66185521889148E-02
 cg2d: Sum(rhs),rhsMax =  -3.19358428590988E-11  1.66569674690143E-02
 cg2d: Sum(rhs),rhsMax =  -3.18818305089508E-11  1.66894709423214E-02
 cg2d: Sum(rhs),rhsMax =  -3.17424975193603E-11  1.67160520143518E-02
 cg2d: Sum(rhs),rhsMax =  -3.16782156062345E-11  1.67367027355946E-02
 cg2d: Sum(rhs),rhsMax =  -3.15956150132024E-11  1.67514177986624E-02
 cg2d: Sum(rhs),rhsMax =  -3.15215631374599E-11  1.67601945308863E-02
 cg2d: Sum(rhs),rhsMax =  -3.14779313725921E-11  1.67630328833248E-02
 cg2d: Sum(rhs),rhsMax =  -3.14029358072787E-11  1.67599354131434E-02
 cg2d: Sum(rhs),rhsMax =  -3.14401282786037E-11  1.67509072756571E-02
 cg2d: Sum(rhs),rhsMax =  -3.15102388626087E-11  1.67359562137711E-02
 cg2d: Sum(rhs),rhsMax =  -3.16844883663236E-11  1.67150925473839E-02
 cg2d: Sum(rhs),rhsMax =  -3.17858517284719E-11  1.66883292026171E-02
 cg2d: Sum(rhs),rhsMax =  -3.19301252105220E-11  1.66556820522458E-02
 cg2d: Sum(rhs),rhsMax =  -3.20951598631325E-11  1.66171692916541E-02
 cg2d: Sum(rhs),rhsMax =  -3.22684101661252E-11  1.65728113670379E-02
 cg2d: Sum(rhs),rhsMax =  -3.24647531080302E-11  1.65226311657948E-02
 cg2d: Sum(rhs),rhsMax =  -3.26457194610441E-11  1.64666541762185E-02
 cg2d: Sum(rhs),rhsMax =  -3.28450044939643E-11  1.64049084426476E-02
 cg2d: Sum(rhs),rhsMax =  -3.30339644527555E-11  1.63374243511729E-02
 cg2d: Sum(rhs),rhsMax =  -3.32179839190871E-11  1.62642348642299E-02
 cg2d: Sum(rhs),rhsMax =  -3.34942629187651E-11  1.61853755579003E-02
 cg2d: Sum(rhs),rhsMax =  -3.37228023283842E-11  1.61008845514384E-02
 cg2d: Sum(rhs),rhsMax =  -3.40197869874714E-11  1.60108024247324E-02
 cg2d: Sum(rhs),rhsMax =  -3.43046147044390E-11  1.59151721668097E-02
 cg2d: Sum(rhs),rhsMax =  -3.46289108499320E-11  1.58140391539364E-02
 cg2d: Sum(rhs),rhsMax =  -3.50062201448509E-11  1.57074511395605E-02
 cg2d: Sum(rhs),rhsMax =  -3.52863849251150E-11  1.55954582416877E-02
 cg2d: Sum(rhs),rhsMax =  -3.55678819730088E-11  1.54781129223477E-02
 cg2d: Sum(rhs),rhsMax =  -3.59117735548864E-11  1.53554699599344E-02
 cg2d: Sum(rhs),rhsMax =  -3.62324059643981E-11  1.52275864172880E-02
 cg2d: Sum(rhs),rhsMax =  -3.66222607794953E-11  1.50945216081020E-02
 cg2d: Sum(rhs),rhsMax =  -3.70379282799149E-11  1.49563370633018E-02
 cg2d: Sum(rhs),rhsMax =  -3.74137942849018E-11  1.48130964980764E-02
 cg2d: Sum(rhs),rhsMax =  -3.78483355767401E-11  1.46648657794382E-02
 cg2d: Sum(rhs),rhsMax =  -3.83199583176008E-11  1.45117128935443E-02
 cg2d: Sum(rhs),rhsMax =  -3.88089005376457E-11  1.43537079119045E-02
 cg2d: Sum(rhs),rhsMax =  -3.93112209451374E-11  1.41909229557889E-02
 cg2d: Sum(rhs),rhsMax =  -3.98184818450886E-11  1.40234321587634E-02
 cg2d: Sum(rhs),rhsMax =  -4.04103972506675E-11  1.38513116278380E-02
 cg2d: Sum(rhs),rhsMax =  -4.09633438280821E-11  1.36746394011210E-02
 cg2d: Sum(rhs),rhsMax =  -4.15983081314408E-11  1.34934954093597E-02
 cg2d: Sum(rhs),rhsMax =  -4.22820389811562E-11  1.33079614395056E-02
 cg2d: Sum(rhs),rhsMax =  -4.29858926231930E-11  1.31181210982990E-02
 cg2d: Sum(rhs),rhsMax =  -4.37210823100997E-11  1.29240597751877E-02
 cg2d: Sum(rhs),rhsMax =  -4.44649872477498E-11  1.27258646097786E-02
 cg2d: Sum(rhs),rhsMax =  -4.52886617097192E-11  1.25236244521746E-02
 cg2d: Sum(rhs),rhsMax =  -4.61310434296536E-11  1.23174298192518E-02
 cg2d: Sum(rhs),rhsMax =  -4.70363470395085E-11  1.21073728547369E-02
 cg2d: Sum(rhs),rhsMax =  -4.79814382670085E-11  1.18935472910313E-02
 cg2d: Sum(rhs),rhsMax =  -4.90010254594608E-11  1.16760484106737E-02
 cg2d: Sum(rhs),rhsMax =  -4.99805197229364E-11  1.14549730064039E-02
 cg2d: Sum(rhs),rhsMax =  -5.10371744866234E-11  1.12304193403735E-02
 cg2d: Sum(rhs),rhsMax =  -5.21432064193306E-11  1.10024871009340E-02
 cg2d: Sum(rhs),rhsMax =  -5.32771535222132E-11  1.07712773629967E-02
 cg2d: Sum(rhs),rhsMax =  -5.45459218157657E-11  1.05368925633172E-02
 cg2d: Sum(rhs),rhsMax =  -5.58925995763904E-11  1.02994364165752E-02
 cg2d: Sum(rhs),rhsMax =  -5.72728045544757E-11  1.00590138431803E-02
 cg2d: Sum(rhs),rhsMax =  -5.87524889850144E-11  9.81573092541893E-03
 cg2d: Sum(rhs),rhsMax =  -6.03381927755109E-11  9.56969489994577E-03
 cg2d: Sum(rhs),rhsMax =  -6.20164197773221E-11  9.32101413283447E-03
 cg2d: Sum(rhs),rhsMax =  -6.38297470434424E-11  9.06979807020890E-03
 cg2d: Sum(rhs),rhsMax =  -6.57594811936946E-11  8.81615717601389E-03
 cg2d: Sum(rhs),rhsMax =  -6.77838341012205E-11  8.56020287098293E-03
 cg2d: Sum(rhs),rhsMax =  -6.99644231438867E-11  8.30204747928191E-03
 cg2d: Sum(rhs),rhsMax =  -7.23504034461087E-11  8.04180418132078E-03
 cg2d: Sum(rhs),rhsMax =  -7.48879847023431E-11  7.77958696796488E-03
 cg2d: Sum(rhs),rhsMax =  -7.46368522541729E-11  7.81577130434140E-03
 cg2d: Sum(rhs),rhsMax =  -7.16687265089888E-11  8.14885016437320E-03
 cg2d: Sum(rhs),rhsMax =  -6.89252543928376E-11  8.48425469434328E-03
 cg2d: Sum(rhs),rhsMax =  -6.63648025422958E-11  8.82183809478407E-03
 cg2d: Sum(rhs),rhsMax =  -6.39614472497385E-11  9.16145275852134E-03
 cg2d: Sum(rhs),rhsMax =  -6.17624285048635E-11  9.50295033453354E-03
 cg2d: Sum(rhs),rhsMax =  -5.96931393204159E-11  9.84618179165739E-03
 cg2d: Sum(rhs),rhsMax =  -5.77495828935071E-11  1.01909974820570E-02
 cg2d: Sum(rhs),rhsMax =  -5.58965096431052E-11  1.05372472045650E-02
 cg2d: Sum(rhs),rhsMax =  -5.41812150700594E-11  1.08847802676958E-02
 cg2d: Sum(rhs),rhsMax =  -5.25691712383036E-11  1.12334455525273E-02
 cg2d: Sum(rhs),rhsMax =  -5.10393949326726E-11  1.15830915757391E-02
 cg2d: Sum(rhs),rhsMax =  -4.96078733647209E-11  1.19335665527887E-02
 cg2d: Sum(rhs),rhsMax =  -4.82440754012714E-11  1.22847184612127E-02
 cg2d: Sum(rhs),rhsMax =  -4.69640992761811E-11  1.26363951041052E-02
 cg2d: Sum(rhs),rhsMax =  -4.57512916440805E-11  1.29884441738826E-02
 cg2d: Sum(rhs),rhsMax =  -4.45929959624891E-11  1.33407133164584E-02
 cg2d: Sum(rhs),rhsMax =  -4.34966507256718E-11  1.36930501958839E-02
 cg2d: Sum(rhs),rhsMax =  -4.24528190379192E-11  1.40453025593822E-02
 cg2d: Sum(rhs),rhsMax =  -4.14730472186875E-11  1.43973183025527E-02
 cg2d: Sum(rhs),rhsMax =  -4.05342426290645E-11  1.47489455344252E-02
 cg2d: Sum(rhs),rhsMax =  -3.96359611798403E-11  1.51000326420335E-02
 cg2d: Sum(rhs),rhsMax =  -3.87914145250079E-11  1.54504283542764E-02
 cg2d: Sum(rhs),rhsMax =  -3.80269149502510E-11  1.57999818050179E-02
 cg2d: Sum(rhs),rhsMax =  -3.73102659878555E-11  1.61485425955619E-02
 cg2d: Sum(rhs),rhsMax =  -3.66261465600815E-11  1.64959608567741E-02
 cg2d: Sum(rhs),rhsMax =  -3.59675622618738E-11  1.68420873111605E-02
 cg2d: Sum(rhs),rhsMax =  -3.53387319407261E-11  1.71867733351400E-02
 cg2d: Sum(rhs),rhsMax =  -3.47305517678365E-11  1.75298710216034E-02
 cg2d: Sum(rhs),rhsMax =  -3.41546790849634E-11  1.78712332426946E-02
 cg2d: Sum(rhs),rhsMax =  -3.36103367359897E-11  1.82107137126313E-02
 cg2d: Sum(rhs),rhsMax =  -3.30795391079164E-11  1.85481670503440E-02
 cg2d: Sum(rhs),rhsMax =  -3.25698357173110E-11  1.88834488417538E-02
 cg2d: Sum(rhs),rhsMax =  -3.21027648908512E-11  1.92164157016096E-02
 cg2d: Sum(rhs),rhsMax =  -3.16424664248416E-11  1.95469253349062E-02
 cg2d: Sum(rhs),rhsMax =  -3.11842773825788E-11  1.98748365979811E-02
 cg2d: Sum(rhs),rhsMax =  -3.07448511094321E-11  2.02000095593925E-02
 cg2d: Sum(rhs),rhsMax =  -3.03499447795730E-11  2.05223055606352E-02
 cg2d: Sum(rhs),rhsMax =  -2.99597013864172E-11  2.08415872766522E-02
 cg2d: Sum(rhs),rhsMax =  -2.95912183645441E-11  2.11577187760023E-02
 cg2d: Sum(rhs),rhsMax =  -2.92089685771657E-11  2.14705655804567E-02
 cg2d: Sum(rhs),rhsMax =  -2.88638002388097E-11  2.17799947237641E-02
 cg2d: Sum(rhs),rhsMax =  -2.85440560077177E-11  2.20858748093238E-02
 cg2d: Sum(rhs),rhsMax =  -2.82088796765834E-11  2.23880760665555E-02
 cg2d: Sum(rhs),rhsMax =  -2.78993494973179E-11  2.26864704058137E-02
 cg2d: Sum(rhs),rhsMax =  -2.76177969382729E-11  2.29809314720161E-02
 cg2d: Sum(rhs),rhsMax =  -2.73360223346231E-11  2.32713346964871E-02
 cg2d: Sum(rhs),rhsMax =  -2.70458100359861E-11  2.35575573469168E-02
 cg2d: Sum(rhs),rhsMax =  -2.67922350971617E-11  2.38394785760757E-02
 cg2d: Sum(rhs),rhsMax =  -2.65327759763068E-11  2.41169794692926E-02
 cg2d: Sum(rhs),rhsMax =  -2.62982968735059E-11  2.43899430906770E-02
 cg2d: Sum(rhs),rhsMax =  -2.60820254283090E-11  2.46582545280569E-02
 cg2d: Sum(rhs),rhsMax =  -2.58540966413534E-11  2.49218009366061E-02
 cg2d: Sum(rhs),rhsMax =  -2.56270560328176E-11  2.51804715811571E-02
 cg2d: Sum(rhs),rhsMax =  -2.54314347358786E-11  2.54341578772322E-02
 cg2d: Sum(rhs),rhsMax =  -2.52334819705879E-11  2.56827534308807E-02
 cg2d: Sum(rhs),rhsMax =  -2.50516274391543E-11  2.59261540774531E-02
 cg2d: Sum(rhs),rhsMax =  -2.48649989487149E-11  2.61642579194608E-02
 cg2d: Sum(rhs),rhsMax =  -2.46728193431522E-11  2.63969653636461E-02
 cg2d: Sum(rhs),rhsMax =  -2.45122810937914E-11  2.66241791573356E-02
 cg2d: Sum(rhs),rhsMax =  -2.43474129746346E-11  2.68458044240902E-02
 cg2d: Sum(rhs),rhsMax =  -2.42774689240832E-11  2.70617486986318E-02
 cg2d: Sum(rhs),rhsMax =  -2.41957565094708E-11  2.72719219610279E-02
 cg2d: Sum(rhs),rhsMax =  -2.41084929797353E-11  2.74762366701515E-02
 cg2d: Sum(rhs),rhsMax =  -2.40275577212401E-11  2.76746077964922E-02
 cg2d: Sum(rhs),rhsMax =  -2.39552822023370E-11  2.78669528544396E-02
 cg2d: Sum(rhs),rhsMax =  -2.38873365532299E-11  2.80531919341900E-02
 cg2d: Sum(rhs),rhsMax =  -2.38156161458392E-11  2.82332477334143E-02
 cg2d: Sum(rhs),rhsMax =  -2.37685426895951E-11  2.84070455887908E-02
 cg2d: Sum(rhs),rhsMax =  -2.37027064642348E-11  2.85745135074381E-02
 cg2d: Sum(rhs),rhsMax =  -2.36538566511513E-11  2.87355821982027E-02
 cg2d: Sum(rhs),rhsMax =  -2.36177744028510E-11  2.88901851026759E-02
 cg2d: Sum(rhs),rhsMax =  -2.35571562257064E-11  2.90382584257409E-02
 cg2d: Sum(rhs),rhsMax =  -2.34972041823767E-11  2.91797411654185E-02
 cg2d: Sum(rhs),rhsMax =  -2.34702257628783E-11  2.93145751417727E-02
 cg2d: Sum(rhs),rhsMax =  -2.34300356893868E-11  2.94427050246780E-02
 cg2d: Sum(rhs),rhsMax =  -2.34107178087584E-11  2.95640783602821E-02
 cg2d: Sum(rhs),rhsMax =  -2.33757457834827E-11  2.96786455960202E-02
 cg2d: Sum(rhs),rhsMax =  -2.34730013204398E-11  2.97863601040105E-02
 cg2d: Sum(rhs),rhsMax =  -2.32324159910036E-11  2.98871782026024E-02
 cg2d: Sum(rhs),rhsMax =  -2.31733521260935E-11  2.99810591758008E-02
 cg2d: Sum(rhs),rhsMax =  -2.31658026095261E-11  3.00679652902814E-02
 cg2d: Sum(rhs),rhsMax =  -2.31472618850148E-11  3.01478618098171E-02
 cg2d: Sum(rhs),rhsMax =  -2.31811236872659E-11  3.02207170071134E-02
 cg2d: Sum(rhs),rhsMax =  -2.31851204901545E-11  3.02865021733128E-02
 cg2d: Sum(rhs),rhsMax =  -2.32051045045978E-11  3.03451916256733E-02
 cg2d: Sum(rhs),rhsMax =  -2.32502905817000E-11  3.03967627141159E-02
 cg2d: Sum(rhs),rhsMax =  -2.33003616401106E-11  3.04411958274075E-02
 cg2d: Sum(rhs),rhsMax =  -2.33441044272809E-11  3.04784743996999E-02
 cg2d: Sum(rhs),rhsMax =  -2.33760788503901E-11  3.05085849180029E-02
 cg2d: Sum(rhs),rhsMax =  -2.33848496122846E-11  3.05315169309718E-02
 cg2d: Sum(rhs),rhsMax =  -2.34054997605426E-11  3.05472630591864E-02
 cg2d: Sum(rhs),rhsMax =  -2.34069430504746E-11  3.05558190069247E-02
 cg2d: Sum(rhs),rhsMax =  -2.34097186080362E-11  3.05571835752926E-02
 cg2d: Sum(rhs),rhsMax =  -2.33293384610533E-11  3.05513586764631E-02
 cg2d: Sum(rhs),rhsMax =  -2.32615038342487E-11  3.05383493488391E-02
 cg2d: Sum(rhs),rhsMax =  -2.31960006757959E-11  3.05181637723613E-02
 cg2d: Sum(rhs),rhsMax =  -2.31226149338681E-11  3.04908132833606E-02
 cg2d: Sum(rhs),rhsMax =  -2.30110375198933E-11  3.04563123884203E-02
 cg2d: Sum(rhs),rhsMax =  -2.29865015910491E-11  3.04146787763677E-02
 cg2d: Sum(rhs),rhsMax =  -2.29501972981438E-11  3.03659333277854E-02
 cg2d: Sum(rhs),rhsMax =  -2.29228858117381E-11  3.03101001203582E-02
 cg2d: Sum(rhs),rhsMax =  -2.28899121879067E-11  3.02472064289157E-02
 cg2d: Sum(rhs),rhsMax =  -2.28587149209147E-11  3.01772827190876E-02
 cg2d: Sum(rhs),rhsMax =  -2.28037588811958E-11  3.01003626336049E-02
 cg2d: Sum(rhs),rhsMax =  -2.27653451645438E-11  3.00164829704732E-02
 cg2d: Sum(rhs),rhsMax =  -2.27168284183676E-11  2.99256836525514E-02
 cg2d: Sum(rhs),rhsMax =  -2.27380336781380E-11  2.98280076884810E-02
 cg2d: Sum(rhs),rhsMax =  -2.27793339746540E-11  2.97235011254178E-02
 cg2d: Sum(rhs),rhsMax =  -2.28241869848489E-11  2.96122129945989E-02
 cg2d: Sum(rhs),rhsMax =  -2.28599361662418E-11  2.94941952517550E-02
 cg2d: Sum(rhs),rhsMax =  -2.28962404591471E-11  2.93695027130977E-02
 cg2d: Sum(rhs),rhsMax =  -2.29463115175577E-11  2.92381929904833E-02
 cg2d: Sum(rhs),rhsMax =  -2.29881669255860E-11  2.91003264283008E-02
 cg2d: Sum(rhs),rhsMax =  -2.30351293595277E-11  2.89559660445380E-02
 cg2d: Sum(rhs),rhsMax =  -2.30864216632654E-11  2.88051774781723E-02
 cg2d: Sum(rhs),rhsMax =  -2.31424879260089E-11  2.86480289445701E-02
 cg2d: Sum(rhs),rhsMax =  -2.31999974786845E-11  2.84845912000043E-02
 cg2d: Sum(rhs),rhsMax =  -2.32679431277916E-11  2.83149375157323E-02
 cg2d: Sum(rhs),rhsMax =  -2.33449926057006E-11  2.81391436613792E-02
 cg2d: Sum(rhs),rhsMax =  -2.33998376231170E-11  2.79572878966622E-02
 cg2d: Sum(rhs),rhsMax =  -2.34644526031502E-11  2.77694509698117E-02
 cg2d: Sum(rhs),rhsMax =  -2.35458319508552E-11  2.75757161204362E-02
 cg2d: Sum(rhs),rhsMax =  -2.36146657783820E-11  2.73761690841024E-02
 cg2d: Sum(rhs),rhsMax =  -2.37087016685678E-11  2.71708980956431E-02
 cg2d: Sum(rhs),rhsMax =  -2.37847519457546E-11  2.69599938882063E-02
 cg2d: Sum(rhs),rhsMax =  -2.39447350836031E-11  2.67435496853876E-02
 cg2d: Sum(rhs),rhsMax =  -2.40875097645699E-11  2.65216611843984E-02
 cg2d: Sum(rhs),rhsMax =  -2.42548203743809E-11  2.62944265290731E-02
 cg2d: Sum(rhs),rhsMax =  -2.44396725079810E-11  2.60619462724737E-02
 cg2d: Sum(rhs),rhsMax =  -2.46104248091683E-11  2.58243233297793E-02
 cg2d: Sum(rhs),rhsMax =  -2.47958320542807E-11  2.55816629229093E-02
 cg2d: Sum(rhs),rhsMax =  -2.49873455260285E-11  2.53340725188424E-02
 cg2d: Sum(rhs),rhsMax =  -2.51990650568246E-11  2.50816617638165E-02
 cg2d: Sum(rhs),rhsMax =  -2.54098964092009E-11  2.48245424155761E-02
 cg2d: Sum(rhs),rhsMax =  -2.56333843040579E-11  2.45628282757094E-02
 cg2d: Sum(rhs),rhsMax =  -2.58498777938598E-11  2.42966351231275E-02
 cg2d: Sum(rhs),rhsMax =  -2.60763632908834E-11  2.40260806503659E-02
 cg2d: Sum(rhs),rhsMax =  -2.63485899765215E-11  2.37512844033261E-02
 cg2d: Sum(rhs),rhsMax =  -2.65768518303844E-11  2.34723677246264E-02
 cg2d: Sum(rhs),rhsMax =  -2.68478572706954E-11  2.31894537003680E-02
 cg2d: Sum(rhs),rhsMax =  -2.71374034355176E-11  2.29026671098188E-02
 cg2d: Sum(rhs),rhsMax =  -2.74085198981311E-11  2.26121343772796E-02
 cg2d: Sum(rhs),rhsMax =  -2.76976219737435E-11  2.23179835252218E-02
 cg2d: Sum(rhs),rhsMax =  -2.80020451270957E-11  2.20203441276958E-02
 cg2d: Sum(rhs),rhsMax =  -2.83093548603119E-11  2.17193472630103E-02
 cg2d: Sum(rhs),rhsMax =  -2.86535239979457E-11  2.14151254647728E-02
 cg2d: Sum(rhs),rhsMax =  -2.89740453851550E-11  2.11078126705528E-02
 cg2d: Sum(rhs),rhsMax =  -2.93449708976823E-11  2.07975441676664E-02
 cg2d: Sum(rhs),rhsMax =  -2.97164515217219E-11  2.04844565358576E-02
 cg2d: Sum(rhs),rhsMax =  -3.01015878889643E-11  2.01686875869504E-02
 cg2d: Sum(rhs),rhsMax =  -3.05083736051870E-11  1.98503763018015E-02
 cg2d: Sum(rhs),rhsMax =  -3.09292591538224E-11  1.95296627650712E-02
 cg2d: Sum(rhs),rhsMax =  -3.13513659477849E-11  1.92066880984150E-02
 cg2d: Sum(rhs),rhsMax =  -3.18046700087393E-11  1.88815943926769E-02
 cg2d: Sum(rhs),rhsMax =  -3.22817328424208E-11  1.85545246396359E-02
 cg2d: Sum(rhs),rhsMax =  -3.27720073300952E-11  1.82256226639055E-02
 cg2d: Sum(rhs),rhsMax =  -3.32877059250336E-11  1.78950330540874E-02
 cg2d: Sum(rhs),rhsMax =  -3.38130634602862E-11  1.75629010944259E-02
 cg2d: Sum(rhs),rhsMax =  -3.43716166639751E-11  1.72293726970543E-02
 cg2d: Sum(rhs),rhsMax =  -3.49500428598049E-11  1.68945943349004E-02
 cg2d: Sum(rhs),rhsMax =  -3.55563356535527E-11  1.65587129753201E-02
 cg2d: Sum(rhs),rhsMax =  -3.61941587811998E-11  1.62218760145364E-02
 cg2d: Sum(rhs),rhsMax =  -3.68374220016676E-11  1.58842312129440E-02
 cg2d: Sum(rhs),rhsMax =  -3.75390829532307E-11  1.55459266312853E-02
 cg2d: Sum(rhs),rhsMax =  -3.82718301494833E-11  1.52071105676274E-02
 cg2d: Sum(rhs),rhsMax =  -3.90472099098815E-11  1.48679314949869E-02
 cg2d: Sum(rhs),rhsMax =  -3.98351351904580E-11  1.45285379993855E-02
 cg2d: Sum(rhs),rhsMax =  -4.07318623274477E-11  1.41890787180099E-02
 cg2d: Sum(rhs),rhsMax =  -4.16733314523299E-11  1.38497022772017E-02
 cg2d: Sum(rhs),rhsMax =  -4.26606527881290E-11  1.35105572303161E-02
 cg2d: Sum(rhs),rhsMax =  -4.37113678586343E-11  1.31717919947665E-02
 cg2d: Sum(rhs),rhsMax =  -4.47998305119768E-11  1.28335547880837E-02
 cg2d: Sum(rhs),rhsMax =  -4.59473570302293E-11  1.24959935628954E-02
 cg2d: Sum(rhs),rhsMax =  -4.71588323947003E-11  1.21592559408101E-02
 cg2d: Sum(rhs),rhsMax =  -4.84277062895444E-11  1.18234891452570E-02
 cg2d: Sum(rhs),rhsMax =  -4.97736296622975E-11  1.14888399333990E-02
 cg2d: Sum(rhs),rhsMax =  -5.11938269553980E-11  1.11554545273018E-02
 cg2d: Sum(rhs),rhsMax =  -5.27059507149374E-11  1.08234785445920E-02
 cg2d: Sum(rhs),rhsMax =  -5.42988431995184E-11  1.04930569288664E-02
 cg2d: Sum(rhs),rhsMax =  -5.59792212584398E-11  1.01643338801130E-02
 cg2d: Sum(rhs),rhsMax =  -5.77831671400020E-11  9.83745278537067E-03
 cg2d: Sum(rhs),rhsMax =  -5.96721005940992E-11  9.51255614962131E-03
 cg2d: Sum(rhs),rhsMax =  -6.16765527539087E-11  9.18978552758124E-03
 cg2d: Sum(rhs),rhsMax =  -6.38680219822163E-11  8.86928145624147E-03
 cg2d: Sum(rhs),rhsMax =  -6.61502519427870E-11  8.55118338824452E-03
 cg2d: Sum(rhs),rhsMax =  -6.86077861189460E-11  8.23562962632608E-03
 cg2d: Sum(rhs),rhsMax =  -6.85341783324134E-11  8.23513970937398E-03
 cg2d: Sum(rhs),rhsMax =  -6.65127397603271E-11  8.47473581004399E-03
 cg2d: Sum(rhs),rhsMax =  -6.46102060741782E-11  8.71183982211885E-03
 cg2d: Sum(rhs),rhsMax =  -6.28888052744969E-11  8.94634941996360E-03
 cg2d: Sum(rhs),rhsMax =  -6.12033757008135E-11  9.17816346565388E-03
 cg2d: Sum(rhs),rhsMax =  -5.96619698089995E-11  9.40718206803813E-03
 cg2d: Sum(rhs),rhsMax =  -5.81861780979409E-11  9.63330663349533E-03
 cg2d: Sum(rhs),rhsMax =  -5.68097513475863E-11  9.85643991019842E-03
 cg2d: Sum(rhs),rhsMax =  -5.55170631688640E-11  1.00764860300650E-02
 cg2d: Sum(rhs),rhsMax =  -5.42724198915323E-11  1.02933505510210E-02
 cg2d: Sum(rhs),rhsMax =  -5.31135274650651E-11  1.05069404999013E-02
 cg2d: Sum(rhs),rhsMax =  -5.20059481590174E-11  1.07171644150421E-02
 cg2d: Sum(rhs),rhsMax =  -5.09816902236060E-11  1.09239323875003E-02
 cg2d: Sum(rhs),rhsMax =  -4.99935908643279E-11  1.11271561003050E-02
 cg2d: Sum(rhs),rhsMax =  -4.90572027445069E-11  1.13267488656401E-02
 cg2d: Sum(rhs),rhsMax =  -4.81527873130716E-11  1.15226256554089E-02
 cg2d: Sum(rhs),rhsMax =  -4.72315936361767E-11  1.17147031381652E-02
 cg2d: Sum(rhs),rhsMax =  -4.63812460660407E-11  1.19028997180021E-02
 cg2d: Sum(rhs),rhsMax =  -4.55881582483997E-11  1.20871351746793E-02
 cg2d: Sum(rhs),rhsMax =  -4.48360237825796E-11  1.22673309841445E-02
 cg2d: Sum(rhs),rhsMax =  -4.41264802475416E-11  1.24434106746339E-02
 cg2d: Sum(rhs),rhsMax =  -4.34470515120466E-11  1.26152998555873E-02
 cg2d: Sum(rhs),rhsMax =  -4.27789470514028E-11  1.27829261116840E-02
 cg2d: Sum(rhs),rhsMax =  -4.21657986304780E-11  1.29462187900099E-02
 cg2d: Sum(rhs),rhsMax =  -4.15593948144277E-11  1.31051091648370E-02
 cg2d: Sum(rhs),rhsMax =  -4.10168288222934E-11  1.32595305248266E-02
 cg2d: Sum(rhs),rhsMax =  -4.04841160595026E-11  1.34094181931958E-02
 cg2d: Sum(rhs),rhsMax =  -3.99594524136404E-11  1.35547095261375E-02
 cg2d: Sum(rhs),rhsMax =  -3.95109223116918E-11  1.36953439205820E-02
 cg2d: Sum(rhs),rhsMax =  -3.90508736458628E-11  1.38312628376298E-02
 cg2d: Sum(rhs),rhsMax =  -3.86236043148358E-11  1.39624098342106E-02
 cg2d: Sum(rhs),rhsMax =  -3.81970843843504E-11  1.40887305944868E-02
 cg2d: Sum(rhs),rhsMax =  -3.78285736069017E-11  1.42101729571761E-02
 cg2d: Sum(rhs),rhsMax =  -3.74901776289960E-11  1.43266869390851E-02
 cg2d: Sum(rhs),rhsMax =  -3.71325747927642E-11  1.44382247565868E-02
 cg2d: Sum(rhs),rhsMax =  -3.68000074857378E-11  1.45447408463141E-02
 cg2d: Sum(rhs),rhsMax =  -3.65256158652016E-11  1.46461918854078E-02
 cg2d: Sum(rhs),rhsMax =  -3.62398999698144E-11  1.47425368111012E-02
 cg2d: Sum(rhs),rhsMax =  -3.59509089165044E-11  1.48337368393448E-02
 cg2d: Sum(rhs),rhsMax =  -3.56436546944394E-11  1.49197554823136E-02
 cg2d: Sum(rhs),rhsMax =  -3.53388429630286E-11  1.50005585647661E-02
 cg2d: Sum(rhs),rhsMax =  -3.50675044558102E-11  1.50761142392383E-02
 cg2d: Sum(rhs),rhsMax =  -3.47909479003761E-11  1.51463930021614E-02
 cg2d: Sum(rhs),rhsMax =  -3.45736772544569E-11  1.52113677045452E-02
(PID.TID 0000.0001)      cg2d_init_res =   2.96083306988489E-02
(PID.TID 0000.0001)      cg2d_iters(min,last) =      -1      36
(PID.TID 0000.0001)      cg2d_last_res =   7.14291859164409E-14
(PID.TID 0000.0001) // =======================================================
(PID.TID 0000.0001) // Begin MONITOR dynamic field statistics
(PID.TID 0000.0001) // =======================================================
(PID.TID 0000.0001) %MON time_tsnumber                =                  6240
(PID.TID 0000.0001) %MON time_secondsf                =   9.3600000000000E+04
(PID.TID 0000.0001) %MON dynstat_eta_max              =   2.7573276921683E-03
(PID.TID 0000.0001) %MON dynstat_eta_min              =  -2.9266455301457E-03
(PID.TID 0000.0001) %MON dynstat_eta_mean             =   1.1248478379661E-15
(PID.TID 0000.0001) %MON dynstat_eta_sd               =   1.7960885130095E-03
(PID.TID 0000.0001) %MON dynstat_eta_del2             =   4.7010147283288E-06
(PID.TID 0000.0001) %MON dynstat_uvel_max             =   3.2783161107714E-01
(PID.TID 0000.0001) %MON dynstat_uvel_min             =  -5.9568749546289E-02
(PID.TID 0000.0001) %MON dynstat_uvel_mean            =   6.8191029648657E-02
(PID.TID 0000.0001) %MON dynstat_uvel_sd              =   3.9997342538710E-02
(PID.TID 0000.0001) %MON dynstat_uvel_del2            =   9.3269142785831E-05
(PID.TID 0000.0001) %MON dynstat_vvel_max             =   0.0000000000000E+00
(PID.TID 0000.0001) %MON dynstat_vvel_min             =   0.0000000000000E+00
(PID.TID 0000.0001) %MON dynstat_vvel_mean            =   0.0000000000000E+00
(PID.TID 0000.0001) %MON dynstat_vvel_sd              =   0.0000000000000E+00
(PID.TID 0000.0001) %MON dynstat_vvel_del2            =   0.0000000000000E+00
(PID.TID 0000.0001) %MON dynstat_wvel_max             =   1.8857303267644E-03
(PID.TID 0000.0001) %MON dynstat_wvel_min             =  -3.9953843291387E-03
(PID.TID 0000.0001) %MON dynstat_wvel_mean            =   3.9137746587318E-21
(PID.TID 0000.0001) %MON dynstat_wvel_sd              =   2.1921990121254E-04
(PID.TID 0000.0001) %MON dynstat_wvel_del2            =   3.1332068666527E-06
(PID.TID 0000.0001) %MON dynstat_theta_max            =   1.5000000000019E+01
(PID.TID 0000.0001) %MON dynstat_theta_min            =   9.9999999999889E+00
(PID.TID 0000.0001) %MON dynstat_theta_mean           =   1.3315890914723E+01
(PID.TID 0000.0001) %MON dynstat_theta_sd             =   2.3112322457462E+00
(PID.TID 0000.0001) %MON dynstat_theta_del2           =   2.9702734470205E-04
(PID.TID 0000.0001) %MON dynstat_salt_max             =   3.5000000000000E+01
(PID.TID 0000.0001) %MON dynstat_salt_min             =   3.5000000000000E+01
(PID.TID 0000.0001) %MON dynstat_salt_mean            =   3.5000000000000E+01
(PID.TID 0000.0001) %MON dynstat_salt_sd              =   2.1316282072803E-14
(PID.TID 0000.0001) %MON dynstat_salt_del2            =   0.0000000000000E+00
(PID.TID 0000.0001) %MON dynstat_sst_max              =   1.5000000000000E+01
(PID.TID 0000.0001) %MON dynstat_sst_min              =   1.4999999999989E+01
(PID.TID 0000.0001) %MON dynstat_sst_mean             =   1.4999999999992E+01
(PID.TID 0000.0001) %MON dynstat_sst_sd               =   4.0658223907507E-12
(PID.TID 0000.0001) %MON dynstat_sst_del2             =   3.3491886202115E-14
(PID.TID 0000.0001) %MON dynstat_sss_max              =   3.5000000000000E+01
(PID.TID 0000.0001) %MON dynstat_sss_min              =   3.5000000000000E+01
(PID.TID 0000.0001) %MON dynstat_sss_mean             =   3.5000000000000E+01
(PID.TID 0000.0001) %MON dynstat_sss_sd               =   7.8159700933611E-14
(PID.TID 0000.0001) %MON dynstat_sss_del2             =   0.0000000000000E+00
(PID.TID 0000.0001) %MON forcing_qnet_max             =   0.0000000000000E+00
(PID.TID 0000.0001) %MON forcing_qnet_min             =   0.0000000000000E+00
(PID.TID 0000.0001) %MON forcing_qnet_mean            =   0.0000000000000E+00
(PID.TID 0000.0001) %MON forcing_qnet_sd              =   0.0000000000000E+00
(PID.TID 0000.0001) %MON forcing_qnet_del2            =   0.0000000000000E+00
(PID.TID 0000.0001) %MON forcing_qsw_max              =   0.0000000000000E+00
(PID.TID 0000.0001) %MON forcing_qsw_min              =   0.0000000000000E+00
(PID.TID 0000.0001) %MON forcing_qsw_mean             =   0.0000000000000E+00
(PID.TID 0000.0001) %MON forcing_qsw_sd               =   0.0000000000000E+00
(PID.TID 0000.0001) %MON forcing_qsw_del2             =   0.0000000000000E+00
(PID.TID 0000.0001) %MON forcing_empmr_max            =   0.0000000000000E+00
(PID.TID 0000.0001) %MON forcing_empmr_min            =   0.0000000000000E+00
(PID.TID 0000.0001) %MON forcing_empmr_mean           =   0.0000000000000E+00
(PID.TID 0000.0001) %MON forcing_empmr_sd             =   0.0000000000000E+00
(PID.TID 0000.0001) %MON forcing_empmr_del2           =   0.0000000000000E+00
(PID.TID 0000.0001) %MON forcing_fu_max               =   0.0000000000000E+00
(PID.TID 0000.0001) %MON forcing_fu_min               =   0.0000000000000E+00
(PID.TID 0000.0001) %MON forcing_fu_mean              =   0.0000000000000E+00
(PID.TID 0000.0001) %MON forcing_fu_sd                =   0.0000000000000E+00
(PID.TID 0000.0001) %MON forcing_fu_del2              =   0.0000000000000E+00
(PID.TID 0000.0001) %MON forcing_fv_max               =   0.0000000000000E+00
(PID.TID 0000.0001) %MON forcing_fv_min               =   0.0000000000000E+00
(PID.TID 0000.0001) %MON forcing_fv_mean              =   0.0000000000000E+00
(PID.TID 0000.0001) %MON forcing_fv_sd                =   0.0000000000000E+00
(PID.TID 0000.0001) %MON forcing_fv_del2              =   0.0000000000000E+00
(PID.TID 0000.0001) %MON advcfl_uvel_max              =   2.4587370830785E-02
(PID.TID 0000.0001) %MON advcfl_vvel_max              =   0.0000000000000E+00
(PID.TID 0000.0001) %MON advcfl_wvel_max              =   3.4306530686906E-02
(PID.TID 0000.0001) %MON advcfl_W_hf_max              =   3.4593574664822E-02
(PID.TID 0000.0001) %MON pe_b_mean                    =   8.0593897587813E-08
(PID.TID 0000.0001) %MON ke_max                       =   4.6123318512391E-02
(PID.TID 0000.0001) %MON ke_mean                      =   3.1335704158607E-03
(PID.TID 0000.0001) %MON ke_vol                       =   9.5889217545975E+10
(PID.TID 0000.0001) %MON vort_r_min                   =   0.0000000000000E+00
(PID.TID 0000.0001) %MON vort_r_max                   =   0.0000000000000E+00
(PID.TID 0000.0001) %MON vort_a_mean                  =   0.0000000000000E+00
(PID.TID 0000.0001) %MON vort_a_sd                    =   0.0000000000000E+00
(PID.TID 0000.0001) %MON vort_p_mean                  =   0.0000000000000E+00
(PID.TID 0000.0001) %MON vort_p_sd                    =   0.0000000000000E+00
(PID.TID 0000.0001) %MON surfExpan_theta_mean         =  -7.0527330614451E-19
(PID.TID 0000.0001) %MON surfExpan_salt_mean          =   1.7318316424655E-19
(PID.TID 0000.0001) // =======================================================
(PID.TID 0000.0001) // End MONITOR dynamic field statistics
(PID.TID 0000.0001) // =======================================================
(PID.TID 0000.0001) // =======================================================
(PID.TID 0000.0001) // Begin OBCS MONITOR field statistics
(PID.TID 0000.0001) // =======================================================
(PID.TID 0000.0001) %MON obc_E_uVel_max               =   6.6809804669674E-02
(PID.TID 0000.0001) %MON obc_E_uVel_min               =   6.6809804669674E-02
(PID.TID 0000.0001) %MON obc_E_uVel_mean              =   6.6809804669674E-02
(PID.TID 0000.0001) %MON obc_E_uVel_sd                =  -1.7347234759768E-18
(PID.TID 0000.0001) %MON obc_E_uVel_Int               =   6.6809804669674E+04
(PID.TID 0000.0001) %MON obc_W_uVel_max               =   6.6809804669674E-02
(PID.TID 0000.0001) %MON obc_W_uVel_min               =   6.6809804669674E-02
(PID.TID 0000.0001) %MON obc_W_uVel_mean              =   6.6809804669674E-02
(PID.TID 0000.0001) %MON obc_W_uVel_sd                =  -1.7347234759768E-18
(PID.TID 0000.0001) %MON obc_W_uVel_Int               =   6.6809804669674E+04
(PID.TID 0000.0001) // =======================================================
(PID.TID 0000.0001) // End OBCS MONITOR field statistics
(PID.TID 0000.0001) // =======================================================
 cg2d: Sum(rhs),rhsMax =  -3.43381989509339E-11  1.52710135596367E-02
 cg2d: Sum(rhs),rhsMax =  -3.41576211759786E-11  1.53253081530057E-02
 cg2d: Sum(rhs),rhsMax =  -3.39867023413376E-11  1.53742314540069E-02
 cg2d: Sum(rhs),rhsMax =  -3.38169492408724E-11  1.54177658250494E-02
 cg2d: Sum(rhs),rhsMax =  -3.36680128221190E-11  1.54558960268095E-02
 cg2d: Sum(rhs),rhsMax =  -3.35300676113093E-11  1.54886092200831E-02
 cg2d: Sum(rhs),rhsMax =  -3.33722494083588E-11  1.55158949660517E-02
 cg2d: Sum(rhs),rhsMax =  -3.31962790589557E-11  1.55377452262104E-02
 cg2d: Sum(rhs),rhsMax =  -3.31140115328310E-11  1.55541543621482E-02
 cg2d: Sum(rhs),rhsMax =  -3.30155902616980E-11  1.55651191346980E-02
 cg2d: Sum(rhs),rhsMax =  -3.28549965011860E-11  1.55706387019139E-02
 cg2d: Sum(rhs),rhsMax =  -3.27917692999335E-11  1.55707146156566E-02
 cg2d: Sum(rhs),rhsMax =  -3.28260751913945E-11  1.55653508168974E-02
 cg2d: Sum(rhs),rhsMax =  -3.28782556735518E-11  1.55545536299746E-02
 cg2d: Sum(rhs),rhsMax =  -3.29967164702794E-11  1.55383317559413E-02
 cg2d: Sum(rhs),rhsMax =  -3.30688254557288E-11  1.55166962649346E-02
 cg2d: Sum(rhs),rhsMax =  -3.32107119582759E-11  1.54896605873037E-02
 cg2d: Sum(rhs),rhsMax =  -3.33629235349520E-11  1.54572405031153E-02
 cg2d: Sum(rhs),rhsMax =  -3.35684813279613E-11  1.54194541296049E-02
 cg2d: Sum(rhs),rhsMax =  -3.37869177080563E-11  1.53763219061420E-02
 cg2d: Sum(rhs),rhsMax =  -3.39532846282964E-11  1.53278665763594E-02
 cg2d: Sum(rhs),rhsMax =  -3.41195960373852E-11  1.52741131672908E-02
 cg2d: Sum(rhs),rhsMax =  -3.43235995181601E-11  1.52150889656771E-02
 cg2d: Sum(rhs),rhsMax =  -3.45211081942409E-11  1.51508234919857E-02
 cg2d: Sum(rhs),rhsMax =  -3.47571971204275E-11  1.50813484730732E-02
 cg2d: Sum(rhs),rhsMax =  -3.49802964372259E-11  1.50066978147197E-02
 cg2d: Sum(rhs),rhsMax =  -3.52732842934245E-11  1.49269075754418E-02
 cg2d: Sum(rhs),rhsMax =  -3.55661056161694E-11  1.48420159430053E-02
 cg2d: Sum(rhs),rhsMax =  -3.58738039274442E-11  1.47520632148541E-02
 cg2d: Sum(rhs),rhsMax =  -3.61840557516757E-11  1.46570918230815E-02
 cg2d: Sum(rhs),rhsMax =  -3.64799301877383E-11  1.45571462753086E-02
 cg2d: Sum(rhs),rhsMax =  -3.67716412874586E-11  1.44522731264639E-02
 cg2d: Sum(rhs),rhsMax =  -3.71044861502412E-11  1.43425209903640E-02
 cg2d: Sum(rhs),rhsMax =  -3.74299480299101E-11  1.42279405578926E-02
 cg2d: Sum(rhs),rhsMax =  -3.78082565255511E-11  1.41085846042727E-02
 cg2d: Sum(rhs),rhsMax =  -3.81857323539236E-11  1.39845079837896E-02
 cg2d: Sum(rhs),rhsMax =  -3.86015663877970E-11  1.38557676144865E-02
 cg2d: Sum(rhs),rhsMax =  -3.90232290925496E-11  1.37224224580610E-02
 cg2d: Sum(rhs),rhsMax =  -3.94813071125100E-11  1.35845334965584E-02
 cg2d: Sum(rhs),rhsMax =  -3.99769384262783E-11  1.34421637047161E-02
 cg2d: Sum(rhs),rhsMax =  -4.04957178901100E-11  1.32953780171743E-02
 cg2d: Sum(rhs),rhsMax =  -4.10065870148912E-11  1.31442432903391E-02
 cg2d: Sum(rhs),rhsMax =  -4.15875112125264E-11  1.29888282600521E-02
 cg2d: Sum(rhs),rhsMax =  -4.21853663112870E-11  1.28292034973552E-02
 cg2d: Sum(rhs),rhsMax =  -4.27647084411120E-11  1.26654413643708E-02
 cg2d: Sum(rhs),rhsMax =  -4.34485780687055E-11  1.24976159714494E-02
 cg2d: Sum(rhs),rhsMax =  -4.41363889880364E-11  1.23258031358238E-02
 cg2d: Sum(rhs),rhsMax =  -4.48420467424882E-11  1.21500803424019E-02
 cg2d: Sum(rhs),rhsMax =  -4.56455706565606E-11  1.19705267114737E-02
 cg2d: Sum(rhs),rhsMax =  -4.64378674402965E-11  1.17872229465951E-02
 cg2d: Sum(rhs),rhsMax =  -4.72843708632098E-11  1.16002512941736E-02
 cg2d: Sum(rhs),rhsMax =  -4.81753525960471E-11  1.14096955082758E-02
 cg2d: Sum(rhs),rhsMax =  -4.90958246279760E-11  1.12156408140776E-02
 cg2d: Sum(rhs),rhsMax =  -5.00770605538214E-11  1.10181738673637E-02
 cg2d: Sum(rhs),rhsMax =  -5.11165137995206E-11  1.08173827106190E-02
 cg2d: Sum(rhs),rhsMax =  -5.21433174416330E-11  1.06133567661413E-02
 cg2d: Sum(rhs),rhsMax =  -5.32299083283450E-11  1.04061867508181E-02
 cg2d: Sum(rhs),rhsMax =  -5.43930386842639E-11  1.01959645895109E-02
 cg2d: Sum(rhs),rhsMax =  -5.56131252160696E-11  9.98278337581231E-03
 cg2d: Sum(rhs),rhsMax =  -5.68727842598094E-11  9.76673736610173E-03
 cg2d: Sum(rhs),rhsMax =  -5.82432851947701E-11  9.54792197191399E-03
 cg2d: Sum(rhs),rhsMax =  -5.96981630796023E-11  9.32643373158381E-03
 cg2d: Sum(rhs),rhsMax =  -6.12315753656389E-11  9.10237026469120E-03
 cg2d: Sum(rhs),rhsMax =  -6.28444796202388E-11  8.87583022247632E-03
 cg2d: Sum(rhs),rhsMax =  -6.45910547270034E-11  8.64691324387731E-03
 cg2d: Sum(rhs),rhsMax =  -6.64608368339259E-11  8.41571991879537E-03
 cg2d: Sum(rhs),rhsMax =  -6.84455825350483E-11  8.18235175449145E-03
 cg2d: Sum(rhs),rhsMax =  -7.05252523047761E-11  7.94691113956963E-03
 cg2d: Sum(rhs),rhsMax =  -7.27796711785800E-11  7.70950130156442E-03
 cg2d: Sum(rhs),rhsMax =  -7.11590786295346E-11  7.89750396533150E-03
 cg2d: Sum(rhs),rhsMax =  -6.86116163883810E-11  8.20098283339714E-03
 cg2d: Sum(rhs),rhsMax =  -6.62084276292774E-11  8.50679611838739E-03
 cg2d: Sum(rhs),rhsMax =  -6.39585606698745E-11  8.81481020658640E-03
 cg2d: Sum(rhs),rhsMax =  -6.18727291623600E-11  9.12489064302942E-03
 cg2d: Sum(rhs),rhsMax =  -5.98951999108976E-11  9.43690218675724E-03
 cg2d: Sum(rhs),rhsMax =  -5.80314685194594E-11  9.75070886527684E-03
 cg2d: Sum(rhs),rhsMax =  -5.62779822743664E-11  1.00661740285746E-02
 cg2d: Sum(rhs),rhsMax =  -5.46154232949903E-11  1.03831604031937E-02
 cg2d: Sum(rhs),rhsMax =  -5.30659960418234E-11  1.07015301470801E-02
 cg2d: Sum(rhs),rhsMax =  -5.15733011852149E-11  1.10211449055919E-02
 cg2d: Sum(rhs),rhsMax =  -5.01763075533290E-11  1.13418658693407E-02
 cg2d: Sum(rhs),rhsMax =  -4.88529217079758E-11  1.16635538344566E-02
 cg2d: Sum(rhs),rhsMax =  -4.76056971621119E-11  1.19860692654164E-02
 cg2d: Sum(rhs),rhsMax =  -4.64106530984054E-11  1.23092723603406E-02
 cg2d: Sum(rhs),rhsMax =  -4.52766713010533E-11  1.26330231184297E-02
 cg2d: Sum(rhs),rhsMax =  -4.41928715844142E-11  1.29571814089745E-02
 cg2d: Sum(rhs),rhsMax =  -4.31725766247837E-11  1.32816070411248E-02
 cg2d: Sum(rhs),rhsMax =  -4.21989110321874E-11  1.36061598333973E-02
 cg2d: Sum(rhs),rhsMax =  -4.12695433382737E-11  1.39306996817612E-02
 cg2d: Sum(rhs),rhsMax =  -4.03802546955490E-11  1.42550866251346E-02
 cg2d: Sum(rhs),rhsMax =  -3.95826704746582E-11  1.45791809072601E-02
 cg2d: Sum(rhs),rhsMax =  -3.88403753603939E-11  1.49028430342234E-02
 cg2d: Sum(rhs),rhsMax =  -3.80979692238270E-11  1.52259338272968E-02
 cg2d: Sum(rhs),rhsMax =  -3.74076325471151E-11  1.55483144712832E-02
 cg2d: Sum(rhs),rhsMax =  -3.67305075243962E-11  1.58698465590358E-02
 cg2d: Sum(rhs),rhsMax =  -3.61110030766554E-11  1.61903921332601E-02
 cg2d: Sum(rhs),rhsMax =  -3.54946072533835E-11  1.65098137270077E-02
 cg2d: Sum(rhs),rhsMax =  -3.48934214855490E-11  1.68279744044121E-02
 cg2d: Sum(rhs),rhsMax =  -3.43497452703900E-11  1.71447378031640E-02
 cg2d: Sum(rhs),rhsMax =  -3.38153949286379E-11  1.74599681800075E-02
 cg2d: Sum(rhs),rhsMax =  -3.32980309991626E-11  1.77735304601745E-02
 cg2d: Sum(rhs),rhsMax =  -3.27949889467050E-11  1.80852902912290E-02
 cg2d: Sum(rhs),rhsMax =  -3.23284732317575E-11  1.83951141013075E-02
 cg2d: Sum(rhs),rhsMax =  -3.18556292455696E-11  1.87028691612961E-02
 cg2d: Sum(rhs),rhsMax =  -3.14345216523293E-11  1.90084236501003E-02
 cg2d: Sum(rhs),rhsMax =  -3.10109715684348E-11  1.93116467219100E-02
 cg2d: Sum(rhs),rhsMax =  -3.05858671723058E-11  1.96124085742327E-02
 cg2d: Sum(rhs),rhsMax =  -3.02010638719707E-11  1.99105805154775E-02
 cg2d: Sum(rhs),rhsMax =  -2.98401303666651E-11  2.02060350310079E-02
 cg2d: Sum(rhs),rhsMax =  -2.94783086829398E-11  2.04986458468024E-02
 cg2d: Sum(rhs),rhsMax =  -2.91274782071582E-11  2.07882879901575E-02
 cg2d: Sum(rhs),rhsMax =  -2.87979640134495E-11  2.10748378471769E-02
 cg2d: Sum(rhs),rhsMax =  -2.84937629047022E-11  2.13581732170938E-02
 cg2d: Sum(rhs),rhsMax =  -2.81805689894554E-11  2.16381733637293E-02
 cg2d: Sum(rhs),rhsMax =  -2.78751466353810E-11  2.19147190645665E-02
 cg2d: Sum(rhs),rhsMax =  -2.75770517532692E-11  2.21876926580141E-02
 cg2d: Sum(rhs),rhsMax =  -2.73094880043345E-11  2.24569780894278E-02
 cg2d: Sum(rhs),rhsMax =  -2.70405919877703E-11  2.27224609565161E-02
 cg2d: Sum(rhs),rhsMax =  -2.67844635359893E-11  2.29840285544065E-02
 cg2d: Sum(rhs),rhsMax =  -2.65322208647945E-11  2.32415699199945E-02
 cg2d: Sum(rhs),rhsMax =  -2.62952992713394E-11  2.34949758763939E-02
 cg2d: Sum(rhs),rhsMax =  -2.60579335886746E-11  2.37441390773883E-02
 cg2d: Sum(rhs),rhsMax =  -2.58462140578786E-11  2.39889540516928E-02
 cg2d: Sum(rhs),rhsMax =  -2.56237253637437E-11  2.42293172467956E-02
 cg2d: Sum(rhs),rhsMax =  -2.54274379329900E-11  2.44651270721535E-02
 cg2d: Sum(rhs),rhsMax =  -2.52390330857111E-11  2.46962839415382E-02
 cg2d: Sum(rhs),rhsMax =  -2.50424125880500E-11  2.49226903143325E-02
 cg2d: Sum(rhs),rhsMax =  -2.48667753055543E-11  2.51442507355924E-02
 cg2d: Sum(rhs),rhsMax =  -2.46926923352930E-11  2.53608718747056E-02
 cg2d: Sum(rhs),rhsMax =  -2.45211628779884E-11  2.55724625625331E-02
 cg2d: Sum(rhs),rhsMax =  -2.44362308166046E-11  2.57789338269880E-02
 cg2d: Sum(rhs),rhsMax =  -2.43498554652888E-11  2.59801989271146E-02
 cg2d: Sum(rhs),rhsMax =  -2.42658115823247E-11  2.61761733858253E-02
 cg2d: Sum(rhs),rhsMax =  -2.41933140188166E-11  2.63667750215274E-02
 cg2d: Sum(rhs),rhsMax =  -2.41162645409077E-11  2.65519239788833E-02
 cg2d: Sum(rhs),rhsMax =  -2.40562014752754E-11  2.67315427588866E-02
 cg2d: Sum(rhs),rhsMax =  -2.40047981492353E-11  2.69055562483078E-02
 cg2d: Sum(rhs),rhsMax =  -2.39358532994061E-11  2.70738917484190E-02
 cg2d: Sum(rhs),rhsMax =  -2.38714603639778E-11  2.72364790028118E-02
 cg2d: Sum(rhs),rhsMax =  -2.38022934695437E-11  2.73932502241423E-02
 cg2d: Sum(rhs),rhsMax =  -2.37565522809291E-11  2.75441401197870E-02
 cg2d: Sum(rhs),rhsMax =  -2.37111441592219E-11  2.76890859166253E-02
 cg2d: Sum(rhs),rhsMax =  -2.36889396987294E-11  2.78280273853965E-02
 cg2d: Sum(rhs),rhsMax =  -2.36575203871325E-11  2.79609068652110E-02
 cg2d: Sum(rhs),rhsMax =  -2.37697639349221E-11  2.80876692887894E-02
 cg2d: Sum(rhs),rhsMax =  -2.35106378809746E-11  2.82082622088631E-02
 cg2d: Sum(rhs),rhsMax =  -2.34058328274500E-11  2.83226358259492E-02
 cg2d: Sum(rhs),rhsMax =  -2.33433272711636E-11  2.84307430174736E-02
 cg2d: Sum(rhs),rhsMax =  -2.33389974013676E-11  2.85325393680006E-02
 cg2d: Sum(rhs),rhsMax =  -2.33387753567627E-11  2.86279832001528E-02
 cg2d: Sum(rhs),rhsMax =  -2.33492114531941E-11  2.87170356056547E-02
 cg2d: Sum(rhs),rhsMax =  -2.33699726237546E-11  2.87996604757975E-02
 cg2d: Sum(rhs),rhsMax =  -2.33840724561674E-11  2.88758245304743E-02
 cg2d: Sum(rhs),rhsMax =  -2.33832953000501E-11  2.89454973447922E-02
 cg2d: Sum(rhs),rhsMax =  -2.34046115821229E-11  2.90086513721575E-02
 cg2d: Sum(rhs),rhsMax =  -2.34043895375180E-11  2.90652619626781E-02
 cg2d: Sum(rhs),rhsMax =  -2.34285923994548E-11  2.91153073757966E-02
 cg2d: Sum(rhs),rhsMax =  -2.34871011528526E-11  2.91587687862722E-02
 cg2d: Sum(rhs),rhsMax =  -2.35366170997509E-11  2.91956302830064E-02
 cg2d: Sum(rhs),rhsMax =  -2.35670372106256E-11  2.92258788607101E-02
 cg2d: Sum(rhs),rhsMax =  -2.35926833624944E-11  2.92495044050132E-02
 cg2d: Sum(rhs),rhsMax =  -2.36523023389168E-11  2.92664996722168E-02
 cg2d: Sum(rhs),rhsMax =  -2.36948238807599E-11  2.92768602654206E-02
 cg2d: Sum(rhs),rhsMax =  -2.37119213153392E-11  2.92805846091382E-02
 cg2d: Sum(rhs),rhsMax =  -2.36615171900212E-11  2.92776739246902E-02
 cg2d: Sum(rhs),rhsMax =  -2.36101138639810E-11  2.92681322086570E-02
 cg2d: Sum(rhs),rhsMax =  -2.35457209285528E-11  2.92519662164190E-02
 cg2d: Sum(rhs),rhsMax =  -2.34650077146625E-11  2.92291854516750E-02
 cg2d: Sum(rhs),rhsMax =  -2.33796315640689E-11  2.91998021631218E-02
 cg2d: Sum(rhs),rhsMax =  -2.33191244092268E-11  2.91638313480175E-02
 cg2d: Sum(rhs),rhsMax =  -2.32933672350555E-11  2.91212907621034E-02
 cg2d: Sum(rhs),rhsMax =  -2.32683872170014E-11  2.90722009341790E-02
 cg2d: Sum(rhs),rhsMax =  -2.32399655075710E-11  2.90165851830572E-02
 cg2d: Sum(rhs),rhsMax =  -2.32145414003071E-11  2.89544696347371E-02
 cg2d: Sum(rhs),rhsMax =  -2.31610286505202E-11  2.88858832377263E-02
 cg2d: Sum(rhs),rhsMax =  -2.31304975173430E-11  2.88108577747284E-02
 cg2d: Sum(rhs),rhsMax =  -2.30959695812771E-11  2.87294278693255E-02
 cg2d: Sum(rhs),rhsMax =  -2.30535590617365E-11  2.86416309867611E-02
 cg2d: Sum(rhs),rhsMax =  -2.30045982263505E-11  2.85475074284226E-02
 cg2d: Sum(rhs),rhsMax =  -2.30234720177691E-11  2.84471003200536E-02
 cg2d: Sum(rhs),rhsMax =  -2.30542251955512E-11  2.83404555940944E-02
 cg2d: Sum(rhs),rhsMax =  -2.31101804359923E-11  2.82276219668085E-02
 cg2d: Sum(rhs),rhsMax =  -2.31308305842504E-11  2.81086509110868E-02
 cg2d: Sum(rhs),rhsMax =  -2.31645813641990E-11  2.79835966260409E-02
 cg2d: Sum(rhs),rhsMax =  -2.32308616787691E-11  2.78525160033267E-02
 cg2d: Sum(rhs),rhsMax =  -2.32883712314447E-11  2.77154685919130E-02
 cg2d: Sum(rhs),rhsMax =  -2.33291164164484E-11  2.75725165618876E-02
 cg2d: Sum(rhs),rhsMax =  -2.33865149468215E-11  2.74237246676736E-02
 cg2d: Sum(rhs),rhsMax =  -2.34449126779168E-11  2.72691602108452E-02
 cg2d: Sum(rhs),rhsMax =  -2.34935404463954E-11  2.71088930026144E-02
 cg2d: Sum(rhs),rhsMax =  -2.35590436048483E-11  2.69429953260178E-02
 cg2d: Sum(rhs),rhsMax =  -2.36265451647455E-11  2.67715418978359E-02
 cg2d: Sum(rhs),rhsMax =  -2.36995978397658E-11  2.65946098302999E-02
 cg2d: Sum(rhs),rhsMax =  -2.37450059614730E-11  2.64122785926536E-02
 cg2d: Sum(rhs),rhsMax =  -2.38273845099002E-11  2.62246299726040E-02
 cg2d: Sum(rhs),rhsMax =  -2.39169795079874E-11  2.60317480376361E-02
 cg2d: Sum(rhs),rhsMax =  -2.39894770714955E-11  2.58337190960891E-02
 cg2d: Sum(rhs),rhsMax =  -2.40734099321571E-11  2.56306316578399E-02
 cg2d: Sum(rhs),rhsMax =  -2.42271758210677E-11  2.54225763944256E-02
 cg2d: Sum(rhs),rhsMax =  -2.44130271553900E-11  2.52096460984780E-02
 cg2d: Sum(rhs),rhsMax =  -2.45645725982513E-11  2.49919356424121E-02
 cg2d: Sum(rhs),rhsMax =  -2.47539766462523E-11  2.47695419365187E-02
 cg2d: Sum(rhs),rhsMax =  -2.49299469956554E-11  2.45425638861200E-02
 cg2d: Sum(rhs),rhsMax =  -2.51225706904279E-11  2.43111023482650E-02
 cg2d: Sum(rhs),rhsMax =  -2.53375098679953E-11  2.40752600880961E-02
 cg2d: Sum(rhs),rhsMax =  -2.55461207743224E-11  2.38351417348780E-02
 cg2d: Sum(rhs),rhsMax =  -2.57724952490435E-11  2.35908537376651E-02
 cg2d: Sum(rhs),rhsMax =  -2.59970933669251E-11  2.33425043205802E-02
 cg2d: Sum(rhs),rhsMax =  -2.62407873208303E-11  2.30902034376721E-02
 cg2d: Sum(rhs),rhsMax =  -2.64633870372677E-11  2.28340627272904E-02
 cg2d: Sum(rhs),rhsMax =  -2.67242894480546E-11  2.25741954658844E-02
 cg2d: Sum(rhs),rhsMax =  -2.69814171005578E-11  2.23107165210848E-02
 cg2d: Sum(rhs),rhsMax =  -2.72597500128313E-11  2.20437423039065E-02
 cg2d: Sum(rhs),rhsMax =  -2.75311995423522E-11  2.17733907199009E-02
 cg2d: Sum(rhs),rhsMax =  -2.78167489042858E-11  2.14997811191158E-02
 cg2d: Sum(rhs),rhsMax =  -2.81156209425149E-11  2.12230342447671E-02
 cg2d: Sum(rhs),rhsMax =  -2.84167134267932E-11  2.09432721806096E-02
 cg2d: Sum(rhs),rhsMax =  -2.87389001485394E-11  2.06606182970758E-02
 cg2d: Sum(rhs),rhsMax =  -2.90851787099200E-11  2.03751971963350E-02
 cg2d: Sum(rhs),rhsMax =  -2.94398949662877E-11  2.00871346564990E-02
 cg2d: Sum(rhs),rhsMax =  -2.97926128212112E-11  1.97965575752526E-02
 cg2d: Sum(rhs),rhsMax =  -3.01541014380291E-11  1.95035939132142E-02
 cg2d: Sum(rhs),rhsMax =  -3.05518943477523E-11  1.92083726373418E-02
 cg2d: Sum(rhs),rhsMax =  -3.09670067366596E-11  1.89110236646832E-02
 cg2d: Sum(rhs),rhsMax =  -3.13883363745049E-11  1.86116778071058E-02
 cg2d: Sum(rhs),rhsMax =  -3.18305382052131E-11  1.83104667161923E-02
 cg2d: Sum(rhs),rhsMax =  -3.22842863553774E-11  1.80075228290478E-02
 cg2d: Sum(rhs),rhsMax =  -3.27667892818795E-11  1.77029793151877E-02
 cg2d: Sum(rhs),rhsMax =  -3.32661675983559E-11  1.73969700242891E-02
 cg2d: Sum(rhs),rhsMax =  -3.37787575688253E-11  1.70896294344360E-02
 cg2d: Sum(rhs),rhsMax =  -3.43041151040779E-11  1.67810926003757E-02
 cg2d: Sum(rhs),rhsMax =  -3.48616691070447E-11  1.64714951012295E-02
 cg2d: Sum(rhs),rhsMax =  -3.54429818827384E-11  1.61609729870601E-02
 cg2d: Sum(rhs),rhsMax =  -3.60407259591966E-11  1.58496627237010E-02
 cg2d: Sum(rhs),rhsMax =  -3.66544572472094E-11  1.55377011353160E-02
 cg2d: Sum(rhs),rhsMax =  -3.73212571957993E-11  1.52252253442703E-02
 cg2d: Sum(rhs),rhsMax =  -3.79909437242532E-11  1.49123727080678E-02
 cg2d: Sum(rhs),rhsMax =  -3.87131438017718E-11  1.45992807533131E-02
 cg2d: Sum(rhs),rhsMax =  -3.94665411462825E-11  1.42860871068820E-02
 cg2d: Sum(rhs),rhsMax =  -4.02325950332738E-11  1.39729294246971E-02
 cg2d: Sum(rhs),rhsMax =  -4.10516065585398E-11  1.36599453186872E-02
 cg2d: Sum(rhs),rhsMax =  -4.19583257027512E-11  1.33472722826479E-02
 cg2d: Sum(rhs),rhsMax =  -4.29193347528667E-11  1.30350476177862E-02
 cg2d: Sum(rhs),rhsMax =  -4.39305258836953E-11  1.27234083587468E-02
 cg2d: Sum(rhs),rhsMax =  -4.49774661959168E-11  1.24124912008527E-02
 cg2d: Sum(rhs),rhsMax =  -4.60681492953086E-11  1.21024324291713E-02
 cg2d: Sum(rhs),rhsMax =  -4.71950256653031E-11  1.17933678498518E-02
 cg2d: Sum(rhs),rhsMax =  -4.83998396916263E-11  1.14854327239693E-02
 cg2d: Sum(rhs),rhsMax =  -4.96743757238960E-11  1.11787617038965E-02
 cg2d: Sum(rhs),rhsMax =  -5.10079756210757E-11  1.08734887720036E-02
 cg2d: Sum(rhs),rhsMax =  -5.24070231655571E-11  1.05697471813047E-02
 cg2d: Sum(rhs),rhsMax =  -5.38874500577435E-11  1.02676693975200E-02
 cg2d: Sum(rhs),rhsMax =  -5.54508661210207E-11  9.96738704194596E-03
 cg2d: Sum(rhs),rhsMax =  -5.70771208074916E-11  9.66903083451848E-03
 cg2d: Sum(rhs),rhsMax =  -5.88167847759280E-11  9.37273053653357E-03
 cg2d: Sum(rhs),rhsMax =  -6.06559802385220E-11  9.07861489264033E-03
 cg2d: Sum(rhs),rhsMax =  -6.25766105599723E-11  8.78681157195451E-03
 cg2d: Sum(rhs),rhsMax =  -6.46417919192288E-11  8.49744710841234E-03
 cg2d: Sum(rhs),rhsMax =  -6.68157751348986E-11  8.21064684078623E-03
 cg2d: Sum(rhs),rhsMax =  -6.63983867887907E-11  8.24994718774911E-03
 cg2d: Sum(rhs),rhsMax =  -6.46501185919135E-11  8.46641574349608E-03
 cg2d: Sum(rhs),rhsMax =  -6.29701291110507E-11  8.68042218977852E-03
 cg2d: Sum(rhs),rhsMax =  -6.14001072207770E-11  8.89187350442073E-03
 cg2d: Sum(rhs),rhsMax =  -5.99303662252026E-11  9.10067785209484E-03
 cg2d: Sum(rhs),rhsMax =  -5.85684001297437E-11  9.30674466089397E-03
 cg2d: Sum(rhs),rhsMax =  -5.72200620219121E-11  9.50998469954909E-03
 cg2d: Sum(rhs),rhsMax =  -5.60147483952278E-11  9.71031015124157E-03
 cg2d: Sum(rhs),rhsMax =  -5.48118911369855E-11  9.90763467918269E-03
 cg2d: Sum(rhs),rhsMax =  -5.37195565808446E-11  1.01018734804965E-02
 cg2d: Sum(rhs),rhsMax =  -5.26638177511529E-11  1.02929433269689E-02
 cg2d: Sum(rhs),rhsMax =  -5.17066667260480E-11  1.04807625930209E-02
 cg2d: Sum(rhs),rhsMax =  -5.07479405720268E-11  1.06652512726164E-02
 cg2d: Sum(rhs),rhsMax =  -4.97842479046939E-11  1.08463309876328E-02
 cg2d: Sum(rhs),rhsMax =  -4.88637658981050E-11  1.10239249878179E-02
 cg2d: Sum(rhs),rhsMax =  -4.79867014180346E-11  1.11979581440574E-02
 cg2d: Sum(rhs),rhsMax =  -4.71683733738182E-11  1.13683569608885E-02
 cg2d: Sum(rhs),rhsMax =  -4.63829252783654E-11  1.15350495870439E-02
 cg2d: Sum(rhs),rhsMax =  -4.56602256004857E-11  1.16979658179269E-02
 cg2d: Sum(rhs),rhsMax =  -4.49499049093305E-11  1.18570370980893E-02
 cg2d: Sum(rhs),rhsMax =  -4.43227399227197E-11  1.20121965331465E-02
 cg2d: Sum(rhs),rhsMax =  -4.36726765862261E-11  1.21633789138708E-02
 cg2d: Sum(rhs),rhsMax =  -4.30500080028651E-11  1.23105207489427E-02
 cg2d: Sum(rhs),rhsMax =  -4.24725254966063E-11  1.24535603009192E-02
 cg2d: Sum(rhs),rhsMax =  -4.19354273528683E-11  1.25924376216123E-02
 cg2d: Sum(rhs),rhsMax =  -4.13885314909379E-11  1.27270945859261E-02
 cg2d: Sum(rhs),rhsMax =  -4.09105249676855E-11  1.28574749242571E-02
 cg2d: Sum(rhs),rhsMax =  -4.04794808783748E-11  1.29835242661681E-02
 cg2d: Sum(rhs),rhsMax =  -4.00373068032422E-11  1.31051902064634E-02
 cg2d: Sum(rhs),rhsMax =  -3.96256083501356E-11  1.32224222643026E-02
 cg2d: Sum(rhs),rhsMax =  -3.92349208677700E-11  1.33351718871549E-02
 cg2d: Sum(rhs),rhsMax =  -3.88477860990832E-11  1.34433924792505E-02
 cg2d: Sum(rhs),rhsMax =  -3.85055320961669E-11  1.35470394177075E-02
 cg2d: Sum(rhs),rhsMax =  -3.81847053976259E-11  1.36460701186304E-02
 cg2d: Sum(rhs),rhsMax =  -3.78821418678399E-11  1.37404440855309E-02
 cg2d: Sum(rhs),rhsMax =  -3.75542097419412E-11  1.38301229174558E-02
 cg2d: Sum(rhs),rhsMax =  -3.72973041340430E-11  1.39150702972067E-02
 cg2d: Sum(rhs),rhsMax =  -3.70020958317951E-11  1.39952519874037E-02
 cg2d: Sum(rhs),rhsMax =  -3.66834063125765E-11  1.40706358454191E-02
 cg2d: Sum(rhs),rhsMax =  -3.64363261784462E-11  1.41411918509209E-02
 cg2d: Sum(rhs),rhsMax =  -3.61352614497434E-11  1.42068921322365E-02
 cg2d: Sum(rhs),rhsMax =  -3.59020591034209E-11  1.42677109804308E-02
 cg2d: Sum(rhs),rhsMax =  -3.56822349445451E-11  1.43236248647691E-02
 cg2d: Sum(rhs),rhsMax =  -3.54835050231372E-11  1.43746124538581E-02
 cg2d: Sum(rhs),rhsMax =  -3.53166385025361E-11  1.44206546879838E-02
 cg2d: Sum(rhs),rhsMax =  -3.51562667866290E-11  1.44617347141574E-02
 cg2d: Sum(rhs),rhsMax =  -3.50302564733340E-11  1.44978378975267E-02
 cg2d: Sum(rhs),rhsMax =  -3.48773232516919E-11  1.45289520051413E-02
 cg2d: Sum(rhs),rhsMax =  -3.46615514068560E-11  1.45550668270019E-02
 cg2d: Sum(rhs),rhsMax =  -3.45382056288202E-11  1.45761741914561E-02
 cg2d: Sum(rhs),rhsMax =  -3.43914341449647E-11  1.45922681178793E-02
 cg2d: Sum(rhs),rhsMax =  -3.42729733482372E-11  1.46033449050468E-02
 cg2d: Sum(rhs),rhsMax =  -3.41214279053759E-11  1.46094031180623E-02
 cg2d: Sum(rhs),rhsMax =  -3.40809047649770E-11  1.46104435300748E-02
 cg2d: Sum(rhs),rhsMax =  -3.41103256751296E-11  1.46064690764068E-02
 cg2d: Sum(rhs),rhsMax =  -3.41898731548440E-11  1.45974848399989E-02
 cg2d: Sum(rhs),rhsMax =  -3.42849637569032E-11  1.45834980569885E-02
 cg2d: Sum(rhs),rhsMax =  -3.43635120358954E-11  1.45645181251466E-02
 cg2d: Sum(rhs),rhsMax =  -3.44834716337061E-11  1.45405566058050E-02
 cg2d: Sum(rhs),rhsMax =  -3.46414008589591E-11  1.45116272188027E-02
 cg2d: Sum(rhs),rhsMax =  -3.48154838292203E-11  1.44777458335593E-02
 cg2d: Sum(rhs),rhsMax =  -3.49340556482503E-11  1.44389304595073E-02
 cg2d: Sum(rhs),rhsMax =  -3.51102480422583E-11  1.43952012374981E-02
 cg2d: Sum(rhs),rhsMax =  -3.52938234193800E-11  1.43465804318917E-02
 cg2d: Sum(rhs),rhsMax =  -3.54706819472028E-11  1.42930924219290E-02
 cg2d: Sum(rhs),rhsMax =  -3.56737417384068E-11  1.42347636906757E-02
 cg2d: Sum(rhs),rhsMax =  -3.58768570407619E-11  1.41716228108800E-02
 cg2d: Sum(rhs),rhsMax =  -3.61734531217905E-11  1.41037003653859E-02
 cg2d: Sum(rhs),rhsMax =  -3.64527297236350E-11  1.40310289957131E-02
 cg2d: Sum(rhs),rhsMax =  -3.67252339650292E-11  1.39536434173192E-02
 cg2d: Sum(rhs),rhsMax =  -3.70566910490311E-11  1.38715803915577E-02
 cg2d: Sum(rhs),rhsMax =  -3.73418795884817E-11  1.37848786855373E-02
 cg2d: Sum(rhs),rhsMax =  -3.77122777450722E-11  1.36935787758054E-02
 cg2d: Sum(rhs),rhsMax =  -3.80108167163939E-11  1.35977231610826E-02
 cg2d: Sum(rhs),rhsMax =  -3.83384712865364E-11  1.34973564778305E-02
 cg2d: Sum(rhs),rhsMax =  -3.86558285381255E-11  1.33925253767849E-02
 cg2d: Sum(rhs),rhsMax =  -3.90347754120057E-11  1.32832783732086E-02
 cg2d: Sum(rhs),rhsMax =  -3.94242416490442E-11  1.31696657734028E-02
 cg2d: Sum(rhs),rhsMax =  -3.98207300467135E-11  1.30517396708433E-02
 cg2d: Sum(rhs),rhsMax =  -4.02624045214850E-11  1.29295539631885E-02
 cg2d: Sum(rhs),rhsMax =  -4.07046618633444E-11  1.28031643548501E-02
 cg2d: Sum(rhs),rhsMax =  -4.11838896319239E-11  1.26726283376208E-02
 cg2d: Sum(rhs),rhsMax =  -4.17013090725504E-11  1.25380051577511E-02
 cg2d: Sum(rhs),rhsMax =  -4.22304136105112E-11  1.23993557831179E-02
 cg2d: Sum(rhs),rhsMax =  -4.28103108518485E-11  1.22567428763285E-02
 cg2d: Sum(rhs),rhsMax =  -4.34025870799104E-11  1.21102307714564E-02
 cg2d: Sum(rhs),rhsMax =  -4.40391334510792E-11  1.19598854493514E-02
 cg2d: Sum(rhs),rhsMax =  -4.46751524663114E-11  1.18057745107128E-02
 cg2d: Sum(rhs),rhsMax =  -4.53504317432518E-11  1.16479671472729E-02
 cg2d: Sum(rhs),rhsMax =  -4.60760457565712E-11  1.14865341120577E-02
 cg2d: Sum(rhs),rhsMax =  -4.68236699413538E-11  1.13215476890428E-02
 cg2d: Sum(rhs),rhsMax =  -4.76232664414766E-11  1.11530816617201E-02
 cg2d: Sum(rhs),rhsMax =  -4.84576684334215E-11  1.09812112798408E-02
 cg2d: Sum(rhs),rhsMax =  -4.93319274319504E-11  1.08060132239064E-02
 cg2d: Sum(rhs),rhsMax =  -5.02773829513803E-11  1.06275655682866E-02
 cg2d: Sum(rhs),rhsMax =  -5.12406167843538E-11  1.04459477407459E-02
 cg2d: Sum(rhs),rhsMax =  -5.22783899503665E-11  1.02612406106797E-02
 cg2d: Sum(rhs),rhsMax =  -5.33184885131988E-11  1.00735262799506E-02
 cg2d: Sum(rhs),rhsMax =  -5.43854267176513E-11  9.88288798031360E-03
 cg2d: Sum(rhs),rhsMax =  -5.55005624791605E-11  9.68941008492931E-03
 cg2d: Sum(rhs),rhsMax =  -5.67259017536514E-11  9.49317813003018E-03
 cg2d: Sum(rhs),rhsMax =  -5.79957470936421E-11  9.29427879797628E-03
 cg2d: Sum(rhs),rhsMax =  -5.93407545323998E-11  9.09279986749165E-03
 cg2d: Sum(rhs),rhsMax =  -6.07704719879365E-11  8.88883015562390E-03
 cg2d: Sum(rhs),rhsMax =  -6.22665807803457E-11  8.68245946804060E-03
 cg2d: Sum(rhs),rhsMax =  -6.38586405976582E-11  8.47377856039554E-03
 cg2d: Sum(rhs),rhsMax =  -6.55339671418176E-11  8.26287910579915E-03
 cg2d: Sum(rhs),rhsMax =  -6.73693878461279E-11  8.04985366292032E-03
 cg2d: Sum(rhs),rhsMax =  -6.92735313556625E-11  7.83479564209307E-03
 cg2d: Sum(rhs),rhsMax =  -7.00476343595824E-11  7.75552837873332E-03
 cg2d: Sum(rhs),rhsMax =  -6.77350397992882E-11  8.03020307639053E-03
 cg2d: Sum(rhs),rhsMax =  -6.55477339073229E-11  8.30731421783731E-03
 cg2d: Sum(rhs),rhsMax =  -6.34661212473020E-11  8.58674046075319E-03
 cg2d: Sum(rhs),rhsMax =  -6.15293926919946E-11  8.86835955902931E-03
 cg2d: Sum(rhs),rhsMax =  -5.96989679912951E-11  9.15204841933360E-03
 cg2d: Sum(rhs),rhsMax =  -5.79514214393839E-11  9.43768315721536E-03
 cg2d: Sum(rhs),rhsMax =  -5.63252222640642E-11  9.72513915253478E-03
 cg2d: Sum(rhs),rhsMax =  -5.47579204202009E-11  1.00142911040858E-02
 cg2d: Sum(rhs),rhsMax =  -5.32762722826874E-11  1.03050130833341E-02
 cg2d: Sum(rhs),rhsMax =  -5.18555198780746E-11  1.05971785872338E-02
 cg2d: Sum(rhs),rhsMax =  -5.05118169513707E-11  1.08906605901280E-02
 cg2d: Sum(rhs),rhsMax =  -4.92319518485829E-11  1.11853315948106E-02
 cg2d: Sum(rhs),rhsMax =  -4.80263606661424E-11  1.14810636829140E-02
 cg2d: Sum(rhs),rhsMax =  -4.68715066759273E-11  1.17777285648822E-02
 cg2d: Sum(rhs),rhsMax =  -4.57717197477336E-11  1.20751976298585E-02
 cg2d: Sum(rhs),rhsMax =  -4.47232251232776E-11  1.23733419958761E-02
 cg2d: Sum(rhs),rhsMax =  -4.37204716874362E-11  1.26720325602574E-02
 cg2d: Sum(rhs),rhsMax =  -4.27803348301836E-11  1.29711400508066E-02
 cg2d: Sum(rhs),rhsMax =  -4.18670653701270E-11  1.32705350778118E-02
 cg2d: Sum(rhs),rhsMax =  -4.10600442535269E-11  1.35700881867961E-02
 cg2d: Sum(rhs),rhsMax =  -4.02764488427465E-11  1.38696699119561E-02
 cg2d: Sum(rhs),rhsMax =  -3.95218302529088E-11  1.41691508302618E-02
 cg2d: Sum(rhs),rhsMax =  -3.88010734653221E-11  1.44684016162356E-02
 cg2d: Sum(rhs),rhsMax =  -3.81245035541156E-11  1.47672930974362E-02
 cg2d: Sum(rhs),rhsMax =  -3.74771325084566E-11  1.50656963106571E-02
 cg2d: Sum(rhs),rhsMax =  -3.68409747153464E-11  1.53634825588034E-02
 cg2d: Sum(rhs),rhsMax =  -3.62397889475119E-11  1.56605234683515E-02
 cg2d: Sum(rhs),rhsMax =  -3.56483731422941E-11  1.59566910472429E-02
 cg2d: Sum(rhs),rhsMax =  -3.50900419832101E-11  1.62518577430169E-02
 cg2d: Sum(rhs),rhsMax =  -3.45399264745083E-11  1.65458965009624E-02
 cg2d: Sum(rhs),rhsMax =  -3.40310002400201E-11  1.68386808220580E-02
 cg2d: Sum(rhs),rhsMax =  -3.35352856595250E-11  1.71300848204690E-02
 cg2d: Sum(rhs),rhsMax =  -3.30593330488682E-11  1.74199832803753E-02
 cg2d: Sum(rhs),rhsMax =  -3.26104698800123E-11  1.77082517119092E-02
 cg2d: Sum(rhs),rhsMax =  -3.21702664507484E-11  1.79947664059898E-02
 cg2d: Sum(rhs),rhsMax =  -3.17418313855455E-11  1.82794044878528E-02
 cg2d: Sum(rhs),rhsMax =  -3.13210568592126E-11  1.85620439691120E-02
 cg2d: Sum(rhs),rhsMax =  -3.09395842279514E-11  1.88425637982336E-02
 cg2d: Sum(rhs),rhsMax =  -3.05546699053139E-11  1.91208439093830E-02
 cg2d: Sum(rhs),rhsMax =  -3.01715319395157E-11  1.93967652696816E-02
 cg2d: Sum(rhs),rhsMax =  -2.98221447536662E-11  1.96702099249892E-02
 cg2d: Sum(rhs),rhsMax =  -2.94959612290313E-11  1.99410610444009E-02
 cg2d: Sum(rhs),rhsMax =  -2.91658919238102E-11  2.02092029637098E-02
 cg2d: Sum(rhs),rhsMax =  -2.88491452948847E-11  2.04745212281626E-02
 cg2d: Sum(rhs),rhsMax =  -2.85477197436990E-11  2.07369026349190E-02
 cg2d: Sum(rhs),rhsMax =  -2.82439627241615E-11  2.09962352757180E-02
 cg2d: Sum(rhs),rhsMax =  -2.79573031392033E-11  2.12524085803256E-02
 cg2d: Sum(rhs),rhsMax =  -2.76892953010588E-11  2.15053133613545E-02
 cg2d: Sum(rhs),rhsMax =  -2.74263944888276E-11  2.17548418609597E-02
 cg2d: Sum(rhs),rhsMax =  -2.71751510183549E-11  2.20008877997411E-02
 cg2d: Sum(rhs),rhsMax =  -2.69285704845856E-11  2.22433464279135E-02
 cg2d: Sum(rhs),rhsMax =  -2.66806576831868E-11  2.24821145784951E-02
 cg2d: Sum(rhs),rhsMax =  -2.64620547696381E-11  2.27170907222314E-02
 cg2d: Sum(rhs),rhsMax =  -2.62480037704904E-11  2.29481750227687E-02
 cg2d: Sum(rhs),rhsMax =  -2.60468313584283E-11  2.31752693913757E-02
 cg2d: Sum(rhs),rhsMax =  -2.58459920132736E-11  2.33982775404153E-02
 cg2d: Sum(rhs),rhsMax =  -2.56383803076687E-11  2.36171050344383E-02
 cg2d: Sum(rhs),rhsMax =  -2.54437582114520E-11  2.38316593378653E-02
 cg2d: Sum(rhs),rhsMax =  -2.52750043117089E-11  2.40418498584410E-02
 cg2d: Sum(rhs),rhsMax =  -2.50952592040221E-11  2.42475879859539E-02
 cg2d: Sum(rhs),rhsMax =  -2.49902321058926E-11  2.44487871260984E-02
 cg2d: Sum(rhs),rhsMax =  -2.49020803977373E-11  2.46453627297509E-02
 cg2d: Sum(rhs),rhsMax =  -2.48101539312984E-11  2.48372323183298E-02
 cg2d: Sum(rhs),rhsMax =  -2.47171172418348E-11  2.50243155062235E-02
 cg2d: Sum(rhs),rhsMax =  -2.46344056265002E-11  2.52065340214778E-02
 cg2d: Sum(rhs),rhsMax =  -2.45707898471892E-11  2.53838117259868E-02
 cg2d: Sum(rhs),rhsMax =  -2.44922970793482E-11  2.55560746363203E-02
 cg2d: Sum(rhs),rhsMax =  -2.44106956870382E-11  2.57232509460674E-02
 cg2d: Sum(rhs),rhsMax =  -2.43449704839804E-11  2.58852710502184E-02
 cg2d: Sum(rhs),rhsMax =  -2.42851294629531E-11  2.60420675716926E-02
 cg2d: Sum(rhs),rhsMax =  -2.42244002635061E-11  2.61935753897122E-02
 cg2d: Sum(rhs),rhsMax =  -2.41670017331330E-11  2.63397316693686E-02
 cg2d: Sum(rhs),rhsMax =  -2.41060504890811E-11  2.64804758914676E-02
 cg2d: Sum(rhs),rhsMax =  -2.40595321443493E-11  2.66157498816146E-02
 cg2d: Sum(rhs),rhsMax =  -2.40115705096855E-11  2.67454978375154E-02
 cg2d: Sum(rhs),rhsMax =  -2.39710473692867E-11  2.68696663536266E-02
 cg2d: Sum(rhs),rhsMax =  -2.39229747123204E-11  2.69882044425658E-02
 cg2d: Sum(rhs),rhsMax =  -2.38858932632979E-11  2.71010635530441E-02
 cg2d: Sum(rhs),rhsMax =  -2.38561392862380E-11  2.72081975844592E-02
 cg2d: Sum(rhs),rhsMax =  -2.39531727785902E-11  2.73095628986356E-02
 cg2d: Sum(rhs),rhsMax =  -2.40242270521662E-11  2.74051183294847E-02
 cg2d: Sum(rhs),rhsMax =  -2.38039588040806E-11  2.74948251915451E-02
 cg2d: Sum(rhs),rhsMax =  -2.37351249765538E-11  2.75786472884559E-02
 cg2d: Sum(rhs),rhsMax =  -2.37140307390860E-11  2.76565509223829E-02
 cg2d: Sum(rhs),rhsMax =  -2.37124764268515E-11  2.77285049052572E-02
 cg2d: Sum(rhs),rhsMax =  -2.37057040664013E-11  2.77944805724089E-02
 cg2d: Sum(rhs),rhsMax =  -2.37213582110485E-11  2.78544517987746E-02
 cg2d: Sum(rhs),rhsMax =  -2.37223574117706E-11  2.79083950174092E-02
 cg2d: Sum(rhs),rhsMax =  -2.37824204774029E-11  2.79562892395890E-02
 cg2d: Sum(rhs),rhsMax =  -2.38423725207326E-11  2.79981160754545E-02
 cg2d: Sum(rhs),rhsMax =  -2.38975506050565E-11  2.80338597539777E-02
 cg2d: Sum(rhs),rhsMax =  -2.39362973886159E-11  2.80635071410836E-02
 cg2d: Sum(rhs),rhsMax =  -2.39477326857696E-11  2.80870477549988E-02
 cg2d: Sum(rhs),rhsMax =  -2.39964714765506E-11  2.81044737782756E-02
 cg2d: Sum(rhs),rhsMax =  -2.39875896923536E-11  2.81157800663709E-02
 cg2d: Sum(rhs),rhsMax =  -2.40085729075190E-11  2.81209641530541E-02
 cg2d: Sum(rhs),rhsMax =  -2.39568365145715E-11  2.81200262532241E-02
 cg2d: Sum(rhs),rhsMax =  -2.38719044531877E-11  2.81129692639033E-02
 cg2d: Sum(rhs),rhsMax =  -2.38404851415908E-11  2.80997987644494E-02
 cg2d: Sum(rhs),rhsMax =  -2.37663222435458E-11  2.80805230161547E-02
 cg2d: Sum(rhs),rhsMax =  -2.37124764268515E-11  2.80551529622017E-02
 cg2d: Sum(rhs),rhsMax =  -2.36409780640656E-11  2.80237022282704E-02
 cg2d: Sum(rhs),rhsMax =  -2.35991226560373E-11  2.79861871234956E-02
 cg2d: Sum(rhs),rhsMax =  -2.35635955192492E-11  2.79426266417776E-02
 cg2d: Sum(rhs),rhsMax =  -2.35381714119853E-11  2.78930424619501E-02
 cg2d: Sum(rhs),rhsMax =  -2.35071961895983E-11  2.78374589455461E-02
 cg2d: Sum(rhs),rhsMax =  -2.34748886995817E-11  2.77759031308483E-02
 cg2d: Sum(rhs),rhsMax =  -2.34144925670421E-11  2.77084047220209E-02
 cg2d: Sum(rhs),rhsMax =  -2.33706387575694E-11  2.76349960724073E-02
 cg2d: Sum(rhs),rhsMax =  -2.33391084236700E-11  2.75557121615279E-02
 cg2d: Sum(rhs),rhsMax =  -2.32912578113087E-11  2.74705905658348E-02
(PID.TID 0000.0001)      cg2d_init_res =   1.82451707335423E-02
(PID.TID 0000.0001)      cg2d_iters(min,last) =      -1      36
(PID.TID 0000.0001)      cg2d_last_res =   4.36923520973931E-14
(PID.TID 0000.0001) // =======================================================
(PID.TID 0000.0001) // Begin MONITOR dynamic field statistics
(PID.TID 0000.0001) // =======================================================
(PID.TID 0000.0001) %MON time_tsnumber                =                  6720
(PID.TID 0000.0001) %MON time_secondsf                =   1.0080000000000E+05
(PID.TID 0000.0001) %MON dynstat_eta_max              =   4.6451403021939E-03
(PID.TID 0000.0001) %MON dynstat_eta_min              =  -3.9561413016845E-03
(PID.TID 0000.0001) %MON dynstat_eta_mean             =   1.3678190212203E-15
(PID.TID 0000.0001) %MON dynstat_eta_sd               =   2.0110900052929E-03
(PID.TID 0000.0001) %MON dynstat_eta_del2             =   4.6367469852381E-06
(PID.TID 0000.0001) %MON dynstat_uvel_max             =   3.1190790545764E-01
(PID.TID 0000.0001) %MON dynstat_uvel_min             =  -6.1042386896521E-02
(PID.TID 0000.0001) %MON dynstat_uvel_mean            =   6.8202661667155E-02
(PID.TID 0000.0001) %MON dynstat_uvel_sd              =   3.9819430045410E-02
(PID.TID 0000.0001) %MON dynstat_uvel_del2            =   9.4688934351992E-05
(PID.TID 0000.0001) %MON dynstat_vvel_max             =   0.0000000000000E+00
(PID.TID 0000.0001) %MON dynstat_vvel_min             =   0.0000000000000E+00
(PID.TID 0000.0001) %MON dynstat_vvel_mean            =   0.0000000000000E+00
(PID.TID 0000.0001) %MON dynstat_vvel_sd              =   0.0000000000000E+00
(PID.TID 0000.0001) %MON dynstat_vvel_del2            =   0.0000000000000E+00
(PID.TID 0000.0001) %MON dynstat_wvel_max             =   1.6198255165136E-03
(PID.TID 0000.0001) %MON dynstat_wvel_min             =  -3.7339199021691E-03
(PID.TID 0000.0001) %MON dynstat_wvel_mean            =  -4.5692350629039E-21
(PID.TID 0000.0001) %MON dynstat_wvel_sd              =   2.2372520287130E-04
(PID.TID 0000.0001) %MON dynstat_wvel_del2            =   3.7511194938614E-06
(PID.TID 0000.0001) %MON dynstat_theta_max            =   1.5000000000019E+01
(PID.TID 0000.0001) %MON dynstat_theta_min            =   9.9999999999881E+00
(PID.TID 0000.0001) %MON dynstat_theta_mean           =   1.3315792396097E+01
(PID.TID 0000.0001) %MON dynstat_theta_sd             =   2.3101522971368E+00
(PID.TID 0000.0001) %MON dynstat_theta_del2           =   3.0086447573363E-04
(PID.TID 0000.0001) %MON dynstat_salt_max             =   3.5000000000000E+01
(PID.TID 0000.0001) %MON dynstat_salt_min             =   3.5000000000000E+01
(PID.TID 0000.0001) %MON dynstat_salt_mean            =   3.5000000000000E+01
(PID.TID 0000.0001) %MON dynstat_salt_sd              =   2.1316282072803E-14
(PID.TID 0000.0001) %MON dynstat_salt_del2            =   0.0000000000000E+00
(PID.TID 0000.0001) %MON dynstat_sst_max              =   1.5000000000000E+01
(PID.TID 0000.0001) %MON dynstat_sst_min              =   1.4999999999988E+01
(PID.TID 0000.0001) %MON dynstat_sst_mean             =   1.4999999999992E+01
(PID.TID 0000.0001) %MON dynstat_sst_sd               =   4.3258916199837E-12
(PID.TID 0000.0001) %MON dynstat_sst_del2             =   3.8838740114690E-14
(PID.TID 0000.0001) %MON dynstat_sss_max              =   3.5000000000000E+01
(PID.TID 0000.0001) %MON dynstat_sss_min              =   3.5000000000000E+01
(PID.TID 0000.0001) %MON dynstat_sss_mean             =   3.5000000000000E+01
(PID.TID 0000.0001) %MON dynstat_sss_sd               =   7.8159700933611E-14
(PID.TID 0000.0001) %MON dynstat_sss_del2             =   0.0000000000000E+00
(PID.TID 0000.0001) %MON forcing_qnet_max             =   0.0000000000000E+00
(PID.TID 0000.0001) %MON forcing_qnet_min             =   0.0000000000000E+00
(PID.TID 0000.0001) %MON forcing_qnet_mean            =   0.0000000000000E+00
(PID.TID 0000.0001) %MON forcing_qnet_sd              =   0.0000000000000E+00
(PID.TID 0000.0001) %MON forcing_qnet_del2            =   0.0000000000000E+00
(PID.TID 0000.0001) %MON forcing_qsw_max              =   0.0000000000000E+00
(PID.TID 0000.0001) %MON forcing_qsw_min              =   0.0000000000000E+00
(PID.TID 0000.0001) %MON forcing_qsw_mean             =   0.0000000000000E+00
(PID.TID 0000.0001) %MON forcing_qsw_sd               =   0.0000000000000E+00
(PID.TID 0000.0001) %MON forcing_qsw_del2             =   0.0000000000000E+00
(PID.TID 0000.0001) %MON forcing_empmr_max            =   0.0000000000000E+00
(PID.TID 0000.0001) %MON forcing_empmr_min            =   0.0000000000000E+00
(PID.TID 0000.0001) %MON forcing_empmr_mean           =   0.0000000000000E+00
(PID.TID 0000.0001) %MON forcing_empmr_sd             =   0.0000000000000E+00
(PID.TID 0000.0001) %MON forcing_empmr_del2           =   0.0000000000000E+00
(PID.TID 0000.0001) %MON forcing_fu_max               =   0.0000000000000E+00
(PID.TID 0000.0001) %MON forcing_fu_min               =   0.0000000000000E+00
(PID.TID 0000.0001) %MON forcing_fu_mean              =   0.0000000000000E+00
(PID.TID 0000.0001) %MON forcing_fu_sd                =   0.0000000000000E+00
(PID.TID 0000.0001) %MON forcing_fu_del2              =   0.0000000000000E+00
(PID.TID 0000.0001) %MON forcing_fv_max               =   0.0000000000000E+00
(PID.TID 0000.0001) %MON forcing_fv_min               =   0.0000000000000E+00
(PID.TID 0000.0001) %MON forcing_fv_mean              =   0.0000000000000E+00
(PID.TID 0000.0001) %MON forcing_fv_sd                =   0.0000000000000E+00
(PID.TID 0000.0001) %MON forcing_fv_del2              =   0.0000000000000E+00
(PID.TID 0000.0001) %MON advcfl_uvel_max              =   2.3393092909323E-02
(PID.TID 0000.0001) %MON advcfl_vvel_max              =   0.0000000000000E+00
(PID.TID 0000.0001) %MON advcfl_wvel_max              =   2.6902565000497E-02
(PID.TID 0000.0001) %MON advcfl_W_hf_max              =   2.7237616735309E-02
(PID.TID 0000.0001) %MON pe_b_mean                    =   1.0104380773248E-07
(PID.TID 0000.0001) %MON ke_max                       =   4.6864367945986E-02
(PID.TID 0000.0001) %MON ke_mean                      =   3.1271920622726E-03
(PID.TID 0000.0001) %MON ke_vol                       =   9.5889217545975E+10
(PID.TID 0000.0001) %MON vort_r_min                   =   0.0000000000000E+00
(PID.TID 0000.0001) %MON vort_r_max                   =   0.0000000000000E+00
(PID.TID 0000.0001) %MON vort_a_mean                  =   0.0000000000000E+00
(PID.TID 0000.0001) %MON vort_a_sd                    =   0.0000000000000E+00
(PID.TID 0000.0001) %MON vort_p_mean                  =   0.0000000000000E+00
(PID.TID 0000.0001) %MON vort_p_sd                    =   0.0000000000000E+00
(PID.TID 0000.0001) %MON surfExpan_theta_mean         =  -1.0057251465360E-18
(PID.TID 0000.0001) %MON surfExpan_salt_mean          =  -1.9017559837289E-19
(PID.TID 0000.0001) // =======================================================
(PID.TID 0000.0001) // End MONITOR dynamic field statistics
(PID.TID 0000.0001) // =======================================================
(PID.TID 0000.0001) // =======================================================
(PID.TID 0000.0001) // Begin OBCS MONITOR field statistics
(PID.TID 0000.0001) // =======================================================
(PID.TID 0000.0001) %MON obc_E_uVel_max               =   6.6809804669674E-02
(PID.TID 0000.0001) %MON obc_E_uVel_min               =   6.6809804669674E-02
(PID.TID 0000.0001) %MON obc_E_uVel_mean              =   6.6809804669674E-02
(PID.TID 0000.0001) %MON obc_E_uVel_sd                =  -1.7347234759768E-18
(PID.TID 0000.0001) %MON obc_E_uVel_Int               =   6.6809804669674E+04
(PID.TID 0000.0001) %MON obc_W_uVel_max               =   6.6809804669674E-02
(PID.TID 0000.0001) %MON obc_W_uVel_min               =   6.6809804669674E-02
(PID.TID 0000.0001) %MON obc_W_uVel_mean              =   6.6809804669674E-02
(PID.TID 0000.0001) %MON obc_W_uVel_sd                =  -1.7347234759768E-18
(PID.TID 0000.0001) %MON obc_W_uVel_Int               =   6.6809804669674E+04
(PID.TID 0000.0001) // =======================================================
(PID.TID 0000.0001) // End OBCS MONITOR field statistics
(PID.TID 0000.0001) // =======================================================
 cg2d: Sum(rhs),rhsMax =  -2.33156827178504E-11  2.73796714238097E-02
 cg2d: Sum(rhs),rhsMax =  -2.33481012301695E-11  2.72829973964481E-02
 cg2d: Sum(rhs),rhsMax =  -2.33875141475437E-11  2.71806136245224E-02
 cg2d: Sum(rhs),rhsMax =  -2.34311459124115E-11  2.70725676842282E-02
 cg2d: Sum(rhs),rhsMax =  -2.34493535700153E-11  2.69589095429191E-02
 cg2d: Sum(rhs),rhsMax =  -2.35058639219687E-11  2.68396915165992E-02
 cg2d: Sum(rhs),rhsMax =  -2.35440555940158E-11  2.67149682306938E-02
 cg2d: Sum(rhs),rhsMax =  -2.35976793661052E-11  2.65847965856904E-02
 cg2d: Sum(rhs),rhsMax =  -2.36497488259602E-11  2.64492357274266E-02
 cg2d: Sum(rhs),rhsMax =  -2.36987096613461E-11  2.63083470231723E-02
 cg2d: Sum(rhs),rhsMax =  -2.37654340651261E-11  2.61621940432470E-02
 cg2d: Sum(rhs),rhsMax =  -2.38150610343268E-11  2.60108425472908E-02
 cg2d: Sum(rhs),rhsMax =  -2.38836728172487E-11  2.58543604738318E-02
 cg2d: Sum(rhs),rhsMax =  -2.39543940239173E-11  2.56928179314948E-02
 cg2d: Sum(rhs),rhsMax =  -2.40271136320303E-11  2.55262871900883E-02
 cg2d: Sum(rhs),rhsMax =  -2.41039410653343E-11  2.53548426698858E-02
 cg2d: Sum(rhs),rhsMax =  -2.41646702647813E-11  2.51785609276493E-02
 cg2d: Sum(rhs),rhsMax =  -2.42464937016962E-11  2.49975206382985E-02
 cg2d: Sum(rhs),rhsMax =  -2.43186581982968E-11  2.48118025715378E-02
 cg2d: Sum(rhs),rhsMax =  -2.44089193301988E-11  2.46214895632693E-02
 cg2d: Sum(rhs),rhsMax =  -2.44890774325768E-11  2.44266664817091E-02
 cg2d: Sum(rhs),rhsMax =  -2.46572762208075E-11  2.42274201887661E-02
 cg2d: Sum(rhs),rhsMax =  -2.48212561615446E-11  2.40238394975652E-02
 cg2d: Sum(rhs),rhsMax =  -2.49882337044482E-11  2.38160151269107E-02
 cg2d: Sum(rhs),rhsMax =  -2.51747511725853E-11  2.36040396535367E-02
 cg2d: Sum(rhs),rhsMax =  -2.53532750349450E-11  2.33880074629712E-02
 cg2d: Sum(rhs),rhsMax =  -2.55466758858347E-11  2.31680146997469E-02
 cg2d: Sum(rhs),rhsMax =  -2.57538435022298E-11  2.29441592175330E-02
 cg2d: Sum(rhs),rhsMax =  -2.59555710258041E-11  2.27165405295711E-02
 cg2d: Sum(rhs),rhsMax =  -2.61843879911794E-11  2.24852597596121E-02
 cg2d: Sum(rhs),rhsMax =  -2.63962185442779E-11  2.22504195933947E-02
 cg2d: Sum(rhs),rhsMax =  -2.66267008441901E-11  2.20121242305931E-02
 cg2d: Sum(rhs),rhsMax =  -2.68540745196333E-11  2.17704793370974E-02
 cg2d: Sum(rhs),rhsMax =  -2.71241917815246E-11  2.15255919974581E-02
 cg2d: Sum(rhs),rhsMax =  -2.73759903635096E-11  2.12775706673295E-02
 cg2d: Sum(rhs),rhsMax =  -2.76497713613821E-11  2.10265251257612E-02
 cg2d: Sum(rhs),rhsMax =  -2.79162248872922E-11  2.07725664272118E-02
 cg2d: Sum(rhs),rhsMax =  -2.81987766470593E-11  2.05158068531844E-02
 cg2d: Sum(rhs),rhsMax =  -2.84925416593751E-11  2.02563598634101E-02
 cg2d: Sum(rhs),rhsMax =  -2.88106205559302E-11  1.99943400465208E-02
 cg2d: Sum(rhs),rhsMax =  -2.91269230956459E-11  1.97298630701661E-02
 cg2d: Sum(rhs),rhsMax =  -2.94577695569842E-11  1.94630456305370E-02
 cg2d: Sum(rhs),rhsMax =  -2.98114866126298E-11  1.91940054012593E-02
 cg2d: Sum(rhs),rhsMax =  -3.01667579805098E-11  1.89228609819510E-02
 cg2d: Sum(rhs),rhsMax =  -3.05279135304204E-11  1.86497318455553E-02
 cg2d: Sum(rhs),rhsMax =  -3.09318126667790E-11  1.83747382849526E-02
 cg2d: Sum(rhs),rhsMax =  -3.13442605204273E-11  1.80980013590573E-02
 cg2d: Sum(rhs),rhsMax =  -3.17549320172361E-11  1.78196428383914E-02
 cg2d: Sum(rhs),rhsMax =  -3.21934701119631E-11  1.75397851501505E-02
 cg2d: Sum(rhs),rhsMax =  -3.26284554930112E-11  1.72585513228399E-02
 cg2d: Sum(rhs),rhsMax =  -3.30795391079164E-11  1.69760649306074E-02
 cg2d: Sum(rhs),rhsMax =  -3.35683703056588E-11  1.66924500374377E-02
 cg2d: Sum(rhs),rhsMax =  -3.40506511875560E-11  1.64078311413650E-02
 cg2d: Sum(rhs),rhsMax =  -3.45826700609564E-11  1.61223331188446E-02
 cg2d: Sum(rhs),rhsMax =  -3.51217943617144E-11  1.58360811693681E-02
 cg2d: Sum(rhs),rhsMax =  -3.56840113013845E-11  1.55492007603676E-02
 cg2d: Sum(rhs),rhsMax =  -3.62601060288625E-11  1.52618175723999E-02
 cg2d: Sum(rhs),rhsMax =  -3.68600705513700E-11  1.49740574445707E-02
 cg2d: Sum(rhs),rhsMax =  -3.74954511883629E-11  1.46860463201244E-02
 cg2d: Sum(rhs),rhsMax =  -3.81488174383549E-11  1.43979101921083E-02
 cg2d: Sum(rhs),rhsMax =  -3.88351573121781E-11  1.41097750490002E-02
 cg2d: Sum(rhs),rhsMax =  -3.95325994162476E-11  1.38217668201833E-02
 cg2d: Sum(rhs),rhsMax =  -4.02664568355249E-11  1.35340113211581E-02
 cg2d: Sum(rhs),rhsMax =  -4.10327327671212E-11  1.32466341984125E-02
 cg2d: Sum(rhs),rhsMax =  -4.18299839211045E-11  1.29597608739253E-02
 cg2d: Sum(rhs),rhsMax =  -4.26672031039743E-11  1.26735164893414E-02
 cg2d: Sum(rhs),rhsMax =  -4.35356195538361E-11  1.23880258499213E-02
 cg2d: Sum(rhs),rhsMax =  -4.44598802218366E-11  1.21034133684178E-02
 cg2d: Sum(rhs),rhsMax =  -4.54748461109489E-11  1.18198030090580E-02
 cg2d: Sum(rhs),rhsMax =  -4.65378846570275E-11  1.15373182318175E-02
 cg2d: Sum(rhs),rhsMax =  -4.76225725520862E-11  1.12560819371688E-02
 cg2d: Sum(rhs),rhsMax =  -4.87769824530915E-11  1.09762164114762E-02
 cg2d: Sum(rhs),rhsMax =  -5.00016694715555E-11  1.06978432731893E-02
 cg2d: Sum(rhs),rhsMax =  -5.12746511915907E-11  1.04210834199482E-02
 cg2d: Sum(rhs),rhsMax =  -5.26221288765782E-11  1.01460569766443E-02
 cg2d: Sum(rhs),rhsMax =  -5.40300582052566E-11  9.87288324438183E-03
 cg2d: Sum(rhs),rhsMax =  -5.55022694470608E-11  9.60168065016271E-03
 cg2d: Sum(rhs),rhsMax =  -5.70183900094889E-11  9.33256669700489E-03
 cg2d: Sum(rhs),rhsMax =  -5.86526383017372E-11  9.06565791412349E-03
 cg2d: Sum(rhs),rhsMax =  -6.03481153937935E-11  8.80106980678986E-03
 cg2d: Sum(rhs),rhsMax =  -6.21361850861035E-11  8.53891680553856E-03
 cg2d: Sum(rhs),rhsMax =  -6.39975294980388E-11  8.27931221452275E-03
 cg2d: Sum(rhs),rhsMax =  -6.53960774421591E-11  8.09477520537025E-03
 cg2d: Sum(rhs),rhsMax =  -6.37833119654374E-11  8.28976980917954E-03
 cg2d: Sum(rhs),rhsMax =  -6.22664697580433E-11  8.48236239645984E-03
 cg2d: Sum(rhs),rhsMax =  -6.08669226132008E-11  8.67247044308551E-03
 cg2d: Sum(rhs),rhsMax =  -5.94970739342671E-11  8.86001254794510E-03
 cg2d: Sum(rhs),rhsMax =  -5.82336123766680E-11  9.04490845577010E-03
 cg2d: Sum(rhs),rhsMax =  -5.70296865287645E-11  9.22707907944746E-03
 cg2d: Sum(rhs),rhsMax =  -5.58796620087065E-11  9.40644652300979E-03
 cg2d: Sum(rhs),rhsMax =  -5.48009970735563E-11  9.58293406943518E-03
 cg2d: Sum(rhs),rhsMax =  -5.37762057106761E-11  9.75646612583237E-03
 cg2d: Sum(rhs),rhsMax =  -5.28036225855288E-11  9.92696840039755E-03
 cg2d: Sum(rhs),rhsMax =  -5.18274589911272E-11  1.00943679921505E-02
 cg2d: Sum(rhs),rhsMax =  -5.08716541114396E-11  1.02585934436712E-02
 cg2d: Sum(rhs),rhsMax =  -4.99906574469300E-11  1.04195747042731E-02
 cg2d: Sum(rhs),rhsMax =  -4.91622714759998E-11  1.05772431123869E-02
 cg2d: Sum(rhs),rhsMax =  -4.83599930933831E-11  1.07315314297906E-02
 cg2d: Sum(rhs),rhsMax =  -4.75812338748133E-11  1.08823739066090E-02
 cg2d: Sum(rhs),rhsMax =  -4.69042617246007E-11  1.10297063464493E-02
 cg2d: Sum(rhs),rhsMax =  -4.62082941354858E-11  1.11734661560383E-02
 cg2d: Sum(rhs),rhsMax =  -4.55405643751128E-11  1.13135923796933E-02
 cg2d: Sum(rhs),rhsMax =  -4.49190268314581E-11  1.14500257337458E-02
 cg2d: Sum(rhs),rhsMax =  -4.43208247880023E-11  1.15827086238017E-02
 cg2d: Sum(rhs),rhsMax =  -4.37716390910836E-11  1.17115851582508E-02
 cg2d: Sum(rhs),rhsMax =  -4.32151953111415E-11  1.18366011720348E-02
 cg2d: Sum(rhs),rhsMax =  -4.27071156217096E-11  1.19577042520296E-02
 cg2d: Sum(rhs),rhsMax =  -4.22357426810294E-11  1.20748437658305E-02
 cg2d: Sum(rhs),rhsMax =  -4.17722106904606E-11  1.21879708842516E-02
 cg2d: Sum(rhs),rhsMax =  -4.13827860867855E-11  1.22970385963336E-02
 cg2d: Sum(rhs),rhsMax =  -4.09723088790059E-11  1.24020017201830E-02
 cg2d: Sum(rhs),rhsMax =  -4.06027433896838E-11  1.25028169135308E-02
 cg2d: Sum(rhs),rhsMax =  -4.02324284998201E-11  1.25994426861968E-02
 cg2d: Sum(rhs),rhsMax =  -3.98818755797947E-11  1.26918394144263E-02
 cg2d: Sum(rhs),rhsMax =  -3.95646848616593E-11  1.27799693557553E-02
 cg2d: Sum(rhs),rhsMax =  -3.92881005506496E-11  1.28637966946638E-02
 cg2d: Sum(rhs),rhsMax =  -3.89766274810910E-11  1.29432875401697E-02
 cg2d: Sum(rhs),rhsMax =  -3.87312959482244E-11  1.30184098837913E-02
 cg2d: Sum(rhs),rhsMax =  -3.84134668518499E-11  1.30891336155368E-02
 cg2d: Sum(rhs),rhsMax =  -3.81029652274378E-11  1.31554305570748E-02
 cg2d: Sum(rhs),rhsMax =  -3.78048981009016E-11  1.32172744829473E-02
 cg2d: Sum(rhs),rhsMax =  -3.75406650210408E-11  1.32746411251159E-02
 cg2d: Sum(rhs),rhsMax =  -3.71349340166915E-11  1.33275081696675E-02
 cg2d: Sum(rhs),rhsMax =  -3.71397357312730E-11  1.33758552546430E-02
 cg2d: Sum(rhs),rhsMax =  -3.70048991449323E-11  1.34196639724424E-02
 cg2d: Sum(rhs),rhsMax =  -3.68456098964742E-11  1.34589178760478E-02
 cg2d: Sum(rhs),rhsMax =  -3.67115504662507E-11  1.34936024873642E-02
 cg2d: Sum(rhs),rhsMax =  -3.65922292466792E-11  1.35237053068278E-02
 cg2d: Sum(rhs),rhsMax =  -3.65008578917525E-11  1.35492158241286E-02
 cg2d: Sum(rhs),rhsMax =  -3.63570840100635E-11  1.35701255297178E-02
 cg2d: Sum(rhs),rhsMax =  -3.62322671865201E-11  1.35864279260889E-02
 cg2d: Sum(rhs),rhsMax =  -3.61386476299685E-11  1.35981185373134E-02
 cg2d: Sum(rhs),rhsMax =  -3.61012608696143E-11  1.36051949153125E-02
 cg2d: Sum(rhs),rhsMax =  -3.59891838552784E-11  1.36076566417942E-02
 cg2d: Sum(rhs),rhsMax =  -3.59515472947436E-11  1.36055053254088E-02
 cg2d: Sum(rhs),rhsMax =  -3.59838270291846E-11  1.35987445942935E-02
 cg2d: Sum(rhs),rhsMax =  -3.60410867816796E-11  1.35873800846975E-02
 cg2d: Sum(rhs),rhsMax =  -3.61586038888362E-11  1.35714194251491E-02
 cg2d: Sum(rhs),rhsMax =  -3.63109819989660E-11  1.35508722193921E-02
 cg2d: Sum(rhs),rhsMax =  -3.64562269261626E-11  1.35257500364148E-02
 cg2d: Sum(rhs),rhsMax =  -3.65908414678984E-11  1.34960663972974E-02
 cg2d: Sum(rhs),rhsMax =  -3.67909591680871E-11  1.34618367636092E-02
 cg2d: Sum(rhs),rhsMax =  -3.70041219888151E-11  1.34230785315440E-02
 cg2d: Sum(rhs),rhsMax =  -3.71789266040423E-11  1.33798110313518E-02
 cg2d: Sum(rhs),rhsMax =  -3.73734654335323E-11  1.33320555257088E-02
 cg2d: Sum(rhs),rhsMax =  -3.75879605218898E-11  1.32798352100762E-02
 cg2d: Sum(rhs),rhsMax =  -3.77968767395487E-11  1.32231752147931E-02
 cg2d: Sum(rhs),rhsMax =  -3.80588893733602E-11  1.31621026036275E-02
 cg2d: Sum(rhs),rhsMax =  -3.83067744191834E-11  1.30966463639663E-02
 cg2d: Sum(rhs),rhsMax =  -3.85990406304160E-11  1.30268373879427E-02
 cg2d: Sum(rhs),rhsMax =  -3.89118459676041E-11  1.29527084470886E-02
 cg2d: Sum(rhs),rhsMax =  -3.92476606769776E-11  1.28742941636335E-02
 cg2d: Sum(rhs),rhsMax =  -3.96279398184873E-11  1.27916309804951E-02
 cg2d: Sum(rhs),rhsMax =  -3.99539012985173E-11  1.27047571311401E-02
 cg2d: Sum(rhs),rhsMax =  -4.02478050887112E-11  1.26137126105848E-02
 cg2d: Sum(rhs),rhsMax =  -4.06088773718949E-11  1.25185391493954E-02
 cg2d: Sum(rhs),rhsMax =  -4.09630107611747E-11  1.24192801927740E-02
 cg2d: Sum(rhs),rhsMax =  -4.13696299439437E-11  1.23159809347737E-02
 cg2d: Sum(rhs),rhsMax =  -4.17647583184078E-11  1.22086886219796E-02
 cg2d: Sum(rhs),rhsMax =  -4.21917778492542E-11  1.20974520742880E-02
 cg2d: Sum(rhs),rhsMax =  -4.26463586666870E-11  1.19823215740659E-02
 cg2d: Sum(rhs),rhsMax =  -4.31310820392383E-11  1.18633489663834E-02
 cg2d: Sum(rhs),rhsMax =  -4.36298913664146E-11  1.17405877782464E-02
 cg2d: Sum(rhs),rhsMax =  -4.41532505002229E-11  1.16140932671590E-02
 cg2d: Sum(rhs),rhsMax =  -4.47281101045860E-11  1.14839224026800E-02
 cg2d: Sum(rhs),rhsMax =  -4.53298232283572E-11  1.13501338181575E-02
 cg2d: Sum(rhs),rhsMax =  -4.59383225903665E-11  1.12127877604223E-02
 cg2d: Sum(rhs),rhsMax =  -4.65701990859380E-11  1.10719460453621E-02
 cg2d: Sum(rhs),rhsMax =  -4.72699657194653E-11  1.09276720157257E-02
 cg2d: Sum(rhs),rhsMax =  -4.80206464870125E-11  1.07800304963019E-02
 cg2d: Sum(rhs),rhsMax =  -4.87668742193970E-11  1.06290877452454E-02
 cg2d: Sum(rhs),rhsMax =  -4.96024913851367E-11  1.04749114418153E-02
 cg2d: Sum(rhs),rhsMax =  -5.04173161552934E-11  1.03175705984605E-02
 cg2d: Sum(rhs),rhsMax =  -5.13113648792363E-11  1.01571354800916E-02
 cg2d: Sum(rhs),rhsMax =  -5.22123524970830E-11  9.99367756729975E-03
 cg2d: Sum(rhs),rhsMax =  -5.32016097842813E-11  9.82726954221250E-03
 cg2d: Sum(rhs),rhsMax =  -5.41937883458132E-11  9.65798527867947E-03
 cg2d: Sum(rhs),rhsMax =  -5.52549533905378E-11  9.48589982238117E-03
 cg2d: Sum(rhs),rhsMax =  -5.63798729924514E-11  9.31108935744811E-03
 cg2d: Sum(rhs),rhsMax =  -5.75274827774308E-11  9.13363116437363E-03
 cg2d: Sum(rhs),rhsMax =  -5.87333515156274E-11  8.95360357176051E-03
 cg2d: Sum(rhs),rhsMax =  -5.99997829198173E-11  8.77108600136873E-03
 cg2d: Sum(rhs),rhsMax =  -6.13363249080123E-11  8.58615894491604E-03
 cg2d: Sum(rhs),rhsMax =  -6.27637386507729E-11  8.39890373487935E-03
 cg2d: Sum(rhs),rhsMax =  -6.42458308774962E-11  8.20940252954803E-03
 cg2d: Sum(rhs),rhsMax =  -6.58474941239717E-11  8.01773837179733E-03
 cg2d: Sum(rhs),rhsMax =  -6.75580147380117E-11  7.82399521545341E-03
 cg2d: Sum(rhs),rhsMax =  -6.84485246260635E-11  7.72955571484172E-03
 cg2d: Sum(rhs),rhsMax =  -6.63930577182725E-11  7.97751332000394E-03
 cg2d: Sum(rhs),rhsMax =  -6.44214126488407E-11  8.22799383490800E-03
 cg2d: Sum(rhs),rhsMax =  -6.25699492218246E-11  8.48088711008725E-03
 cg2d: Sum(rhs),rhsMax =  -6.07920380701898E-11  8.73608204802181E-03
 cg2d: Sum(rhs),rhsMax =  -5.91054427623305E-11  8.99346666116022E-03
 cg2d: Sum(rhs),rhsMax =  -5.75478553699327E-11  9.25292812764097E-03
 cg2d: Sum(rhs),rhsMax =  -5.60166357743697E-11  9.51435284492276E-03
 cg2d: Sum(rhs),rhsMax =  -5.45489209358152E-11  9.77762648155803E-03
 cg2d: Sum(rhs),rhsMax =  -5.31402144510196E-11  1.00426340273152E-02
 cg2d: Sum(rhs),rhsMax =  -5.18016740613803E-11  1.03092598418262E-02
 cg2d: Sum(rhs),rhsMax =  -5.05554487162385E-11  1.05773877019363E-02
 cg2d: Sum(rhs),rhsMax =  -4.93745044849447E-11  1.08469008479737E-02
 cg2d: Sum(rhs),rhsMax =  -4.82206496954518E-11  1.11176820292164E-02
 cg2d: Sum(rhs),rhsMax =  -4.71221950348877E-11  1.13896135488850E-02
 cg2d: Sum(rhs),rhsMax =  -4.60776972133203E-11  1.16625773089912E-02
 cg2d: Sum(rhs),rhsMax =  -4.50703918630779E-11  1.19364548553332E-02
 cg2d: Sum(rhs),rhsMax =  -4.41124914374313E-11  1.22111274228387E-02
 cg2d: Sum(rhs),rhsMax =  -4.32248681292435E-11  1.24864759813525E-02
 cg2d: Sum(rhs),rhsMax =  -4.24009716226692E-11  1.27623812818761E-02
 cg2d: Sum(rhs),rhsMax =  -4.16074952269696E-11  1.30387239032089E-02
 cg2d: Sum(rhs),rhsMax =  -4.08416633845832E-11  1.33153842989648E-02
 cg2d: Sum(rhs),rhsMax =  -4.00953714674301E-11  1.35922428448484E-02
 cg2d: Sum(rhs),rhsMax =  -3.93939325604720E-11  1.38691798860632E-02
 cg2d: Sum(rhs),rhsMax =  -3.87202492291294E-11  1.41460757851414E-02
 cg2d: Sum(rhs),rhsMax =  -3.80683262690695E-11  1.44228109701944E-02
 cg2d: Sum(rhs),rhsMax =  -3.74530406688223E-11  1.46992659836054E-02
 cg2d: Sum(rhs),rhsMax =  -3.68528541017099E-11  1.49753215311929E-02
 cg2d: Sum(rhs),rhsMax =  -3.62804231102132E-11  1.52508585318809E-02
 cg2d: Sum(rhs),rhsMax =  -3.57208707058021E-11  1.55257581678800E-02
 cg2d: Sum(rhs),rhsMax =  -3.51842999180008E-11  1.57999019353373E-02
 cg2d: Sum(rhs),rhsMax =  -3.46790374194939E-11  1.60731716953555E-02
 cg2d: Sum(rhs),rhsMax =  -3.41806583037396E-11  1.63454497252346E-02
 cg2d: Sum(rhs),rhsMax =  -3.37141425887921E-11  1.66166187697625E-02
 cg2d: Sum(rhs),rhsMax =  -3.32488481191717E-11  1.68865620923790E-02
 cg2d: Sum(rhs),rhsMax =  -3.28158611395679E-11  1.71551635260608E-02
 cg2d: Sum(rhs),rhsMax =  -3.23832072268715E-11  1.74223075238190E-02
 cg2d: Sum(rhs),rhsMax =  -3.19706483509208E-11  1.76878792087613E-02
 cg2d: Sum(rhs),rhsMax =  -3.15716341958705E-11  1.79517644237337E-02
 cg2d: Sum(rhs),rhsMax =  -3.11812797804123E-11  1.82138497806155E-02
 cg2d: Sum(rhs),rhsMax =  -3.08117975578170E-11  1.84740227093852E-02
 cg2d: Sum(rhs),rhsMax =  -3.04545277884927E-11  1.87321715070881E-02
 cg2d: Sum(rhs),rhsMax =  -3.01291214199750E-11  1.89881853868252E-02
 cg2d: Sum(rhs),rhsMax =  -2.97865065945757E-11  1.92419545268415E-02
 cg2d: Sum(rhs),rhsMax =  -2.94669844080886E-11  1.94933701197338E-02
 cg2d: Sum(rhs),rhsMax =  -2.91509039129778E-11  1.97423244217445E-02
 cg2d: Sum(rhs),rhsMax =  -2.88479240495576E-11  1.99887108020649E-02
 cg2d: Sum(rhs),rhsMax =  -2.85617085538092E-11  2.02324237920434E-02
 cg2d: Sum(rhs),rhsMax =  -2.82782686156224E-11  2.04733591341819E-02
 cg2d: Sum(rhs),rhsMax =  -2.80188094947675E-11  2.07114138307820E-02
 cg2d: Sum(rhs),rhsMax =  -2.77516898350427E-11  2.09464861920686E-02
 cg2d: Sum(rhs),rhsMax =  -2.75071077027178E-11  2.11784758835617E-02
 cg2d: Sum(rhs),rhsMax =  -2.72689648639357E-11  2.14072839724036E-02
 cg2d: Sum(rhs),rhsMax =  -2.70193867280000E-11  2.16328129722871E-02
 cg2d: Sum(rhs),rhsMax =  -2.68117750223951E-11  2.18549668866064E-02
 cg2d: Sum(rhs),rhsMax =  -2.65812927224829E-11  2.20736512494704E-02
 cg2d: Sum(rhs),rhsMax =  -2.63801203104208E-11  2.22887731643018E-02
 cg2d: Sum(rhs),rhsMax =  -2.61790589206612E-11  2.25002413398663E-02
 cg2d: Sum(rhs),rhsMax =  -2.59657850776307E-11  2.27079661240333E-02
 cg2d: Sum(rhs),rhsMax =  -2.57843746354069E-11  2.29118595346450E-02
 cg2d: Sum(rhs),rhsMax =  -2.56069609960718E-11  2.31118352883578E-02
 cg2d: Sum(rhs),rhsMax =  -2.54323229142983E-11  2.33078088280419E-02
 cg2d: Sum(rhs),rhsMax =  -2.53286280837983E-11  2.34996973492382E-02
 cg2d: Sum(rhs),rhsMax =  -2.52218246288294E-11  2.36874198262101E-02
 cg2d: Sum(rhs),rhsMax =  -2.51336729206741E-11  2.38708970381505E-02
 cg2d: Sum(rhs),rhsMax =  -2.50410803204204E-11  2.40500515960875E-02
 cg2d: Sum(rhs),rhsMax =  -2.49378295791303E-11  2.42248079709679E-02
 cg2d: Sum(rhs),rhsMax =  -2.48624454357582E-11  2.43950925232811E-02
 cg2d: Sum(rhs),rhsMax =  -2.47868392477812E-11  2.45608335344316E-02
 cg2d: Sum(rhs),rhsMax =  -2.47232234684702E-11  2.47219612398853E-02
 cg2d: Sum(rhs),rhsMax =  -2.46429543437898E-11  2.48784078639272E-02
 cg2d: Sum(rhs),rhsMax =  -2.45670150889055E-11  2.50301076556826E-02
 cg2d: Sum(rhs),rhsMax =  -2.44968489937492E-11  2.51769969259055E-02
 cg2d: Sum(rhs),rhsMax =  -2.44284592554322E-11  2.53190140839213E-02
 cg2d: Sum(rhs),rhsMax =  -2.43696174351271E-11  2.54560996740468E-02
 cg2d: Sum(rhs),rhsMax =  -2.42982300946437E-11  2.55881964107996E-02
 cg2d: Sum(rhs),rhsMax =  -2.42582620657572E-11  2.57152492122468E-02
 cg2d: Sum(rhs),rhsMax =  -2.42053044274826E-11  2.58372052309319E-02
 cg2d: Sum(rhs),rhsMax =  -2.41483499863193E-11  2.59540138819440E-02
 cg2d: Sum(rhs),rhsMax =  -2.41113795595993E-11  2.60656268678526E-02
 cg2d: Sum(rhs),rhsMax =  -2.40658604155897E-11  2.61719982003943E-02
 cg2d: Sum(rhs),rhsMax =  -2.40449882227267E-11  2.62730842189787E-02
 cg2d: Sum(rhs),rhsMax =  -2.40970576825816E-11  2.63688436062310E-02
 cg2d: Sum(rhs),rhsMax =  -2.41540121237449E-11  2.64592374009229E-02
 cg2d: Sum(rhs),rhsMax =  -2.42237341296914E-11  2.65442290087403E-02
 cg2d: Sum(rhs),rhsMax =  -2.42842412845334E-11  2.66237842113782E-02
 cg2d: Sum(rhs),rhsMax =  -2.43405295918819E-11  2.66978711744651E-02
 cg2d: Sum(rhs),rhsMax =  -2.44231301849140E-11  2.67664604547731E-02
 cg2d: Sum(rhs),rhsMax =  -2.45764519846148E-11  2.68295250070895E-02
 cg2d: Sum(rhs),rhsMax =  -2.44037012819831E-11  2.68870401910232E-02
 cg2d: Sum(rhs),rhsMax =  -2.43465247962149E-11  2.69389837778897E-02
 cg2d: Sum(rhs),rhsMax =  -2.43518538667331E-11  2.69853359576994E-02
 cg2d: Sum(rhs),rhsMax =  -2.43852715797743E-11  2.70260793461602E-02
 cg2d: Sum(rhs),rhsMax =  -2.44272380101052E-11  2.70611989915146E-02
 cg2d: Sum(rhs),rhsMax =  -2.44402276194933E-11  2.70906823809730E-02
 cg2d: Sum(rhs),rhsMax =  -2.44710918195779E-11  2.71145194464798E-02
 cg2d: Sum(rhs),rhsMax =  -2.45128362053038E-11  2.71327025695586E-02
 cg2d: Sum(rhs),rhsMax =  -2.45703457579793E-11  2.71452265850130E-02
 cg2d: Sum(rhs),rhsMax =  -2.45992115566196E-11  2.71520887833274E-02
 cg2d: Sum(rhs),rhsMax =  -2.45504727658385E-11  2.71532889116827E-02
 cg2d: Sum(rhs),rhsMax =  -2.44860798304103E-11  2.71488291735946E-02
 cg2d: Sum(rhs),rhsMax =  -2.44179121366983E-11  2.71387142273883E-02
 cg2d: Sum(rhs),rhsMax =  -2.43421949264189E-11  2.71229511834784E-02
 cg2d: Sum(rhs),rhsMax =  -2.42666997607444E-11  2.71015496006566E-02
 cg2d: Sum(rhs),rhsMax =  -2.41895392605329E-11  2.70745214819359E-02
 cg2d: Sum(rhs),rhsMax =  -2.40919506566684E-11  2.70418812701887E-02
 cg2d: Sum(rhs),rhsMax =  -2.40651942817749E-11  2.70036458439486E-02
 cg2d: Sum(rhs),rhsMax =  -2.40404363083258E-11  2.69598345138695E-02
 cg2d: Sum(rhs),rhsMax =  -2.40194530931603E-11  2.69104690196090E-02
 cg2d: Sum(rhs),rhsMax =  -2.39857023132117E-11  2.68555735271918E-02
 cg2d: Sum(rhs),rhsMax =  -2.39528397116828E-11  2.67951746267607E-02
 cg2d: Sum(rhs),rhsMax =  -2.39027686532722E-11  2.67293013304410E-02
 cg2d: Sum(rhs),rhsMax =  -2.38555841747257E-11  2.66579850698362E-02
 cg2d: Sum(rhs),rhsMax =  -2.38258301976657E-11  2.65812596924916E-02
 cg2d: Sum(rhs),rhsMax =  -2.37717623363665E-11  2.64991614565268E-02
 cg2d: Sum(rhs),rhsMax =  -2.37050379325865E-11  2.64117290225635E-02
 cg2d: Sum(rhs),rhsMax =  -2.37561081917192E-11  2.63190034420822E-02
 cg2d: Sum(rhs),rhsMax =  -2.37870834141063E-11  2.62210281414299E-02
 cg2d: Sum(rhs),rhsMax =  -2.38405961638932E-11  2.61178489008695E-02
 cg2d: Sum(rhs),rhsMax =  -2.38870034863226E-11  2.60095138283172E-02
 cg2d: Sum(rhs),rhsMax =  -2.39261943590918E-11  2.58960733277249E-02
 cg2d: Sum(rhs),rhsMax =  -2.40011344132540E-11  2.57775800624095E-02
 cg2d: Sum(rhs),rhsMax =  -2.40555353414607E-11  2.56540889139816E-02
 cg2d: Sum(rhs),rhsMax =  -2.40893971437117E-11  2.55256569378204E-02
 cg2d: Sum(rhs),rhsMax =  -2.41425768265913E-11  2.53923433164101E-02
 cg2d: Sum(rhs),rhsMax =  -2.42063036282048E-11  2.52542093115981E-02
 cg2d: Sum(rhs),rhsMax =  -2.42668107830468E-11  2.51113182168911E-02
 cg2d: Sum(rhs),rhsMax =  -2.43434161717460E-11  2.49637353114957E-02
 cg2d: Sum(rhs),rhsMax =  -2.44083642186865E-11  2.48115278171954E-02
 cg2d: Sum(rhs),rhsMax =  -2.44952946815147E-11  2.46547648589786E-02
 cg2d: Sum(rhs),rhsMax =  -2.45570230816838E-11  2.44935174301398E-02
 cg2d: Sum(rhs),rhsMax =  -2.46087594746314E-11  2.43278583623511E-02
 cg2d: Sum(rhs),rhsMax =  -2.46954678928546E-11  2.41578623010088E-02
 cg2d: Sum(rhs),rhsMax =  -2.48082665521565E-11  2.39836056853288E-02
 cg2d: Sum(rhs),rhsMax =  -2.48623344134558E-11  2.38051667330386E-02
 cg2d: Sum(rhs),rhsMax =  -2.49629206194868E-11  2.36226254286137E-02
 cg2d: Sum(rhs),rhsMax =  -2.50574005988824E-11  2.34360635135812E-02
 cg2d: Sum(rhs),rhsMax =  -2.52259324540205E-11  2.32455644770975E-02
 cg2d: Sum(rhs),rhsMax =  -2.53621568191420E-11  2.30512135448331E-02
 cg2d: Sum(rhs),rhsMax =  -2.55524490455628E-11  2.28530976641785E-02
 cg2d: Sum(rhs),rhsMax =  -2.57491805655263E-11  2.26513054839441E-02
 cg2d: Sum(rhs),rhsMax =  -2.59294807847255E-11  2.24459273270478E-02
 cg2d: Sum(rhs),rhsMax =  -2.61221044794979E-11  2.22370551551499E-02
 cg2d: Sum(rhs),rhsMax =  -2.63249422260969E-11  2.20247825247590E-02
 cg2d: Sum(rhs),rhsMax =  -2.65483190986515E-11  2.18092045349202E-02
 cg2d: Sum(rhs),rhsMax =  -2.67553756927441E-11  2.15904177671666E-02
 cg2d: Sum(rhs),rhsMax =  -2.69821942566750E-11  2.13685202189168E-02
 cg2d: Sum(rhs),rhsMax =  -2.72203370954571E-11  2.11436112319012E-02
 cg2d: Sum(rhs),rhsMax =  -2.74417155665674E-11  2.09157914175037E-02
 cg2d: Sum(rhs),rhsMax =  -2.76945133492745E-11  2.06851625810752E-02
 cg2d: Sum(rhs),rhsMax =  -2.79530842917097E-11  2.04518276473166E-02
 cg2d: Sum(rhs),rhsMax =  -2.82245338212306E-11  2.02158905886997E-02
 cg2d: Sum(rhs),rhsMax =  -2.85098611385592E-11  1.99774563586076E-02
 cg2d: Sum(rhs),rhsMax =  -2.87945223220731E-11  1.97366308304333E-02
 cg2d: Sum(rhs),rhsMax =  -2.90906188027407E-11  1.94935207433191E-02
 cg2d: Sum(rhs),rhsMax =  -2.93985946697717E-11  1.92482336549194E-02
 cg2d: Sum(rhs),rhsMax =  -2.97194491238884E-11  1.90008778999562E-02
 cg2d: Sum(rhs),rhsMax =  -3.00401925557026E-11  1.87515625540818E-02
 cg2d: Sum(rhs),rhsMax =  -3.03814751134723E-11  1.85003974019933E-02
 cg2d: Sum(rhs),rhsMax =  -3.07429637302903E-11  1.82474929083571E-02
 cg2d: Sum(rhs),rhsMax =  -3.11075609715772E-11  1.79929601901053E-02
 cg2d: Sum(rhs),rhsMax =  -3.14830383985054E-11  1.77369109888079E-02
 cg2d: Sum(rhs),rhsMax =  -3.18703952117971E-11  1.74794576420571E-02
 cg2d: Sum(rhs),rhsMax =  -3.22777360395321E-11  1.72207130530533E-02
 cg2d: Sum(rhs),rhsMax =  -3.26905169600877E-11  1.69607906578098E-02
 cg2d: Sum(rhs),rhsMax =  -3.31141780662847E-11  1.66998043895795E-02
 cg2d: Sum(rhs),rhsMax =  -3.35518279825919E-11  1.64378686402453E-02
 cg2d: Sum(rhs),rhsMax =  -3.40091288464350E-11  1.61750982185163E-02
 cg2d: Sum(rhs),rhsMax =  -3.44847483901844E-11  1.59116083048662E-02
 cg2d: Sum(rhs),rhsMax =  -3.49893447548766E-11  1.56475144032402E-02
 cg2d: Sum(rhs),rhsMax =  -3.55087070857962E-11  1.53829322896744E-02
 cg2d: Sum(rhs),rhsMax =  -3.60406149368941E-11  1.51179779580905E-02
 cg2d: Sum(rhs),rhsMax =  -3.65951713376944E-11  1.48527675636474E-02
 cg2d: Sum(rhs),rhsMax =  -3.71739306004315E-11  1.45874173641285E-02
 cg2d: Sum(rhs),rhsMax =  -3.77698983200503E-11  1.43220436598928E-02
 cg2d: Sum(rhs),rhsMax =  -3.83969522843586E-11  1.40567627329227E-02
 cg2d: Sum(rhs),rhsMax =  -3.90331100774688E-11  1.37916907854639E-02
 cg2d: Sum(rhs),rhsMax =  -3.96969124238922E-11  1.35269438786867E-02
 cg2d: Sum(rhs),rhsMax =  -4.03738154020061E-11  1.32626378717239E-02
 cg2d: Sum(rhs),rhsMax =  -4.10862455169081E-11  1.29988883613834E-02
 cg2d: Sum(rhs),rhsMax =  -4.18387546829990E-11  1.27358106227838E-02
 cg2d: Sum(rhs),rhsMax =  -4.26140234210948E-11  1.24735195511346E-02
 cg2d: Sum(rhs),rhsMax =  -4.34228208945342E-11  1.22121296048462E-02
 cg2d: Sum(rhs),rhsMax =  -4.42647030141075E-11  1.19517547501261E-02
 cg2d: Sum(rhs),rhsMax =  -4.51437776050057E-11  1.16925084071600E-02
 cg2d: Sum(rhs),rhsMax =  -4.60519400391490E-11  1.14345033979278E-02
 cg2d: Sum(rhs),rhsMax =  -4.69980721007346E-11  1.11778518956494E-02
 cg2d: Sum(rhs),rhsMax =  -4.79757344962195E-11  1.09226653758222E-02
 cg2d: Sum(rhs),rhsMax =  -4.90817941845023E-11  1.06690545688054E-02
 cg2d: Sum(rhs),rhsMax =  -5.02304864369307E-11  1.04171294139124E-02
 cg2d: Sum(rhs),rhsMax =  -5.14051579081354E-11  1.01669990149896E-02
 cg2d: Sum(rhs),rhsMax =  -5.26480525842032E-11  9.91877159746205E-03
 cg2d: Sum(rhs),rhsMax =  -5.39353561812561E-11  9.67255446680075E-03
 cg2d: Sum(rhs),rhsMax =  -5.52559664690477E-11  9.42845396831047E-03
 cg2d: Sum(rhs),rhsMax =  -5.66815483438177E-11  9.18657544805594E-03
 cg2d: Sum(rhs),rhsMax =  -5.81297787682900E-11  8.94702321466013E-03
 cg2d: Sum(rhs),rhsMax =  -5.96702132149574E-11  8.70990050163670E-03
 cg2d: Sum(rhs),rhsMax =  -6.12657147236462E-11  8.47530942988223E-03
 cg2d: Sum(rhs),rhsMax =  -6.28760932208650E-11  8.24335096994995E-03
 cg2d: Sum(rhs),rhsMax =  -6.41327546624382E-11  8.07196165481348E-03
 cg2d: Sum(rhs),rhsMax =  -6.27307650269415E-11  8.24489892717466E-03
 cg2d: Sum(rhs),rhsMax =  -6.14006068211381E-11  8.41540576751305E-03
 cg2d: Sum(rhs),rhsMax =  -6.01689253976190E-11  8.58340904564483E-03
 cg2d: Sum(rhs),rhsMax =  -5.89510662507564E-11  8.74883678694900E-03
 cg2d: Sum(rhs),rhsMax =  -5.78310732635146E-11  8.91161821347377E-03
 cg2d: Sum(rhs),rhsMax =  -5.67526858841205E-11  9.07168378023141E-03
 cg2d: Sum(rhs),rhsMax =  -5.56677759444568E-11  9.22896520222666E-03
 cg2d: Sum(rhs),rhsMax =  -5.46393208455953E-11  9.38339547638917E-03
 cg2d: Sum(rhs),rhsMax =  -5.36671540540823E-11  9.53490891294060E-03
 cg2d: Sum(rhs),rhsMax =  -5.27684007600726E-11  9.68344115135456E-03
 cg2d: Sum(rhs),rhsMax =  -5.19127241194184E-11  9.82892917619108E-03
 cg2d: Sum(rhs),rhsMax =  -5.10877590231829E-11  9.97131134200588E-03
 cg2d: Sum(rhs),rhsMax =  -5.02701907878489E-11  1.01105274033440E-02
 cg2d: Sum(rhs),rhsMax =  -4.95280066958870E-11  1.02465185421375E-02
 cg2d: Sum(rhs),rhsMax =  -4.88096368878033E-11  1.03792273877727E-02
 cg2d: Sum(rhs),rhsMax =  -4.81017101150449E-11  1.05085980229043E-02
 cg2d: Sum(rhs),rhsMax =  -4.74535584438218E-11  1.06345760046175E-02
 cg2d: Sum(rhs),rhsMax =  -4.68772156508868E-11  1.07571084011844E-02
 cg2d: Sum(rhs),rhsMax =  -4.62808263934633E-11  1.08761438155407E-02
 cg2d: Sum(rhs),rhsMax =  -4.57332886838469E-11  1.09916323906697E-02
 cg2d: Sum(rhs),rhsMax =  -4.52148769813920E-11  1.11035258019478E-02
 cg2d: Sum(rhs),rhsMax =  -4.46866432746162E-11  1.12117772778382E-02
 cg2d: Sum(rhs),rhsMax =  -4.41941136464230E-11  1.13163416481462E-02
 cg2d: Sum(rhs),rhsMax =  -4.37835254163410E-11  1.14171753735571E-02
 cg2d: Sum(rhs),rhsMax =  -4.33191954529732E-11  1.15142365309967E-02
 cg2d: Sum(rhs),rhsMax =  -4.29107860355771E-11  1.16074848118486E-02
 cg2d: Sum(rhs),rhsMax =  -4.25807306081438E-11  1.16968815507417E-02
 cg2d: Sum(rhs),rhsMax =  -4.22007984113293E-11  1.17823897385322E-02
 cg2d: Sum(rhs),rhsMax =  -4.18982765149067E-11  1.18639740720566E-02
 cg2d: Sum(rhs),rhsMax =  -4.15488199401182E-11  1.19416010056544E-02
 cg2d: Sum(rhs),rhsMax =  -4.12737621857673E-11  1.20152388046762E-02
 cg2d: Sum(rhs),rhsMax =  -4.08460210099548E-11  1.20848575356195E-02
 cg2d: Sum(rhs),rhsMax =  -4.04896255412623E-11  1.21504290472361E-02
 cg2d: Sum(rhs),rhsMax =  -4.03123090464419E-11  1.22119269778507E-02
 cg2d: Sum(rhs),rhsMax =  -4.01758903922911E-11  1.22693267810159E-02
 cg2d: Sum(rhs),rhsMax =  -3.99318078603272E-11  1.23226057493435E-02
 cg2d: Sum(rhs),rhsMax =  -3.97595567580566E-11  1.23717430258205E-02
 cg2d: Sum(rhs),rhsMax =  -3.95362631522289E-11  1.24167196031091E-02
 cg2d: Sum(rhs),rhsMax =  -3.93436117018808E-11  1.24575183173113E-02
 cg2d: Sum(rhs),rhsMax =  -3.92063603804615E-11  1.24941238417863E-02
 cg2d: Sum(rhs),rhsMax =  -3.90724952392674E-11  1.25265226830424E-02
 cg2d: Sum(rhs),rhsMax =  -3.89384913201951E-11  1.25547031781361E-02
 cg2d: Sum(rhs),rhsMax =  -3.87665177736807E-11  1.25786554924347E-02
 cg2d: Sum(rhs),rhsMax =  -3.86059517687443E-11  1.25983716172587E-02
 cg2d: Sum(rhs),rhsMax =  -3.85391163426618E-11  1.26138453676963E-02
 cg2d: Sum(rhs),rhsMax =  -3.84452747415054E-11  1.26250723810372E-02
 cg2d: Sum(rhs),rhsMax =  -3.83625908817464E-11  1.26320501196344E-02
 cg2d: Sum(rhs),rhsMax =  -3.82980869240157E-11  1.26347778711381E-02
 cg2d: Sum(rhs),rhsMax =  -3.82402720600084E-11  1.26332567457306E-02
 cg2d: Sum(rhs),rhsMax =  -3.82572307167095E-11  1.26274896771866E-02
 cg2d: Sum(rhs),rhsMax =  -3.83118814450967E-11  1.26174814273151E-02
 cg2d: Sum(rhs),rhsMax =  -3.84298703970387E-11  1.26032385896633E-02
 cg2d: Sum(rhs),rhsMax =  -3.85513010403571E-11  1.25847695897148E-02
 cg2d: Sum(rhs),rhsMax =  -3.86932985652066E-11  1.25620846817075E-02
 cg2d: Sum(rhs),rhsMax =  -3.88509224791278E-11  1.25351959434066E-02
 cg2d: Sum(rhs),rhsMax =  -3.90902588076614E-11  1.25041172700273E-02
 cg2d: Sum(rhs),rhsMax =  -3.92758880973787E-11  1.24688643672374E-02
 cg2d: Sum(rhs),rhsMax =  -3.94567434280901E-11  1.24294547459378E-02
 cg2d: Sum(rhs),rhsMax =  -3.96117860734790E-11  1.23859077164575E-02
 cg2d: Sum(rhs),rhsMax =  -3.98353572350629E-11  1.23382443781134E-02
 cg2d: Sum(rhs),rhsMax =  -4.00482147444592E-11  1.22864875762865E-02
 cg2d: Sum(rhs),rhsMax =  -4.03077293764653E-11  1.22306619196557E-02
 cg2d: Sum(rhs),rhsMax =  -4.06045752576745E-11  1.21707937836233E-02
 cg2d: Sum(rhs),rhsMax =  -4.09105804788368E-11  1.21069112957620E-02
 cg2d: Sum(rhs),rhsMax =  -4.11874978567539E-11  1.20390443196734E-02
 cg2d: Sum(rhs),rhsMax =  -4.15401740783139E-11  1.19672244450983E-02
 cg2d: Sum(rhs),rhsMax =  -4.18926004996933E-11  1.18914849822553E-02
 cg2d: Sum(rhs),rhsMax =  -4.22710338954246E-11  1.18118609545128E-02
 cg2d: Sum(rhs),rhsMax =  -4.26569335409965E-11  1.17283890851129E-02
 cg2d: Sum(rhs),rhsMax =  -4.29797447631941E-11  1.16411077770092E-02
 cg2d: Sum(rhs),rhsMax =  -4.33724445247918E-11  1.15500570870555E-02
 cg2d: Sum(rhs),rhsMax =  -4.38337421915236E-11  1.14552786961473E-02
 cg2d: Sum(rhs),rhsMax =  -4.42431369318541E-11  1.13568158763130E-02
 cg2d: Sum(rhs),rhsMax =  -4.46928605235541E-11  1.12547134551981E-02
 cg2d: Sum(rhs),rhsMax =  -4.51843493176618E-11  1.11490177783729E-02
 cg2d: Sum(rhs),rhsMax =  -4.56904514223311E-11  1.10397766703536E-02
 cg2d: Sum(rhs),rhsMax =  -4.62129293166136E-11  1.09270393957938E-02
 cg2d: Sum(rhs),rhsMax =  -4.67517760616154E-11  1.08108566226418E-02
 cg2d: Sum(rhs),rhsMax =  -4.73769912190392E-11  1.06912803890474E-02
 cg2d: Sum(rhs),rhsMax =  -4.79882531281839E-11  1.05683640754253E-02
 cg2d: Sum(rhs),rhsMax =  -4.86678180394717E-11  1.04421623824861E-02
 cg2d: Sum(rhs),rhsMax =  -4.93260640666016E-11  1.03127313153322E-02
 cg2d: Sum(rhs),rhsMax =  -5.00335398112561E-11  1.01801281862816E-02
 cg2d: Sum(rhs),rhsMax =  -5.07900665969174E-11  1.00444117109240E-02
 cg2d: Sum(rhs),rhsMax =  -5.15888581853474E-11  9.90564186475320E-03
 cg2d: Sum(rhs),rhsMax =  -5.24054410977470E-11  9.76387983809269E-03
 cg2d: Sum(rhs),rhsMax =  -5.32929533836324E-11  9.61918801770224E-03
 cg2d: Sum(rhs),rhsMax =  -5.42113298696023E-11  9.47163003179321E-03
 cg2d: Sum(rhs),rhsMax =  -5.51892143096921E-11  9.32127081437929E-03
 cg2d: Sum(rhs),rhsMax =  -5.62076218901808E-11  9.16817658179637E-03
 cg2d: Sum(rhs),rhsMax =  -5.72967506773381E-11  9.01241477468122E-03
 cg2d: Sum(rhs),rhsMax =  -5.84330361874663E-11  8.85405400541020E-03
 cg2d: Sum(rhs),rhsMax =  -5.96266647168164E-11  8.69316402048084E-03
(PID.TID 0000.0001)      cg2d_init_res =   1.24070152229093E-01
(PID.TID 0000.0001)      cg2d_iters(min,last) =      -1      38
(PID.TID 0000.0001)      cg2d_last_res =   3.81103507999136E-14
(PID.TID 0000.0001) // =======================================================
(PID.TID 0000.0001) // Begin MONITOR dynamic field statistics
(PID.TID 0000.0001) // =======================================================
(PID.TID 0000.0001) %MON time_tsnumber                =                  7200
(PID.TID 0000.0001) %MON time_secondsf                =   1.0800000000000E+05
(PID.TID 0000.0001) %MON dynstat_eta_max              =   1.4330261232547E-03
(PID.TID 0000.0001) %MON dynstat_eta_min              =  -1.6044623509867E-03
(PID.TID 0000.0001) %MON dynstat_eta_mean             =   1.1117725632014E-15
(PID.TID 0000.0001) %MON dynstat_eta_sd               =   1.0030773148572E-03
(PID.TID 0000.0001) %MON dynstat_eta_del2             =   4.5612767305159E-06
(PID.TID 0000.0001) %MON dynstat_uvel_max             =   3.2038006611906E-01
(PID.TID 0000.0001) %MON dynstat_uvel_min             =  -6.1104729445121E-02
(PID.TID 0000.0001) %MON dynstat_uvel_mean            =   6.7861317084378E-02
(PID.TID 0000.0001) %MON dynstat_uvel_sd              =   3.9647811358336E-02
(PID.TID 0000.0001) %MON dynstat_uvel_del2            =   9.5210579936914E-05
(PID.TID 0000.0001) %MON dynstat_vvel_max             =   0.0000000000000E+00
(PID.TID 0000.0001) %MON dynstat_vvel_min             =   0.0000000000000E+00
(PID.TID 0000.0001) %MON dynstat_vvel_mean            =   0.0000000000000E+00
(PID.TID 0000.0001) %MON dynstat_vvel_sd              =   0.0000000000000E+00
(PID.TID 0000.0001) %MON dynstat_vvel_del2            =   0.0000000000000E+00
(PID.TID 0000.0001) %MON dynstat_wvel_max             =   1.6771364163540E-03
(PID.TID 0000.0001) %MON dynstat_wvel_min             =  -4.1671763321994E-03
(PID.TID 0000.0001) %MON dynstat_wvel_mean            =   5.9444605454650E-21
(PID.TID 0000.0001) %MON dynstat_wvel_sd              =   2.1660135559786E-04
(PID.TID 0000.0001) %MON dynstat_wvel_del2            =   2.9097194250426E-06
(PID.TID 0000.0001) %MON dynstat_theta_max            =   1.5000000000019E+01
(PID.TID 0000.0001) %MON dynstat_theta_min            =   9.9999999999872E+00
(PID.TID 0000.0001) %MON dynstat_theta_mean           =   1.3315627608343E+01
(PID.TID 0000.0001) %MON dynstat_theta_sd             =   2.3090949910324E+00
(PID.TID 0000.0001) %MON dynstat_theta_del2           =   2.8706240010508E-04
(PID.TID 0000.0001) %MON dynstat_salt_max             =   3.5000000000000E+01
(PID.TID 0000.0001) %MON dynstat_salt_min             =   3.5000000000000E+01
(PID.TID 0000.0001) %MON dynstat_salt_mean            =   3.5000000000000E+01
(PID.TID 0000.0001) %MON dynstat_salt_sd              =   2.1316282072803E-14
(PID.TID 0000.0001) %MON dynstat_salt_del2            =   0.0000000000000E+00
(PID.TID 0000.0001) %MON dynstat_sst_max              =   1.5000000000000E+01
(PID.TID 0000.0001) %MON dynstat_sst_min              =   1.4999999999987E+01
(PID.TID 0000.0001) %MON dynstat_sst_mean             =   1.4999999999992E+01
(PID.TID 0000.0001) %MON dynstat_sst_sd               =   4.5854562465998E-12
(PID.TID 0000.0001) %MON dynstat_sst_del2             =   4.2467531242223E-14
(PID.TID 0000.0001) %MON dynstat_sss_max              =   3.5000000000000E+01
(PID.TID 0000.0001) %MON dynstat_sss_min              =   3.5000000000000E+01
(PID.TID 0000.0001) %MON dynstat_sss_mean             =   3.5000000000000E+01
(PID.TID 0000.0001) %MON dynstat_sss_sd               =   7.8159700933611E-14
(PID.TID 0000.0001) %MON dynstat_sss_del2             =   0.0000000000000E+00
(PID.TID 0000.0001) %MON forcing_qnet_max             =   0.0000000000000E+00
(PID.TID 0000.0001) %MON forcing_qnet_min             =   0.0000000000000E+00
(PID.TID 0000.0001) %MON forcing_qnet_mean            =   0.0000000000000E+00
(PID.TID 0000.0001) %MON forcing_qnet_sd              =   0.0000000000000E+00
(PID.TID 0000.0001) %MON forcing_qnet_del2            =   0.0000000000000E+00
(PID.TID 0000.0001) %MON forcing_qsw_max              =   0.0000000000000E+00
(PID.TID 0000.0001) %MON forcing_qsw_min              =   0.0000000000000E+00
(PID.TID 0000.0001) %MON forcing_qsw_mean             =   0.0000000000000E+00
(PID.TID 0000.0001) %MON forcing_qsw_sd               =   0.0000000000000E+00
(PID.TID 0000.0001) %MON forcing_qsw_del2             =   0.0000000000000E+00
(PID.TID 0000.0001) %MON forcing_empmr_max            =   0.0000000000000E+00
(PID.TID 0000.0001) %MON forcing_empmr_min            =   0.0000000000000E+00
(PID.TID 0000.0001) %MON forcing_empmr_mean           =   0.0000000000000E+00
(PID.TID 0000.0001) %MON forcing_empmr_sd             =   0.0000000000000E+00
(PID.TID 0000.0001) %MON forcing_empmr_del2           =   0.0000000000000E+00
(PID.TID 0000.0001) %MON forcing_fu_max               =   0.0000000000000E+00
(PID.TID 0000.0001) %MON forcing_fu_min               =   0.0000000000000E+00
(PID.TID 0000.0001) %MON forcing_fu_mean              =   0.0000000000000E+00
(PID.TID 0000.0001) %MON forcing_fu_sd                =   0.0000000000000E+00
(PID.TID 0000.0001) %MON forcing_fu_del2              =   0.0000000000000E+00
(PID.TID 0000.0001) %MON forcing_fv_max               =   0.0000000000000E+00
(PID.TID 0000.0001) %MON forcing_fv_min               =   0.0000000000000E+00
(PID.TID 0000.0001) %MON forcing_fv_mean              =   0.0000000000000E+00
(PID.TID 0000.0001) %MON forcing_fv_sd                =   0.0000000000000E+00
(PID.TID 0000.0001) %MON forcing_fv_del2              =   0.0000000000000E+00
(PID.TID 0000.0001) %MON advcfl_uvel_max              =   2.4028504958929E-02
(PID.TID 0000.0001) %MON advcfl_vvel_max              =   0.0000000000000E+00
(PID.TID 0000.0001) %MON advcfl_wvel_max              =   2.6249193499238E-02
(PID.TID 0000.0001) %MON advcfl_W_hf_max              =   2.6585019920628E-02
(PID.TID 0000.0001) %MON pe_b_mean                    =   2.5137119278133E-08
(PID.TID 0000.0001) %MON ke_max                       =   5.0101449761438E-02
(PID.TID 0000.0001) %MON ke_mean                      =   3.0968104892155E-03
(PID.TID 0000.0001) %MON ke_vol                       =   9.5889217545975E+10
(PID.TID 0000.0001) %MON vort_r_min                   =   0.0000000000000E+00
(PID.TID 0000.0001) %MON vort_r_max                   =   0.0000000000000E+00
(PID.TID 0000.0001) %MON vort_a_mean                  =   0.0000000000000E+00
(PID.TID 0000.0001) %MON vort_a_sd                    =   0.0000000000000E+00
(PID.TID 0000.0001) %MON vort_p_mean                  =   0.0000000000000E+00
(PID.TID 0000.0001) %MON vort_p_sd                    =   0.0000000000000E+00
(PID.TID 0000.0001) %MON surfExpan_theta_mean         =   2.3446067498298E-18
(PID.TID 0000.0001) %MON surfExpan_salt_mean          =   3.3612431340325E-19
(PID.TID 0000.0001) // =======================================================
(PID.TID 0000.0001) // End MONITOR dynamic field statistics
(PID.TID 0000.0001) // =======================================================
(PID.TID 0000.0001) // =======================================================
(PID.TID 0000.0001) // Begin OBCS MONITOR field statistics
(PID.TID 0000.0001) // =======================================================
(PID.TID 0000.0001) %MON obc_E_uVel_max               =   6.6809804669674E-02
(PID.TID 0000.0001) %MON obc_E_uVel_min               =   6.6809804669674E-02
(PID.TID 0000.0001) %MON obc_E_uVel_mean              =   6.6809804669674E-02
(PID.TID 0000.0001) %MON obc_E_uVel_sd                =  -1.7347234759768E-18
(PID.TID 0000.0001) %MON obc_E_uVel_Int               =   6.6809804669674E+04
(PID.TID 0000.0001) %MON obc_W_uVel_max               =   6.6809804669674E-02
(PID.TID 0000.0001) %MON obc_W_uVel_min               =   6.6809804669674E-02
(PID.TID 0000.0001) %MON obc_W_uVel_mean              =   6.6809804669674E-02
(PID.TID 0000.0001) %MON obc_W_uVel_sd                =  -1.7347234759768E-18
(PID.TID 0000.0001) %MON obc_W_uVel_Int               =   6.6809804669674E+04
(PID.TID 0000.0001) // =======================================================
(PID.TID 0000.0001) // End OBCS MONITOR field statistics
(PID.TID 0000.0001) // =======================================================
(PID.TID 0000.0001) %CHECKPOINT      7200 0000007200
(PID.TID 0000.0001)   Seconds in section "ALL                    [THE_MODEL_MAIN]":
(PID.TID 0000.0001)           User time:   295.38000000000000
(PID.TID 0000.0001)         System time:  0.34000000000000002
(PID.TID 0000.0001)     Wall clock time:   296.38373899459839
(PID.TID 0000.0001)          No. starts:           1
(PID.TID 0000.0001)           No. stops:           1
(PID.TID 0000.0001)   Seconds in section "INITIALISE_FIXED       [THE_MODEL_MAIN]":
(PID.TID 0000.0001)           User time:   2.9999999999999999E-002
(PID.TID 0000.0001)         System time:   0.0000000000000000
(PID.TID 0000.0001)     Wall clock time:   7.0342063903808594E-002
(PID.TID 0000.0001)          No. starts:           1
(PID.TID 0000.0001)           No. stops:           1
(PID.TID 0000.0001)   Seconds in section "THE_MAIN_LOOP          [THE_MODEL_MAIN]":
(PID.TID 0000.0001)           User time:   295.35000000000002
(PID.TID 0000.0001)         System time:  0.34000000000000002
(PID.TID 0000.0001)     Wall clock time:   296.31335592269897
(PID.TID 0000.0001)          No. starts:           1
(PID.TID 0000.0001)           No. stops:           1
(PID.TID 0000.0001)   Seconds in section "INITIALISE_VARIA    [THE_MAIN_LOOP]":
(PID.TID 0000.0001)           User time:   1.0000000000000002E-002
(PID.TID 0000.0001)         System time:   2.0000000000000000E-002
(PID.TID 0000.0001)     Wall clock time:   4.1051149368286133E-002
(PID.TID 0000.0001)          No. starts:           1
(PID.TID 0000.0001)           No. stops:           1
(PID.TID 0000.0001)   Seconds in section "MAIN LOOP           [THE_MAIN_LOOP]":
(PID.TID 0000.0001)           User time:   295.33999999999997
(PID.TID 0000.0001)         System time:  0.32000000000000001
(PID.TID 0000.0001)     Wall clock time:   296.27227115631104
(PID.TID 0000.0001)          No. starts:           1
(PID.TID 0000.0001)           No. stops:           1
(PID.TID 0000.0001)   Seconds in section "MAIN_DO_LOOP        [THE_MAIN_LOOP]":
(PID.TID 0000.0001)           User time:   295.27000000000811
(PID.TID 0000.0001)         System time:  0.32000000000000034
(PID.TID 0000.0001)     Wall clock time:   296.20815348625183
(PID.TID 0000.0001)          No. starts:        7200
(PID.TID 0000.0001)           No. stops:        7200
(PID.TID 0000.0001)   Seconds in section "FORWARD_STEP        [MAIN_DO_LOOP]":
(PID.TID 0000.0001)           User time:   295.16000000000776
(PID.TID 0000.0001)         System time:  0.32000000000000034
(PID.TID 0000.0001)     Wall clock time:   296.07758235931396
(PID.TID 0000.0001)          No. starts:        7200
(PID.TID 0000.0001)           No. stops:        7200
(PID.TID 0000.0001)   Seconds in section "LOAD_FIELDS_DRIVER  [FORWARD_STEP]":
(PID.TID 0000.0001)           User time:  0.12000000000000455
(PID.TID 0000.0001)         System time:   0.0000000000000000
(PID.TID 0000.0001)     Wall clock time:  0.19575428962707520
(PID.TID 0000.0001)          No. starts:        7200
(PID.TID 0000.0001)           No. stops:        7200
(PID.TID 0000.0001)   Seconds in section "EXTERNAL_FLDS_LOAD [LOAD_FLDS_DRIVER]":
(PID.TID 0000.0001)           User time:   6.9999999999936335E-002
(PID.TID 0000.0001)         System time:   0.0000000000000000
(PID.TID 0000.0001)     Wall clock time:   6.5406322479248047E-002
(PID.TID 0000.0001)          No. starts:        7200
(PID.TID 0000.0001)           No. stops:        7200
(PID.TID 0000.0001)   Seconds in section "DO_ATMOSPHERIC_PHYS [FORWARD_STEP]":
(PID.TID 0000.0001)           User time:   7.9999999999927240E-002
(PID.TID 0000.0001)         System time:   0.0000000000000000
(PID.TID 0000.0001)     Wall clock time:   6.5335035324096680E-002
(PID.TID 0000.0001)          No. starts:        7200
(PID.TID 0000.0001)           No. stops:        7200
(PID.TID 0000.0001)   Seconds in section "DO_OCEANIC_PHYS     [FORWARD_STEP]":
(PID.TID 0000.0001)           User time:   119.25000000000057
(PID.TID 0000.0001)         System time:   7.0000000000000007E-002
(PID.TID 0000.0001)     Wall clock time:   118.82349848747253
(PID.TID 0000.0001)          No. starts:        7200
(PID.TID 0000.0001)           No. stops:        7200
(PID.TID 0000.0001)   Seconds in section "DYNAMICS            [FORWARD_STEP]":
(PID.TID 0000.0001)           User time:   83.969999999997981
(PID.TID 0000.0001)         System time:   5.0000000000000044E-002
(PID.TID 0000.0001)     Wall clock time:   84.444234132766724
(PID.TID 0000.0001)          No. starts:        7200
(PID.TID 0000.0001)           No. stops:        7200
(PID.TID 0000.0001)   Seconds in section "SOLVE_FOR_PRESSURE  [FORWARD_STEP]":
(PID.TID 0000.0001)           User time:   2.9099999999999113
(PID.TID 0000.0001)         System time:   2.0000000000000018E-002
(PID.TID 0000.0001)     Wall clock time:   3.1267189979553223
(PID.TID 0000.0001)          No. starts:        7200
(PID.TID 0000.0001)           No. stops:        7200
(PID.TID 0000.0001)   Seconds in section "MOM_CORRECTION_STEP [FORWARD_STEP]":
(PID.TID 0000.0001)           User time:   3.0799999999996999
(PID.TID 0000.0001)         System time:   0.0000000000000000
(PID.TID 0000.0001)     Wall clock time:   2.9469177722930908
(PID.TID 0000.0001)          No. starts:        7200
(PID.TID 0000.0001)           No. stops:        7200
(PID.TID 0000.0001)   Seconds in section "INTEGR_CONTINUITY   [FORWARD_STEP]":
(PID.TID 0000.0001)           User time:   1.5299999999998590
(PID.TID 0000.0001)         System time:   2.0000000000000018E-002
(PID.TID 0000.0001)     Wall clock time:   1.4508523941040039
(PID.TID 0000.0001)          No. starts:        7200
(PID.TID 0000.0001)           No. stops:        7200
(PID.TID 0000.0001)   Seconds in section "BLOCKING_EXCHANGES  [FORWARD_STEP]":
(PID.TID 0000.0001)           User time:   7.3199999999940246
(PID.TID 0000.0001)         System time:   1.0000000000000009E-002
(PID.TID 0000.0001)     Wall clock time:   7.7697398662567139
(PID.TID 0000.0001)          No. starts:       14400
(PID.TID 0000.0001)           No. stops:       14400
(PID.TID 0000.0001)   Seconds in section "THERMODYNAMICS      [FORWARD_STEP]":
(PID.TID 0000.0001)           User time:   75.259999999999593
(PID.TID 0000.0001)         System time:   4.0000000000000036E-002
(PID.TID 0000.0001)     Wall clock time:   75.011704683303833
(PID.TID 0000.0001)          No. starts:        7200
(PID.TID 0000.0001)           No. stops:        7200
(PID.TID 0000.0001)   Seconds in section "TRC_CORRECTION_STEP [FORWARD_STEP]":
(PID.TID 0000.0001)           User time:   1.9999999999981810E-002
(PID.TID 0000.0001)         System time:   0.0000000000000000
(PID.TID 0000.0001)     Wall clock time:   6.5868139266967773E-002
(PID.TID 0000.0001)          No. starts:        7200
(PID.TID 0000.0001)           No. stops:        7200
(PID.TID 0000.0001)   Seconds in section "MONITOR             [FORWARD_STEP]":
(PID.TID 0000.0001)           User time:   7.0000000000050022E-002
(PID.TID 0000.0001)         System time:   0.0000000000000000
(PID.TID 0000.0001)     Wall clock time:  0.11378550529479980
(PID.TID 0000.0001)          No. starts:        7200
(PID.TID 0000.0001)           No. stops:        7200
(PID.TID 0000.0001)   Seconds in section "DO_THE_MODEL_IO     [FORWARD_STEP]":
(PID.TID 0000.0001)           User time:  0.29999999999995453
(PID.TID 0000.0001)         System time:   9.0000000000000080E-002
(PID.TID 0000.0001)     Wall clock time:  0.88945627212524414
(PID.TID 0000.0001)          No. starts:        7200
(PID.TID 0000.0001)           No. stops:        7200
(PID.TID 0000.0001)   Seconds in section "DO_WRITE_PICKUP     [FORWARD_STEP]":
(PID.TID 0000.0001)           User time:  0.11000000000001364
(PID.TID 0000.0001)         System time:   2.0000000000000018E-002
(PID.TID 0000.0001)     Wall clock time:  0.18082118034362793
(PID.TID 0000.0001)          No. starts:        7200
(PID.TID 0000.0001)           No. stops:        7200
(PID.TID 0000.0001) // ======================================================
(PID.TID 0000.0001) // Tile <-> Tile communication statistics
(PID.TID 0000.0001) // ======================================================
(PID.TID 0000.0001) // o Tile number: 000001
(PID.TID 0000.0001) //         No. X exchanges =              0
(PID.TID 0000.0001) //            Max. X spins =              0
(PID.TID 0000.0001) //            Min. X spins =     1000000000
(PID.TID 0000.0001) //          Total. X spins =              0
(PID.TID 0000.0001) //            Avg. X spins =       0.00E+00
(PID.TID 0000.0001) //         No. Y exchanges =              0
(PID.TID 0000.0001) //            Max. Y spins =              0
(PID.TID 0000.0001) //            Min. Y spins =     1000000000
(PID.TID 0000.0001) //          Total. Y spins =              0
(PID.TID 0000.0001) //            Avg. Y spins =       0.00E+00
(PID.TID 0000.0001) // o Thread number: 000001
(PID.TID 0000.0001) //            No. barriers =        1680942
(PID.TID 0000.0001) //      Max. barrier spins =              1
(PID.TID 0000.0001) //      Min. barrier spins =              1
(PID.TID 0000.0001) //     Total barrier spins =        1680942
(PID.TID 0000.0001) //      Avg. barrier spins =       1.00E+00
PROGRAM MAIN: Execution ended Normally
