(PID.TID 0000.0001) 
(PID.TID 0000.0001) // ======================================================
(PID.TID 0000.0001) //                      MITgcm UV
(PID.TID 0000.0001) //                      =========
(PID.TID 0000.0001) // ======================================================
(PID.TID 0000.0001) // execution environment starting up...
(PID.TID 0000.0001) 
(PID.TID 0000.0001) // MITgcmUV version:  checkpoint65d
(PID.TID 0000.0001) // Build user:        hugke729
(PID.TID 0000.0001) // Build host:        hugke729
(PID.TID 0000.0001) // Build date:        Mon Apr 10 14:21:54 PDT 2017
(PID.TID 0000.0001) 
(PID.TID 0000.0001) // =======================================================
(PID.TID 0000.0001) // Execution Environment parameter file "eedata"
(PID.TID 0000.0001) // =======================================================
(PID.TID 0000.0001) ># Example "eedata" file
(PID.TID 0000.0001) ># Lines beginning "#" are comments
(PID.TID 0000.0001) ># nTx - No. threads per process in X
(PID.TID 0000.0001) ># nTy - No. threads per process in Y
(PID.TID 0000.0001) > &EEPARMS
(PID.TID 0000.0001) > /
(PID.TID 0000.0001) ># Note: Some systems use & as the
(PID.TID 0000.0001) ># namelist terminator. Other systems
(PID.TID 0000.0001) ># use a / character (as shown here).
(PID.TID 0000.0001) 
(PID.TID 0000.0001) // =======================================================
(PID.TID 0000.0001) // Computational Grid Specification ( see files "SIZE.h" )
(PID.TID 0000.0001) //                                  ( and "eedata"       )
(PID.TID 0000.0001) // =======================================================
(PID.TID 0000.0001)      nPx =    1 ; /* No. processes in X */
(PID.TID 0000.0001)      nPy =    1 ; /* No. processes in Y */
(PID.TID 0000.0001)      nSx =    1 ; /* No. tiles in X per process */
(PID.TID 0000.0001)      nSy =    1 ; /* No. tiles in Y per process */
(PID.TID 0000.0001)      sNx =  200 ; /* Tile size in X */
(PID.TID 0000.0001)      sNy =    1 ; /* Tile size in Y */
(PID.TID 0000.0001)      OLx =    2 ; /* Tile overlap distance in X */
(PID.TID 0000.0001)      OLy =    2 ; /* Tile overlap distance in Y */
(PID.TID 0000.0001)      nTx =    1 ; /* No. threads in X per process */
(PID.TID 0000.0001)      nTy =    1 ; /* No. threads in Y per process */
(PID.TID 0000.0001)       Nr =  100 ; /* No. levels in the vertical   */
(PID.TID 0000.0001)       Nx =  200 ; /* Total domain size in X ( = nPx*nSx*sNx ) */
(PID.TID 0000.0001)       Ny =    1 ; /* Total domain size in Y ( = nPy*nSy*sNy ) */
(PID.TID 0000.0001)   nTiles =    1 ; /* Total no. tiles per process ( = nSx*nSy ) */
(PID.TID 0000.0001)   nProcs =    1 ; /* Total no. processes ( = nPx*nPy ) */
(PID.TID 0000.0001) nThreads =    1 ; /* Total no. threads per process ( = nTx*nTy ) */
(PID.TID 0000.0001) usingMPI =    F ; /* Flag used to control whether MPI is in use */
(PID.TID 0000.0001)                   /*  note: To execute a program with MPI calls */
(PID.TID 0000.0001)                   /*  it must be launched appropriately e.g     */
(PID.TID 0000.0001)                   /*  "mpirun -np 64 ......"                    */
(PID.TID 0000.0001) useCoupler=    F ;/* Flag used to control communications with   */
(PID.TID 0000.0001)                   /*  other model components, through a coupler */
(PID.TID 0000.0001) debugMode =    F ; /* print debug msg. (sequence of S/R calls)  */
(PID.TID 0000.0001) printMapIncludesZeros=    F ; /* print zeros in Std.Output maps */
(PID.TID 0000.0001) maxLengthPrt1D=   65 /* maxLength of 1D array printed to StdOut */
(PID.TID 0000.0001) 
(PID.TID 0000.0001) // ======================================================
(PID.TID 0000.0001) // Mapping of tiles to threads
(PID.TID 0000.0001) // ======================================================
(PID.TID 0000.0001) // -o- Thread   1, tiles (   1:   1,   1:   1)
(PID.TID 0000.0001) 
(PID.TID 0000.0001) // ======================================================
(PID.TID 0000.0001) // Tile <-> Tile connectvity table
(PID.TID 0000.0001) // ======================================================
(PID.TID 0000.0001) // Tile number: 000001 (process no. = 000000)
(PID.TID 0000.0001) //        WEST: Tile = 000001, Process = 000000, Comm = put
(PID.TID 0000.0001) //                bi = 000001, bj = 000001
(PID.TID 0000.0001) //        EAST: Tile = 000001, Process = 000000, Comm = put
(PID.TID 0000.0001) //                bi = 000001, bj = 000001
(PID.TID 0000.0001) //       SOUTH: Tile = 000001, Process = 000000, Comm = put
(PID.TID 0000.0001) //                bi = 000001, bj = 000001
(PID.TID 0000.0001) //       NORTH: Tile = 000001, Process = 000000, Comm = put
(PID.TID 0000.0001) //                bi = 000001, bj = 000001
(PID.TID 0000.0001) 
(PID.TID 0000.0001)  INI_PARMS: opening model parameter file "data"
(PID.TID 0000.0001)  OPEN_COPY_DATA_FILE: opening file data
(PID.TID 0000.0001) // =======================================================
(PID.TID 0000.0001) // Parameter file "data"
(PID.TID 0000.0001) // =======================================================
(PID.TID 0000.0001) ># ====================
(PID.TID 0000.0001) ># | Model parameters |
(PID.TID 0000.0001) ># ====================
(PID.TID 0000.0001) >#
(PID.TID 0000.0001) ># See src/ini_parms.F for possible parameters.
(PID.TID 0000.0001) >#
(PID.TID 0000.0001) ># Continuous equation parameters
(PID.TID 0000.0001) > &PARM01
(PID.TID 0000.0001) > tRefFile='Tref.bin'
(PID.TID 0000.0001) > sRef= 25*35.,
(PID.TID 0000.0001) > viscAz=1.E-5,
(PID.TID 0000.0001) > viscAh=1.E-4,
(PID.TID 0000.0001) > no_slip_sides=.FALSE.,
(PID.TID 0000.0001) > no_slip_bottom=.FALSE.,
(PID.TID 0000.0001) > viscA4=0.E12,
(PID.TID 0000.0001) > diffKhT=1.E-4,
(PID.TID 0000.0001) > diffKzT=1.E-5,
(PID.TID 0000.0001) > diffKhS=1.E3,
(PID.TID 0000.0001) > diffKzS=1.E-5,
(PID.TID 0000.0001) > f0=0.E-4,
(PID.TID 0000.0001) > beta=0.0E-11,
(PID.TID 0000.0001) > tAlpha=2.E-4,
(PID.TID 0000.0001) > sBeta =0.E-4,
(PID.TID 0000.0001) > gravity=9.81,
(PID.TID 0000.0001) > gBaro=9.81,
(PID.TID 0000.0001) > rigidLid=.FALSE.,
(PID.TID 0000.0001) > implicitFreeSurface=.TRUE.,
(PID.TID 0000.0001) > eosType='LINEAR',
(PID.TID 0000.0001) > nonHydrostatic=.FALSE.,
(PID.TID 0000.0001) > readBinaryPrec=64,
(PID.TID 0000.0001) > useSingleCpuIO=.TRUE.
(PID.TID 0000.0001) > writeBinaryPrec=64,
(PID.TID 0000.0001) > writeStatePrec=64,
(PID.TID 0000.0001) > saltStepping=.FALSE.,
(PID.TID 0000.0001) ># minimum cell fraction.  This reduces steppiness..
(PID.TID 0000.0001) >  hFacMin=0.1,
(PID.TID 0000.0001) >  exactConserv=.FALSE.,
(PID.TID 0000.0001) >  implicitDiffusion=.TRUE.
(PID.TID 0000.0001) >  implicitViscosity=.TRUE.
(PID.TID 0000.0001) ># Superbee on:
(PID.TID 0000.0001) > tempAdvScheme=77,
(PID.TID 0000.0001) > staggerTimeStep=.TRUE.,
(PID.TID 0000.0001) >/
(PID.TID 0000.0001) >
(PID.TID 0000.0001) ># Elliptic solver parameters
(PID.TID 0000.0001) > &PARM02
(PID.TID 0000.0001) > cg2dMaxIters=1000,
(PID.TID 0000.0001) > cg2dTargetResidual=1.E-13,
(PID.TID 0000.0001) > cg3dMaxIters=400,
(PID.TID 0000.0001) > cg3dTargetResidual=1.E-13,
(PID.TID 0000.0001) >/
(PID.TID 0000.0001) >
(PID.TID 0000.0001) ># Time stepping parameters
(PID.TID 0000.0001) > &PARM03
(PID.TID 0000.0001) > niter0=0,
(PID.TID 0000.0001) ># times are in s
(PID.TID 0000.0001) > startTime=0,
(PID.TID 0000.0001) > endTime=108000,
(PID.TID 0000.0001) > deltaT=15,
(PID.TID 0000.0001) > abEps=0.1,
(PID.TID 0000.0001) ># once per tide checkpoint...
(PID.TID 0000.0001) > pChkptFreq=21600,
(PID.TID 0000.0001) > chkptFreq=0.0,
(PID.TID 0000.0001) > dumpFreq=7200,
(PID.TID 0000.0001) > monitorFreq=7200,
(PID.TID 0000.0001) ># Forcing for boundary condition files
(PID.TID 0000.0001) > periodicExternalForcing=.FALSE.,
(PID.TID 0000.0001) >/
(PID.TID 0000.0001) >
(PID.TID 0000.0001) ># Gridding parameters
(PID.TID 0000.0001) > &PARM04
(PID.TID 0000.0001) > usingCartesianGrid=.TRUE.,
(PID.TID 0000.0001) > usingSphericalPolarGrid=.FALSE.,
(PID.TID 0000.0001) > delXfile='delXvar.bin',
(PID.TID 0000.0001) > delY=5.e3,
(PID.TID 0000.0001) > delRfile = 'delZvar.bin',
(PID.TID 0000.0001) >/
(PID.TID 0000.0001) >
(PID.TID 0000.0001) ># Input datasets
(PID.TID 0000.0001) > &PARM05
(PID.TID 0000.0001) > bathyFile='topo.bin',
(PID.TID 0000.0001) > hydrogThetaFile='T0.bin',
(PID.TID 0000.0001) > checkIniTemp=.FALSE.,
(PID.TID 0000.0001) > uVelInitFile='U0.bin',
(PID.TID 0000.0001) > /
(PID.TID 0000.0001) 
(PID.TID 0000.0001)  INI_PARMS ; starts to read PARM01
(PID.TID 0000.0001)  INI_PARMS ; read PARM01 : OK
(PID.TID 0000.0001)  INI_PARMS ; starts to read PARM02
(PID.TID 0000.0001)  INI_PARMS ; read PARM02 : OK
(PID.TID 0000.0001)  INI_PARMS ; starts to read PARM03
(PID.TID 0000.0001)  INI_PARMS ; read PARM03 : OK
(PID.TID 0000.0001)  INI_PARMS ; starts to read PARM04
(PID.TID 0000.0001)  INI_PARMS ; read PARM04 : OK
(PID.TID 0000.0001)  INI_PARMS ; starts to read PARM05
(PID.TID 0000.0001)  INI_PARMS ; read PARM05 : OK
(PID.TID 0000.0001)  INI_PARMS: finished reading file "data"
(PID.TID 0000.0001)  PACKAGES_BOOT: opening data.pkg
(PID.TID 0000.0001)  OPEN_COPY_DATA_FILE: opening file data.pkg
(PID.TID 0000.0001) // =======================================================
(PID.TID 0000.0001) // Parameter file "data.pkg"
(PID.TID 0000.0001) // =======================================================
(PID.TID 0000.0001) ># Packages
(PID.TID 0000.0001) > &PACKAGES
(PID.TID 0000.0001) > useOBCS=.TRUE.,
(PID.TID 0000.0001) > useKL10=.TRUE.,
(PID.TID 0000.0001) > useDIAGNOSTICS=.FALSE.,
(PID.TID 0000.0001) > useMNC=.FALSE.,
(PID.TID 0000.0001) > /
(PID.TID 0000.0001) 
(PID.TID 0000.0001)  PACKAGES_BOOT: finished reading data.pkg
(PID.TID 0000.0001)  PACKAGES_BOOT: On/Off package Summary
 --------  pkgs with a standard "usePKG" On/Off switch in "data.pkg":  --------
 pkg/obcs                 compiled   and   used ( useOBCS                  = T )
 pkg/kl10                 compiled   and   used ( useKL10                  = T )
 -------- pkgs without standard "usePKG" On/Off switch in "data.pkg":  --------
 pkg/generic_advdiff      compiled   and   used ( useGAD                   = T )
 pkg/mom_common           compiled   and   used ( momStepping              = T )
 pkg/mom_vecinv           compiled but not used ( +vectorInvariantMomentum = F )
 pkg/mom_fluxform         compiled   and   used ( & not vectorInvariantMom = T )
 pkg/monitor              compiled   and   used ( monitorFreq > 0.         = T )
 pkg/debug                compiled but not used ( debugMode                = F )
 pkg/rw                   compiled   and   used
 pkg/mdsio                compiled   and   used
(PID.TID 0000.0001)  PACKAGES_BOOT: End of package Summary
(PID.TID 0000.0001) 
(PID.TID 0000.0001)  OBCS_READPARMS: opening data.obcs
(PID.TID 0000.0001)  OPEN_COPY_DATA_FILE: opening file data.obcs
(PID.TID 0000.0001) // =======================================================
(PID.TID 0000.0001) // Parameter file "data.obcs"
(PID.TID 0000.0001) // =======================================================
(PID.TID 0000.0001) ># Open-boundaries
(PID.TID 0000.0001) > &OBCS_PARM01
(PID.TID 0000.0001) > OB_Iwest=1*1,
(PID.TID 0000.0001) > OB_Ieast=1*-1,
(PID.TID 0000.0001) > OB_Jnorth=100*0,
(PID.TID 0000.0001) > OB_Jsouth=100*0,
(PID.TID 0000.0001) > useOBCSsponge=.TRUE.,
(PID.TID 0000.0001) > OBEuFile='U_in.bin',
(PID.TID 0000.0001) > OBWuFile='U_in.bin',
(PID.TID 0000.0001) > OBEtFile='TE.bin',
(PID.TID 0000.0001) > OBWtFile='TW.bin',
(PID.TID 0000.0001) > useOBCSprescribe=.TRUE.,
(PID.TID 0000.0001) > /
(PID.TID 0000.0001) >
(PID.TID 0000.0001) ># Orlanski parameters
(PID.TID 0000.0001) > &OBCS_PARM02
(PID.TID 0000.0001) >/
(PID.TID 0000.0001) >
(PID.TID 0000.0001) ># Sponge layer parameters
(PID.TID 0000.0001) > &OBCS_PARM03
(PID.TID 0000.0001) > Urelaxobcsinner=1000.,
(PID.TID 0000.0001) > Urelaxobcsbound=100.,
(PID.TID 0000.0001) > Vrelaxobcsinner=1000.0,
(PID.TID 0000.0001) > Vrelaxobcsbound=100.0,
(PID.TID 0000.0001) > spongeThickness=10,
(PID.TID 0000.0001) > /
(PID.TID 0000.0001) 
(PID.TID 0000.0001)  OBCS_READPARMS: finished reading data.obcs
(PID.TID 0000.0001)  OB_indexUnset = /* unset OB index value (i.e. no OB) */
(PID.TID 0000.0001)                       0
(PID.TID 0000.0001)     ;
(PID.TID 0000.0001)  Northern OB global indices : OB_Jnorth =
(PID.TID 0000.0001)   200 @        0                            /* I =  1:200 */
(PID.TID 0000.0001)  Southern OB global indices : OB_Jsouth =
(PID.TID 0000.0001)   200 @        0                            /* I =  1:200 */
(PID.TID 0000.0001)  Eastern  OB global indices : OB_Ieast =
(PID.TID 0000.0001)                     200                     /* J =  1 */
(PID.TID 0000.0001)  Western  OB global indices : OB_Iwest =
(PID.TID 0000.0001)                       1                     /* J =  1 */
(PID.TID 0000.0001) 
(PID.TID 0000.0001)  KL10_READPARMS: opening data.kl10
(PID.TID 0000.0001)  OPEN_COPY_DATA_FILE: opening file data.kl10
(PID.TID 0000.0001) // =======================================================
(PID.TID 0000.0001) // Parameter file "data.kl10"
(PID.TID 0000.0001) // =======================================================
(PID.TID 0000.0001) ># =====================================================================
(PID.TID 0000.0001) ># | Parameters for Klymak and Legg (2010) vertical mixing scheme      |
(PID.TID 0000.0001) ># =====================================================================
(PID.TID 0000.0001) > &KL10_PARM01
(PID.TID 0000.0001) > KLwriteState=.TRUE.,
(PID.TID 0000.0001) >/
(PID.TID 0000.0001) 
(PID.TID 0000.0001)  KL10_READPARMS: finished reading data.kl10
(PID.TID 0000.0001) SET_PARMS: done
(PID.TID 0000.0001)  MDS_READVEC_LOC: open file: delXvar.bin
(PID.TID 0000.0001) S/R LOAD_GRID_SPACING: delX loaded from file: delXvar.bin
(PID.TID 0000.0001)  MDS_READVEC_LOC: open file: delZvar.bin
(PID.TID 0000.0001) S/R LOAD_GRID_SPACING: delR loaded from file: delZvar.bin
(PID.TID 0000.0001) Enter INI_VERTICAL_GRID: setInterFDr=    T ; setCenterDr=    F
(PID.TID 0000.0001) %MON XC_max                       =   9.9471849328752E+04
(PID.TID 0000.0001) %MON XC_min                       =   6.3164731900833E+02
(PID.TID 0000.0001) %MON XC_mean                      =   5.2906107272275E+04
(PID.TID 0000.0001) %MON XC_sd                        =   2.2139310392762E+04
(PID.TID 0000.0001) %MON XG_max                       =   9.8943698657505E+04
(PID.TID 0000.0001) %MON XG_min                       =   0.0000000000000E+00
(PID.TID 0000.0001) %MON XG_mean                      =   5.2656107272275E+04
(PID.TID 0000.0001) %MON XG_sd                        =   2.2172561685063E+04
(PID.TID 0000.0001) %MON DXC_max                      =   1.2503953509116E+03
(PID.TID 0000.0001) %MON DXC_min                      =   2.0000000000000E+02
(PID.TID 0000.0001) %MON DXC_mean                     =   5.0000000000000E+02
(PID.TID 0000.0001) %MON DXC_sd                       =   2.8531736750525E+02
(PID.TID 0000.0001) %MON DXF_max                      =   1.2632946380167E+03
(PID.TID 0000.0001) %MON DXF_min                      =   2.0000000000000E+02
(PID.TID 0000.0001) %MON DXF_mean                     =   5.0000000000000E+02
(PID.TID 0000.0001) %MON DXF_sd                       =   2.8547066202794E+02
(PID.TID 0000.0001) %MON DXG_max                      =   1.2632946380167E+03
(PID.TID 0000.0001) %MON DXG_min                      =   2.0000000000000E+02
(PID.TID 0000.0001) %MON DXG_mean                     =   5.0000000000000E+02
(PID.TID 0000.0001) %MON DXG_sd                       =   2.8547066202794E+02
(PID.TID 0000.0001) %MON DXV_max                      =   1.2503953509116E+03
(PID.TID 0000.0001) %MON DXV_min                      =   2.0000000000000E+02
(PID.TID 0000.0001) %MON DXV_mean                     =   5.0000000000000E+02
(PID.TID 0000.0001) %MON DXV_sd                       =   2.8531736750525E+02
(PID.TID 0000.0001) %MON YC_max                       =   2.5000000000000E+03
(PID.TID 0000.0001) %MON YC_min                       =   2.5000000000000E+03
(PID.TID 0000.0001) %MON YC_mean                      =   2.5000000000000E+03
(PID.TID 0000.0001) %MON YC_sd                        =   0.0000000000000E+00
(PID.TID 0000.0001) %MON YG_max                       =   0.0000000000000E+00
(PID.TID 0000.0001) %MON YG_min                       =   0.0000000000000E+00
(PID.TID 0000.0001) %MON YG_mean                      =   0.0000000000000E+00
(PID.TID 0000.0001) %MON YG_sd                        =   0.0000000000000E+00
(PID.TID 0000.0001) %MON DYC_max                      =   5.0000000000000E+03
(PID.TID 0000.0001) %MON DYC_min                      =   5.0000000000000E+03
(PID.TID 0000.0001) %MON DYC_mean                     =   5.0000000000000E+03
(PID.TID 0000.0001) %MON DYC_sd                       =   0.0000000000000E+00
(PID.TID 0000.0001) %MON DYF_max                      =   5.0000000000000E+03
(PID.TID 0000.0001) %MON DYF_min                      =   5.0000000000000E+03
(PID.TID 0000.0001) %MON DYF_mean                     =   5.0000000000000E+03
(PID.TID 0000.0001) %MON DYF_sd                       =   0.0000000000000E+00
(PID.TID 0000.0001) %MON DYG_max                      =   5.0000000000000E+03
(PID.TID 0000.0001) %MON DYG_min                      =   5.0000000000000E+03
(PID.TID 0000.0001) %MON DYG_mean                     =   5.0000000000000E+03
(PID.TID 0000.0001) %MON DYG_sd                       =   0.0000000000000E+00
(PID.TID 0000.0001) %MON DYU_max                      =   5.0000000000000E+03
(PID.TID 0000.0001) %MON DYU_min                      =   5.0000000000000E+03
(PID.TID 0000.0001) %MON DYU_mean                     =   5.0000000000000E+03
(PID.TID 0000.0001) %MON DYU_sd                       =   0.0000000000000E+00
(PID.TID 0000.0001) %MON RA_max                       =   6.3164731900833E+06
(PID.TID 0000.0001) %MON RA_min                       =   1.0000000000000E+06
(PID.TID 0000.0001) %MON RA_mean                      =   2.5000000000000E+06
(PID.TID 0000.0001) %MON RA_sd                        =   1.4273533101397E+06
(PID.TID 0000.0001) %MON RAW_max                      =   6.2519767545581E+06
(PID.TID 0000.0001) %MON RAW_min                      =   1.0000000000000E+06
(PID.TID 0000.0001) %MON RAW_mean                     =   2.5000000000000E+06
(PID.TID 0000.0001) %MON RAW_sd                       =   1.4265868375263E+06
(PID.TID 0000.0001) %MON RAS_max                      =   6.3164731900833E+06
(PID.TID 0000.0001) %MON RAS_min                      =   1.0000000000000E+06
(PID.TID 0000.0001) %MON RAS_mean                     =   2.5000000000000E+06
(PID.TID 0000.0001) %MON RAS_sd                       =   1.4273533101397E+06
(PID.TID 0000.0001) %MON RAZ_max                      =   6.2519767545581E+06
(PID.TID 0000.0001) %MON RAZ_min                      =   1.0000000000000E+06
(PID.TID 0000.0001) %MON RAZ_mean                     =   2.5000000000000E+06
(PID.TID 0000.0001) %MON RAZ_sd                       =   1.4265868375263E+06
(PID.TID 0000.0001) %MON AngleCS_max                  =   1.0000000000000E+00
(PID.TID 0000.0001) %MON AngleCS_min                  =   1.0000000000000E+00
(PID.TID 0000.0001) %MON AngleCS_mean                 =   1.0000000000000E+00
(PID.TID 0000.0001) %MON AngleCS_sd                   =   0.0000000000000E+00
(PID.TID 0000.0001) %MON AngleSN_max                  =   0.0000000000000E+00
(PID.TID 0000.0001) %MON AngleSN_min                  =   0.0000000000000E+00
(PID.TID 0000.0001) %MON AngleSN_mean                 =   0.0000000000000E+00
(PID.TID 0000.0001) %MON AngleSN_sd                   =   0.0000000000000E+00
(PID.TID 0000.0001)  MDS_READVEC_LOC: open file: Tref.bin
(PID.TID 0000.0001) S/R LOAD_REF_FILES: tRef loaded from file: Tref.bin
(PID.TID 0000.0001)  MDS_READ_FIELD: opening global file: topo.bin
(PID.TID 0000.0001) // =======================================================
(PID.TID 0000.0001) // Field Model R_low (ini_masks_etc)
(PID.TID 0000.0001) // CMIN =         -2.000000000000000E+02
(PID.TID 0000.0001) // CMAX =         -1.600499687630168E+02
(PID.TID 0000.0001) // CINT =          1.479630786554934E+00
(PID.TID 0000.0001) // SYMBOLS (CMIN->CMAX): -abcdefghijklmnopqrstuvwxyz+
(PID.TID 0000.0001) //                  0.0: .
(PID.TID 0000.0001) // RANGE I (Lo:Hi:Step):(    -1:   202:     1)
(PID.TID 0000.0001) // RANGE J (Lo:Hi:Step):(     3:    -1:    -1)
(PID.TID 0000.0001) // RANGE K (Lo:Hi:Step):(   1:   1:   1)
(PID.TID 0000.0001) // =======================================================
(PID.TID 0000.0001) K =   1
(PID.TID 0000.0001) //                I=8       I=18      I=28      I=38      I=48      I=58      I=68      I=78      I=88      I=98      I=108     I=118     I=128     I=138     I=148     I=158     I=168     I=178     I=188     I=198
(PID.TID 0000.0001) // |--J--|101234567|901234567|901234567|901234567|901234567|901234567|901234567|901234567|901234567|901234567|901234567|901234567|901234567|901234567|901234567|901234567|901234567|901234567|901234567|901234567|9012
(PID.TID 0000.0001) //      3 --------------------------------------------------------------------------aaaabbccdefghiklnpqstvwxyz++++zyxwvtsqpnlkihgfedccbbaaaa--------------------------------------------------------------------------
(PID.TID 0000.0001) //      2 --------------------------------------------------------------------------aaaabbccdefghiklnpqstvwxyz++++zyxwvtsqpnlkihgfedccbbaaaa--------------------------------------------------------------------------
(PID.TID 0000.0001) //      1 --------------------------------------------------------------------------aaaabbccdefghiklnpqstvwxyz++++zyxwvtsqpnlkihgfedccbbaaaa--------------------------------------------------------------------------
(PID.TID 0000.0001) //      0 --------------------------------------------------------------------------aaaabbccdefghiklnpqstvwxyz++++zyxwvtsqpnlkihgfedccbbaaaa--------------------------------------------------------------------------
(PID.TID 0000.0001) //     -1 --------------------------------------------------------------------------aaaabbccdefghiklnpqstvwxyz++++zyxwvtsqpnlkihgfedccbbaaaa--------------------------------------------------------------------------
(PID.TID 0000.0001) // =======================================================
(PID.TID 0000.0001) // END OF FIELD                                          =
(PID.TID 0000.0001) // =======================================================
(PID.TID 0000.0001) 
(PID.TID 0000.0001) // =======================================================
(PID.TID 0000.0001) // Field Model Ro_surf (ini_masks_etc)
(PID.TID 0000.0001) // CMIN =         -2.553512956637860E-14
(PID.TID 0000.0001) // CMAX =          8.815170815523743E-14
(PID.TID 0000.0001) // CINT =          4.210623619319112E-15
(PID.TID 0000.0001) // SYMBOLS (CMIN->CMAX): -abcdefghijklmnopqrstuvwxyz+
(PID.TID 0000.0001) //                  0.0: .
(PID.TID 0000.0001) // RANGE I (Lo:Hi:Step):(    -1:   202:     1)
(PID.TID 0000.0001) // RANGE J (Lo:Hi:Step):(     3:    -1:    -1)
(PID.TID 0000.0001) // RANGE K (Lo:Hi:Step):(   1:   1:   1)
(PID.TID 0000.0001) // =======================================================
(PID.TID 0000.0001) K =   1
(PID.TID 0000.0001) //                I=8       I=18      I=28      I=38      I=48      I=58      I=68      I=78      I=88      I=98      I=108     I=118     I=128     I=138     I=148     I=158     I=168     I=178     I=188     I=198
(PID.TID 0000.0001) // |--J--|101234567|901234567|901234567|901234567|901234567|901234567|901234567|901234567|901234567|901234567|901234567|901234567|901234567|901234567|901234567|901234567|901234567|901234567|901234567|901234567|9012
(PID.TID 0000.0001) //      3 nnnnnnnnnnnnnnnnnntntnttnntnnntntntntnntttnnntntntttnnnttttttnntntnnnnnntnntttt+t+tttgtnnn--------gggggggg--------nnntgttt+t+ttttnntnnnnnntntnnttttttnnntttntntnnntttnntntntntnnntnnttntntnnnnnnnnnnnnnnnnnn
(PID.TID 0000.0001) //      2 nnnnnnnnnnnnnnnnnntntnttnntnnntntntntnntttnnntntntttnnnttttttnntntnnnnnntnntttt+t+tttgtnnn--------gggggggg--------nnntgttt+t+ttttnntnnnnnntntnnttttttnnntttntntnnntttnntntntntnnntnnttntntnnnnnnnnnnnnnnnnnn
(PID.TID 0000.0001) //      1 nnnnnnnnnnnnnnnnnntntnttnntnnntntntntnntttnnntntntttnnnttttttnntntnnnnnntnntttt+t+tttgtnnn--------gggggggg--------nnntgttt+t+ttttnntnnnnnntntnnttttttnnntttntntnnntttnntntntntnnntnnttntntnnnnnnnnnnnnnnnnnn
(PID.TID 0000.0001) //      0 nnnnnnnnnnnnnnnnnntntnttnntnnntntntntnntttnnntntntttnnnttttttnntntnnnnnntnntttt+t+tttgtnnn--------gggggggg--------nnntgttt+t+ttttnntnnnnnntntnnttttttnnntttntntnnntttnntntntntnnntnnttntntnnnnnnnnnnnnnnnnnn
(PID.TID 0000.0001) //     -1 nnnnnnnnnnnnnnnnnntntnttnntnnntntntntnntttnnntntntttnnnttttttnntntnnnnnntnntttt+t+tttgtnnn--------gggggggg--------nnntgttt+t+ttttnntnnnnnntntnnttttttnnntttntntnnntttnntntntntnnntnnttntntnnnnnnnnnnnnnnnnnn
(PID.TID 0000.0001) // =======================================================
(PID.TID 0000.0001) // END OF FIELD                                          =
(PID.TID 0000.0001) // =======================================================
(PID.TID 0000.0001) 
(PID.TID 0000.0001) // =======================================================
(PID.TID 0000.0001) // Field hFacC at iteration          0
(PID.TID 0000.0001) // CMIN =          1.000000000000000E+00
(PID.TID 0000.0001) // CMAX =          1.000000000000000E+00
(PID.TID 0000.0001) // CINT =          0.000000000000000E+00
(PID.TID 0000.0001) // SYMBOLS (CMIN->CMAX): -abcdefghijklmnopqrstuvwxyz+
(PID.TID 0000.0001) //                  0.0: .
(PID.TID 0000.0001) // RANGE I (Lo:Hi:Step):(    -1:   202:     1)
(PID.TID 0000.0001) // RANGE J (Lo:Hi:Step):(     3:    -1:    -1)
(PID.TID 0000.0001) // RANGE K (Lo:Hi:Step):(   1:   1:   1)
(PID.TID 0000.0001) // =======================================================
(PID.TID 0000.0001) // =======================================================
(PID.TID 0000.0001) // END OF FIELD                                          =
(PID.TID 0000.0001) // =======================================================
(PID.TID 0000.0001) 
(PID.TID 0000.0001) // =======================================================
(PID.TID 0000.0001) // Field hFacW at iteration          0
(PID.TID 0000.0001) // CMIN =          1.000000000000000E+00
(PID.TID 0000.0001) // CMAX =          1.000000000000000E+00
(PID.TID 0000.0001) // CINT =          0.000000000000000E+00
(PID.TID 0000.0001) // SYMBOLS (CMIN->CMAX): -abcdefghijklmnopqrstuvwxyz+
(PID.TID 0000.0001) //                  0.0: .
(PID.TID 0000.0001) // RANGE I (Lo:Hi:Step):(    -1:   202:     1)
(PID.TID 0000.0001) // RANGE J (Lo:Hi:Step):(     3:    -1:    -1)
(PID.TID 0000.0001) // RANGE K (Lo:Hi:Step):(   1:   1:   1)
(PID.TID 0000.0001) // =======================================================
(PID.TID 0000.0001) // =======================================================
(PID.TID 0000.0001) // END OF FIELD                                          =
(PID.TID 0000.0001) // =======================================================
(PID.TID 0000.0001) 
(PID.TID 0000.0001) // =======================================================
(PID.TID 0000.0001) // Field hFacS at iteration          0
(PID.TID 0000.0001) // CMIN =          1.000000000000000E+00
(PID.TID 0000.0001) // CMAX =          1.000000000000000E+00
(PID.TID 0000.0001) // CINT =          0.000000000000000E+00
(PID.TID 0000.0001) // SYMBOLS (CMIN->CMAX): -abcdefghijklmnopqrstuvwxyz+
(PID.TID 0000.0001) //                  0.0: .
(PID.TID 0000.0001) // RANGE I (Lo:Hi:Step):(    -1:   202:     1)
(PID.TID 0000.0001) // RANGE J (Lo:Hi:Step):(     3:    -1:    -1)
(PID.TID 0000.0001) // RANGE K (Lo:Hi:Step):(   1:   1:   1)
(PID.TID 0000.0001) // =======================================================
(PID.TID 0000.0001) // =======================================================
(PID.TID 0000.0001) // END OF FIELD                                          =
(PID.TID 0000.0001) // =======================================================
(PID.TID 0000.0001) 
(PID.TID 0000.0001) GAD_INIT_FIXED: GAD_OlMinSize=  2  0  1
(PID.TID 0000.0001) 
(PID.TID 0000.0001) // ===================================
(PID.TID 0000.0001) // GAD parameters :
(PID.TID 0000.0001) // ===================================
(PID.TID 0000.0001) tempAdvScheme =   /* Temp. Horiz.Advection scheme selector */
(PID.TID 0000.0001)                      77
(PID.TID 0000.0001)     ;
(PID.TID 0000.0001) tempVertAdvScheme =   /* Temp. Vert. Advection scheme selector */
(PID.TID 0000.0001)                      77
(PID.TID 0000.0001)     ;
(PID.TID 0000.0001) tempMultiDimAdvec =   /* use Muti-Dim Advec method for Temp */
(PID.TID 0000.0001)                   T
(PID.TID 0000.0001)     ;
(PID.TID 0000.0001) tempSOM_Advection = /* use 2nd Order Moment Advection for Temp */
(PID.TID 0000.0001)                   F
(PID.TID 0000.0001)     ;
(PID.TID 0000.0001) AdamsBashforthGt = /* apply Adams-Bashforth extrapolation on Gt */
(PID.TID 0000.0001)                   F
(PID.TID 0000.0001)     ;
(PID.TID 0000.0001) AdamsBashforth_T = /* apply Adams-Bashforth extrapolation on Temp */
(PID.TID 0000.0001)                   F
(PID.TID 0000.0001)     ;
(PID.TID 0000.0001) saltAdvScheme =   /* Salt. Horiz.advection scheme selector */
(PID.TID 0000.0001)                       2
(PID.TID 0000.0001)     ;
(PID.TID 0000.0001) saltVertAdvScheme =   /* Salt. Vert. Advection scheme selector */
(PID.TID 0000.0001)                       2
(PID.TID 0000.0001)     ;
(PID.TID 0000.0001) saltMultiDimAdvec =   /* use Muti-Dim Advec method for Salt */
(PID.TID 0000.0001)                   F
(PID.TID 0000.0001)     ;
(PID.TID 0000.0001) saltSOM_Advection = /* use 2nd Order Moment Advection for Salt */
(PID.TID 0000.0001)                   F
(PID.TID 0000.0001)     ;
(PID.TID 0000.0001) AdamsBashforthGs = /* apply Adams-Bashforth extrapolation on Gs */
(PID.TID 0000.0001)                   F
(PID.TID 0000.0001)     ;
(PID.TID 0000.0001) AdamsBashforth_S = /* apply Adams-Bashforth extrapolation on Salt */
(PID.TID 0000.0001)                   F
(PID.TID 0000.0001)     ;
(PID.TID 0000.0001) // ===================================
(PID.TID 0000.0001) %MON fCori_max                    =   0.0000000000000E+00
(PID.TID 0000.0001) %MON fCori_min                    =   0.0000000000000E+00
(PID.TID 0000.0001) %MON fCori_mean                   =   0.0000000000000E+00
(PID.TID 0000.0001) %MON fCori_sd                     =   0.0000000000000E+00
(PID.TID 0000.0001) %MON fCoriG_max                   =   0.0000000000000E+00
(PID.TID 0000.0001) %MON fCoriG_min                   =   0.0000000000000E+00
(PID.TID 0000.0001) %MON fCoriG_mean                  =   0.0000000000000E+00
(PID.TID 0000.0001) %MON fCoriG_sd                    =   0.0000000000000E+00
(PID.TID 0000.0001) %MON fCoriCos_max                 =   0.0000000000000E+00
(PID.TID 0000.0001) %MON fCoriCos_min                 =   0.0000000000000E+00
(PID.TID 0000.0001) %MON fCoriCos_mean                =   0.0000000000000E+00
(PID.TID 0000.0001) %MON fCoriCos_sd                  =   0.0000000000000E+00
(PID.TID 0000.0001) INI_CG2D: CG2D normalisation factor =  2.0891347990989202E-04
(PID.TID 0000.0001) 
(PID.TID 0000.0001) // =======================================================
(PID.TID 0000.0001) // Model configuration
(PID.TID 0000.0001) // =======================================================
(PID.TID 0000.0001) //
(PID.TID 0000.0001) // "Physical" paramters ( PARM01 in namelist )
(PID.TID 0000.0001) //
(PID.TID 0000.0001) buoyancyRelation = /* Type of relation to get Buoyancy */
(PID.TID 0000.0001)               'OCEANIC'
(PID.TID 0000.0001)     ;
(PID.TID 0000.0001) fluidIsAir   =  /* fluid major constituent is Air */
(PID.TID 0000.0001)                   F
(PID.TID 0000.0001)     ;
(PID.TID 0000.0001) fluidIsWater =  /* fluid major constituent is Water */
(PID.TID 0000.0001)                   T
(PID.TID 0000.0001)     ;
(PID.TID 0000.0001) usingPCoords =  /* use p (or p*) vertical coordinate */
(PID.TID 0000.0001)                   F
(PID.TID 0000.0001)     ;
(PID.TID 0000.0001) usingZCoords =  /* use z (or z*) vertical coordinate */
(PID.TID 0000.0001)                   T
(PID.TID 0000.0001)     ;
(PID.TID 0000.0001) tRef =   /* Reference temperature profile ( oC or K ) */
(PID.TID 0000.0001)    86 @  1.500000000000000E+01,             /* K =  1: 86 */
(PID.TID 0000.0001)                 1.499933084687693E+01,      /* K = 87 */
(PID.TID 0000.0001)                 1.497717153877677E+01,      /* K = 88 */
(PID.TID 0000.0001)                 1.470721590167325E+01,      /* K = 89 */
(PID.TID 0000.0001)                 1.349735867339025E+01,      /* K = 90 */
(PID.TID 0000.0001)                 1.150264132660976E+01,      /* K = 91 */
(PID.TID 0000.0001)                 1.029278409832675E+01,      /* K = 92 */
(PID.TID 0000.0001)                 1.002282846122323E+01,      /* K = 93 */
(PID.TID 0000.0001)                 1.000066915312308E+01,      /* K = 94 */
(PID.TID 0000.0001)     6 @  1.000000000000000E+01              /* K = 95:100 */
(PID.TID 0000.0001)     ;
(PID.TID 0000.0001) sRef =   /* Reference salinity profile ( psu ) */
(PID.TID 0000.0001)   100 @  3.500000000000000E+01              /* K =  1:100 */
(PID.TID 0000.0001)     ;
(PID.TID 0000.0001) useStrainTensionVisc= /* Use StrainTension Form of Viscous Operator */
(PID.TID 0000.0001)                   F
(PID.TID 0000.0001)     ;
(PID.TID 0000.0001) useVariableVisc = /* Use variable horizontal viscosity */
(PID.TID 0000.0001)                   F
(PID.TID 0000.0001)     ;
(PID.TID 0000.0001) useHarmonicVisc = /* Use harmonic horizontal viscosity */
(PID.TID 0000.0001)                   T
(PID.TID 0000.0001)     ;
(PID.TID 0000.0001) useBiharmonicVisc= /* Use biharmonic horiz.  viscosity */
(PID.TID 0000.0001)                   F
(PID.TID 0000.0001)     ;
(PID.TID 0000.0001) useSmag3D = /* Use isotropic 3-D Smagorinsky viscosity */
(PID.TID 0000.0001)                   F
(PID.TID 0000.0001)     ;
(PID.TID 0000.0001) viscAh  =   /* Lateral harmonic viscosity ( m^2/s ) */
(PID.TID 0000.0001)                 1.000000000000000E-04
(PID.TID 0000.0001)     ;
(PID.TID 0000.0001) viscA4  =   /* Lateral biharmonic viscosity ( m^4/s ) */
(PID.TID 0000.0001)                 0.000000000000000E+00
(PID.TID 0000.0001)     ;
(PID.TID 0000.0001) no_slip_sides =  /* Viscous BCs: No-slip sides */
(PID.TID 0000.0001)                   F
(PID.TID 0000.0001)     ;
(PID.TID 0000.0001) sideDragFactor = /* side-drag scaling factor (non-dim) */
(PID.TID 0000.0001)                 2.000000000000000E+00
(PID.TID 0000.0001)     ;
(PID.TID 0000.0001) viscArNr = /* vertical profile of vertical viscosity ( m^2/s )*/
(PID.TID 0000.0001)   100 @  1.000000000000000E-05              /* K =  1:100 */
(PID.TID 0000.0001)     ;
(PID.TID 0000.0001) no_slip_bottom =  /* Viscous BCs: No-slip bottom */
(PID.TID 0000.0001)                   F
(PID.TID 0000.0001)     ;
(PID.TID 0000.0001) bottomDragLinear = /* linear bottom-drag coefficient ( m/s ) */
(PID.TID 0000.0001)                 0.000000000000000E+00
(PID.TID 0000.0001)     ;
(PID.TID 0000.0001) bottomDragQuadratic = /* quadratic bottom-drag coefficient (-) */
(PID.TID 0000.0001)                 0.000000000000000E+00
(PID.TID 0000.0001)     ;
(PID.TID 0000.0001) diffKhT =   /* Laplacian diffusion of heat laterally ( m^2/s ) */
(PID.TID 0000.0001)                 1.000000000000000E-04
(PID.TID 0000.0001)     ;
(PID.TID 0000.0001) diffK4T =   /* Biharmonic diffusion of heat laterally ( m^4/s ) */
(PID.TID 0000.0001)                 0.000000000000000E+00
(PID.TID 0000.0001)     ;
(PID.TID 0000.0001) diffKhS =   /* Laplacian diffusion of salt laterally ( m^2/s ) */
(PID.TID 0000.0001)                 1.000000000000000E+03
(PID.TID 0000.0001)     ;
(PID.TID 0000.0001) diffK4S =   /* Biharmonic diffusion of salt laterally ( m^4/s ) */
(PID.TID 0000.0001)                 0.000000000000000E+00
(PID.TID 0000.0001)     ;
(PID.TID 0000.0001) diffKrNrT = /* vertical profile of vertical diffusion of Temp ( m^2/s )*/
(PID.TID 0000.0001)   100 @  1.000000000000000E-05              /* K =  1:100 */
(PID.TID 0000.0001)     ;
(PID.TID 0000.0001) diffKrNrS = /* vertical profile of vertical diffusion of Salt ( m^2/s )*/
(PID.TID 0000.0001)   100 @  1.000000000000000E-05              /* K =  1:100 */
(PID.TID 0000.0001)     ;
(PID.TID 0000.0001) diffKrBL79surf = /* Surface diffusion for Bryan and Lewis 79 ( m^2/s ) */
(PID.TID 0000.0001)                 0.000000000000000E+00
(PID.TID 0000.0001)     ;
(PID.TID 0000.0001) diffKrBL79deep = /* Deep diffusion for Bryan and Lewis 1979 ( m^2/s ) */
(PID.TID 0000.0001)                 0.000000000000000E+00
(PID.TID 0000.0001)     ;
(PID.TID 0000.0001) diffKrBL79scl = /* Depth scale for Bryan and Lewis 1979 ( m ) */
(PID.TID 0000.0001)                 2.000000000000000E+02
(PID.TID 0000.0001)     ;
(PID.TID 0000.0001) diffKrBL79Ho = /* Turning depth for Bryan and Lewis 1979 ( m ) */
(PID.TID 0000.0001)                -2.000000000000000E+03
(PID.TID 0000.0001)     ;
(PID.TID 0000.0001) ivdc_kappa = /* Implicit Vertical Diffusivity for Convection ( m^2/s) */
(PID.TID 0000.0001)                 0.000000000000000E+00
(PID.TID 0000.0001)     ;
(PID.TID 0000.0001) hMixCriteria=  /* Criteria for mixed-layer diagnostic */
(PID.TID 0000.0001)                -8.000000000000000E-01
(PID.TID 0000.0001)     ;
(PID.TID 0000.0001) dRhoSmall =  /* Parameter for mixed-layer diagnostic */
(PID.TID 0000.0001)                 1.000000000000000E-06
(PID.TID 0000.0001)     ;
(PID.TID 0000.0001) hMixSmooth=  /* Smoothing parameter for mixed-layer diagnostic */
(PID.TID 0000.0001)                 0.000000000000000E+00
(PID.TID 0000.0001)     ;
(PID.TID 0000.0001) eosType =  /* Type of Equation of State */
(PID.TID 0000.0001)               'LINEAR'
(PID.TID 0000.0001)     ;
(PID.TID 0000.0001) tAlpha = /* Linear EOS thermal expansion coefficient ( 1/oC ) */
(PID.TID 0000.0001)                 2.000000000000000E-04
(PID.TID 0000.0001)     ;
(PID.TID 0000.0001) sBeta  = /* Linear EOS haline contraction coefficient ( 1/psu ) */
(PID.TID 0000.0001)                 0.000000000000000E+00
(PID.TID 0000.0001)     ;
(PID.TID 0000.0001) rhoNil    = /* Reference density for Linear EOS ( kg/m^3 ) */
(PID.TID 0000.0001)                 9.998000000000000E+02
(PID.TID 0000.0001)     ;
(PID.TID 0000.0001) HeatCapacity_Cp =  /* Specific heat capacity ( J/kg/K ) */
(PID.TID 0000.0001)                 3.994000000000000E+03
(PID.TID 0000.0001)     ;
(PID.TID 0000.0001) celsius2K = /* 0 degree Celsius converted to Kelvin ( K ) */
(PID.TID 0000.0001)                 2.731500000000000E+02
(PID.TID 0000.0001)     ;
(PID.TID 0000.0001) rhoConst  = /* Reference density (Boussinesq)  ( kg/m^3 ) */
(PID.TID 0000.0001)                 9.998000000000000E+02
(PID.TID 0000.0001)     ;
(PID.TID 0000.0001) rhoFacC = /* normalized Reference density @ cell-Center (-) */
(PID.TID 0000.0001)   100 @  1.000000000000000E+00              /* K =  1:100 */
(PID.TID 0000.0001)     ;
(PID.TID 0000.0001) rhoFacF = /* normalized Reference density @ W-Interface (-) */
(PID.TID 0000.0001)   101 @  1.000000000000000E+00              /* K =  1:101 */
(PID.TID 0000.0001)     ;
(PID.TID 0000.0001) rhoConstFresh = /* Fresh-water reference density ( kg/m^3 ) */
(PID.TID 0000.0001)                 9.998000000000000E+02
(PID.TID 0000.0001)     ;
(PID.TID 0000.0001) gravity =   /* Gravitational acceleration ( m/s^2 ) */
(PID.TID 0000.0001)                 9.810000000000000E+00
(PID.TID 0000.0001)     ;
(PID.TID 0000.0001) gBaro =   /* Barotropic gravity ( m/s^2 ) */
(PID.TID 0000.0001)                 9.810000000000000E+00
(PID.TID 0000.0001)     ;
(PID.TID 0000.0001) rotationPeriod =   /* Rotation Period ( s ) */
(PID.TID 0000.0001)                 8.616400000000000E+04
(PID.TID 0000.0001)     ;
(PID.TID 0000.0001) omega =   /* Angular velocity ( rad/s ) */
(PID.TID 0000.0001)                 7.292123516990375E-05
(PID.TID 0000.0001)     ;
(PID.TID 0000.0001) f0 =   /* Reference coriolis parameter ( 1/s ) */
(PID.TID 0000.0001)                 0.000000000000000E+00
(PID.TID 0000.0001)     ;
(PID.TID 0000.0001) beta =   /* Beta ( 1/(m.s) ) */
(PID.TID 0000.0001)                 0.000000000000000E+00
(PID.TID 0000.0001)     ;
(PID.TID 0000.0001) fPrime =   /* Second coriolis parameter ( 1/s ) */
(PID.TID 0000.0001)                 0.000000000000000E+00
(PID.TID 0000.0001)     ;
(PID.TID 0000.0001) rigidLid =   /* Rigid lid on/off flag */
(PID.TID 0000.0001)                   F
(PID.TID 0000.0001)     ;
(PID.TID 0000.0001) implicitFreeSurface =   /* Implicit free surface on/off flag */
(PID.TID 0000.0001)                   T
(PID.TID 0000.0001)     ;
(PID.TID 0000.0001) freeSurfFac =   /* Implicit free surface factor */
(PID.TID 0000.0001)                 1.000000000000000E+00
(PID.TID 0000.0001)     ;
(PID.TID 0000.0001) implicSurfPress =  /* Surface Pressure implicit factor (0-1)*/
(PID.TID 0000.0001)                 1.000000000000000E+00
(PID.TID 0000.0001)     ;
(PID.TID 0000.0001) implicDiv2Dflow =  /* Barot. Flow Div. implicit factor (0-1)*/
(PID.TID 0000.0001)                 1.000000000000000E+00
(PID.TID 0000.0001)     ;
(PID.TID 0000.0001) uniformLin_PhiSurf = /* use uniform Bo_surf on/off flag*/
(PID.TID 0000.0001)                   T
(PID.TID 0000.0001)     ;
(PID.TID 0000.0001) uniformFreeSurfLev = /* free-surface level-index is uniform */
(PID.TID 0000.0001)                   T
(PID.TID 0000.0001)     ;
(PID.TID 0000.0001) hFacMin =   /* minimum partial cell factor (hFac) */
(PID.TID 0000.0001)                 1.000000000000000E-01
(PID.TID 0000.0001)     ;
(PID.TID 0000.0001) hFacMinDr = /* minimum partial cell thickness ( m) */
(PID.TID 0000.0001)                 0.000000000000000E+00
(PID.TID 0000.0001)     ;
(PID.TID 0000.0001) exactConserv =  /* Exact Volume Conservation on/off flag*/
(PID.TID 0000.0001)                   F
(PID.TID 0000.0001)     ;
(PID.TID 0000.0001) linFSConserveTr = /* Tracer correction for Lin Free Surface on/off flag*/
(PID.TID 0000.0001)                   F
(PID.TID 0000.0001)     ;
(PID.TID 0000.0001) nonlinFreeSurf = /* Non-linear Free Surf. options (-1,0,1,2,3)*/
(PID.TID 0000.0001)                       0
(PID.TID 0000.0001)      -1,0= Off ; 1,2,3= On, 2=+rescale gU,gV, 3=+update cg2d solv.
(PID.TID 0000.0001)     ;
(PID.TID 0000.0001) hFacInf =   /* lower threshold for hFac (nonlinFreeSurf only)*/
(PID.TID 0000.0001)                 2.000000000000000E-01
(PID.TID 0000.0001)     ;
(PID.TID 0000.0001) hFacSup =   /* upper threshold for hFac (nonlinFreeSurf only)*/
(PID.TID 0000.0001)                 2.000000000000000E+00
(PID.TID 0000.0001)     ;
(PID.TID 0000.0001) select_rStar = /* r* Vertical coord. options (=0 r coord.; >0 uses r*)*/
(PID.TID 0000.0001)                       0
(PID.TID 0000.0001)     ;
(PID.TID 0000.0001) useRealFreshWaterFlux = /* Real Fresh Water Flux on/off flag*/
(PID.TID 0000.0001)                   F
(PID.TID 0000.0001)     ;
(PID.TID 0000.0001) temp_EvPrRn = /* Temp. of Evap/Prec/R (UNSET=use local T)(oC)*/
(PID.TID 0000.0001)                 1.234567000000000E+05
(PID.TID 0000.0001)     ;
(PID.TID 0000.0001) salt_EvPrRn = /* Salin. of Evap/Prec/R (UNSET=use local S)(psu)*/
(PID.TID 0000.0001)                 0.000000000000000E+00
(PID.TID 0000.0001)     ;
(PID.TID 0000.0001) selectAddFluid = /* option for mass source/sink of fluid (=0: off) */
(PID.TID 0000.0001)                       0
(PID.TID 0000.0001)     ;
(PID.TID 0000.0001) temp_addMass = /* Temp. of addMass array (UNSET=use local T)(oC)*/
(PID.TID 0000.0001)                 1.234567000000000E+05
(PID.TID 0000.0001)     ;
(PID.TID 0000.0001) salt_addMass = /* Salin. of addMass array (UNSET=use local S)(psu)*/
(PID.TID 0000.0001)                 0.000000000000000E+00
(PID.TID 0000.0001)     ;
(PID.TID 0000.0001) convertFW2Salt = /* convert F.W. Flux to Salt Flux (-1=use local S)(psu)*/
(PID.TID 0000.0001)                 3.500000000000000E+01
(PID.TID 0000.0001)     ;
(PID.TID 0000.0001) use3Dsolver = /* use 3-D pressure solver on/off flag */
(PID.TID 0000.0001)                   F
(PID.TID 0000.0001)     ;
(PID.TID 0000.0001) nonHydrostatic =  /* Non-Hydrostatic on/off flag */
(PID.TID 0000.0001)                   F
(PID.TID 0000.0001)     ;
(PID.TID 0000.0001) nh_Am2 = /* Non-Hydrostatic terms scaling factor */
(PID.TID 0000.0001)                 1.000000000000000E+00
(PID.TID 0000.0001)     ;
(PID.TID 0000.0001) implicitNHPress = /* Non-Hyd Pressure implicit factor (0-1)*/
(PID.TID 0000.0001)                 1.000000000000000E+00
(PID.TID 0000.0001)     ;
(PID.TID 0000.0001) selectNHfreeSurf = /* Non-Hyd (free-)Surface option */
(PID.TID 0000.0001)                       0
(PID.TID 0000.0001)     ;
(PID.TID 0000.0001) quasiHydrostatic = /* Quasi-Hydrostatic on/off flag */
(PID.TID 0000.0001)                   F
(PID.TID 0000.0001)     ;
(PID.TID 0000.0001) calc_wVelocity = /* vertical velocity calculation on/off flag */
(PID.TID 0000.0001)                   T
(PID.TID 0000.0001)     ;
(PID.TID 0000.0001) momStepping =  /* Momentum equation on/off flag */
(PID.TID 0000.0001)                   T
(PID.TID 0000.0001)     ;
(PID.TID 0000.0001) vectorInvariantMomentum= /* Vector-Invariant Momentum on/off */
(PID.TID 0000.0001)                   F
(PID.TID 0000.0001)     ;
(PID.TID 0000.0001) momAdvection =  /* Momentum advection on/off flag */
(PID.TID 0000.0001)                   T
(PID.TID 0000.0001)     ;
(PID.TID 0000.0001) momViscosity =  /* Momentum viscosity on/off flag */
(PID.TID 0000.0001)                   T
(PID.TID 0000.0001)     ;
(PID.TID 0000.0001) momImplVertAdv= /* Momentum implicit vert. advection on/off*/
(PID.TID 0000.0001)                   F
(PID.TID 0000.0001)     ;
(PID.TID 0000.0001) implicitViscosity = /* Implicit viscosity on/off flag */
(PID.TID 0000.0001)                   T
(PID.TID 0000.0001)     ;
(PID.TID 0000.0001) metricTerms =  /* metric-Terms on/off flag */
(PID.TID 0000.0001)                   F
(PID.TID 0000.0001)     ;
(PID.TID 0000.0001) useNHMTerms = /* Non-Hydrostatic Metric-Terms on/off */
(PID.TID 0000.0001)                   F
(PID.TID 0000.0001)     ;
(PID.TID 0000.0001) selectCoriMap = /* Coriolis Map options (0,1,2,3)*/
(PID.TID 0000.0001)                       1
(PID.TID 0000.0001)     0= f-Plane ; 1= Beta-Plane ; 2= Spherical ; 3= read from file
(PID.TID 0000.0001)     ;
(PID.TID 0000.0001) use3dCoriolis = /* 3-D Coriolis on/off flag */
(PID.TID 0000.0001)                   F
(PID.TID 0000.0001)     ;
(PID.TID 0000.0001) useCoriolis =  /* Coriolis on/off flag */
(PID.TID 0000.0001)                   T
(PID.TID 0000.0001)     ;
(PID.TID 0000.0001) useCDscheme =  /* CD scheme on/off flag */
(PID.TID 0000.0001)                   F
(PID.TID 0000.0001)     ;
(PID.TID 0000.0001) useEnergyConservingCoriolis= /* Flx-Form Coriolis scheme flag */
(PID.TID 0000.0001)                   F
(PID.TID 0000.0001)     ;
(PID.TID 0000.0001) useJamartWetPoints= /* Coriolis WetPoints method flag */
(PID.TID 0000.0001)                   F
(PID.TID 0000.0001)     ;
(PID.TID 0000.0001) useJamartMomAdv= /* V.I Non-linear terms Jamart flag */
(PID.TID 0000.0001)                   F
(PID.TID 0000.0001)     ;
(PID.TID 0000.0001) useAbsVorticity= /* V.I Works with f+zeta in Coriolis */
(PID.TID 0000.0001)                   F
(PID.TID 0000.0001)     ;
(PID.TID 0000.0001) selectVortScheme= /* V.I Scheme selector for Vorticity-Term */
(PID.TID 0000.0001)               123456789
(PID.TID 0000.0001)    = 0 : enstrophy (Shallow-Water Eq.) conserving scheme by Sadourny, JAS 75
(PID.TID 0000.0001)    = 1 : same as 0 with modified hFac
(PID.TID 0000.0001)    = 2 : energy conserving scheme (used by Sadourny in JAS 75 paper)
(PID.TID 0000.0001)    = 3 : energy (general) and enstrophy (2D, nonDiv.) conserving scheme
(PID.TID 0000.0001)          from Sadourny (Burridge & Haseler, ECMWF Rep.4, 1977)
(PID.TID 0000.0001)     ;
(PID.TID 0000.0001) upwindVorticity= /* V.I Upwind bias vorticity flag */
(PID.TID 0000.0001)                   F
(PID.TID 0000.0001)     ;
(PID.TID 0000.0001) highOrderVorticity= /* V.I High order vort. advect. flag */
(PID.TID 0000.0001)                   F
(PID.TID 0000.0001)     ;
(PID.TID 0000.0001) upwindShear= /* V.I Upwind vertical Shear advection flag */
(PID.TID 0000.0001)                   F
(PID.TID 0000.0001)     ;
(PID.TID 0000.0001) selectKEscheme= /* V.I Kinetic Energy scheme selector */
(PID.TID 0000.0001)                       0
(PID.TID 0000.0001)     ;
(PID.TID 0000.0001) momForcing =  /* Momentum forcing on/off flag */
(PID.TID 0000.0001)                   T
(PID.TID 0000.0001)     ;
(PID.TID 0000.0001) momPressureForcing =  /* Momentum pressure term on/off flag */
(PID.TID 0000.0001)                   T
(PID.TID 0000.0001)     ;
(PID.TID 0000.0001) implicitIntGravWave= /* Implicit Internal Gravity Wave flag */
(PID.TID 0000.0001)                   F
(PID.TID 0000.0001)     ;
(PID.TID 0000.0001) staggerTimeStep =    /* Stagger time stepping on/off flag */
(PID.TID 0000.0001)                   T
(PID.TID 0000.0001)     ;
(PID.TID 0000.0001) doResetHFactors = /* reset thickness factors @ each time-step */
(PID.TID 0000.0001)                   F
(PID.TID 0000.0001)     ;
(PID.TID 0000.0001) multiDimAdvection =  /* enable/disable Multi-Dim Advection */
(PID.TID 0000.0001)                   T
(PID.TID 0000.0001)     ;
(PID.TID 0000.0001) useMultiDimAdvec =   /* Multi-Dim Advection is/is-not used */
(PID.TID 0000.0001)                   T
(PID.TID 0000.0001)     ;
(PID.TID 0000.0001) implicitDiffusion = /* Implicit Diffusion on/off flag */
(PID.TID 0000.0001)                   T
(PID.TID 0000.0001)     ;
(PID.TID 0000.0001) tempStepping =  /* Temperature equation on/off flag */
(PID.TID 0000.0001)                   T
(PID.TID 0000.0001)     ;
(PID.TID 0000.0001) tempAdvection = /* Temperature advection on/off flag */
(PID.TID 0000.0001)                   T
(PID.TID 0000.0001)     ;
(PID.TID 0000.0001) tempImplVertAdv = /* Temp. implicit vert. advection on/off */
(PID.TID 0000.0001)                   F
(PID.TID 0000.0001)     ;
(PID.TID 0000.0001) tempForcing  =  /* Temperature forcing on/off flag */
(PID.TID 0000.0001)                   T
(PID.TID 0000.0001)     ;
(PID.TID 0000.0001) doThetaClimRelax = /* apply SST relaxation on/off flag */
(PID.TID 0000.0001)                   F
(PID.TID 0000.0001)     ;
(PID.TID 0000.0001) tempIsActiveTr = /* Temp. is a dynamically Active Tracer */
(PID.TID 0000.0001)                   T
(PID.TID 0000.0001)     ;
(PID.TID 0000.0001) saltStepping =  /* Salinity equation on/off flag */
(PID.TID 0000.0001)                   F
(PID.TID 0000.0001)     ;
(PID.TID 0000.0001) saltAdvection = /* Salinity advection on/off flag */
(PID.TID 0000.0001)                   F
(PID.TID 0000.0001)     ;
(PID.TID 0000.0001) saltImplVertAdv = /* Sali. implicit vert. advection on/off */
(PID.TID 0000.0001)                   F
(PID.TID 0000.0001)     ;
(PID.TID 0000.0001) saltForcing  =  /* Salinity forcing on/off flag */
(PID.TID 0000.0001)                   F
(PID.TID 0000.0001)     ;
(PID.TID 0000.0001) doSaltClimRelax = /* apply SSS relaxation on/off flag */
(PID.TID 0000.0001)                   F
(PID.TID 0000.0001)     ;
(PID.TID 0000.0001) saltIsActiveTr = /* Salt  is a dynamically Active Tracer */
(PID.TID 0000.0001)                   F
(PID.TID 0000.0001)     ;
(PID.TID 0000.0001)  readBinaryPrec = /* Precision used for reading binary files */
(PID.TID 0000.0001)                      64
(PID.TID 0000.0001)     ;
(PID.TID 0000.0001) writeBinaryPrec = /* Precision used for writing binary files */
(PID.TID 0000.0001)                      64
(PID.TID 0000.0001)     ;
(PID.TID 0000.0001)  globalFiles = /* write "global" (=not per tile) files */
(PID.TID 0000.0001)                   F
(PID.TID 0000.0001)     ;
(PID.TID 0000.0001)  useSingleCpuIO = /* only master MPI process does I/O */
(PID.TID 0000.0001)                   T
(PID.TID 0000.0001)     ;
(PID.TID 0000.0001)  useSingleCpuInput = /* only master process reads input */
(PID.TID 0000.0001)                   T
(PID.TID 0000.0001)     ;
(PID.TID 0000.0001) /* debLev[*]  : level of debug & auxiliary message printing */
(PID.TID 0000.0001) debLevZero =  0 ; /* level of disabled aux. msg printing */
(PID.TID 0000.0001)    debLevA =  1 ; /* level of minimum  aux. msg printing */
(PID.TID 0000.0001)    debLevB =  2 ; /* level of low aux. print (report read-file opening)*/
(PID.TID 0000.0001)    debLevC =  3 ; /* level of moderate debug prt (most pkgs debug msg) */
(PID.TID 0000.0001)    debLevD =  4 ; /* level of enhanced debug prt (add DEBUG_STATS prt) */
(PID.TID 0000.0001)    debLevE =  5 ; /* level of extensive debug printing */
(PID.TID 0000.0001) debugLevel =  /* select debug printing level */
(PID.TID 0000.0001)                       2
(PID.TID 0000.0001)     ;
(PID.TID 0000.0001) //
(PID.TID 0000.0001) // Elliptic solver(s) paramters ( PARM02 in namelist )
(PID.TID 0000.0001) //
(PID.TID 0000.0001) cg2dMaxIters =   /* Upper limit on 2d con. grad iterations  */
(PID.TID 0000.0001)                    1000
(PID.TID 0000.0001)     ;
(PID.TID 0000.0001) cg2dChkResFreq =   /* 2d con. grad convergence test frequency */
(PID.TID 0000.0001)                       1
(PID.TID 0000.0001)     ;
(PID.TID 0000.0001) cg2dUseMinResSol= /* use cg2d last-iter(=0) / min-resid.(=1) solution */
(PID.TID 0000.0001)                       0
(PID.TID 0000.0001)     ;
(PID.TID 0000.0001) cg2dTargetResidual =   /* 2d con. grad target residual  */
(PID.TID 0000.0001)                 1.000000000000000E-13
(PID.TID 0000.0001)     ;
(PID.TID 0000.0001) cg2dTargetResWunit =   /* CG2d target residual [W units] */
(PID.TID 0000.0001)                -1.000000000000000E+00
(PID.TID 0000.0001)     ;
(PID.TID 0000.0001) cg2dPreCondFreq =   /* Freq. for updating cg2d preconditioner */
(PID.TID 0000.0001)                       1
(PID.TID 0000.0001)     ;
(PID.TID 0000.0001) useSRCGSolver =  /* use single reduction CG solver(s) */
(PID.TID 0000.0001)                   F
(PID.TID 0000.0001)     ;
(PID.TID 0000.0001) printResidualFreq = /* Freq. for printing CG residual */
(PID.TID 0000.0001)                       0
(PID.TID 0000.0001)     ;
(PID.TID 0000.0001) //
(PID.TID 0000.0001) // Time stepping paramters ( PARM03 in namelist )
(PID.TID 0000.0001) //
(PID.TID 0000.0001) deltaTMom =   /* Momentum equation timestep ( s ) */
(PID.TID 0000.0001)                 1.500000000000000E+01
(PID.TID 0000.0001)     ;
(PID.TID 0000.0001) deltaTFreeSurf = /* FreeSurface equation timestep ( s ) */
(PID.TID 0000.0001)                 1.500000000000000E+01
(PID.TID 0000.0001)     ;
(PID.TID 0000.0001) dTtracerLev =  /* Tracer equation timestep ( s ) */
(PID.TID 0000.0001)   100 @  1.500000000000000E+01              /* K =  1:100 */
(PID.TID 0000.0001)     ;
(PID.TID 0000.0001) deltaTClock  =   /* Model clock timestep ( s ) */
(PID.TID 0000.0001)                 1.500000000000000E+01
(PID.TID 0000.0001)     ;
(PID.TID 0000.0001) cAdjFreq =   /* Convective adjustment interval ( s ) */
(PID.TID 0000.0001)                 0.000000000000000E+00
(PID.TID 0000.0001)     ;
(PID.TID 0000.0001) momForcingOutAB = /* =1: take Momentum Forcing out of Adams-Bash. stepping */
(PID.TID 0000.0001)                       0
(PID.TID 0000.0001)     ;
(PID.TID 0000.0001) tracForcingOutAB = /* =1: take T,S,pTr Forcing out of Adams-Bash. stepping */
(PID.TID 0000.0001)                       0
(PID.TID 0000.0001)     ;
(PID.TID 0000.0001) momDissip_In_AB = /* put Dissipation Tendency in Adams-Bash. stepping */
(PID.TID 0000.0001)                   T
(PID.TID 0000.0001)     ;
(PID.TID 0000.0001) doAB_onGtGs = /* apply AB on Tendencies (rather than on T,S)*/
(PID.TID 0000.0001)                   T
(PID.TID 0000.0001)     ;
(PID.TID 0000.0001) abEps =   /* Adams-Bashforth-2 stabilizing weight */
(PID.TID 0000.0001)                 1.000000000000000E-01
(PID.TID 0000.0001)     ;
(PID.TID 0000.0001) pickupStrictlyMatch= /* stop if pickup do not strictly match */
(PID.TID 0000.0001)                   T
(PID.TID 0000.0001)     ;
(PID.TID 0000.0001) nIter0   =   /* Run starting timestep number */
(PID.TID 0000.0001)                       0
(PID.TID 0000.0001)     ;
(PID.TID 0000.0001) nTimeSteps = /* Number of timesteps */
(PID.TID 0000.0001)                    7200
(PID.TID 0000.0001)     ;
(PID.TID 0000.0001) nEndIter =   /* Run ending timestep number */
(PID.TID 0000.0001)                    7200
(PID.TID 0000.0001)     ;
(PID.TID 0000.0001) baseTime =   /* Model base time ( s ) */
(PID.TID 0000.0001)                 0.000000000000000E+00
(PID.TID 0000.0001)     ;
(PID.TID 0000.0001) startTime =  /* Run start time ( s ) */
(PID.TID 0000.0001)                 0.000000000000000E+00
(PID.TID 0000.0001)     ;
(PID.TID 0000.0001) endTime  =   /* Integration ending time ( s ) */
(PID.TID 0000.0001)                 1.080000000000000E+05
(PID.TID 0000.0001)     ;
(PID.TID 0000.0001) pChkPtFreq = /* Permanent restart/pickup file interval ( s ) */
(PID.TID 0000.0001)                 2.160000000000000E+04
(PID.TID 0000.0001)     ;
(PID.TID 0000.0001) chkPtFreq  = /* Rolling restart/pickup file interval ( s ) */
(PID.TID 0000.0001)                 0.000000000000000E+00
(PID.TID 0000.0001)     ;
(PID.TID 0000.0001) pickup_write_mdsio =   /* Model IO flag. */
(PID.TID 0000.0001)                   T
(PID.TID 0000.0001)     ;
(PID.TID 0000.0001) pickup_read_mdsio =   /* Model IO flag. */
(PID.TID 0000.0001)                   T
(PID.TID 0000.0001)     ;
(PID.TID 0000.0001) pickup_write_immed =   /* Model IO flag. */
(PID.TID 0000.0001)                   F
(PID.TID 0000.0001)     ;
(PID.TID 0000.0001) writePickupAtEnd =   /* Model IO flag. */
(PID.TID 0000.0001)                   T
(PID.TID 0000.0001)     ;
(PID.TID 0000.0001) dumpFreq =   /* Model state write out interval ( s ). */
(PID.TID 0000.0001)                 7.200000000000000E+03
(PID.TID 0000.0001)     ;
(PID.TID 0000.0001) dumpInitAndLast= /* write out Initial & Last iter. model state */
(PID.TID 0000.0001)                   T
(PID.TID 0000.0001)     ;
(PID.TID 0000.0001) snapshot_mdsio =   /* Model IO flag. */
(PID.TID 0000.0001)                   T
(PID.TID 0000.0001)     ;
(PID.TID 0000.0001) monitorFreq =   /* Monitor output interval ( s ). */
(PID.TID 0000.0001)                 7.200000000000000E+03
(PID.TID 0000.0001)     ;
(PID.TID 0000.0001) monitorSelect = /* select group of variables to monitor */
(PID.TID 0000.0001)                       3
(PID.TID 0000.0001)     ;
(PID.TID 0000.0001) monitor_stdio =   /* Model IO flag. */
(PID.TID 0000.0001)                   T
(PID.TID 0000.0001)     ;
(PID.TID 0000.0001) externForcingPeriod =   /* forcing period (s) */
(PID.TID 0000.0001)                 0.000000000000000E+00
(PID.TID 0000.0001)     ;
(PID.TID 0000.0001) externForcingCycle =   /* period of the cyle (s). */
(PID.TID 0000.0001)                 0.000000000000000E+00
(PID.TID 0000.0001)     ;
(PID.TID 0000.0001) tauThetaClimRelax =   /* relaxation time scale (s) */
(PID.TID 0000.0001)                 0.000000000000000E+00
(PID.TID 0000.0001)     ;
(PID.TID 0000.0001) tauSaltClimRelax =   /* relaxation time scale (s) */
(PID.TID 0000.0001)                 0.000000000000000E+00
(PID.TID 0000.0001)     ;
(PID.TID 0000.0001) latBandClimRelax =   /* max. Lat. where relaxation */
(PID.TID 0000.0001)                 1.500000000000000E+04
(PID.TID 0000.0001)     ;
(PID.TID 0000.0001) //
(PID.TID 0000.0001) // Gridding paramters ( PARM04 in namelist )
(PID.TID 0000.0001) //
(PID.TID 0000.0001) usingCartesianGrid = /* Cartesian coordinates flag ( True/False ) */
(PID.TID 0000.0001)                   T
(PID.TID 0000.0001)     ;
(PID.TID 0000.0001) usingCylindricalGrid = /* Cylindrical coordinates flag ( True/False ) */
(PID.TID 0000.0001)                   F
(PID.TID 0000.0001)     ;
(PID.TID 0000.0001) usingSphericalPolarGrid = /* Spherical coordinates flag ( True/False ) */
(PID.TID 0000.0001)                   F
(PID.TID 0000.0001)     ;
(PID.TID 0000.0001) usingCurvilinearGrid = /* Curvilinear coordinates flag ( True/False ) */
(PID.TID 0000.0001)                   F
(PID.TID 0000.0001)     ;
(PID.TID 0000.0001) selectSigmaCoord = /* Hybrid-Sigma Vert. Coordinate option */
(PID.TID 0000.0001)                       0
(PID.TID 0000.0001)     ;
(PID.TID 0000.0001) Ro_SeaLevel = /* r(1) ( units of r ==  m ) */
(PID.TID 0000.0001)                 0.000000000000000E+00
(PID.TID 0000.0001)     ;
(PID.TID 0000.0001) rSigmaBnd = /* r/sigma transition ( units of r ==  m ) */
(PID.TID 0000.0001)                 1.234567000000000E+05
(PID.TID 0000.0001)     ;
(PID.TID 0000.0001) rkSign =   /* index orientation relative to vertical coordinate */
(PID.TID 0000.0001)                -1.000000000000000E+00
(PID.TID 0000.0001)     ;
(PID.TID 0000.0001) gravitySign = /* gravity orientation relative to vertical coordinate */
(PID.TID 0000.0001)                -1.000000000000000E+00
(PID.TID 0000.0001)     ;
(PID.TID 0000.0001) mass2rUnit = /* convert mass per unit area [kg/m2] to r-units [m] */
(PID.TID 0000.0001)                 1.000200040008002E-03
(PID.TID 0000.0001)     ;
(PID.TID 0000.0001) rUnit2mass = /* convert r-units [m] to mass per unit area [kg/m2] */
(PID.TID 0000.0001)                 9.998000000000000E+02
(PID.TID 0000.0001)     ;
(PID.TID 0000.0001) drC =   /* C spacing ( units of r ) */
(PID.TID 0000.0001)                 8.938271592110918E-01,      /* K =  1 */
(PID.TID 0000.0001)                 1.768619871431060E+00,      /* K =  2 */
(PID.TID 0000.0001)                 1.730956324465319E+00,      /* K =  3 */
(PID.TID 0000.0001)                 1.694094839487546E+00,      /* K =  4 */
(PID.TID 0000.0001)                 1.658018336230896E+00,      /* K =  5 */
(PID.TID 0000.0001)                 1.622710098160403E+00,      /* K =  6 */
(PID.TID 0000.0001)                 1.588153764727151E+00,      /* K =  7 */
(PID.TID 0000.0001)                 1.554333323787391E+00,      /* K =  8 */
(PID.TID 0000.0001)                 1.521233104183099E+00,      /* K =  9 */
(PID.TID 0000.0001)                 1.488837768480531E+00,      /* K = 10 */
(PID.TID 0000.0001)                 1.457132305863421E+00,      /* K = 11 */
(PID.TID 0000.0001)                 1.426102025177510E+00,      /* K = 12 */
(PID.TID 0000.0001)                 1.395732548123206E+00,      /* K = 13 */
(PID.TID 0000.0001)                 1.366009802593203E+00,      /* K = 14 */
(PID.TID 0000.0001)                 1.336920016151980E+00,      /* K = 15 */
(PID.TID 0000.0001)                 1.308449709654159E+00,      /* K = 16 */
(PID.TID 0000.0001)                 1.280585690998757E+00,      /* K = 17 */
(PID.TID 0000.0001)                 1.253315049016451E+00,      /* K = 18 */
(PID.TID 0000.0001)                 1.226625147487014E+00,      /* K = 19 */
(PID.TID 0000.0001)                 1.200503619284147E+00,      /* K = 20 */
(PID.TID 0000.0001)                 1.174938360645011E+00,      /* K = 21 */
(PID.TID 0000.0001)                 1.149917525561778E+00,      /* K = 22 */
(PID.TID 0000.0001)                 1.125429520292630E+00,      /* K = 23 */
(PID.TID 0000.0001)                 1.101462997989634E+00,      /* K = 24 */
(PID.TID 0000.0001)                 1.078006853441037E+00,      /* K = 25 */
(PID.TID 0000.0001)                 1.055050217925506E+00,      /* K = 26 */
(PID.TID 0000.0001)                 1.032582454175967E+00,      /* K = 27 */
(PID.TID 0000.0001)                 1.010593151450680E+00,      /* K = 28 */
(PID.TID 0000.0001)                 9.998584140034217E-01,      /* K = 29 */
(PID.TID 0000.0001)     3 @  1.000000000000000E+00,             /* K = 30: 32 */
(PID.TID 0000.0001)                 1.017434101955024E+00,      /* K = 33 */
(PID.TID 0000.0001)                 1.046126953380043E+00,      /* K = 34 */
(PID.TID 0000.0001)                 1.068889429292269E+00,      /* K = 35 */
(PID.TID 0000.0001)                 1.092147189555960E+00,      /* K = 36 */
(PID.TID 0000.0001)                 1.115911010968409E+00,      /* K = 37 */
(PID.TID 0000.0001)                 1.140191904817177E+00,      /* K = 38 */
(PID.TID 0000.0001)                 1.165001121982321E+00,      /* K = 39 */
(PID.TID 0000.0001)                 1.190350158149641E+00,      /* K = 40 */
(PID.TID 0000.0001)                 1.216250759137361E+00,      /* K = 41 */
(PID.TID 0000.0001)                 1.242714926338713E+00,      /* K = 42 */
(PID.TID 0000.0001)                 1.269754922282945E+00,      /* K = 43 */
(PID.TID 0000.0001)                 1.297383276317330E+00,      /* K = 44 */
(PID.TID 0000.0001)                 1.325612790412805E+00,      /* K = 45 */
(PID.TID 0000.0001)                 1.354456545095941E+00,      /* K = 46 */
(PID.TID 0000.0001)                 1.383927905509979E+00,      /* K = 47 */
(PID.TID 0000.0001)                 1.414040527607753E+00,      /* K = 48 */
(PID.TID 0000.0001)                 1.444808364479354E+00,      /* K = 49 */
(PID.TID 0000.0001)                 1.476245672817491E+00,      /* K = 50 */
(PID.TID 0000.0001)                 1.508367019523514E+00,      /* K = 51 */
(PID.TID 0000.0001)                 1.541187288457190E+00,      /* K = 52 */
(PID.TID 0000.0001)                 1.574721687333338E+00,      /* K = 53 */
(PID.TID 0000.0001)                 1.608985754768529E+00,      /* K = 54 */
(PID.TID 0000.0001)                 1.643995367481116E+00,      /* K = 55 */
(PID.TID 0000.0001)                 1.679766747647922E+00,      /* K = 56 */
(PID.TID 0000.0001)                 1.716316470421008E+00,      /* K = 57 */
(PID.TID 0000.0001)                 1.753661471607993E+00,      /* K = 58 */
(PID.TID 0000.0001)                 1.791819055519489E+00,      /* K = 59 */
(PID.TID 0000.0001)                 1.830806902987283E+00,      /* K = 60 */
(PID.TID 0000.0001)                 1.870643079556998E+00,      /* K = 61 */
(PID.TID 0000.0001)                 1.911346043858999E+00,      /* K = 62 */
(PID.TID 0000.0001)                 1.952934656161451E+00,      /* K = 63 */
(PID.TID 0000.0001)                 1.995428187109485E+00,      /* K = 64 */
(PID.TID 0000.0001)                 2.038846326654500E+00,      /* K = 65 */
(PID.TID 0000.0001)                 2.083209193177779E+00,      /* K = 66 */
(PID.TID 0000.0001)                 2.128537342812607E+00,      /* K = 67 */
(PID.TID 0000.0001)                 2.174851778969233E+00,      /* K = 68 */
(PID.TID 0000.0001)                 2.222173962067085E+00,      /* K = 69 */
(PID.TID 0000.0001)                 2.270525819478747E+00,      /* K = 70 */
(PID.TID 0000.0001)                 2.319929755690298E+00,      /* K = 71 */
(PID.TID 0000.0001)                 2.370408662682739E+00,      /* K = 72 */
(PID.TID 0000.0001)                 2.421985930539297E+00,      /* K = 73 */
(PID.TID 0000.0001)                 2.474685458283539E+00,      /* K = 74 */
(PID.TID 0000.0001)                 2.528531664953306E+00,      /* K = 75 */
(PID.TID 0000.0001)                 2.583549500915603E+00,      /* K = 76 */
(PID.TID 0000.0001)                 2.639764459427689E+00,      /* K = 77 */
(PID.TID 0000.0001)                 2.697202588449726E+00,      /* K = 78 */
(PID.TID 0000.0001)                 2.755890502714446E+00,      /* K = 79 */
(PID.TID 0000.0001)                 2.815855396059451E+00,      /* K = 80 */
(PID.TID 0000.0001)                 2.877125054027847E+00,      /* K = 81 */
(PID.TID 0000.0001)                 2.939727866743044E+00,      /* K = 82 */
(PID.TID 0000.0001)                 3.003692842063710E+00,      /* K = 83 */
(PID.TID 0000.0001)                 3.069049619024951E+00,      /* K = 84 */
(PID.TID 0000.0001)                 3.135828481571954E+00,      /* K = 85 */
(PID.TID 0000.0001)                 3.204060372592473E+00,      /* K = 86 */
(PID.TID 0000.0001)                 3.273776908254621E+00,      /* K = 87 */
(PID.TID 0000.0001)                 3.345010392656657E+00,      /* K = 88 */
(PID.TID 0000.0001)                 3.417793832795525E+00,      /* K = 89 */
(PID.TID 0000.0001)                 3.492160953861089E+00,      /* K = 90 */
(PID.TID 0000.0001)                 3.568146214863155E+00,      /* K = 91 */
(PID.TID 0000.0001)                 3.645784824598524E+00,      /* K = 92 */
(PID.TID 0000.0001)                 3.725112757965455E+00,      /* K = 93 */
(PID.TID 0000.0001)                 3.806166772633128E+00,      /* K = 94 */
(PID.TID 0000.0001)                 3.888984426073803E+00,      /* K = 95 */
(PID.TID 0000.0001)                 3.973604092965577E+00,      /* K = 96 */
(PID.TID 0000.0001)                 4.060064982973822E+00,      /* K = 97 */
(PID.TID 0000.0001)                 4.148407158919499E+00,      /* K = 98 */
(PID.TID 0000.0001)                 4.238671555342814E+00,      /* K = 99 */
(PID.TID 0000.0001)                 4.330899997470790E+00,      /* K =100 */
(PID.TID 0000.0001)                 2.188755257190682E+00       /* K =101 */
(PID.TID 0000.0001)     ;
(PID.TID 0000.0001) drF =   /* W spacing ( units of r ) */
(PID.TID 0000.0001)                 1.787654318422184E+00,      /* K =  1 */
(PID.TID 0000.0001)                 1.749585424439936E+00,      /* K =  2 */
(PID.TID 0000.0001)                 1.712327224490701E+00,      /* K =  3 */
(PID.TID 0000.0001)                 1.675862454484391E+00,      /* K =  4 */
(PID.TID 0000.0001)                 1.640174217977400E+00,      /* K =  5 */
(PID.TID 0000.0001)                 1.605245978343405E+00,      /* K =  6 */
(PID.TID 0000.0001)                 1.571061551110896E+00,      /* K =  7 */
(PID.TID 0000.0001)                 1.537605096463885E+00,      /* K =  8 */
(PID.TID 0000.0001)                 1.504861111902312E+00,      /* K =  9 */
(PID.TID 0000.0001)                 1.472814425058751E+00,      /* K = 10 */
(PID.TID 0000.0001)                 1.441450186668091E+00,      /* K = 11 */
(PID.TID 0000.0001)                 1.410753863686929E+00,      /* K = 12 */
(PID.TID 0000.0001)                 1.380711232559483E+00,      /* K = 13 */
(PID.TID 0000.0001)                 1.351308372626922E+00,      /* K = 14 */
(PID.TID 0000.0001)                 1.322531659677038E+00,      /* K = 15 */
(PID.TID 0000.0001)                 1.294367759631280E+00,      /* K = 16 */
(PID.TID 0000.0001)                 1.266803622366234E+00,      /* K = 17 */
(PID.TID 0000.0001)                 1.239826475666668E+00,      /* K = 18 */
(PID.TID 0000.0001)                 1.213423819307359E+00,      /* K = 19 */
(PID.TID 0000.0001)                 1.187583419260936E+00,      /* K = 20 */
(PID.TID 0000.0001)                 1.162293302029086E+00,      /* K = 21 */
(PID.TID 0000.0001)                 1.137541749094471E+00,      /* K = 22 */
(PID.TID 0000.0001)                 1.113317291490789E+00,      /* K = 23 */
(PID.TID 0000.0001)                 1.089608704488480E+00,      /* K = 24 */
(PID.TID 0000.0001)                 1.066405002393594E+00,      /* K = 25 */
(PID.TID 0000.0001)                 1.043695433457419E+00,      /* K = 26 */
(PID.TID 0000.0001)                 1.021469474894516E+00,      /* K = 27 */
(PID.TID 0000.0001)                 9.997168280068435E-01,      /* K = 28 */
(PID.TID 0000.0001)     4 @  1.000000000000000E+00,             /* K = 29: 32 */
(PID.TID 0000.0001)                 1.034868203910047E+00,      /* K = 33 */
(PID.TID 0000.0001)                 1.057385702850038E+00,      /* K = 34 */
(PID.TID 0000.0001)                 1.080393155734499E+00,      /* K = 35 */
(PID.TID 0000.0001)                 1.103901223377420E+00,      /* K = 36 */
(PID.TID 0000.0001)                 1.127920798559398E+00,      /* K = 37 */
(PID.TID 0000.0001)                 1.152463011074956E+00,      /* K = 38 */
(PID.TID 0000.0001)                 1.177539232889686E+00,      /* K = 39 */
(PID.TID 0000.0001)                 1.203161083409596E+00,      /* K = 40 */
(PID.TID 0000.0001)                 1.229340434865126E+00,      /* K = 41 */
(PID.TID 0000.0001)                 1.256089417812301E+00,      /* K = 42 */
(PID.TID 0000.0001)                 1.283420426753590E+00,      /* K = 43 */
(PID.TID 0000.0001)                 1.311346125881070E+00,      /* K = 44 */
(PID.TID 0000.0001)                 1.339879454944540E+00,      /* K = 45 */
(PID.TID 0000.0001)                 1.369033635247341E+00,      /* K = 46 */
(PID.TID 0000.0001)                 1.398822175772617E+00,      /* K = 47 */
(PID.TID 0000.0001)                 1.429258879442888E+00,      /* K = 48 */
(PID.TID 0000.0001)                 1.460357849515820E+00,      /* K = 49 */
(PID.TID 0000.0001)                 1.492133496119162E+00,      /* K = 50 */
(PID.TID 0000.0001)                 1.524600542927867E+00,      /* K = 51 */
(PID.TID 0000.0001)                 1.557774033986513E+00,      /* K = 52 */
(PID.TID 0000.0001)                 1.591669340680163E+00,      /* K = 53 */
(PID.TID 0000.0001)                 1.626302168856896E+00,      /* K = 54 */
(PID.TID 0000.0001)                 1.661688566105336E+00,      /* K = 55 */
(PID.TID 0000.0001)                 1.697844929190508E+00,      /* K = 56 */
(PID.TID 0000.0001)                 1.734788011651508E+00,      /* K = 57 */
(PID.TID 0000.0001)                 1.772534931564478E+00,      /* K = 58 */
(PID.TID 0000.0001)                 1.811103179474499E+00,      /* K = 59 */
(PID.TID 0000.0001)                 1.850510626500068E+00,      /* K = 60 */
(PID.TID 0000.0001)                 1.890775532613928E+00,      /* K = 61 */
(PID.TID 0000.0001)                 1.931916555104069E+00,      /* K = 62 */
(PID.TID 0000.0001)                 1.973952757218834E+00,      /* K = 63 */
(PID.TID 0000.0001)                 2.016903617000135E+00,      /* K = 64 */
(PID.TID 0000.0001)                 2.060789036308865E+00,      /* K = 65 */
(PID.TID 0000.0001)                 2.105629350046693E+00,      /* K = 66 */
(PID.TID 0000.0001)                 2.151445335578520E+00,      /* K = 67 */
(PID.TID 0000.0001)                 2.198258222359945E+00,      /* K = 68 */
(PID.TID 0000.0001)                 2.246089701774225E+00,      /* K = 69 */
(PID.TID 0000.0001)                 2.294961937183268E+00,      /* K = 70 */
(PID.TID 0000.0001)                 2.344897574197328E+00,      /* K = 71 */
(PID.TID 0000.0001)                 2.395919751168150E+00,      /* K = 72 */
(PID.TID 0000.0001)                 2.448052109910444E+00,      /* K = 73 */
(PID.TID 0000.0001)                 2.501318806656634E+00,      /* K = 74 */
(PID.TID 0000.0001)                 2.555744523249977E+00,      /* K = 75 */
(PID.TID 0000.0001)                 2.611354478581228E+00,      /* K = 76 */
(PID.TID 0000.0001)                 2.668174440274151E+00,      /* K = 77 */
(PID.TID 0000.0001)                 2.726230736625301E+00,      /* K = 78 */
(PID.TID 0000.0001)                 2.785550268803591E+00,      /* K = 79 */
(PID.TID 0000.0001)                 2.846160523315312E+00,      /* K = 80 */
(PID.TID 0000.0001)                 2.908089584740382E+00,      /* K = 81 */
(PID.TID 0000.0001)                 2.971366148745707E+00,      /* K = 82 */
(PID.TID 0000.0001)                 3.036019535381714E+00,      /* K = 83 */
(PID.TID 0000.0001)                 3.102079702668187E+00,      /* K = 84 */
(PID.TID 0000.0001)                 3.169577260475721E+00,      /* K = 85 */
(PID.TID 0000.0001)                 3.238543484709223E+00,      /* K = 86 */
(PID.TID 0000.0001)                 3.309010331800017E+00,      /* K = 87 */
(PID.TID 0000.0001)                 3.381010453513297E+00,      /* K = 88 */
(PID.TID 0000.0001)                 3.454577212077754E+00,      /* K = 89 */
(PID.TID 0000.0001)                 3.529744695644424E+00,      /* K = 90 */
(PID.TID 0000.0001)                 3.606547734081887E+00,      /* K = 91 */
(PID.TID 0000.0001)                 3.685021915115160E+00,      /* K = 92 */
(PID.TID 0000.0001)                 3.765203600815750E+00,      /* K = 93 */
(PID.TID 0000.0001)                 3.847129944450507E+00,      /* K = 94 */
(PID.TID 0000.0001)                 3.930838907697098E+00,      /* K = 95 */
(PID.TID 0000.0001)                 4.016369278234057E+00,      /* K = 96 */
(PID.TID 0000.0001)                 4.103760687713586E+00,      /* K = 97 */
(PID.TID 0000.0001)                 4.193053630125410E+00,      /* K = 98 */
(PID.TID 0000.0001)                 4.284289480560216E+00,      /* K = 99 */
(PID.TID 0000.0001)                 4.377510514381364E+00       /* K =100 */
(PID.TID 0000.0001)     ;
(PID.TID 0000.0001) delX = /* U spacing ( m - cartesian, degrees - spherical ) */
(PID.TID 0000.0001)                 1.263294638016668E+03,      /* I =  1 */
(PID.TID 0000.0001)                 1.237496063806571E+03,      /* I =  2 */
(PID.TID 0000.0001)                 1.212224339320398E+03,      /* I =  3 */
(PID.TID 0000.0001)      . . .
(PID.TID 0000.0001)                 4.790113490274632E+02,      /* I = 48 */
(PID.TID 0000.0001)                 4.692291418815790E+02,      /* I = 49 */
(PID.TID 0000.0001)                 4.596467036489769E+02,      /* I = 50 */
(PID.TID 0000.0001)                 4.502599547167311E+02,      /* I = 51 */
(PID.TID 0000.0001)                 4.410648987843862E+02,      /* I = 52 */
(PID.TID 0000.0001)                 4.320576211625778E+02,      /* I = 53 */
(PID.TID 0000.0001)      . . .
(PID.TID 0000.0001)                 2.000000000000000E+02,      /* I = 98 */
(PID.TID 0000.0001)                 2.000000000000000E+02,      /* I = 99 */
(PID.TID 0000.0001)                 2.000000000000000E+02,      /* I =100 */
(PID.TID 0000.0001)                 2.000000000000000E+02,      /* I =101 */
(PID.TID 0000.0001)                 2.000000000000000E+02,      /* I =102 */
(PID.TID 0000.0001)                 2.000000000000000E+02,      /* I =103 */
(PID.TID 0000.0001)      . . .
(PID.TID 0000.0001)                 3.612641354876311E+02,      /* I =148 */
(PID.TID 0000.0001)                 3.687955530665730E+02,      /* I =149 */
(PID.TID 0000.0001)                 3.764839811128614E+02,      /* I =150 */
(PID.TID 0000.0001)                 3.843326928863569E+02,      /* I =151 */
(PID.TID 0000.0001)                 3.923450298858749E+02,      /* I =152 */
(PID.TID 0000.0001)                 4.005244032717896E+02,      /* I =153 */
(PID.TID 0000.0001)      . . .
(PID.TID 0000.0001)                 1.013599012055986E+03,      /* I =198 */
(PID.TID 0000.0001)                 1.034729915092050E+03,      /* I =199 */
(PID.TID 0000.0001)                 1.056301342495056E+03       /* I =200 */
(PID.TID 0000.0001)     ;
(PID.TID 0000.0001) delY = /* V spacing ( m - cartesian, degrees - spherical ) */
(PID.TID 0000.0001)                 5.000000000000000E+03       /* J =  1 */
(PID.TID 0000.0001)     ;
(PID.TID 0000.0001) xgOrigin = /* X-axis origin of West  edge (cartesian: m, lat-lon: deg) */
(PID.TID 0000.0001)                 0.000000000000000E+00
(PID.TID 0000.0001)     ;
(PID.TID 0000.0001) ygOrigin = /* Y-axis origin of South edge (cartesian: m, lat-lon: deg) */
(PID.TID 0000.0001)                 0.000000000000000E+00
(PID.TID 0000.0001)     ;
(PID.TID 0000.0001) rSphere =  /* Radius ( ignored - cartesian, m - spherical ) */
(PID.TID 0000.0001)                 6.370000000000000E+06
(PID.TID 0000.0001)     ;
(PID.TID 0000.0001) deepAtmosphere = /* Deep/Shallow Atmosphere flag (True/False) */
(PID.TID 0000.0001)                   F
(PID.TID 0000.0001)     ;
(PID.TID 0000.0001) xC =  /* xC(:,1,:,1) : P-point X coord ( deg. or m if cartesian) */
(PID.TID 0000.0001)                 6.316473190083342E+02,      /* I =  1 */
(PID.TID 0000.0001)                 1.882042669919954E+03,      /* I =  2 */
(PID.TID 0000.0001)                 3.106902871483439E+03,      /* I =  3 */
(PID.TID 0000.0001)      . . .
(PID.TID 0000.0001)                 3.864398747251778E+04,      /* I = 48 */
(PID.TID 0000.0001)                 3.911810771797229E+04,      /* I = 49 */
(PID.TID 0000.0001)                 3.958254564073758E+04,      /* I = 50 */
(PID.TID 0000.0001)                 4.003749896992043E+04,      /* I = 51 */
(PID.TID 0000.0001)                 4.048316139667099E+04,      /* I = 52 */
(PID.TID 0000.0001)                 4.091972265664447E+04,      /* I = 53 */
(PID.TID 0000.0001)      . . .
(PID.TID 0000.0001)                 5.369999999999999E+04,      /* I = 98 */
(PID.TID 0000.0001)                 5.389999999999999E+04,      /* I = 99 */
(PID.TID 0000.0001)                 5.409999999999999E+04,      /* I =100 */
(PID.TID 0000.0001)                 5.429999999999999E+04,      /* I =101 */
(PID.TID 0000.0001)                 5.449999999999999E+04,      /* I =102 */
(PID.TID 0000.0001)                 5.469999999999999E+04,      /* I =103 */
(PID.TID 0000.0001)      . . .
(PID.TID 0000.0001)                 6.578505387737689E+04,      /* I =148 */
(PID.TID 0000.0001)                 6.615008372165399E+04,      /* I =149 */
(PID.TID 0000.0001)                 6.652272348874371E+04,      /* I =150 */
(PID.TID 0000.0001)                 6.690313182574332E+04,      /* I =151 */
(PID.TID 0000.0001)                 6.729147068712943E+04,      /* I =152 */
(PID.TID 0000.0001)                 6.768790540370827E+04,      /* I =153 */
(PID.TID 0000.0001)      . . .
(PID.TID 0000.0001)                 9.740216923638493E+04,      /* I =198 */
(PID.TID 0000.0001)                 9.842633369995895E+04,      /* I =199 */
(PID.TID 0000.0001)                 9.947184932875249E+04       /* I =200 */
(PID.TID 0000.0001)     ;
(PID.TID 0000.0001) yC =  /* yC(1,:,1,:) : P-point Y coord ( deg. or m if cartesian) */
(PID.TID 0000.0001)                 2.500000000000000E+03       /* J =  1 */
(PID.TID 0000.0001)     ;
(PID.TID 0000.0001) rcoord = /* P-point R coordinate (  units of r ) */
(PID.TID 0000.0001)                -8.938271592110918E-01,      /* K =  1 */
(PID.TID 0000.0001)                -2.662447030642152E+00,      /* K =  2 */
(PID.TID 0000.0001)                -4.393403355107470E+00,      /* K =  3 */
(PID.TID 0000.0001)                -6.087498194595016E+00,      /* K =  4 */
(PID.TID 0000.0001)                -7.745516530825912E+00,      /* K =  5 */
(PID.TID 0000.0001)                -9.368226628986314E+00,      /* K =  6 */
(PID.TID 0000.0001)                -1.095638039371346E+01,      /* K =  7 */
(PID.TID 0000.0001)                -1.251071371750086E+01,      /* K =  8 */
(PID.TID 0000.0001)                -1.403194682168395E+01,      /* K =  9 */
(PID.TID 0000.0001)                -1.552078459016449E+01,      /* K = 10 */
(PID.TID 0000.0001)                -1.697791689602791E+01,      /* K = 11 */
(PID.TID 0000.0001)                -1.840401892120542E+01,      /* K = 12 */
(PID.TID 0000.0001)                -1.979975146932862E+01,      /* K = 13 */
(PID.TID 0000.0001)                -2.116576127192182E+01,      /* K = 14 */
(PID.TID 0000.0001)                -2.250268128807380E+01,      /* K = 15 */
(PID.TID 0000.0001)                -2.381113099772796E+01,      /* K = 16 */
(PID.TID 0000.0001)                -2.509171668872672E+01,      /* K = 17 */
(PID.TID 0000.0001)                -2.634503173774317E+01,      /* K = 18 */
(PID.TID 0000.0001)                -2.757165688523018E+01,      /* K = 19 */
(PID.TID 0000.0001)                -2.877216050451432E+01,      /* K = 20 */
(PID.TID 0000.0001)                -2.994709886515934E+01,      /* K = 21 */
(PID.TID 0000.0001)                -3.109701639072112E+01,      /* K = 22 */
(PID.TID 0000.0001)                -3.222244591101374E+01,      /* K = 23 */
(PID.TID 0000.0001)                -3.332390890900338E+01,      /* K = 24 */
(PID.TID 0000.0001)                -3.440191576244442E+01,      /* K = 25 */
(PID.TID 0000.0001)                -3.545696598036992E+01,      /* K = 26 */
(PID.TID 0000.0001)                -3.648954843454589E+01,      /* K = 27 */
(PID.TID 0000.0001)                -3.750014158599657E+01,      /* K = 28 */
(PID.TID 0000.0001)                -3.849999999999999E+01,      /* K = 29 */
(PID.TID 0000.0001)                -3.949999999999999E+01,      /* K = 30 */
(PID.TID 0000.0001)                -4.049999999999999E+01,      /* K = 31 */
(PID.TID 0000.0001)                -4.149999999999999E+01,      /* K = 32 */
(PID.TID 0000.0001)                -4.251743410195501E+01,      /* K = 33 */
(PID.TID 0000.0001)                -4.356356105533506E+01,      /* K = 34 */
(PID.TID 0000.0001)                -4.463245048462733E+01,      /* K = 35 */
(PID.TID 0000.0001)                -4.572459767418329E+01,      /* K = 36 */
(PID.TID 0000.0001)                -4.684050868515170E+01,      /* K = 37 */
(PID.TID 0000.0001)                -4.798070058996888E+01,      /* K = 38 */
(PID.TID 0000.0001)                -4.914570171195120E+01,      /* K = 39 */
(PID.TID 0000.0001)                -5.033605187010084E+01,      /* K = 40 */
(PID.TID 0000.0001)                -5.155230262923820E+01,      /* K = 41 */
(PID.TID 0000.0001)                -5.279501755557691E+01,      /* K = 42 */
(PID.TID 0000.0001)                -5.406477247785985E+01,      /* K = 43 */
(PID.TID 0000.0001)                -5.536215575417719E+01,      /* K = 44 */
(PID.TID 0000.0001)                -5.668776854458999E+01,      /* K = 45 */
(PID.TID 0000.0001)                -5.804222508968594E+01,      /* K = 46 */
(PID.TID 0000.0001)                -5.942615299519591E+01,      /* K = 47 */
(PID.TID 0000.0001)                -6.084019352280367E+01,      /* K = 48 */
(PID.TID 0000.0001)                -6.228500188728302E+01,      /* K = 49 */
(PID.TID 0000.0001)                -6.376124756010051E+01,      /* K = 50 */
(PID.TID 0000.0001)                -6.526961457962403E+01,      /* K = 51 */
(PID.TID 0000.0001)                -6.681080186808123E+01,      /* K = 52 */
(PID.TID 0000.0001)                -6.838552355541457E+01,      /* K = 53 */
(PID.TID 0000.0001)                -6.999450931018309E+01,      /* K = 54 */
(PID.TID 0000.0001)                -7.163850467766420E+01,      /* K = 55 */
(PID.TID 0000.0001)                -7.331827142531212E+01,      /* K = 56 */
(PID.TID 0000.0001)                -7.503458789573313E+01,      /* K = 57 */
(PID.TID 0000.0001)                -7.678824936734112E+01,      /* K = 58 */
(PID.TID 0000.0001)                -7.858006842286061E+01,      /* K = 59 */
(PID.TID 0000.0001)                -8.041087532584788E+01,      /* K = 60 */
(PID.TID 0000.0001)                -8.228151840540488E+01,      /* K = 61 */
(PID.TID 0000.0001)                -8.419286444926388E+01,      /* K = 62 */
(PID.TID 0000.0001)                -8.614579910542533E+01,      /* K = 63 */
(PID.TID 0000.0001)                -8.814122729253481E+01,      /* K = 64 */
(PID.TID 0000.0001)                -9.018007361918930E+01,      /* K = 65 */
(PID.TID 0000.0001)                -9.226328281236708E+01,      /* K = 66 */
(PID.TID 0000.0001)                -9.439182015517969E+01,      /* K = 67 */
(PID.TID 0000.0001)                -9.656667193414891E+01,      /* K = 68 */
(PID.TID 0000.0001)                -9.878884589621600E+01,      /* K = 69 */
(PID.TID 0000.0001)                -1.010593717156948E+02,      /* K = 70 */
(PID.TID 0000.0001)                -1.033793014713850E+02,      /* K = 71 */
(PID.TID 0000.0001)                -1.057497101340678E+02,      /* K = 72 */
(PID.TID 0000.0001)                -1.081716960646071E+02,      /* K = 73 */
(PID.TID 0000.0001)                -1.106463815228906E+02,      /* K = 74 */
(PID.TID 0000.0001)                -1.131749131878439E+02,      /* K = 75 */
(PID.TID 0000.0001)                -1.157584626887595E+02,      /* K = 76 */
(PID.TID 0000.0001)                -1.183982271481872E+02,      /* K = 77 */
(PID.TID 0000.0001)                -1.210954297366370E+02,      /* K = 78 */
(PID.TID 0000.0001)                -1.238513202393514E+02,      /* K = 79 */
(PID.TID 0000.0001)                -1.266671756354109E+02,      /* K = 80 */
(PID.TID 0000.0001)                -1.295443006894387E+02,      /* K = 81 */
(PID.TID 0000.0001)                -1.324840285561818E+02,      /* K = 82 */
(PID.TID 0000.0001)                -1.354877213982455E+02,      /* K = 83 */
(PID.TID 0000.0001)                -1.385567710172704E+02,      /* K = 84 */
(PID.TID 0000.0001)                -1.416925994988424E+02,      /* K = 85 */
(PID.TID 0000.0001)                -1.448966598714348E+02,      /* K = 86 */
(PID.TID 0000.0001)                -1.481704367796895E+02,      /* K = 87 */
(PID.TID 0000.0001)                -1.515154471723461E+02,      /* K = 88 */
(PID.TID 0000.0001)                -1.549332410051417E+02,      /* K = 89 */
(PID.TID 0000.0001)                -1.584254019590028E+02,      /* K = 90 */
(PID.TID 0000.0001)                -1.619935481738659E+02,      /* K = 91 */
(PID.TID 0000.0001)                -1.656393329984645E+02,      /* K = 92 */
(PID.TID 0000.0001)                -1.693644457564299E+02,      /* K = 93 */
(PID.TID 0000.0001)                -1.731706125290630E+02,      /* K = 94 */
(PID.TID 0000.0001)                -1.770595969551368E+02,      /* K = 95 */
(PID.TID 0000.0001)                -1.810332010481024E+02,      /* K = 96 */
(PID.TID 0000.0001)                -1.850932660310762E+02,      /* K = 97 */
(PID.TID 0000.0001)                -1.892416731899957E+02,      /* K = 98 */
(PID.TID 0000.0001)                -1.934803447453386E+02,      /* K = 99 */
(PID.TID 0000.0001)                -1.978112447428094E+02       /* K =100 */
(PID.TID 0000.0001)     ;
(PID.TID 0000.0001) rF =   /* W-Interf. R coordinate (  units of r ) */
(PID.TID 0000.0001)                 0.000000000000000E+00,      /* K =  1 */
(PID.TID 0000.0001)                -1.787654318422184E+00,      /* K =  2 */
(PID.TID 0000.0001)                -3.537239742862120E+00,      /* K =  3 */
(PID.TID 0000.0001)                -5.249566967352821E+00,      /* K =  4 */
(PID.TID 0000.0001)                -6.925429421837212E+00,      /* K =  5 */
(PID.TID 0000.0001)                -8.565603639814611E+00,      /* K =  6 */
(PID.TID 0000.0001)                -1.017084961815802E+01,      /* K =  7 */
(PID.TID 0000.0001)                -1.174191116926891E+01,      /* K =  8 */
(PID.TID 0000.0001)                -1.327951626573280E+01,      /* K =  9 */
(PID.TID 0000.0001)                -1.478437737763511E+01,      /* K = 10 */
(PID.TID 0000.0001)                -1.625719180269386E+01,      /* K = 11 */
(PID.TID 0000.0001)                -1.769864198936195E+01,      /* K = 12 */
(PID.TID 0000.0001)                -1.910939585304888E+01,      /* K = 13 */
(PID.TID 0000.0001)                -2.049010708560836E+01,      /* K = 14 */
(PID.TID 0000.0001)                -2.184141545823529E+01,      /* K = 15 */
(PID.TID 0000.0001)                -2.316394711791232E+01,      /* K = 16 */
(PID.TID 0000.0001)                -2.445831487754360E+01,      /* K = 17 */
(PID.TID 0000.0001)                -2.572511849990983E+01,      /* K = 18 */
(PID.TID 0000.0001)                -2.696494497557650E+01,      /* K = 19 */
(PID.TID 0000.0001)                -2.817836879488386E+01,      /* K = 20 */
(PID.TID 0000.0001)                -2.936595221414479E+01,      /* K = 21 */
(PID.TID 0000.0001)                -3.052824551617388E+01,      /* K = 22 */
(PID.TID 0000.0001)                -3.166578726526835E+01,      /* K = 23 */
(PID.TID 0000.0001)                -3.277910455675914E+01,      /* K = 24 */
(PID.TID 0000.0001)                -3.386871326124762E+01,      /* K = 25 */
(PID.TID 0000.0001)                -3.493511826364121E+01,      /* K = 26 */
(PID.TID 0000.0001)                -3.597881369709863E+01,      /* K = 27 */
(PID.TID 0000.0001)                -3.700028317199315E+01,      /* K = 28 */
(PID.TID 0000.0001)                -3.799999999999999E+01,      /* K = 29 */
(PID.TID 0000.0001)                -3.899999999999999E+01,      /* K = 30 */
(PID.TID 0000.0001)                -3.999999999999999E+01,      /* K = 31 */
(PID.TID 0000.0001)                -4.099999999999999E+01,      /* K = 32 */
(PID.TID 0000.0001)                -4.199999999999999E+01,      /* K = 33 */
(PID.TID 0000.0001)                -4.303486820391004E+01,      /* K = 34 */
(PID.TID 0000.0001)                -4.409225390676008E+01,      /* K = 35 */
(PID.TID 0000.0001)                -4.517264706249458E+01,      /* K = 36 */
(PID.TID 0000.0001)                -4.627654828587200E+01,      /* K = 37 */
(PID.TID 0000.0001)                -4.740446908443139E+01,      /* K = 38 */
(PID.TID 0000.0001)                -4.855693209550635E+01,      /* K = 39 */
(PID.TID 0000.0001)                -4.973447132839603E+01,      /* K = 40 */
(PID.TID 0000.0001)                -5.093763241180563E+01,      /* K = 41 */
(PID.TID 0000.0001)                -5.216697284667075E+01,      /* K = 42 */
(PID.TID 0000.0001)                -5.342306226448305E+01,      /* K = 43 */
(PID.TID 0000.0001)                -5.470648269123664E+01,      /* K = 44 */
(PID.TID 0000.0001)                -5.601782881711772E+01,      /* K = 45 */
(PID.TID 0000.0001)                -5.735770827206225E+01,      /* K = 46 */
(PID.TID 0000.0001)                -5.872674190730960E+01,      /* K = 47 */
(PID.TID 0000.0001)                -6.012556408308221E+01,      /* K = 48 */
(PID.TID 0000.0001)                -6.155482296252510E+01,      /* K = 49 */
(PID.TID 0000.0001)                -6.301518081204092E+01,      /* K = 50 */
(PID.TID 0000.0001)                -6.450731430816009E+01,      /* K = 51 */
(PID.TID 0000.0001)                -6.603191485108796E+01,      /* K = 52 */
(PID.TID 0000.0001)                -6.758968888507448E+01,      /* K = 53 */
(PID.TID 0000.0001)                -6.918135822575464E+01,      /* K = 54 */
(PID.TID 0000.0001)                -7.080766039461153E+01,      /* K = 55 */
(PID.TID 0000.0001)                -7.246934896071687E+01,      /* K = 56 */
(PID.TID 0000.0001)                -7.416719388990738E+01,      /* K = 57 */
(PID.TID 0000.0001)                -7.590198190155888E+01,      /* K = 58 */
(PID.TID 0000.0001)                -7.767451683312336E+01,      /* K = 59 */
(PID.TID 0000.0001)                -7.948562001259786E+01,      /* K = 60 */
(PID.TID 0000.0001)                -8.133613063909793E+01,      /* K = 61 */
(PID.TID 0000.0001)                -8.322690617171186E+01,      /* K = 62 */
(PID.TID 0000.0001)                -8.515882272681593E+01,      /* K = 63 */
(PID.TID 0000.0001)                -8.713277548403477E+01,      /* K = 64 */
(PID.TID 0000.0001)                -8.914967910103491E+01,      /* K = 65 */
(PID.TID 0000.0001)                -9.121046813734377E+01,      /* K = 66 */
(PID.TID 0000.0001)                -9.331609748739046E+01,      /* K = 67 */
(PID.TID 0000.0001)                -9.546754282296898E+01,      /* K = 68 */
(PID.TID 0000.0001)                -9.766580104532892E+01,      /* K = 69 */
(PID.TID 0000.0001)                -9.991189074710314E+01,      /* K = 70 */
(PID.TID 0000.0001)                -1.022068526842864E+02,      /* K = 71 */
(PID.TID 0000.0001)                -1.045517502584838E+02,      /* K = 72 */
(PID.TID 0000.0001)                -1.069476700096519E+02,      /* K = 73 */
(PID.TID 0000.0001)                -1.093957221195624E+02,      /* K = 74 */
(PID.TID 0000.0001)                -1.118970409262190E+02,      /* K = 75 */
(PID.TID 0000.0001)                -1.144527854494690E+02,      /* K = 76 */
(PID.TID 0000.0001)                -1.170641399280502E+02,      /* K = 77 */
(PID.TID 0000.0001)                -1.197323143683244E+02,      /* K = 78 */
(PID.TID 0000.0001)                -1.224585451049496E+02,      /* K = 79 */
(PID.TID 0000.0001)                -1.252440953737532E+02,      /* K = 80 */
(PID.TID 0000.0001)                -1.280902558970685E+02,      /* K = 81 */
(PID.TID 0000.0001)                -1.309983454818089E+02,      /* K = 82 */
(PID.TID 0000.0001)                -1.339697116305547E+02,      /* K = 83 */
(PID.TID 0000.0001)                -1.370057311659364E+02,      /* K = 84 */
(PID.TID 0000.0001)                -1.401078108686046E+02,      /* K = 85 */
(PID.TID 0000.0001)                -1.432773881290803E+02,      /* K = 86 */
(PID.TID 0000.0001)                -1.465159316137895E+02,      /* K = 87 */
(PID.TID 0000.0001)                -1.498249419455895E+02,      /* K = 88 */
(PID.TID 0000.0001)                -1.532059523991028E+02,      /* K = 89 */
(PID.TID 0000.0001)                -1.566605296111806E+02,      /* K = 90 */
(PID.TID 0000.0001)                -1.601902743068250E+02,      /* K = 91 */
(PID.TID 0000.0001)                -1.637968220409069E+02,      /* K = 92 */
(PID.TID 0000.0001)                -1.674818439560220E+02,      /* K = 93 */
(PID.TID 0000.0001)                -1.712470475568378E+02,      /* K = 94 */
(PID.TID 0000.0001)                -1.750941775012883E+02,      /* K = 95 */
(PID.TID 0000.0001)                -1.790250164089854E+02,      /* K = 96 */
(PID.TID 0000.0001)                -1.830413856872194E+02,      /* K = 97 */
(PID.TID 0000.0001)                -1.871451463749330E+02,      /* K = 98 */
(PID.TID 0000.0001)                -1.913382000050584E+02,      /* K = 99 */
(PID.TID 0000.0001)                -1.956224894856186E+02,      /* K =100 */
(PID.TID 0000.0001)                -2.000000000000000E+02       /* K =101 */
(PID.TID 0000.0001)     ;
(PID.TID 0000.0001) deepFacC = /* deep-model grid factor @ cell-Center (-) */
(PID.TID 0000.0001)   100 @  1.000000000000000E+00              /* K =  1:100 */
(PID.TID 0000.0001)     ;
(PID.TID 0000.0001) deepFacF = /* deep-model grid factor @ W-Interface (-) */
(PID.TID 0000.0001)   101 @  1.000000000000000E+00              /* K =  1:101 */
(PID.TID 0000.0001)     ;
(PID.TID 0000.0001) rVel2wUnit = /* convert units: rVel -> wSpeed (=1 if z-coord)*/
(PID.TID 0000.0001)   101 @  1.000000000000000E+00              /* K =  1:101 */
(PID.TID 0000.0001)     ;
(PID.TID 0000.0001) wUnit2rVel = /* convert units: wSpeed -> rVel (=1 if z-coord)*/
(PID.TID 0000.0001)   101 @  1.000000000000000E+00              /* K =  1:101 */
(PID.TID 0000.0001)     ;
(PID.TID 0000.0001) dBdrRef = /* Vertical grad. of reference buoyancy [(m/s/r)^2] */
(PID.TID 0000.0001)    86 @  0.000000000000000E+00,             /* K =  1: 86 */
(PID.TID 0000.0001)                 4.010286785761223E-07,      /* K = 87 */
(PID.TID 0000.0001)                 1.299743719420113E-05,      /* K = 88 */
(PID.TID 0000.0001)                 1.549692538253218E-04,      /* K = 89 */
(PID.TID 0000.0001)                 6.797338133188684E-04,      /* K = 90 */
(PID.TID 0000.0001)                 1.096825970326280E-03,      /* K = 91 */
(PID.TID 0000.0001)                 6.510916019715050E-04,      /* K = 92 */
(PID.TID 0000.0001)                 1.421844100865257E-04,      /* K = 93 */
(PID.TID 0000.0001)                 1.142266355880870E-05,      /* K = 94 */
(PID.TID 0000.0001)                 3.375890164712781E-07,      /* K = 95 */
(PID.TID 0000.0001)     5 @  0.000000000000000E+00              /* K = 96:100 */
(PID.TID 0000.0001)     ;
(PID.TID 0000.0001) rotateGrid = /* use rotated grid ( True/False ) */
(PID.TID 0000.0001)                   F
(PID.TID 0000.0001)     ;
(PID.TID 0000.0001) phiEuler = /* Euler angle, rotation about original z-coordinate [rad] */
(PID.TID 0000.0001)                 0.000000000000000E+00
(PID.TID 0000.0001)     ;
(PID.TID 0000.0001) thetaEuler = /* Euler angle, rotation about new x-coordinate [rad] */
(PID.TID 0000.0001)                 0.000000000000000E+00
(PID.TID 0000.0001)     ;
(PID.TID 0000.0001) psiEuler = /* Euler angle, rotation about new z-coordinate [rad] */
(PID.TID 0000.0001)                 0.000000000000000E+00
(PID.TID 0000.0001)     ;
(PID.TID 0000.0001) dxF =  /* dxF(:,1,:,1) ( units: m ) */
(PID.TID 0000.0001)                 1.263294638016668E+03,      /* I =  1 */
(PID.TID 0000.0001)                 1.237496063806571E+03,      /* I =  2 */
(PID.TID 0000.0001)                 1.212224339320398E+03,      /* I =  3 */
(PID.TID 0000.0001)      . . .
(PID.TID 0000.0001)                 4.790113490274632E+02,      /* I = 48 */
(PID.TID 0000.0001)                 4.692291418815790E+02,      /* I = 49 */
(PID.TID 0000.0001)                 4.596467036489769E+02,      /* I = 50 */
(PID.TID 0000.0001)                 4.502599547167311E+02,      /* I = 51 */
(PID.TID 0000.0001)                 4.410648987843862E+02,      /* I = 52 */
(PID.TID 0000.0001)                 4.320576211625778E+02,      /* I = 53 */
(PID.TID 0000.0001)      . . .
(PID.TID 0000.0001)                 2.000000000000000E+02,      /* I = 98 */
(PID.TID 0000.0001)                 2.000000000000000E+02,      /* I = 99 */
(PID.TID 0000.0001)                 2.000000000000000E+02,      /* I =100 */
(PID.TID 0000.0001)                 2.000000000000000E+02,      /* I =101 */
(PID.TID 0000.0001)                 2.000000000000000E+02,      /* I =102 */
(PID.TID 0000.0001)                 2.000000000000000E+02,      /* I =103 */
(PID.TID 0000.0001)      . . .
(PID.TID 0000.0001)                 3.612641354876311E+02,      /* I =148 */
(PID.TID 0000.0001)                 3.687955530665730E+02,      /* I =149 */
(PID.TID 0000.0001)                 3.764839811128614E+02,      /* I =150 */
(PID.TID 0000.0001)                 3.843326928863569E+02,      /* I =151 */
(PID.TID 0000.0001)                 3.923450298858749E+02,      /* I =152 */
(PID.TID 0000.0001)                 4.005244032717896E+02,      /* I =153 */
(PID.TID 0000.0001)      . . .
(PID.TID 0000.0001)                 1.013599012055986E+03,      /* I =198 */
(PID.TID 0000.0001)                 1.034729915092050E+03,      /* I =199 */
(PID.TID 0000.0001)                 1.056301342495056E+03       /* I =200 */
(PID.TID 0000.0001)     ;
(PID.TID 0000.0001) dxF =  /* dxF(1,:,1,:) ( units: m ) */
(PID.TID 0000.0001)                 1.263294638016668E+03       /* J =  1 */
(PID.TID 0000.0001)     ;
(PID.TID 0000.0001) dyF =  /* dyF(:,1,:,1) ( units: m ) */
(PID.TID 0000.0001)   200 @  5.000000000000000E+03              /* I =  1:200 */
(PID.TID 0000.0001)     ;
(PID.TID 0000.0001) dyF =  /* dyF(1,:,1,:) ( units: m ) */
(PID.TID 0000.0001)                 5.000000000000000E+03       /* J =  1 */
(PID.TID 0000.0001)     ;
(PID.TID 0000.0001) dxG =  /* dxG(:,1,:,1) ( units: m ) */
(PID.TID 0000.0001)                 1.263294638016668E+03,      /* I =  1 */
(PID.TID 0000.0001)                 1.237496063806571E+03,      /* I =  2 */
(PID.TID 0000.0001)                 1.212224339320398E+03,      /* I =  3 */
(PID.TID 0000.0001)      . . .
(PID.TID 0000.0001)                 4.790113490274632E+02,      /* I = 48 */
(PID.TID 0000.0001)                 4.692291418815790E+02,      /* I = 49 */
(PID.TID 0000.0001)                 4.596467036489769E+02,      /* I = 50 */
(PID.TID 0000.0001)                 4.502599547167311E+02,      /* I = 51 */
(PID.TID 0000.0001)                 4.410648987843862E+02,      /* I = 52 */
(PID.TID 0000.0001)                 4.320576211625778E+02,      /* I = 53 */
(PID.TID 0000.0001)      . . .
(PID.TID 0000.0001)                 2.000000000000000E+02,      /* I = 98 */
(PID.TID 0000.0001)                 2.000000000000000E+02,      /* I = 99 */
(PID.TID 0000.0001)                 2.000000000000000E+02,      /* I =100 */
(PID.TID 0000.0001)                 2.000000000000000E+02,      /* I =101 */
(PID.TID 0000.0001)                 2.000000000000000E+02,      /* I =102 */
(PID.TID 0000.0001)                 2.000000000000000E+02,      /* I =103 */
(PID.TID 0000.0001)      . . .
(PID.TID 0000.0001)                 3.612641354876311E+02,      /* I =148 */
(PID.TID 0000.0001)                 3.687955530665730E+02,      /* I =149 */
(PID.TID 0000.0001)                 3.764839811128614E+02,      /* I =150 */
(PID.TID 0000.0001)                 3.843326928863569E+02,      /* I =151 */
(PID.TID 0000.0001)                 3.923450298858749E+02,      /* I =152 */
(PID.TID 0000.0001)                 4.005244032717896E+02,      /* I =153 */
(PID.TID 0000.0001)      . . .
(PID.TID 0000.0001)                 1.013599012055986E+03,      /* I =198 */
(PID.TID 0000.0001)                 1.034729915092050E+03,      /* I =199 */
(PID.TID 0000.0001)                 1.056301342495056E+03       /* I =200 */
(PID.TID 0000.0001)     ;
(PID.TID 0000.0001) dxG =  /* dxG(1,:,1,:) ( units: m ) */
(PID.TID 0000.0001)                 1.263294638016668E+03       /* J =  1 */
(PID.TID 0000.0001)     ;
(PID.TID 0000.0001) dyG =  /* dyG(:,1,:,1) ( units: m ) */
(PID.TID 0000.0001)   200 @  5.000000000000000E+03              /* I =  1:200 */
(PID.TID 0000.0001)     ;
(PID.TID 0000.0001) dyG =  /* dyG(1,:,1,:) ( units: m ) */
(PID.TID 0000.0001)                 5.000000000000000E+03       /* J =  1 */
(PID.TID 0000.0001)     ;
(PID.TID 0000.0001) dxC =  /* dxC(:,1,:,1) ( units: m ) */
(PID.TID 0000.0001)                 1.159797990255862E+03,      /* I =  1 */
(PID.TID 0000.0001)                 1.250395350911620E+03,      /* I =  2 */
(PID.TID 0000.0001)                 1.224860201563485E+03,      /* I =  3 */
(PID.TID 0000.0001)      . . .
(PID.TID 0000.0001)                 4.840044193881684E+02,      /* I = 48 */
(PID.TID 0000.0001)                 4.741202454545211E+02,      /* I = 49 */
(PID.TID 0000.0001)                 4.644379227652780E+02,      /* I = 50 */
(PID.TID 0000.0001)                 4.549533291828540E+02,      /* I = 51 */
(PID.TID 0000.0001)                 4.456624267505587E+02,      /* I = 52 */
(PID.TID 0000.0001)                 4.365612599734820E+02,      /* I = 53 */
(PID.TID 0000.0001)      . . .
(PID.TID 0000.0001)                 2.000000000000000E+02,      /* I = 98 */
(PID.TID 0000.0001)                 2.000000000000000E+02,      /* I = 99 */
(PID.TID 0000.0001)                 2.000000000000000E+02,      /* I =100 */
(PID.TID 0000.0001)                 2.000000000000000E+02,      /* I =101 */
(PID.TID 0000.0001)                 2.000000000000000E+02,      /* I =102 */
(PID.TID 0000.0001)                 2.000000000000000E+02,      /* I =103 */
(PID.TID 0000.0001)      . . .
(PID.TID 0000.0001)                 3.575753287246037E+02,      /* I =148 */
(PID.TID 0000.0001)                 3.650298442771020E+02,      /* I =149 */
(PID.TID 0000.0001)                 3.726397670897172E+02,      /* I =150 */
(PID.TID 0000.0001)                 3.804083369996092E+02,      /* I =151 */
(PID.TID 0000.0001)                 3.883388613861159E+02,      /* I =152 */
(PID.TID 0000.0001)                 3.964347165788323E+02,      /* I =153 */
(PID.TID 0000.0001)      . . .
(PID.TID 0000.0001)                 1.003249324601893E+03,      /* I =198 */
(PID.TID 0000.0001)                 1.024164463574018E+03,      /* I =199 */
(PID.TID 0000.0001)                 1.045515628793553E+03       /* I =200 */
(PID.TID 0000.0001)     ;
(PID.TID 0000.0001) dxC =  /* dxC(1,:,1,:) ( units: m ) */
(PID.TID 0000.0001)                 1.159797990255862E+03       /* J =  1 */
(PID.TID 0000.0001)     ;
(PID.TID 0000.0001) dyC =  /* dyC(:,1,:,1) ( units: m ) */
(PID.TID 0000.0001)   200 @  5.000000000000000E+03              /* I =  1:200 */
(PID.TID 0000.0001)     ;
(PID.TID 0000.0001) dyC =  /* dyC(1,:,1,:) ( units: m ) */
(PID.TID 0000.0001)                 5.000000000000000E+03       /* J =  1 */
(PID.TID 0000.0001)     ;
(PID.TID 0000.0001) dxV =  /* dxV(:,1,:,1) ( units: m ) */
(PID.TID 0000.0001)                 1.159797990255862E+03,      /* I =  1 */
(PID.TID 0000.0001)                 1.250395350911620E+03,      /* I =  2 */
(PID.TID 0000.0001)                 1.224860201563485E+03,      /* I =  3 */
(PID.TID 0000.0001)      . . .
(PID.TID 0000.0001)                 4.840044193881684E+02,      /* I = 48 */
(PID.TID 0000.0001)                 4.741202454545211E+02,      /* I = 49 */
(PID.TID 0000.0001)                 4.644379227652780E+02,      /* I = 50 */
(PID.TID 0000.0001)                 4.549533291828540E+02,      /* I = 51 */
(PID.TID 0000.0001)                 4.456624267505587E+02,      /* I = 52 */
(PID.TID 0000.0001)                 4.365612599734820E+02,      /* I = 53 */
(PID.TID 0000.0001)      . . .
(PID.TID 0000.0001)                 2.000000000000000E+02,      /* I = 98 */
(PID.TID 0000.0001)                 2.000000000000000E+02,      /* I = 99 */
(PID.TID 0000.0001)                 2.000000000000000E+02,      /* I =100 */
(PID.TID 0000.0001)                 2.000000000000000E+02,      /* I =101 */
(PID.TID 0000.0001)                 2.000000000000000E+02,      /* I =102 */
(PID.TID 0000.0001)                 2.000000000000000E+02,      /* I =103 */
(PID.TID 0000.0001)      . . .
(PID.TID 0000.0001)                 3.575753287246037E+02,      /* I =148 */
(PID.TID 0000.0001)                 3.650298442771020E+02,      /* I =149 */
(PID.TID 0000.0001)                 3.726397670897172E+02,      /* I =150 */
(PID.TID 0000.0001)                 3.804083369996092E+02,      /* I =151 */
(PID.TID 0000.0001)                 3.883388613861159E+02,      /* I =152 */
(PID.TID 0000.0001)                 3.964347165788323E+02,      /* I =153 */
(PID.TID 0000.0001)      . . .
(PID.TID 0000.0001)                 1.003249324601893E+03,      /* I =198 */
(PID.TID 0000.0001)                 1.024164463574018E+03,      /* I =199 */
(PID.TID 0000.0001)                 1.045515628793553E+03       /* I =200 */
(PID.TID 0000.0001)     ;
(PID.TID 0000.0001) dxV =  /* dxV(1,:,1,:) ( units: m ) */
(PID.TID 0000.0001)                 1.159797990255862E+03       /* J =  1 */
(PID.TID 0000.0001)     ;
(PID.TID 0000.0001) dyU =  /* dyU(:,1,:,1) ( units: m ) */
(PID.TID 0000.0001)   200 @  5.000000000000000E+03              /* I =  1:200 */
(PID.TID 0000.0001)     ;
(PID.TID 0000.0001) dyU =  /* dyU(1,:,1,:) ( units: m ) */
(PID.TID 0000.0001)                 5.000000000000000E+03       /* J =  1 */
(PID.TID 0000.0001)     ;
(PID.TID 0000.0001) rA  =  /* rA (:,1,:,1) ( units: m^2 ) */
(PID.TID 0000.0001)                 6.316473190083342E+06,      /* I =  1 */
(PID.TID 0000.0001)                 6.187480319032855E+06,      /* I =  2 */
(PID.TID 0000.0001)                 6.061121696601991E+06,      /* I =  3 */
(PID.TID 0000.0001)      . . .
(PID.TID 0000.0001)                 2.395056745137316E+06,      /* I = 48 */
(PID.TID 0000.0001)                 2.346145709407895E+06,      /* I = 49 */
(PID.TID 0000.0001)                 2.298233518244884E+06,      /* I = 50 */
(PID.TID 0000.0001)                 2.251299773583656E+06,      /* I = 51 */
(PID.TID 0000.0001)                 2.205324493921931E+06,      /* I = 52 */
(PID.TID 0000.0001)                 2.160288105812889E+06,      /* I = 53 */
(PID.TID 0000.0001)      . . .
(PID.TID 0000.0001)                 1.000000000000000E+06,      /* I = 98 */
(PID.TID 0000.0001)                 1.000000000000000E+06,      /* I = 99 */
(PID.TID 0000.0001)                 1.000000000000000E+06,      /* I =100 */
(PID.TID 0000.0001)                 1.000000000000000E+06,      /* I =101 */
(PID.TID 0000.0001)                 1.000000000000000E+06,      /* I =102 */
(PID.TID 0000.0001)                 1.000000000000000E+06,      /* I =103 */
(PID.TID 0000.0001)      . . .
(PID.TID 0000.0001)                 1.806320677438155E+06,      /* I =148 */
(PID.TID 0000.0001)                 1.843977765332865E+06,      /* I =149 */
(PID.TID 0000.0001)                 1.882419905564307E+06,      /* I =150 */
(PID.TID 0000.0001)                 1.921663464431785E+06,      /* I =151 */
(PID.TID 0000.0001)                 1.961725149429375E+06,      /* I =152 */
(PID.TID 0000.0001)                 2.002622016358948E+06,      /* I =153 */
(PID.TID 0000.0001)      . . .
(PID.TID 0000.0001)                 5.067995060279928E+06,      /* I =198 */
(PID.TID 0000.0001)                 5.173649575460250E+06,      /* I =199 */
(PID.TID 0000.0001)                 5.281506712475282E+06       /* I =200 */
(PID.TID 0000.0001)     ;
(PID.TID 0000.0001) rA  =  /* rA (1,:,1,:) ( units: m^2 ) */
(PID.TID 0000.0001)                 6.316473190083342E+06       /* J =  1 */
(PID.TID 0000.0001)     ;
(PID.TID 0000.0001) rAw =  /* rAw(:,1,:,1) ( units: m^2 ) */
(PID.TID 0000.0001)                 5.798989951279311E+06,      /* I =  1 */
(PID.TID 0000.0001)                 6.251976754558099E+06,      /* I =  2 */
(PID.TID 0000.0001)                 6.124301007817423E+06,      /* I =  3 */
(PID.TID 0000.0001)      . . .
(PID.TID 0000.0001)                 2.420022096940842E+06,      /* I = 48 */
(PID.TID 0000.0001)                 2.370601227272606E+06,      /* I = 49 */
(PID.TID 0000.0001)                 2.322189613826390E+06,      /* I = 50 */
(PID.TID 0000.0001)                 2.274766645914270E+06,      /* I = 51 */
(PID.TID 0000.0001)                 2.228312133752794E+06,      /* I = 52 */
(PID.TID 0000.0001)                 2.182806299867410E+06,      /* I = 53 */
(PID.TID 0000.0001)      . . .
(PID.TID 0000.0001)                 1.000000000000000E+06,      /* I = 98 */
(PID.TID 0000.0001)                 1.000000000000000E+06,      /* I = 99 */
(PID.TID 0000.0001)                 1.000000000000000E+06,      /* I =100 */
(PID.TID 0000.0001)                 1.000000000000000E+06,      /* I =101 */
(PID.TID 0000.0001)                 1.000000000000000E+06,      /* I =102 */
(PID.TID 0000.0001)                 1.000000000000000E+06,      /* I =103 */
(PID.TID 0000.0001)      . . .
(PID.TID 0000.0001)                 1.787876643623018E+06,      /* I =148 */
(PID.TID 0000.0001)                 1.825149221385510E+06,      /* I =149 */
(PID.TID 0000.0001)                 1.863198835448586E+06,      /* I =150 */
(PID.TID 0000.0001)                 1.902041684998046E+06,      /* I =151 */
(PID.TID 0000.0001)                 1.941694306930580E+06,      /* I =152 */
(PID.TID 0000.0001)                 1.982173582894161E+06,      /* I =153 */
(PID.TID 0000.0001)      . . .
(PID.TID 0000.0001)                 5.016246623009465E+06,      /* I =198 */
(PID.TID 0000.0001)                 5.120822317870088E+06,      /* I =199 */
(PID.TID 0000.0001)                 5.227578143967765E+06       /* I =200 */
(PID.TID 0000.0001)     ;
(PID.TID 0000.0001) rAw =  /* rAw(1,:,1,:) ( units: m^2 ) */
(PID.TID 0000.0001)                 5.798989951279311E+06       /* J =  1 */
(PID.TID 0000.0001)     ;
(PID.TID 0000.0001) rAs =  /* rAs(:,1,:,1) ( units: m^2 ) */
(PID.TID 0000.0001)                 6.316473190083342E+06,      /* I =  1 */
(PID.TID 0000.0001)                 6.187480319032855E+06,      /* I =  2 */
(PID.TID 0000.0001)                 6.061121696601991E+06,      /* I =  3 */
(PID.TID 0000.0001)      . . .
(PID.TID 0000.0001)                 2.395056745137316E+06,      /* I = 48 */
(PID.TID 0000.0001)                 2.346145709407895E+06,      /* I = 49 */
(PID.TID 0000.0001)                 2.298233518244884E+06,      /* I = 50 */
(PID.TID 0000.0001)                 2.251299773583656E+06,      /* I = 51 */
(PID.TID 0000.0001)                 2.205324493921931E+06,      /* I = 52 */
(PID.TID 0000.0001)                 2.160288105812889E+06,      /* I = 53 */
(PID.TID 0000.0001)      . . .
(PID.TID 0000.0001)                 1.000000000000000E+06,      /* I = 98 */
(PID.TID 0000.0001)                 1.000000000000000E+06,      /* I = 99 */
(PID.TID 0000.0001)                 1.000000000000000E+06,      /* I =100 */
(PID.TID 0000.0001)                 1.000000000000000E+06,      /* I =101 */
(PID.TID 0000.0001)                 1.000000000000000E+06,      /* I =102 */
(PID.TID 0000.0001)                 1.000000000000000E+06,      /* I =103 */
(PID.TID 0000.0001)      . . .
(PID.TID 0000.0001)                 1.806320677438155E+06,      /* I =148 */
(PID.TID 0000.0001)                 1.843977765332865E+06,      /* I =149 */
(PID.TID 0000.0001)                 1.882419905564307E+06,      /* I =150 */
(PID.TID 0000.0001)                 1.921663464431785E+06,      /* I =151 */
(PID.TID 0000.0001)                 1.961725149429375E+06,      /* I =152 */
(PID.TID 0000.0001)                 2.002622016358948E+06,      /* I =153 */
(PID.TID 0000.0001)      . . .
(PID.TID 0000.0001)                 5.067995060279928E+06,      /* I =198 */
(PID.TID 0000.0001)                 5.173649575460250E+06,      /* I =199 */
(PID.TID 0000.0001)                 5.281506712475282E+06       /* I =200 */
(PID.TID 0000.0001)     ;
(PID.TID 0000.0001) rAs =  /* rAs(1,:,1,:) ( units: m^2 ) */
(PID.TID 0000.0001)                 6.316473190083342E+06       /* J =  1 */
(PID.TID 0000.0001)     ;
(PID.TID 0000.0001) globalArea = /* Integrated horizontal Area (m^2) */
(PID.TID 0000.0001)                 4.884020200974414E+08
(PID.TID 0000.0001)     ;
(PID.TID 0000.0001) // =======================================================
(PID.TID 0000.0001) // End of Model config. summary
(PID.TID 0000.0001) // =======================================================
(PID.TID 0000.0001) 
(PID.TID 0000.0001) == Packages configuration : Check & print summary ==
(PID.TID 0000.0001) 
(PID.TID 0000.0001) OBCS_CHECK: #define ALLOW_OBCS
(PID.TID 0000.0001) OBCS_CHECK: start summary:
(PID.TID 0000.0001) useOBCSprescribe = /* prescribe OB values */
(PID.TID 0000.0001)                   T
(PID.TID 0000.0001)     ;
(PID.TID 0000.0001) useOBCSbalance = /* balance the flow through OB */
(PID.TID 0000.0001)                   F
(PID.TID 0000.0001)     ;
(PID.TID 0000.0001) OBCS_uvApplyFac = /* Factor to apply to U,V 2nd column/row */
(PID.TID 0000.0001)                 1.000000000000000E+00
(PID.TID 0000.0001)     ;
(PID.TID 0000.0001) OBCS_u1_adv_T = /* Temp uses upwind adv-scheme @ OB */
(PID.TID 0000.0001)                       0
(PID.TID 0000.0001)     ;
(PID.TID 0000.0001) OBCS_u1_adv_S = /* Salt uses upwind adv-scheme @ OB */
(PID.TID 0000.0001)                       0
(PID.TID 0000.0001)     ;
(PID.TID 0000.0001) OBCS_monitorFreq = /* monitor output frequency [s] */
(PID.TID 0000.0001)                 7.200000000000000E+03
(PID.TID 0000.0001)     ;
(PID.TID 0000.0001) OBCS_monSelect = /* select group of variables to monitor */
(PID.TID 0000.0001)                       0
(PID.TID 0000.0001)     ;
(PID.TID 0000.0001) useOBCStides = /* apply tidal forcing through OB */
(PID.TID 0000.0001)                   F
(PID.TID 0000.0001)     ;
(PID.TID 0000.0001) tidalPeriod = /* (s) */
(PID.TID 0000.0001)    10 @  0.000000000000000E+00              /* I =  1: 10 */
(PID.TID 0000.0001)     ;
(PID.TID 0000.0001) OB_indexNone = /* null value for OB index (i.e. no OB) */
(PID.TID 0000.0001)                     -99
(PID.TID 0000.0001)     ;
(PID.TID 0000.0001) ======== Tile bi=   1 , bj=   1 ========
(PID.TID 0000.0001)  OB_Jn = /* Northern OB local indices */
(PID.TID 0000.0001)   204 @      -99                            /* I = -1:202 */
(PID.TID 0000.0001)  OB_Js = /* Southern OB local indices */
(PID.TID 0000.0001)   204 @      -99                            /* I = -1:202 */
(PID.TID 0000.0001)  OB_Ie = /* Eastern OB local indices */
(PID.TID 0000.0001)     5 @      200                            /* J = -1:  3 */
(PID.TID 0000.0001)  OB_Iw = /* Western OB local indices */
(PID.TID 0000.0001)     5 @        1                            /* J = -1:  3 */
(PID.TID 0000.0001) OBCS_CHECK: end summary.
(PID.TID 0000.0001) OBCS_CHECK: set-up OK
(PID.TID 0000.0001) OBCS_CHECK: check Inside Mask and OB locations: OK
(PID.TID 0000.0001) KL10_CHECK: #define ALLOW_KL10
(PID.TID 0000.0001) GAD_CHECK: #define ALLOW_GENERIC_ADVDIFF
(PID.TID 0000.0001) // =======================================================
(PID.TID 0000.0001) // Check Model config. (CONFIG_CHECK):
(PID.TID 0000.0001) // CONFIG_CHECK : Normal End
(PID.TID 0000.0001) // =======================================================
(PID.TID 0000.0001) 
(PID.TID 0000.0001)  MDS_READ_FIELD: opening global file: U0.bin
(PID.TID 0000.0001)  MDS_READ_FIELD: opening global file: T0.bin
(PID.TID 0000.0001) Start initial hydrostatic pressure computation
(PID.TID 0000.0001) Pressure is predetermined for buoyancyRelation OCEANIC
(PID.TID 0000.0001) 
(PID.TID 0000.0001)  OBCS_FIELDS_LOAD: Reading initial data:         0  0.000000000000E+00
(PID.TID 0000.0001)  MDS_READ_SEC_YZ: opening global file: U_in.bin
(PID.TID 0000.0001)  MDS_READ_SEC_YZ: opening global file: TE.bin
(PID.TID 0000.0001)  MDS_READ_SEC_YZ: opening global file: U_in.bin
(PID.TID 0000.0001)  MDS_READ_SEC_YZ: opening global file: TW.bin
(PID.TID 0000.0001) // =======================================================
(PID.TID 0000.0001) // Model current state
(PID.TID 0000.0001) // =======================================================
(PID.TID 0000.0001) 
(PID.TID 0000.0001) // =======================================================
(PID.TID 0000.0001) // Begin MONITOR dynamic field statistics
(PID.TID 0000.0001) // =======================================================
(PID.TID 0000.0001) %MON time_tsnumber                =                     0
(PID.TID 0000.0001) %MON time_secondsf                =   0.0000000000000E+00
(PID.TID 0000.0001) %MON dynstat_eta_max              =   0.0000000000000E+00
(PID.TID 0000.0001) %MON dynstat_eta_min              =   0.0000000000000E+00
(PID.TID 0000.0001) %MON dynstat_eta_mean             =   0.0000000000000E+00
(PID.TID 0000.0001) %MON dynstat_eta_sd               =   0.0000000000000E+00
(PID.TID 0000.0001) %MON dynstat_eta_del2             =   0.0000000000000E+00
(PID.TID 0000.0001) %MON dynstat_uvel_max             =   4.4822851314926E-01
(PID.TID 0000.0001) %MON dynstat_uvel_min             =   4.4822851314926E-01
(PID.TID 0000.0001) %MON dynstat_uvel_mean            =   4.4822851314927E-01
(PID.TID 0000.0001) %MON dynstat_uvel_sd              =   3.3861802251067E-15
(PID.TID 0000.0001) %MON dynstat_uvel_del2            =   0.0000000000000E+00
(PID.TID 0000.0001) %MON dynstat_vvel_max             =   0.0000000000000E+00
(PID.TID 0000.0001) %MON dynstat_vvel_min             =   0.0000000000000E+00
(PID.TID 0000.0001) %MON dynstat_vvel_mean            =   0.0000000000000E+00
(PID.TID 0000.0001) %MON dynstat_vvel_sd              =   0.0000000000000E+00
(PID.TID 0000.0001) %MON dynstat_vvel_del2            =   0.0000000000000E+00
(PID.TID 0000.0001) %MON dynstat_wvel_max             =   5.4327573422006E-03
(PID.TID 0000.0001) %MON dynstat_wvel_min             =  -5.5486572583249E-03
(PID.TID 0000.0001) %MON dynstat_wvel_mean            =   5.9514180364680E-21
(PID.TID 0000.0001) %MON dynstat_wvel_sd              =   1.1331984892873E-03
(PID.TID 0000.0001) %MON dynstat_wvel_del2            =   1.7145623963596E-06
(PID.TID 0000.0001) %MON dynstat_theta_max            =   1.5000000000000E+01
(PID.TID 0000.0001) %MON dynstat_theta_min            =   1.0000000000000E+01
(PID.TID 0000.0001) %MON dynstat_theta_mean           =   1.4047647163004E+01
(PID.TID 0000.0001) %MON dynstat_theta_sd             =   1.9008375924656E+00
(PID.TID 0000.0001) %MON dynstat_theta_del2           =   0.0000000000000E+00
(PID.TID 0000.0001) %MON dynstat_salt_max             =   3.5000000000000E+01
(PID.TID 0000.0001) %MON dynstat_salt_min             =   3.5000000000000E+01
(PID.TID 0000.0001) %MON dynstat_salt_mean            =   3.5000000000000E+01
(PID.TID 0000.0001) %MON dynstat_salt_sd              =   3.0553337637684E-13
(PID.TID 0000.0001) %MON dynstat_salt_del2            =   0.0000000000000E+00
(PID.TID 0000.0001) %MON dynstat_sst_max              =   1.5000000000000E+01
(PID.TID 0000.0001) %MON dynstat_sst_min              =   1.5000000000000E+01
(PID.TID 0000.0001) %MON dynstat_sst_mean             =   1.5000000000000E+01
(PID.TID 0000.0001) %MON dynstat_sst_sd               =   1.4210854715202E-14
(PID.TID 0000.0001) %MON dynstat_sst_del2             =   0.0000000000000E+00
(PID.TID 0000.0001) %MON dynstat_sss_max              =   3.5000000000000E+01
(PID.TID 0000.0001) %MON dynstat_sss_min              =   3.5000000000000E+01
(PID.TID 0000.0001) %MON dynstat_sss_mean             =   3.5000000000000E+01
(PID.TID 0000.0001) %MON dynstat_sss_sd               =   2.8421709430404E-14
(PID.TID 0000.0001) %MON dynstat_sss_del2             =   0.0000000000000E+00
(PID.TID 0000.0001) %MON forcing_qnet_max             =   0.0000000000000E+00
(PID.TID 0000.0001) %MON forcing_qnet_min             =   0.0000000000000E+00
(PID.TID 0000.0001) %MON forcing_qnet_mean            =   0.0000000000000E+00
(PID.TID 0000.0001) %MON forcing_qnet_sd              =   0.0000000000000E+00
(PID.TID 0000.0001) %MON forcing_qnet_del2            =   0.0000000000000E+00
(PID.TID 0000.0001) %MON forcing_qsw_max              =   0.0000000000000E+00
(PID.TID 0000.0001) %MON forcing_qsw_min              =   0.0000000000000E+00
(PID.TID 0000.0001) %MON forcing_qsw_mean             =   0.0000000000000E+00
(PID.TID 0000.0001) %MON forcing_qsw_sd               =   0.0000000000000E+00
(PID.TID 0000.0001) %MON forcing_qsw_del2             =   0.0000000000000E+00
(PID.TID 0000.0001) %MON forcing_empmr_max            =   0.0000000000000E+00
(PID.TID 0000.0001) %MON forcing_empmr_min            =   0.0000000000000E+00
(PID.TID 0000.0001) %MON forcing_empmr_mean           =   0.0000000000000E+00
(PID.TID 0000.0001) %MON forcing_empmr_sd             =   0.0000000000000E+00
(PID.TID 0000.0001) %MON forcing_empmr_del2           =   0.0000000000000E+00
(PID.TID 0000.0001) %MON forcing_fu_max               =   0.0000000000000E+00
(PID.TID 0000.0001) %MON forcing_fu_min               =   0.0000000000000E+00
(PID.TID 0000.0001) %MON forcing_fu_mean              =   0.0000000000000E+00
(PID.TID 0000.0001) %MON forcing_fu_sd                =   0.0000000000000E+00
(PID.TID 0000.0001) %MON forcing_fu_del2              =   0.0000000000000E+00
(PID.TID 0000.0001) %MON forcing_fv_max               =   0.0000000000000E+00
(PID.TID 0000.0001) %MON forcing_fv_min               =   0.0000000000000E+00
(PID.TID 0000.0001) %MON forcing_fv_mean              =   0.0000000000000E+00
(PID.TID 0000.0001) %MON forcing_fv_sd                =   0.0000000000000E+00
(PID.TID 0000.0001) %MON forcing_fv_del2              =   0.0000000000000E+00
(PID.TID 0000.0001) %MON advcfl_uvel_max              =   3.3617138486195E-02
(PID.TID 0000.0001) %MON advcfl_vvel_max              =   0.0000000000000E+00
(PID.TID 0000.0001) %MON advcfl_wvel_max              =   9.3116278709111E-02
(PID.TID 0000.0001) %MON advcfl_W_hf_max              =   8.3253433915692E-02
(PID.TID 0000.0001) %MON pe_b_mean                    =   0.0000000000000E+00
(PID.TID 0000.0001) %MON ke_max                       =   1.0115334879466E-01
(PID.TID 0000.0001) %MON ke_mean                      =   1.0042279568662E-01
(PID.TID 0000.0001) %MON ke_vol                       =   9.6656965507697E+10
(PID.TID 0000.0001) %MON vort_r_min                   =   0.0000000000000E+00
(PID.TID 0000.0001) %MON vort_r_max                   =   0.0000000000000E+00
(PID.TID 0000.0001) %MON vort_a_mean                  =   0.0000000000000E+00
(PID.TID 0000.0001) %MON vort_a_sd                    =   0.0000000000000E+00
(PID.TID 0000.0001) %MON vort_p_mean                  =   0.0000000000000E+00
(PID.TID 0000.0001) %MON vort_p_sd                    =   0.0000000000000E+00
(PID.TID 0000.0001) %MON surfExpan_theta_mean         =   1.1857761799571E-19
(PID.TID 0000.0001) %MON surfExpan_salt_mean          =   6.4065018720504E-19
(PID.TID 0000.0001) // =======================================================
(PID.TID 0000.0001) // End MONITOR dynamic field statistics
(PID.TID 0000.0001) // =======================================================
(PID.TID 0000.0001) // =======================================================
(PID.TID 0000.0001) // Begin OBCS MONITOR field statistics
(PID.TID 0000.0001) // =======================================================
(PID.TID 0000.0001) %MON obc_E_uVel_max               =   4.4822851314926E-01
(PID.TID 0000.0001) %MON obc_E_uVel_min               =   4.4822851314926E-01
(PID.TID 0000.0001) %MON obc_E_uVel_mean              =   4.4822851314926E-01
(PID.TID 0000.0001) %MON obc_E_uVel_sd                =   0.0000000000000E+00
(PID.TID 0000.0001) %MON obc_E_uVel_Int               =   4.4822851314926E+05
(PID.TID 0000.0001) %MON obc_W_uVel_max               =   4.4822851314926E-01
(PID.TID 0000.0001) %MON obc_W_uVel_min               =   4.4822851314926E-01
(PID.TID 0000.0001) %MON obc_W_uVel_mean              =   4.4822851314926E-01
(PID.TID 0000.0001) %MON obc_W_uVel_sd                =   0.0000000000000E+00
(PID.TID 0000.0001) %MON obc_W_uVel_Int               =   4.4822851314926E+05
(PID.TID 0000.0001) // =======================================================
(PID.TID 0000.0001) // End OBCS MONITOR field statistics
(PID.TID 0000.0001) // =======================================================
(PID.TID 0000.0001) SOLVE_FOR_PRESSURE: putPmEinXvector =    F
 cg2d: Sum(rhs),rhsMax =  -1.40904322533003E-14  7.75556212142902E-02
 cg2d: Sum(rhs),rhsMax =   2.15898046636688E-14  1.29546641478814E-01
 cg2d: Sum(rhs),rhsMax =   1.40662437434918E-14  1.63941735117228E-01
 cg2d: Sum(rhs),rhsMax =   1.04508444867217E-13  1.84274645252827E-01
 cg2d: Sum(rhs),rhsMax =   2.43632090642574E-13  1.95985702402775E-01
 cg2d: Sum(rhs),rhsMax =   3.67744306529674E-13  2.04131503409420E-01
 cg2d: Sum(rhs),rhsMax =   4.17003882901352E-13  2.10125746761558E-01
 cg2d: Sum(rhs),rhsMax =   4.89235479217854E-13  2.15056000098942E-01
 cg2d: Sum(rhs),rhsMax =   5.78663951818814E-13  2.20164655691440E-01
 cg2d: Sum(rhs),rhsMax =   6.80887815785417E-13  2.24960289728966E-01
 cg2d: Sum(rhs),rhsMax =   7.98281281287908E-13  2.29609146176148E-01
 cg2d: Sum(rhs),rhsMax =   6.93274125228931E-13  2.34212855182367E-01
 cg2d: Sum(rhs),rhsMax =   6.28667170730351E-13  2.38821381543049E-01
 cg2d: Sum(rhs),rhsMax =   5.46733015458877E-13  2.43436036313979E-01
 cg2d: Sum(rhs),rhsMax =   3.74630480861408E-13  2.48008906352342E-01
 cg2d: Sum(rhs),rhsMax =   3.08125256617269E-13  2.52441116845193E-01
 cg2d: Sum(rhs),rhsMax =   2.47112297983039E-13  2.56581028604444E-01
 cg2d: Sum(rhs),rhsMax =   2.80716203199448E-13  2.60906260309936E-01
 cg2d: Sum(rhs),rhsMax =   2.59116729292667E-13  2.65271544884589E-01
 cg2d: Sum(rhs),rhsMax =   2.04757741750365E-13  2.69046777353972E-01
 cg2d: Sum(rhs),rhsMax =   1.69476462125121E-13  2.73556173615170E-01
 cg2d: Sum(rhs),rhsMax =   1.36849383268808E-13  2.77234310211096E-01
 cg2d: Sum(rhs),rhsMax =   2.99329324933562E-13  2.81569264424925E-01
 cg2d: Sum(rhs),rhsMax =   3.18399407462984E-13  2.85456800986745E-01
 cg2d: Sum(rhs),rhsMax =   3.49955289100255E-13  2.89050685528040E-01
 cg2d: Sum(rhs),rhsMax =   3.55267282534266E-13  2.93305624124369E-01
 cg2d: Sum(rhs),rhsMax =   3.83805036007840E-13  2.97104243153911E-01
 cg2d: Sum(rhs),rhsMax =   4.49106494316643E-13  3.00543181315395E-01
 cg2d: Sum(rhs),rhsMax =   5.24787687061095E-13  3.04228659566538E-01
 cg2d: Sum(rhs),rhsMax =   5.71757522376632E-13  3.08218962957324E-01
 cg2d: Sum(rhs),rhsMax =   6.09252387851877E-13  3.11994669378622E-01
 cg2d: Sum(rhs),rhsMax =   6.60408590335594E-13  3.15613453125241E-01
 cg2d: Sum(rhs),rhsMax =   7.24016549838447E-13  3.19124807896945E-01
 cg2d: Sum(rhs),rhsMax =   8.40931192952823E-13  3.22569876109549E-01
 cg2d: Sum(rhs),rhsMax =   9.43104372808784E-13  3.25981352805198E-01
 cg2d: Sum(rhs),rhsMax =   1.00036146900850E-12  3.29383425235409E-01
 cg2d: Sum(rhs),rhsMax =   1.02491994925791E-12  3.32791718007610E-01
 cg2d: Sum(rhs),rhsMax =   1.08955162600455E-12  3.36213223525876E-01
 cg2d: Sum(rhs),rhsMax =   1.15589265589633E-12  3.39646206725655E-01
 cg2d: Sum(rhs),rhsMax =   1.23069349849958E-12  3.43080080962705E-01
 cg2d: Sum(rhs),rhsMax =   1.26883920037457E-12  3.46495259888912E-01
 cg2d: Sum(rhs),rhsMax =   1.30989316615704E-12  3.49862997766218E-01
 cg2d: Sum(rhs),rhsMax =   1.32786837081511E-12  3.53145238256772E-01
 cg2d: Sum(rhs),rhsMax =   1.37767228181040E-12  3.56294499439701E-01
 cg2d: Sum(rhs),rhsMax =   1.49313894581837E-12  3.59253830895157E-01
 cg2d: Sum(rhs),rhsMax =   1.59060264959265E-12  3.61956887681465E-01
 cg2d: Sum(rhs),rhsMax =   1.66978930682404E-12  3.65142273268694E-01
 cg2d: Sum(rhs),rhsMax =   1.57387991528424E-12  3.68785401617112E-01
 cg2d: Sum(rhs),rhsMax =   1.63127844565736E-12  3.72135398590947E-01
 cg2d: Sum(rhs),rhsMax =   1.51523238400841E-12  3.75093452586064E-01
 cg2d: Sum(rhs),rhsMax =   1.50490730987940E-12  3.77552026387303E-01
 cg2d: Sum(rhs),rhsMax =   1.53926871249155E-12  3.80543763976678E-01
 cg2d: Sum(rhs),rhsMax =   1.63336011382853E-12  3.84227938353387E-01
 cg2d: Sum(rhs),rhsMax =   1.74293912635903E-12  3.87293199552058E-01
 cg2d: Sum(rhs),rhsMax =   1.84052773022358E-12  3.89609322228307E-01
 cg2d: Sum(rhs),rhsMax =   1.88926652100463E-12  3.92663193337292E-01
 cg2d: Sum(rhs),rhsMax =   1.92390547937293E-12  4.00058333306700E-01
 cg2d: Sum(rhs),rhsMax =   1.89814830520163E-12  4.16364519737251E-01
 cg2d: Sum(rhs),rhsMax =   1.90170101888043E-12  4.39760544913208E-01
 cg2d: Sum(rhs),rhsMax =   1.82720505392808E-12  4.73039020672687E-01
 cg2d: Sum(rhs),rhsMax =   1.68587366289330E-12  5.20108411977706E-01
 cg2d: Sum(rhs),rhsMax =   1.55397916756783E-12  5.71138671340221E-01
 cg2d: Sum(rhs),rhsMax =   1.47659662275146E-12  6.18671291459701E-01
 cg2d: Sum(rhs),rhsMax =   1.39144251676271E-12  6.61250817821713E-01
 cg2d: Sum(rhs),rhsMax =   1.31539223957589E-12  6.97552248089769E-01
 cg2d: Sum(rhs),rhsMax =   1.25022214803039E-12  7.26453345253656E-01
 cg2d: Sum(rhs),rhsMax =   1.21114229756358E-12  7.47094939735826E-01
 cg2d: Sum(rhs),rhsMax =   1.17605924998543E-12  7.58924630255077E-01
 cg2d: Sum(rhs),rhsMax =   1.15063514272151E-12  7.61720808614035E-01
 cg2d: Sum(rhs),rhsMax =   1.13231646281520E-12  7.55595716366812E-01
 cg2d: Sum(rhs),rhsMax =   1.10367270877987E-12  7.40978083101766E-01
 cg2d: Sum(rhs),rhsMax =   1.09035003248437E-12  7.18577595677116E-01
 cg2d: Sum(rhs),rhsMax =   1.04627417840675E-12  6.89334831142274E-01
 cg2d: Sum(rhs),rhsMax =   1.02173824956253E-12  6.54361227942867E-01
 cg2d: Sum(rhs),rhsMax =   9.31921206870356E-13  6.58822364677577E-01
 cg2d: Sum(rhs),rhsMax =   7.95252752539000E-13  7.04845763775564E-01
 cg2d: Sum(rhs),rhsMax =   6.92668145063635E-13  7.45878381879818E-01
 cg2d: Sum(rhs),rhsMax =   5.86308779304545E-13  7.80847242920561E-01
 cg2d: Sum(rhs),rhsMax =   4.84945417156268E-13  8.08845102484499E-01
 cg2d: Sum(rhs),rhsMax =   3.77142761465166E-13  8.29171670653711E-01
 cg2d: Sum(rhs),rhsMax =   3.26683124995952E-13  8.41364006594869E-01
 cg2d: Sum(rhs),rhsMax =   2.71949129881932E-13  8.45214236392317E-01
 cg2d: Sum(rhs),rhsMax =   2.35256258918071E-13  8.40773706961277E-01
 cg2d: Sum(rhs),rhsMax =   1.59317004033710E-13  8.28343696914359E-01
 cg2d: Sum(rhs),rhsMax =   8.01025912267050E-14  8.08453765369998E-01
 cg2d: Sum(rhs),rhsMax =  -4.44366765606219E-14  7.81829644564578E-01
 cg2d: Sum(rhs),rhsMax =  -8.52096171399808E-14  7.49353205699817E-01
 cg2d: Sum(rhs),rhsMax =  -1.46493928099289E-13  7.12017414367533E-01
 cg2d: Sum(rhs),rhsMax =  -2.33285613049361E-13  6.70879310693372E-01
 cg2d: Sum(rhs),rhsMax =  -3.41560113525929E-13  6.27013924507719E-01
 cg2d: Sum(rhs),rhsMax =  -4.69346783660285E-13  5.81471690899712E-01
 cg2d: Sum(rhs),rhsMax =  -6.04127858849779E-13  5.35241447389483E-01
 cg2d: Sum(rhs),rhsMax =  -6.84896583891259E-13  4.89220498817650E-01
 cg2d: Sum(rhs),rhsMax =  -8.11795075605914E-13  4.44192562976685E-01
 cg2d: Sum(rhs),rhsMax =  -9.34155530707415E-13  4.00813817098825E-01
 cg2d: Sum(rhs),rhsMax =  -1.10374209771891E-12  3.59606709726833E-01
 cg2d: Sum(rhs),rhsMax =  -1.34034450205434E-12  3.26444839678365E-01
 cg2d: Sum(rhs),rhsMax =  -1.42612310849444E-12  3.17217268596798E-01
 cg2d: Sum(rhs),rhsMax =  -1.50385259800601E-12  3.09779206890671E-01
 cg2d: Sum(rhs),rhsMax =  -1.57791835153631E-12  3.03996957039637E-01
 cg2d: Sum(rhs),rhsMax =  -1.64007696312751E-12  2.99000958653793E-01
 cg2d: Sum(rhs),rhsMax =  -1.72852010482671E-12  2.93302016912964E-01
 cg2d: Sum(rhs),rhsMax =  -1.80699205598600E-12  2.88394232088006E-01
 cg2d: Sum(rhs),rhsMax =  -1.92460630765723E-12  2.83490296462039E-01
 cg2d: Sum(rhs),rhsMax =  -2.03383143659863E-12  2.78160742448778E-01
 cg2d: Sum(rhs),rhsMax =  -2.14322309899373E-12  2.73471514352886E-01
 cg2d: Sum(rhs),rhsMax =  -2.22909884994849E-12  2.68754719637311E-01
 cg2d: Sum(rhs),rhsMax =  -2.31926977622976E-12  2.63703706775872E-01
 cg2d: Sum(rhs),rhsMax =  -2.41855147020686E-12  2.58974983394050E-01
 cg2d: Sum(rhs),rhsMax =  -2.48915471567912E-12  2.54448980335863E-01
 cg2d: Sum(rhs),rhsMax =  -2.58431470667730E-12  2.49674543042541E-01
 cg2d: Sum(rhs),rhsMax =  -2.69181898993054E-12  2.44740672782325E-01
 cg2d: Sum(rhs),rhsMax =  -2.81462353424189E-12  2.40419990072407E-01
 cg2d: Sum(rhs),rhsMax =  -2.92074697760825E-12  2.35914372522211E-01
 cg2d: Sum(rhs),rhsMax =  -3.04213598756320E-12  2.31279548850425E-01
 cg2d: Sum(rhs),rhsMax =  -3.21393606173004E-12  2.26562422566683E-01
 cg2d: Sum(rhs),rhsMax =  -3.42650213758233E-12  2.22288700383316E-01
 cg2d: Sum(rhs),rhsMax =  -3.59412499761902E-12  2.17928049385344E-01
 cg2d: Sum(rhs),rhsMax =  -3.79733744448885E-12  2.13502270137594E-01
 cg2d: Sum(rhs),rhsMax =  -3.85069753860989E-12  2.09039183631467E-01
 cg2d: Sum(rhs),rhsMax =  -3.91778970376677E-12  2.04560166567375E-01
 cg2d: Sum(rhs),rhsMax =  -3.98206467799866E-12  2.00338807008287E-01
 cg2d: Sum(rhs),rhsMax =  -4.08287292863463E-12  1.96094802554506E-01
 cg2d: Sum(rhs),rhsMax =  -4.13163253609738E-12  1.91817566287992E-01
 cg2d: Sum(rhs),rhsMax =  -4.16663231694869E-12  1.87510937331647E-01
 cg2d: Sum(rhs),rhsMax =  -4.18244605615570E-12  1.83171423735394E-01
 cg2d: Sum(rhs),rhsMax =  -4.27891055920782E-12  1.78787528021470E-01
 cg2d: Sum(rhs),rhsMax =  -4.38746261544054E-12  1.74338942253214E-01
 cg2d: Sum(rhs),rhsMax =  -4.44105169306042E-12  1.69903805814354E-01
 cg2d: Sum(rhs),rhsMax =  -4.56017862360270E-12  1.65363351897043E-01
 cg2d: Sum(rhs),rhsMax =  -4.68592525892930E-12  1.60636946514647E-01
 cg2d: Sum(rhs),rhsMax =  -4.79648265550026E-12  1.55669423111061E-01
 cg2d: Sum(rhs),rhsMax =  -4.94519009075489E-12  1.50395348853520E-01
 cg2d: Sum(rhs),rhsMax =  -5.13172837557363E-12  1.44741035850005E-01
 cg2d: Sum(rhs),rhsMax =  -5.28643795405515E-12  1.38854481509238E-01
 cg2d: Sum(rhs),rhsMax =  -5.53583567874938E-12  1.32448019051920E-01
 cg2d: Sum(rhs),rhsMax =  -5.80428760610374E-12  1.25442086166620E-01
 cg2d: Sum(rhs),rhsMax =  -6.02080885148126E-12  1.18051378231320E-01
 cg2d: Sum(rhs),rhsMax =  -6.39059638540829E-12  1.09973040508710E-01
 cg2d: Sum(rhs),rhsMax =  -6.83317291638730E-12  1.01395300309515E-01
 cg2d: Sum(rhs),rhsMax =  -7.46518125094298E-12  9.21490455769811E-02
 cg2d: Sum(rhs),rhsMax =  -8.30890911629467E-12  8.24667720157759E-02
 cg2d: Sum(rhs),rhsMax =  -9.40686417649772E-12  7.22013740493255E-02
 cg2d: Sum(rhs),rhsMax =  -1.09894593425253E-11  6.14917170288764E-02
 cg2d: Sum(rhs),rhsMax =  -1.32965582988476E-11  5.04460251329742E-02
 cg2d: Sum(rhs),rhsMax =  -1.70110592279116E-11  3.90746788523633E-02
 cg2d: Sum(rhs),rhsMax =  -2.41018871527388E-11  2.75216491410695E-02
 cg2d: Sum(rhs),rhsMax =  -4.15943945952790E-11  1.59181433581095E-02
 cg2d: Sum(rhs),rhsMax =  -6.18203266355977E-11  1.07298537881687E-02
 cg2d: Sum(rhs),rhsMax =  -6.13726847120688E-11  1.08084360892781E-02
 cg2d: Sum(rhs),rhsMax =  -3.49006379352090E-11  1.89990002259302E-02
 cg2d: Sum(rhs),rhsMax =  -2.20246043625139E-11  3.00364432477575E-02
 cg2d: Sum(rhs),rhsMax =  -1.62138635850795E-11  4.07040457060405E-02
 cg2d: Sum(rhs),rhsMax =  -1.29341815036099E-11  5.09051161267744E-02
 cg2d: Sum(rhs),rhsMax =  -1.08094366790823E-11  6.05630052159510E-02
 cg2d: Sum(rhs),rhsMax =  -9.30935883936002E-12  6.97080580838016E-02
 cg2d: Sum(rhs),rhsMax =  -8.22480972217932E-12  7.82346528563349E-02
 cg2d: Sum(rhs),rhsMax =  -7.40393857334709E-12  8.60796141886410E-02
 cg2d: Sum(rhs),rhsMax =  -6.77863321030259E-12  9.33764553313720E-02
 cg2d: Sum(rhs),rhsMax =  -6.25757778927039E-12  1.00010855757115E-01
 cg2d: Sum(rhs),rhsMax =  -5.84489401322941E-12  1.06108951385844E-01
 cg2d: Sum(rhs),rhsMax =  -5.51238221735417E-12  1.11579493298804E-01
 cg2d: Sum(rhs),rhsMax =  -5.22686061099620E-12  1.16687635425645E-01
 cg2d: Sum(rhs),rhsMax =  -4.95854746151991E-12  1.21291160676540E-01
 cg2d: Sum(rhs),rhsMax =  -4.75956773993147E-12  1.25469632067321E-01
 cg2d: Sum(rhs),rhsMax =  -4.57896220940057E-12  1.29381696219571E-01
 cg2d: Sum(rhs),rhsMax =  -4.40804337475953E-12  1.33055697134152E-01
 cg2d: Sum(rhs),rhsMax =  -4.24933699338936E-12  1.36485034592264E-01
 cg2d: Sum(rhs),rhsMax =  -4.14514256252829E-12  1.39715681259530E-01
 cg2d: Sum(rhs),rhsMax =  -4.00771082986751E-12  1.42783526537022E-01
 cg2d: Sum(rhs),rhsMax =  -3.91162102708620E-12  1.45715550345510E-01
 cg2d: Sum(rhs),rhsMax =  -3.72371578016839E-12  1.48531192459275E-01
 cg2d: Sum(rhs),rhsMax =  -3.57067153622381E-12  1.51365016700602E-01
 cg2d: Sum(rhs),rhsMax =  -3.41797423697443E-12  1.54128509047846E-01
 cg2d: Sum(rhs),rhsMax =  -3.27807225808385E-12  1.56821993551067E-01
 cg2d: Sum(rhs),rhsMax =  -3.27350646589508E-12  1.59448826506857E-01
 cg2d: Sum(rhs),rhsMax =  -3.21979942707884E-12  1.62009133748625E-01
 cg2d: Sum(rhs),rhsMax =  -3.16355275309377E-12  1.64500288001977E-01
 cg2d: Sum(rhs),rhsMax =  -3.08779390945091E-12  1.67039493965255E-01
 cg2d: Sum(rhs),rhsMax =  -3.08035541518592E-12  1.69629939466335E-01
 cg2d: Sum(rhs),rhsMax =  -3.14001602497171E-12  1.72166477627046E-01
 cg2d: Sum(rhs),rhsMax =  -3.18982340541396E-12  1.74642610600674E-01
 cg2d: Sum(rhs),rhsMax =  -3.25937887790673E-12  1.77052214785431E-01
 cg2d: Sum(rhs),rhsMax =  -3.26288995822210E-12  1.79619845228570E-01
 cg2d: Sum(rhs),rhsMax =  -3.25510451926192E-12  1.82253343352554E-01
 cg2d: Sum(rhs),rhsMax =  -3.25216242824666E-12  1.84853905055424E-01
 cg2d: Sum(rhs),rhsMax =  -3.26191851307556E-12  1.87432720951511E-01
 cg2d: Sum(rhs),rhsMax =  -3.24233001558483E-12  1.90160765166070E-01
 cg2d: Sum(rhs),rhsMax =  -3.22107271411021E-12  1.93180629299013E-01
 cg2d: Sum(rhs),rhsMax =  -3.21162541006004E-12  1.96305268139096E-01
 cg2d: Sum(rhs),rhsMax =  -3.20119451779899E-12  1.99610151044968E-01
 cg2d: Sum(rhs),rhsMax =  -3.19758802769243E-12  2.03204947783240E-01
 cg2d: Sum(rhs),rhsMax =  -3.18244736119411E-12  2.07336138843556E-01
 cg2d: Sum(rhs),rhsMax =  -3.15637793679713E-12  2.12180266119081E-01
 cg2d: Sum(rhs),rhsMax =  -3.12404269120492E-12  2.17795839099903E-01
 cg2d: Sum(rhs),rhsMax =  -3.06318859166765E-12  2.24658302065383E-01
 cg2d: Sum(rhs),rhsMax =  -2.98072677651362E-12  2.32201451570434E-01
 cg2d: Sum(rhs),rhsMax =  -2.93809421236801E-12  2.40874122084932E-01
 cg2d: Sum(rhs),rhsMax =  -2.89360202465616E-12  2.50960700407536E-01
 cg2d: Sum(rhs),rhsMax =  -2.79160028426872E-12  2.62731035613157E-01
 cg2d: Sum(rhs),rhsMax =  -2.68379762857762E-12  2.76394274425917E-01
 cg2d: Sum(rhs),rhsMax =  -2.56789034480676E-12  2.92334800853298E-01
 cg2d: Sum(rhs),rhsMax =  -2.46863640640527E-12  3.10573359496025E-01
 cg2d: Sum(rhs),rhsMax =  -2.41967557101930E-12  3.29939329034784E-01
 cg2d: Sum(rhs),rhsMax =  -2.35889086042107E-12  3.48951967856279E-01
 cg2d: Sum(rhs),rhsMax =  -2.29172236743125E-12  3.67434797017026E-01
 cg2d: Sum(rhs),rhsMax =  -2.24453788888468E-12  3.85209962873428E-01
 cg2d: Sum(rhs),rhsMax =  -2.18841611498988E-12  4.02101215510943E-01
 cg2d: Sum(rhs),rhsMax =  -2.16371365269197E-12  4.17936968830455E-01
 cg2d: Sum(rhs),rhsMax =  -2.14611661775166E-12  4.32553366275760E-01
 cg2d: Sum(rhs),rhsMax =  -2.11786144177495E-12  4.45797273599251E-01
 cg2d: Sum(rhs),rhsMax =  -2.17426077142591E-12  4.57529120105176E-01
 cg2d: Sum(rhs),rhsMax =  -2.22477591904635E-12  4.67625512538727E-01
 cg2d: Sum(rhs),rhsMax =  -2.29538610341251E-12  4.75981551151612E-01
 cg2d: Sum(rhs),rhsMax =  -2.34690045175512E-12  4.82512785290102E-01
 cg2d: Sum(rhs),rhsMax =  -2.41962005986807E-12  4.87156755932610E-01
 cg2d: Sum(rhs),rhsMax =  -2.44027020812609E-12  4.89874084308896E-01
 cg2d: Sum(rhs),rhsMax =  -2.47624143412395E-12  4.90649079178220E-01
 cg2d: Sum(rhs),rhsMax =  -2.51332288314643E-12  4.89489850065108E-01
 cg2d: Sum(rhs),rhsMax =  -2.57049936891462E-12  4.86427927141658E-01
 cg2d: Sum(rhs),rhsMax =  -2.63289390289856E-12  4.81517402986413E-01
 cg2d: Sum(rhs),rhsMax =  -2.73958633556504E-12  4.74833625545920E-01
 cg2d: Sum(rhs),rhsMax =  -2.86248802439104E-12  4.66471483839726E-01
 cg2d: Sum(rhs),rhsMax =  -2.99216207366726E-12  4.56543338945425E-01
 cg2d: Sum(rhs),rhsMax =  -3.13848946831286E-12  4.45176661110847E-01
 cg2d: Sum(rhs),rhsMax =  -3.26105809023147E-12  4.32511439288262E-01
 cg2d: Sum(rhs),rhsMax =  -3.36430883152161E-12  4.23368556290945E-01
 cg2d: Sum(rhs),rhsMax =  -3.36497496533639E-12  4.25685795710412E-01
 cg2d: Sum(rhs),rhsMax =  -3.38484795747718E-12  4.26416993521744E-01
 cg2d: Sum(rhs),rhsMax =  -3.44635431304141E-12  4.25566293384549E-01
 cg2d: Sum(rhs),rhsMax =  -3.49742457217417E-12  4.23154990636797E-01
 cg2d: Sum(rhs),rhsMax =  -3.60600438398251E-12  4.19221016121687E-01
 cg2d: Sum(rhs),rhsMax =  -3.76110254052264E-12  4.13818117618984E-01
 cg2d: Sum(rhs),rhsMax =  -3.95872223890592E-12  4.07014763203935E-01
 cg2d: Sum(rhs),rhsMax =  -4.11570777458792E-12  3.98892797552872E-01
 cg2d: Sum(rhs),rhsMax =  -4.25726121022763E-12  3.89545887649211E-01
 cg2d: Sum(rhs),rhsMax =  -4.40103509191658E-12  3.79077798807427E-01
 cg2d: Sum(rhs),rhsMax =  -4.66915395236356E-12  3.67600545047366E-01
 cg2d: Sum(rhs),rhsMax =  -4.93927121425486E-12  3.55232460787782E-01
 cg2d: Sum(rhs),rhsMax =  -5.07438535635174E-12  3.42096239309831E-01
 cg2d: Sum(rhs),rhsMax =  -5.20872234233138E-12  3.28316982178276E-01
 cg2d: Sum(rhs),rhsMax =  -5.36393152117398E-12  3.14020301383536E-01
 cg2d: Sum(rhs),rhsMax =  -5.52169421297322E-12  2.99330514612879E-01
 cg2d: Sum(rhs),rhsMax =  -5.71320768472106E-12  2.84368968104115E-01
 cg2d: Sum(rhs),rhsMax =  -5.92881299610326E-12  2.69252515391688E-01
 cg2d: Sum(rhs),rhsMax =  -6.13831208085003E-12  2.54092174424513E-01
 cg2d: Sum(rhs),rhsMax =  -6.35513863755932E-12  2.38991979768049E-01
 cg2d: Sum(rhs),rhsMax =  -6.66922073122578E-12  2.24048040739806E-01
 cg2d: Sum(rhs),rhsMax =  -7.07323088988687E-12  2.09347810154732E-01
 cg2d: Sum(rhs),rhsMax =  -7.48923145721392E-12  1.94969562607302E-01
 cg2d: Sum(rhs),rhsMax =  -7.94275756277329E-12  1.80982076063655E-01
 cg2d: Sum(rhs),rhsMax =  -8.45434833252057E-12  1.67444505880667E-01
 cg2d: Sum(rhs),rhsMax =  -9.07840469466237E-12  1.54406436537795E-01
 cg2d: Sum(rhs),rhsMax =  -9.68758406827419E-12  1.43638833499482E-01
 cg2d: Sum(rhs),rhsMax =  -9.88320536521314E-12  1.39580744866254E-01
 cg2d: Sum(rhs),rhsMax =  -9.97857352302844E-12  1.35913156923260E-01
 cg2d: Sum(rhs),rhsMax =  -1.00758290599856E-11  1.32534628124399E-01
 cg2d: Sum(rhs),rhsMax =  -1.01572084076906E-11  1.29368825581234E-01
 cg2d: Sum(rhs),rhsMax =  -1.02795549850043E-11  1.26359249229435E-01
 cg2d: Sum(rhs),rhsMax =  -1.04128927702618E-11  1.23464522318860E-01
 cg2d: Sum(rhs),rhsMax =  -1.05748743095546E-11  1.20654467835204E-01
 cg2d: Sum(rhs),rhsMax =  -1.07007736005471E-11  1.17906999206977E-01
 cg2d: Sum(rhs),rhsMax =  -1.08142383936638E-11  1.15205735238996E-01
 cg2d: Sum(rhs),rhsMax =  -1.09459663555356E-11  1.12538199377805E-01
 cg2d: Sum(rhs),rhsMax =  -1.10812470310861E-11  1.09917252982666E-01
 cg2d: Sum(rhs),rhsMax =  -1.12411746577834E-11  1.07648046830648E-01
 cg2d: Sum(rhs),rhsMax =  -1.14093734460141E-11  1.05374650130964E-01
 cg2d: Sum(rhs),rhsMax =  -1.15807918810162E-11  1.03090440488742E-01
 cg2d: Sum(rhs),rhsMax =  -1.17256204745786E-11  1.00786669048183E-01
 cg2d: Sum(rhs),rhsMax =  -1.19306509116512E-11  9.84524578214088E-02
 cg2d: Sum(rhs),rhsMax =  -1.21596621660558E-11  9.60937701651434E-02
 cg2d: Sum(rhs),rhsMax =  -1.23897836434850E-11  9.37125119642091E-02
 cg2d: Sum(rhs),rhsMax =  -1.27159949236955E-11  9.12577010368868E-02
 cg2d: Sum(rhs),rhsMax =  -1.29994626174579E-11  8.87126700521778E-02
 cg2d: Sum(rhs),rhsMax =  -1.34016270303405E-11  8.60598710572927E-02
 cg2d: Sum(rhs),rhsMax =  -1.37746133943573E-11  8.33396256831714E-02
 cg2d: Sum(rhs),rhsMax =  -1.42385200851969E-11  8.04929897657770E-02
 cg2d: Sum(rhs),rhsMax =  -1.47427738420025E-11  7.74873198347996E-02
 cg2d: Sum(rhs),rhsMax =  -1.52289500454650E-11  7.43765172619501E-02
 cg2d: Sum(rhs),rhsMax =  -1.59714186320770E-11  7.10962559764949E-02
 cg2d: Sum(rhs),rhsMax =  -1.68009287038196E-11  6.76619883764258E-02
 cg2d: Sum(rhs),rhsMax =  -1.77760306474539E-11  6.40676230129799E-02
 cg2d: Sum(rhs),rhsMax =  -1.89223220425916E-11  6.03121848613160E-02
 cg2d: Sum(rhs),rhsMax =  -2.03997652103993E-11  5.63775012807524E-02
 cg2d: Sum(rhs),rhsMax =  -2.21768992059168E-11  5.23097153107927E-02
 cg2d: Sum(rhs),rhsMax =  -2.42627862245826E-11  4.80688125264543E-02
 cg2d: Sum(rhs),rhsMax =  -2.68985111961939E-11  4.36718001728320E-02
 cg2d: Sum(rhs),rhsMax =  -2.99995028818500E-11  3.91524462649045E-02
 cg2d: Sum(rhs),rhsMax =  -3.41157657679503E-11  3.45048395262424E-02
 cg2d: Sum(rhs),rhsMax =  -3.96462307428180E-11  2.97406705218074E-02
 cg2d: Sum(rhs),rhsMax =  -4.74095207536607E-11  2.48774199786696E-02
 cg2d: Sum(rhs),rhsMax =  -5.84403636594288E-11  2.01934684959212E-02
 cg2d: Sum(rhs),rhsMax =  -7.51068096604968E-11  1.57292630533123E-02
 cg2d: Sum(rhs),rhsMax =  -1.02666541934582E-10  1.15102096555473E-02
 cg2d: Sum(rhs),rhsMax =  -9.98583438160949E-11  1.18370695299350E-02
 cg2d: Sum(rhs),rhsMax =  -9.72417701916584E-11  1.21597425300902E-02
 cg2d: Sum(rhs),rhsMax =  -9.47620870661581E-11  1.24844430319012E-02
 cg2d: Sum(rhs),rhsMax =  -9.23222609472418E-11  1.28174334183241E-02
 cg2d: Sum(rhs),rhsMax =  -7.42624850502693E-11  1.59474573917631E-02
 cg2d: Sum(rhs),rhsMax =  -5.67604852008685E-11  2.08959659082923E-02
 cg2d: Sum(rhs),rhsMax =  -4.60012028469237E-11  2.57956234380375E-02
 cg2d: Sum(rhs),rhsMax =  -3.88221677027900E-11  3.06061081528069E-02
 cg2d: Sum(rhs),rhsMax =  -3.36956573754321E-11  3.53305588418659E-02
 cg2d: Sum(rhs),rhsMax =  -2.98208124860366E-11  3.99302849283077E-02
 cg2d: Sum(rhs),rhsMax =  -2.68414179771526E-11  4.44330051606008E-02
 cg2d: Sum(rhs),rhsMax =  -2.45243270136086E-11  4.87868394533345E-02
 cg2d: Sum(rhs),rhsMax =  -2.25571228362753E-11  5.30312499473536E-02
 cg2d: Sum(rhs),rhsMax =  -2.09793293848293E-11  5.71175678618495E-02
 cg2d: Sum(rhs),rhsMax =  -1.96448968203811E-11  6.10936606599060E-02
 cg2d: Sum(rhs),rhsMax =  -1.85374493533175E-11  6.49057299905571E-02
 cg2d: Sum(rhs),rhsMax =  -1.76069159252279E-11  6.86187501083985E-02
 cg2d: Sum(rhs),rhsMax =  -1.67374447634927E-11  7.21873210878430E-02
 cg2d: Sum(rhs),rhsMax =  -1.60108593050268E-11  7.56246179794118E-02
 cg2d: Sum(rhs),rhsMax =  -1.53477786035694E-11  7.89786219435646E-02
 cg2d: Sum(rhs),rhsMax =  -1.48380197018128E-11  8.22108471566079E-02
 cg2d: Sum(rhs),rhsMax =  -1.42841294348273E-11  8.53315259346092E-02
 cg2d: Sum(rhs),rhsMax =  -1.38459799181589E-11  8.83812417291343E-02
 cg2d: Sum(rhs),rhsMax =  -1.34895983272543E-11  9.13602759318783E-02
 cg2d: Sum(rhs),rhsMax =  -1.30991328894936E-11  9.42563601974217E-02
 cg2d: Sum(rhs),rhsMax =  -1.27157173679393E-11  9.70767187079355E-02
 cg2d: Sum(rhs),rhsMax =  -1.25442434217859E-11  9.98271750028835E-02
 cg2d: Sum(rhs),rhsMax =  -1.22284959935826E-11  1.02550710403243E-01
 cg2d: Sum(rhs),rhsMax =  -1.20177201523575E-11  1.05229520880268E-01
 cg2d: Sum(rhs),rhsMax =  -1.18571263918454E-11  1.07853523694928E-01
 cg2d: Sum(rhs),rhsMax =  -1.16523457549533E-11  1.10424272385114E-01
 cg2d: Sum(rhs),rhsMax =  -1.14436238263238E-11  1.12942303965920E-01
 cg2d: Sum(rhs),rhsMax =  -1.12777565064448E-11  1.15438951543008E-01
 cg2d: Sum(rhs),rhsMax =  -1.10726983137965E-11  1.17925744804731E-01
 cg2d: Sum(rhs),rhsMax =  -1.09140474435776E-11  1.20366497330699E-01
 cg2d: Sum(rhs),rhsMax =  -1.07963638029673E-11  1.22760048343115E-01
 cg2d: Sum(rhs),rhsMax =  -1.07699404949813E-11  1.25105009134448E-01
 cg2d: Sum(rhs),rhsMax =  -1.07314157560268E-11  1.27466540781536E-01
 cg2d: Sum(rhs),rhsMax =  -1.06186170967248E-11  1.29816877296717E-01
 cg2d: Sum(rhs),rhsMax =  -1.04032338299476E-11  1.32127046391965E-01
 cg2d: Sum(rhs),rhsMax =  -1.02554631453700E-11  1.34397770633971E-01
 cg2d: Sum(rhs),rhsMax =  -1.00814911974112E-11  1.36669937811446E-01
 cg2d: Sum(rhs),rhsMax =  -9.76818625986198E-12  1.38995737425101E-01
 cg2d: Sum(rhs),rhsMax =  -9.40814093297604E-12  1.44023261508536E-01
 cg2d: Sum(rhs),rhsMax =  -8.85735929045950E-12  1.52049698845941E-01
 cg2d: Sum(rhs),rhsMax =  -8.31912316812122E-12  1.61074124111791E-01
 cg2d: Sum(rhs),rhsMax =  -7.80753239837395E-12  1.70295952222264E-01
 cg2d: Sum(rhs),rhsMax =  -7.34878824459884E-12  1.79681538954655E-01
 cg2d: Sum(rhs),rhsMax =  -6.90714152540295E-12  1.89194092761777E-01
 cg2d: Sum(rhs),rhsMax =  -6.53299636610427E-12  1.98793872954965E-01
 cg2d: Sum(rhs),rhsMax =  -6.15507644852187E-12  2.08438436047944E-01
 cg2d: Sum(rhs),rhsMax =  -5.85442805345338E-12  2.18082928910306E-01
 cg2d: Sum(rhs),rhsMax =  -5.56321655409420E-12  2.27680426466543E-01
 cg2d: Sum(rhs),rhsMax =  -5.29931654114080E-12  2.37182310763278E-01
 cg2d: Sum(rhs),rhsMax =  -5.08515451969060E-12  2.46538687353345E-01
 cg2d: Sum(rhs),rhsMax =  -4.81881201608303E-12  2.55698834111861E-01
 cg2d: Sum(rhs),rhsMax =  -4.63518112781003E-12  2.64611676841718E-01
 cg2d: Sum(rhs),rhsMax =  -4.43822756324153E-12  2.73226285322612E-01
 cg2d: Sum(rhs),rhsMax =  -4.25659507641285E-12  2.81492382938751E-01
 cg2d: Sum(rhs),rhsMax =  -4.10271816519980E-12  2.89360862540932E-01
 cg2d: Sum(rhs),rhsMax =  -3.81783493708099E-12  2.96784300907513E-01
 cg2d: Sum(rhs),rhsMax =  -3.62732066605531E-12  3.03717464009122E-01
 cg2d: Sum(rhs),rhsMax =  -3.44524409001679E-12  3.10117795276708E-01
 cg2d: Sum(rhs),rhsMax =  -3.34399175017097E-12  3.15945879226699E-01
 cg2d: Sum(rhs),rhsMax =  -3.25117710531231E-12  3.21165873109012E-01
 cg2d: Sum(rhs),rhsMax =  -3.03823632918920E-12  3.25745899705186E-01
 cg2d: Sum(rhs),rhsMax =  -3.12749826036907E-12  3.29658395019163E-01
 cg2d: Sum(rhs),rhsMax =  -3.19388959724165E-12  3.32880405339525E-01
 cg2d: Sum(rhs),rhsMax =  -3.30002691839582E-12  3.35393828968466E-01
 cg2d: Sum(rhs),rhsMax =  -3.35431682429999E-12  3.37185598950957E-01
 cg2d: Sum(rhs),rhsMax =  -3.41404682302482E-12  3.39288654476351E-01
 cg2d: Sum(rhs),rhsMax =  -3.40105721363670E-12  3.49628666221110E-01
 cg2d: Sum(rhs),rhsMax =  -3.37752048551465E-12  3.59454467301192E-01
 cg2d: Sum(rhs),rhsMax =  -3.30258043135245E-12  3.68710316032777E-01
 cg2d: Sum(rhs),rhsMax =  -3.26139115713886E-12  3.77343311150630E-01
 cg2d: Sum(rhs),rhsMax =  -3.17967874252645E-12  3.85303916741292E-01
 cg2d: Sum(rhs),rhsMax =  -3.15836246045365E-12  3.92546456550148E-01
 cg2d: Sum(rhs),rhsMax =  -3.14381853883106E-12  3.99029570634838E-01
 cg2d: Sum(rhs),rhsMax =  -3.15802939354626E-12  4.04716627638798E-01
 cg2d: Sum(rhs),rhsMax =  -3.18989279435300E-12  4.09576086854961E-01
 cg2d: Sum(rhs),rhsMax =  -3.17745829647720E-12  4.13581804652609E-01
 cg2d: Sum(rhs),rhsMax =  -3.19011483895792E-12  4.16713280909814E-01
 cg2d: Sum(rhs),rhsMax =  -3.22886162251734E-12  4.18955842129213E-01
 cg2d: Sum(rhs),rhsMax =  -3.27249338738511E-12  4.20300758828706E-01
 cg2d: Sum(rhs),rhsMax =  -3.27804450250824E-12  4.20745295889704E-01
 cg2d: Sum(rhs),rhsMax =  -3.31801253139474E-12  4.20292695596080E-01
 cg2d: Sum(rhs),rhsMax =  -3.35254046746059E-12  4.18952094173299E-01
 cg2d: Sum(rhs),rhsMax =  -3.42648132090062E-12  4.16738373709338E-01
 cg2d: Sum(rhs),rhsMax =  -3.50286466499483E-12  4.13671952307485E-01
 cg2d: Sum(rhs),rhsMax =  -3.60167451418647E-12  4.09778516387828E-01
 cg2d: Sum(rhs),rhsMax =  -3.69737573890916E-12  4.05088699186948E-01
 cg2d: Sum(rhs),rhsMax =  -3.80839804137167E-12  3.99637711148192E-01
 cg2d: Sum(rhs),rhsMax =  -3.95872223890592E-12  3.93464928565912E-01
 cg2d: Sum(rhs),rhsMax =  -4.10627087887860E-12  3.86613446520829E-01
 cg2d: Sum(rhs),rhsMax =  -4.27002877501081E-12  3.79129603503887E-01
 cg2d: Sum(rhs),rhsMax =  -4.45521397551829E-12  3.71062484882156E-01
 cg2d: Sum(rhs),rhsMax =  -4.61253257810768E-12  3.62463412252342E-01
 cg2d: Sum(rhs),rhsMax =  -4.76030326268528E-12  3.53385425369023E-01
 cg2d: Sum(rhs),rhsMax =  -4.92722529443768E-12  3.43882764324959E-01
 cg2d: Sum(rhs),rhsMax =  -5.09442488194622E-12  3.34010358027320E-01
 cg2d: Sum(rhs),rhsMax =  -5.30886445915257E-12  3.23823326319719E-01
 cg2d: Sum(rhs),rhsMax =  -5.52047296764613E-12  3.13376501461535E-01
 cg2d: Sum(rhs),rhsMax =  -5.78492809211184E-12  3.02723974409495E-01
 cg2d: Sum(rhs),rhsMax =  -6.02656813342151E-12  2.91918670562347E-01
 cg2d: Sum(rhs),rhsMax =  -6.30800967016398E-12  2.81011958935343E-01
 cg2d: Sum(rhs),rhsMax =  -6.60710375299800E-12  2.70053297997421E-01
 cg2d: Sum(rhs),rhsMax =  -6.95743462841847E-12  2.59089920800379E-01
 cg2d: Sum(rhs),rhsMax =  -7.29521998366067E-12  2.48166561083139E-01
 cg2d: Sum(rhs),rhsMax =  -7.69512231713065E-12  2.37325221606445E-01
 cg2d: Sum(rhs),rhsMax =  -8.10829181574491E-12  2.26604984941771E-01
 cg2d: Sum(rhs),rhsMax =  -8.55071569105803E-12  2.16041866517488E-01
 cg2d: Sum(rhs),rhsMax =  -9.07524055904219E-12  2.05668708927617E-01
 cg2d: Sum(rhs),rhsMax =  -9.57167678450332E-12  1.95515115819426E-01
 cg2d: Sum(rhs),rhsMax =  -1.01624819670576E-11  1.85607424017642E-01
 cg2d: Sum(rhs),rhsMax =  -1.07782116565147E-11  1.75968710863583E-01
 cg2d: Sum(rhs),rhsMax =  -1.14703802012173E-11  1.66618833851063E-01
 cg2d: Sum(rhs),rhsMax =  -1.21768151117863E-11  1.57574500056267E-01
 cg2d: Sum(rhs),rhsMax =  -1.29516952718234E-11  1.48849361872038E-01
 cg2d: Sum(rhs),rhsMax =  -1.37809763600671E-11  1.40480303997647E-01
 cg2d: Sum(rhs),rhsMax =  -1.41298639455556E-11  1.37287099579467E-01
 cg2d: Sum(rhs),rhsMax =  -1.44545486691072E-11  1.34251547004293E-01
 cg2d: Sum(rhs),rhsMax =  -1.49497081380900E-11  1.31299763647146E-01
 cg2d: Sum(rhs),rhsMax =  -1.51822998617490E-11  1.28353801125045E-01
 cg2d: Sum(rhs),rhsMax =  -1.55173651705809E-11  1.25405117115388E-01
 cg2d: Sum(rhs),rhsMax =  -1.58860702370589E-11  1.22506590534480E-01
 cg2d: Sum(rhs),rhsMax =  -1.61964330835929E-11  1.19514382071914E-01
 cg2d: Sum(rhs),rhsMax =  -1.65568114773862E-11  1.16516621551689E-01
 cg2d: Sum(rhs),rhsMax =  -1.70228275919726E-11  1.13432309048347E-01
 cg2d: Sum(rhs),rhsMax =  -1.74195657898224E-11  1.10275945638644E-01
 cg2d: Sum(rhs),rhsMax =  -1.79222747753727E-11  1.07030728575946E-01
 cg2d: Sum(rhs),rhsMax =  -1.84295911864751E-11  1.03692292436348E-01
 cg2d: Sum(rhs),rhsMax =  -1.90736315630602E-11  1.00228971936526E-01
 cg2d: Sum(rhs),rhsMax =  -1.97241667443393E-11  9.66890155246195E-02
 cg2d: Sum(rhs),rhsMax =  -2.04524730484934E-11  9.29814629634316E-02
 cg2d: Sum(rhs),rhsMax =  -2.12631023899235E-11  8.92075017352962E-02
 cg2d: Sum(rhs),rhsMax =  -2.22104001856849E-11  8.52901427692433E-02
 cg2d: Sum(rhs),rhsMax =  -2.32834862501363E-11  8.12222486275246E-02
 cg2d: Sum(rhs),rhsMax =  -2.44297360119106E-11  7.70793034951957E-02
 cg2d: Sum(rhs),rhsMax =  -2.58247312423521E-11  7.28051991744229E-02
 cg2d: Sum(rhs),rhsMax =  -2.74169020819670E-11  6.84010133645177E-02
 cg2d: Sum(rhs),rhsMax =  -2.92701418658226E-11  6.38787157390225E-02
 cg2d: Sum(rhs),rhsMax =  -3.14440695703411E-11  5.92879692977147E-02
 cg2d: Sum(rhs),rhsMax =  -3.40454331393403E-11  5.45933169052624E-02
 cg2d: Sum(rhs),rhsMax =  -3.71528363629636E-11  4.98067611031084E-02
 cg2d: Sum(rhs),rhsMax =  -4.11052858417804E-11  4.49412328269896E-02
 cg2d: Sum(rhs),rhsMax =  -4.61023441644670E-11  4.00096811412591E-02
 cg2d: Sum(rhs),rhsMax =  -5.25557375397057E-11  3.50250388675336E-02
 cg2d: Sum(rhs),rhsMax =  -6.12733197513649E-11  3.00001925329685E-02
 cg2d: Sum(rhs),rhsMax =  -7.35552729835831E-11  2.49486653556521E-02
 cg2d: Sum(rhs),rhsMax =  -9.22276699455438E-11  1.98817001721331E-02
 cg2d: Sum(rhs),rhsMax =  -9.69031521691477E-11  1.89296681668167E-02
 cg2d: Sum(rhs),rhsMax =  -9.77773417787375E-11  1.87509853901957E-02
 cg2d: Sum(rhs),rhsMax =  -9.86555281912160E-11  1.85815464887404E-02
 cg2d: Sum(rhs),rhsMax =  -9.94875293258701E-11  1.84167292772261E-02
 cg2d: Sum(rhs),rhsMax =  -1.00392139046335E-10  1.82517015239911E-02
 cg2d: Sum(rhs),rhsMax =  -1.01300190458176E-10  1.80813989418758E-02
 cg2d: Sum(rhs),rhsMax =  -1.02317265771035E-10  1.79005047066462E-02
 cg2d: Sum(rhs),rhsMax =  -9.29312182762487E-11  1.97021228675307E-02
 cg2d: Sum(rhs),rhsMax =  -7.51485540462227E-11  2.43533958963485E-02
 cg2d: Sum(rhs),rhsMax =  -6.32394137056735E-11  2.89013312126051E-02
 cg2d: Sum(rhs),rhsMax =  -5.47205614154223E-11  3.33354605605459E-02
 cg2d: Sum(rhs),rhsMax =  -4.84241535758656E-11  3.76456563558037E-02
 cg2d: Sum(rhs),rhsMax =  -4.35009250843166E-11  4.18313174769850E-02
 cg2d: Sum(rhs),rhsMax =  -3.95960486621050E-11  4.59140077073853E-02
 cg2d: Sum(rhs),rhsMax =  -3.64222541016090E-11  4.98550895159164E-02
 cg2d: Sum(rhs),rhsMax =  -3.37514460824195E-11  5.36462965611672E-02
 cg2d: Sum(rhs),rhsMax =  -3.15182047128104E-11  5.73138819817694E-02
 cg2d: Sum(rhs),rhsMax =  -2.95347912793176E-11  6.08662047985267E-02
 cg2d: Sum(rhs),rhsMax =  -2.79267997616017E-11  6.42580780254304E-02
 cg2d: Sum(rhs),rhsMax =  -2.64810395833592E-11  6.75422097858484E-02
 cg2d: Sum(rhs),rhsMax =  -2.52118326216078E-11  7.07080094809424E-02
 cg2d: Sum(rhs),rhsMax =  -2.41170416970249E-11  7.37292523939057E-02
 cg2d: Sum(rhs),rhsMax =  -2.31411695361672E-11  7.66915167851809E-02
 cg2d: Sum(rhs),rhsMax =  -2.22178525577377E-11  7.95052366079123E-02
 cg2d: Sum(rhs),rhsMax =  -2.14483361626883E-11  8.22918055877803E-02
 cg2d: Sum(rhs),rhsMax =  -2.07227360271567E-11  8.49668179035450E-02
 cg2d: Sum(rhs),rhsMax =  -2.00495505614517E-11  8.76095835000735E-02
 cg2d: Sum(rhs),rhsMax =  -1.93853856578219E-11  9.02265112702661E-02
 cg2d: Sum(rhs),rhsMax =  -1.86952536784801E-11  9.28013429975395E-02
 cg2d: Sum(rhs),rhsMax =  -1.81518758357591E-11  9.54111895411648E-02
 cg2d: Sum(rhs),rhsMax =  -1.76246239824707E-11  9.80861537792230E-02
 cg2d: Sum(rhs),rhsMax =  -1.72149516863840E-11  1.00832397754587E-01
 cg2d: Sum(rhs),rhsMax =  -1.67303948472863E-11  1.03702580924743E-01
 cg2d: Sum(rhs),rhsMax =  -1.62487523436283E-11  1.06755406654277E-01
 cg2d: Sum(rhs),rhsMax =  -1.58539292804960E-11  1.10056359530606E-01
 cg2d: Sum(rhs),rhsMax =  -1.53632939703385E-11  1.13730729011838E-01
(PID.TID 0000.0001)      cg2d_init_res =   2.45355461878074E-01
(PID.TID 0000.0001)      cg2d_iters(min,last) =      -1      39
(PID.TID 0000.0001)      cg2d_last_res =   4.84901839515377E-14
(PID.TID 0000.0001) // =======================================================
(PID.TID 0000.0001) // Begin MONITOR dynamic field statistics
(PID.TID 0000.0001) // =======================================================
(PID.TID 0000.0001) %MON time_tsnumber                =                   480
(PID.TID 0000.0001) %MON time_secondsf                =   7.2000000000000E+03
(PID.TID 0000.0001) %MON dynstat_eta_max              =   2.8194916608725E-02
(PID.TID 0000.0001) %MON dynstat_eta_min              =  -2.7261899456181E-02
(PID.TID 0000.0001) %MON dynstat_eta_mean             =   3.8718011616227E-15
(PID.TID 0000.0001) %MON dynstat_eta_sd               =   1.9993555875221E-02
(PID.TID 0000.0001) %MON dynstat_eta_del2             =   4.5289177181992E-06
(PID.TID 0000.0001) %MON dynstat_uvel_max             =   9.9438195982896E-01
(PID.TID 0000.0001) %MON dynstat_uvel_min             =  -3.3557782501050E-02
(PID.TID 0000.0001) %MON dynstat_uvel_mean            =   4.5809819918620E-01
(PID.TID 0000.0001) %MON dynstat_uvel_sd              =   3.3089084772618E-02
(PID.TID 0000.0001) %MON dynstat_uvel_del2            =   2.5086294200664E-04
(PID.TID 0000.0001) %MON dynstat_vvel_max             =   0.0000000000000E+00
(PID.TID 0000.0001) %MON dynstat_vvel_min             =   0.0000000000000E+00
(PID.TID 0000.0001) %MON dynstat_vvel_mean            =   0.0000000000000E+00
(PID.TID 0000.0001) %MON dynstat_vvel_sd              =   0.0000000000000E+00
(PID.TID 0000.0001) %MON dynstat_vvel_del2            =   0.0000000000000E+00
(PID.TID 0000.0001) %MON dynstat_wvel_max             =   1.3177308221749E-02
(PID.TID 0000.0001) %MON dynstat_wvel_min             =  -1.3043886149945E-02
(PID.TID 0000.0001) %MON dynstat_wvel_mean            =  -3.0004442972503E-20
(PID.TID 0000.0001) %MON dynstat_wvel_sd              =   1.0869339824670E-03
(PID.TID 0000.0001) %MON dynstat_wvel_del2            =   1.6262114559567E-05
(PID.TID 0000.0001) %MON dynstat_theta_max            =   1.5000000000002E+01
(PID.TID 0000.0001) %MON dynstat_theta_min            =   9.9999999999991E+00
(PID.TID 0000.0001) %MON dynstat_theta_mean           =   1.4047645196933E+01
(PID.TID 0000.0001) %MON dynstat_theta_sd             =   1.8982121590764E+00
(PID.TID 0000.0001) %MON dynstat_theta_del2           =   3.2856996703152E-04
(PID.TID 0000.0001) %MON dynstat_salt_max             =   3.5000000000000E+01
(PID.TID 0000.0001) %MON dynstat_salt_min             =   3.5000000000000E+01
(PID.TID 0000.0001) %MON dynstat_salt_mean            =   3.5000000000000E+01
(PID.TID 0000.0001) %MON dynstat_salt_sd              =   3.0553337637684E-13
(PID.TID 0000.0001) %MON dynstat_salt_del2            =   0.0000000000000E+00
(PID.TID 0000.0001) %MON dynstat_sst_max              =   1.5000000000000E+01
(PID.TID 0000.0001) %MON dynstat_sst_min              =   1.5000000000000E+01
(PID.TID 0000.0001) %MON dynstat_sst_mean             =   1.5000000000000E+01
(PID.TID 0000.0001) %MON dynstat_sst_sd               =   1.0798136369129E-13
(PID.TID 0000.0001) %MON dynstat_sst_del2             =   1.2287351664156E-15
(PID.TID 0000.0001) %MON dynstat_sss_max              =   3.5000000000000E+01
(PID.TID 0000.0001) %MON dynstat_sss_min              =   3.5000000000000E+01
(PID.TID 0000.0001) %MON dynstat_sss_mean             =   3.5000000000000E+01
(PID.TID 0000.0001) %MON dynstat_sss_sd               =   2.8421709430404E-14
(PID.TID 0000.0001) %MON dynstat_sss_del2             =   0.0000000000000E+00
(PID.TID 0000.0001) %MON forcing_qnet_max             =   0.0000000000000E+00
(PID.TID 0000.0001) %MON forcing_qnet_min             =   0.0000000000000E+00
(PID.TID 0000.0001) %MON forcing_qnet_mean            =   0.0000000000000E+00
(PID.TID 0000.0001) %MON forcing_qnet_sd              =   0.0000000000000E+00
(PID.TID 0000.0001) %MON forcing_qnet_del2            =   0.0000000000000E+00
(PID.TID 0000.0001) %MON forcing_qsw_max              =   0.0000000000000E+00
(PID.TID 0000.0001) %MON forcing_qsw_min              =   0.0000000000000E+00
(PID.TID 0000.0001) %MON forcing_qsw_mean             =   0.0000000000000E+00
(PID.TID 0000.0001) %MON forcing_qsw_sd               =   0.0000000000000E+00
(PID.TID 0000.0001) %MON forcing_qsw_del2             =   0.0000000000000E+00
(PID.TID 0000.0001) %MON forcing_empmr_max            =   0.0000000000000E+00
(PID.TID 0000.0001) %MON forcing_empmr_min            =   0.0000000000000E+00
(PID.TID 0000.0001) %MON forcing_empmr_mean           =   0.0000000000000E+00
(PID.TID 0000.0001) %MON forcing_empmr_sd             =   0.0000000000000E+00
(PID.TID 0000.0001) %MON forcing_empmr_del2           =   0.0000000000000E+00
(PID.TID 0000.0001) %MON forcing_fu_max               =   0.0000000000000E+00
(PID.TID 0000.0001) %MON forcing_fu_min               =   0.0000000000000E+00
(PID.TID 0000.0001) %MON forcing_fu_mean              =   0.0000000000000E+00
(PID.TID 0000.0001) %MON forcing_fu_sd                =   0.0000000000000E+00
(PID.TID 0000.0001) %MON forcing_fu_del2              =   0.0000000000000E+00
(PID.TID 0000.0001) %MON forcing_fv_max               =   0.0000000000000E+00
(PID.TID 0000.0001) %MON forcing_fv_min               =   0.0000000000000E+00
(PID.TID 0000.0001) %MON forcing_fv_mean              =   0.0000000000000E+00
(PID.TID 0000.0001) %MON forcing_fv_sd                =   0.0000000000000E+00
(PID.TID 0000.0001) %MON forcing_fv_del2              =   0.0000000000000E+00
(PID.TID 0000.0001) %MON advcfl_uvel_max              =   7.3638602338475E-02
(PID.TID 0000.0001) %MON advcfl_vvel_max              =   0.0000000000000E+00
(PID.TID 0000.0001) %MON advcfl_wvel_max              =   5.4215932326175E-02
(PID.TID 0000.0001) %MON advcfl_W_hf_max              =   6.1882937262164E-02
(PID.TID 0000.0001) %MON pe_b_mean                    =   9.9074841942398E-06
(PID.TID 0000.0001) %MON ke_max                       =   3.9933963761091E-01
(PID.TID 0000.0001) %MON ke_mean                      =   1.0550086091586E-01
(PID.TID 0000.0001) %MON ke_vol                       =   9.6656965507697E+10
(PID.TID 0000.0001) %MON vort_r_min                   =   0.0000000000000E+00
(PID.TID 0000.0001) %MON vort_r_max                   =   0.0000000000000E+00
(PID.TID 0000.0001) %MON vort_a_mean                  =   0.0000000000000E+00
(PID.TID 0000.0001) %MON vort_a_sd                    =   0.0000000000000E+00
(PID.TID 0000.0001) %MON vort_p_mean                  =   0.0000000000000E+00
(PID.TID 0000.0001) %MON vort_p_sd                    =   0.0000000000000E+00
(PID.TID 0000.0001) %MON surfExpan_theta_mean         =  -5.2141167730144E-20
(PID.TID 0000.0001) %MON surfExpan_salt_mean          =  -1.8510114544201E-18
(PID.TID 0000.0001) // =======================================================
(PID.TID 0000.0001) // End MONITOR dynamic field statistics
(PID.TID 0000.0001) // =======================================================
(PID.TID 0000.0001) // =======================================================
(PID.TID 0000.0001) // Begin OBCS MONITOR field statistics
(PID.TID 0000.0001) // =======================================================
(PID.TID 0000.0001) %MON obc_E_uVel_max               =   4.4822851314926E-01
(PID.TID 0000.0001) %MON obc_E_uVel_min               =   4.4822851314926E-01
(PID.TID 0000.0001) %MON obc_E_uVel_mean              =   4.4822851314926E-01
(PID.TID 0000.0001) %MON obc_E_uVel_sd                =   0.0000000000000E+00
(PID.TID 0000.0001) %MON obc_E_uVel_Int               =   4.4822851314926E+05
(PID.TID 0000.0001) %MON obc_W_uVel_max               =   4.4822851314926E-01
(PID.TID 0000.0001) %MON obc_W_uVel_min               =   4.4822851314926E-01
(PID.TID 0000.0001) %MON obc_W_uVel_mean              =   4.4822851314926E-01
(PID.TID 0000.0001) %MON obc_W_uVel_sd                =   0.0000000000000E+00
(PID.TID 0000.0001) %MON obc_W_uVel_Int               =   4.4822851314926E+05
(PID.TID 0000.0001) // =======================================================
(PID.TID 0000.0001) // End OBCS MONITOR field statistics
(PID.TID 0000.0001) // =======================================================
 cg2d: Sum(rhs),rhsMax =  -1.48480672201856E-11  1.18019596794306E-01
 cg2d: Sum(rhs),rhsMax =  -1.43461353907526E-11  1.22740175145803E-01
 cg2d: Sum(rhs),rhsMax =  -1.38148381623182E-11  1.27864997968862E-01
 cg2d: Sum(rhs),rhsMax =  -1.32436839272998E-11  1.33434794798065E-01
 cg2d: Sum(rhs),rhsMax =  -1.27224897283895E-11  1.39482296647035E-01
 cg2d: Sum(rhs),rhsMax =  -1.21758714222153E-11  1.46128916997649E-01
 cg2d: Sum(rhs),rhsMax =  -1.16441856157223E-11  1.53891207296478E-01
 cg2d: Sum(rhs),rhsMax =  -1.10996767332949E-11  1.61726653198562E-01
 cg2d: Sum(rhs),rhsMax =  -1.06551434342350E-11  1.69612141396460E-01
 cg2d: Sum(rhs),rhsMax =  -1.02035047078175E-11  1.77523324240554E-01
 cg2d: Sum(rhs),rhsMax =  -9.81159598012482E-12  1.85434742824945E-01
 cg2d: Sum(rhs),rhsMax =  -9.44611056041822E-12  1.93319964333226E-01
 cg2d: Sum(rhs),rhsMax =  -9.12003805808581E-12  2.01151732731552E-01
 cg2d: Sum(rhs),rhsMax =  -8.84370354725661E-12  2.08902131692359E-01
 cg2d: Sum(rhs),rhsMax =  -8.57935944509336E-12  2.16542758426969E-01
 cg2d: Sum(rhs),rhsMax =  -8.32189872568279E-12  2.24044906962428E-01
 cg2d: Sum(rhs),rhsMax =  -8.11872791217638E-12  2.31379759170823E-01
 cg2d: Sum(rhs),rhsMax =  -7.91311460801580E-12  2.38518581743069E-01
 cg2d: Sum(rhs),rhsMax =  -7.74158515071122E-12  2.45432927181069E-01
 cg2d: Sum(rhs),rhsMax =  -7.57038876031402E-12  2.52094836789853E-01
 cg2d: Sum(rhs),rhsMax =  -7.40352223971286E-12  2.58477043586874E-01
 cg2d: Sum(rhs),rhsMax =  -7.28173077391148E-12  2.64553173005509E-01
 cg2d: Sum(rhs),rhsMax =  -7.16271486567166E-12  2.70297939261609E-01
 cg2d: Sum(rhs),rhsMax =  -7.04203362289491E-12  2.75687335258925E-01
 cg2d: Sum(rhs),rhsMax =  -6.95632440539384E-12  2.80698814017819E-01
 cg2d: Sum(rhs),rhsMax =  -6.87194745552233E-12  2.85311459602448E-01
 cg2d: Sum(rhs),rhsMax =  -6.87250256703464E-12  2.89506145663845E-01
 cg2d: Sum(rhs),rhsMax =  -6.84474699141902E-12  2.93265679844875E-01
 cg2d: Sum(rhs),rhsMax =  -6.84607925904857E-12  2.96574932445078E-01
 cg2d: Sum(rhs),rhsMax =  -6.85407286482587E-12  2.99420947916836E-01
 cg2d: Sum(rhs),rhsMax =  -6.87983003899717E-12  3.01793037956135E-01
 cg2d: Sum(rhs),rhsMax =  -6.92612633912404E-12  3.03682855176921E-01
 cg2d: Sum(rhs),rhsMax =  -6.95321578092489E-12  3.05084446567935E-01
 cg2d: Sum(rhs),rhsMax =  -7.01105840050786E-12  3.05994286199031E-01
 cg2d: Sum(rhs),rhsMax =  -7.03004321422895E-12  3.06411286879905E-01
 cg2d: Sum(rhs),rhsMax =  -7.04425406894416E-12  3.06336790767836E-01
 cg2d: Sum(rhs),rhsMax =  -7.11164460653890E-12  3.05774539160843E-01
 cg2d: Sum(rhs),rhsMax =  -7.14961423398108E-12  3.04730621990843E-01
 cg2d: Sum(rhs),rhsMax =  -7.21989135143986E-12  3.03213407630933E-01
 cg2d: Sum(rhs),rhsMax =  -7.28572757680013E-12  3.01233454096623E-01
 cg2d: Sum(rhs),rhsMax =  -7.37676586481939E-12  2.98803402936285E-01
 cg2d: Sum(rhs),rhsMax =  -7.47968353920214E-12  2.95937857313835E-01
 cg2d: Sum(rhs),rhsMax =  -7.56117390920963E-12  2.92653245658004E-01
 cg2d: Sum(rhs),rhsMax =  -7.65154606341412E-12  2.88967672874755E-01
 cg2d: Sum(rhs),rhsMax =  -7.78488384867160E-12  2.84900760778403E-01
 cg2d: Sum(rhs),rhsMax =  -7.98172639093764E-12  2.80756359183418E-01
 cg2d: Sum(rhs),rhsMax =  -8.06688049692639E-12  2.80581295051568E-01
 cg2d: Sum(rhs),rhsMax =  -8.15381095975454E-12  2.79934958996425E-01
 cg2d: Sum(rhs),rhsMax =  -8.24451618086641E-12  2.78823352462976E-01
 cg2d: Sum(rhs),rhsMax =  -8.43081160439851E-12  2.77254611853169E-01
 cg2d: Sum(rhs),rhsMax =  -8.51119175138138E-12  2.75238928742806E-01
 cg2d: Sum(rhs),rhsMax =  -8.69415650583960E-12  2.72788455290172E-01
 cg2d: Sum(rhs),rhsMax =  -8.90731932656763E-12  2.69917195871584E-01
 cg2d: Sum(rhs),rhsMax =  -9.11770658973410E-12  2.66640886189661E-01
 cg2d: Sum(rhs),rhsMax =  -9.32443011691930E-12  2.62976861266610E-01
 cg2d: Sum(rhs),rhsMax =  -9.52327106062967E-12  2.58943913637556E-01
 cg2d: Sum(rhs),rhsMax =  -9.60265200689037E-12  2.54562143416743E-01
 cg2d: Sum(rhs),rhsMax =  -9.66104973798565E-12  2.49852801273795E-01
 cg2d: Sum(rhs),rhsMax =  -9.72932845400010E-12  2.44838126532952E-01
 cg2d: Sum(rhs),rhsMax =  -9.91529081062481E-12  2.39541181349239E-01
 cg2d: Sum(rhs),rhsMax =  -1.00958130744289E-11  2.33985683509591E-01
 cg2d: Sum(rhs),rhsMax =  -1.03020925124042E-11  2.28195839104924E-01
 cg2d: Sum(rhs),rhsMax =  -1.05311315223844E-11  2.22196176296568E-01
 cg2d: Sum(rhs),rhsMax =  -1.07479580790937E-11  2.16011382423273E-01
 cg2d: Sum(rhs),rhsMax =  -1.10284004151140E-11  2.09666145322620E-01
 cg2d: Sum(rhs),rhsMax =  -1.12987397216102E-11  2.03185000207739E-01
 cg2d: Sum(rhs),rhsMax =  -1.16036069641723E-11  1.96592183443278E-01
 cg2d: Sum(rhs),rhsMax =  -1.19285692434801E-11  1.89911494315021E-01
 cg2d: Sum(rhs),rhsMax =  -1.22594157048184E-11  1.83166165665962E-01
 cg2d: Sum(rhs),rhsMax =  -1.26335608641170E-11  1.76378744233131E-01
 cg2d: Sum(rhs),rhsMax =  -1.30263577702294E-11  1.69570981165115E-01
 cg2d: Sum(rhs),rhsMax =  -1.34596778167406E-11  1.62763733259859E-01
 cg2d: Sum(rhs),rhsMax =  -1.39487310590880E-11  1.55976875488472E-01
 cg2d: Sum(rhs),rhsMax =  -1.44582124050885E-11  1.49229224697737E-01
 cg2d: Sum(rhs),rhsMax =  -1.49684709072062E-11  1.42538474715938E-01
 cg2d: Sum(rhs),rhsMax =  -1.55654378275472E-11  1.35921142829001E-01
 cg2d: Sum(rhs),rhsMax =  -1.61854973868003E-11  1.29392527305456E-01
 cg2d: Sum(rhs),rhsMax =  -1.68961511448629E-11  1.22966675880665E-01
 cg2d: Sum(rhs),rhsMax =  -1.76504366677932E-11  1.16656364510746E-01
 cg2d: Sum(rhs),rhsMax =  -1.85772508487503E-11  1.10473086057977E-01
 cg2d: Sum(rhs),rhsMax =  -1.96677119035371E-11  1.04427048557557E-01
 cg2d: Sum(rhs),rhsMax =  -2.07123207474069E-11  9.85271824117406E-02
 cg2d: Sum(rhs),rhsMax =  -2.19694262781900E-11  9.27811558749172E-02
 cg2d: Sum(rhs),rhsMax =  -2.33542074568049E-11  8.71953981220743E-02
 cg2d: Sum(rhs),rhsMax =  -2.48426834659199E-11  8.17751286842450E-02
 cg2d: Sum(rhs),rhsMax =  -2.65196753446162E-11  7.65243931301461E-02
 cg2d: Sum(rhs),rhsMax =  -2.83697509928516E-11  7.14461041596356E-02
 cg2d: Sum(rhs),rhsMax =  -2.96344060402021E-11  6.83685280234126E-02
 cg2d: Sum(rhs),rhsMax =  -3.06973335639782E-11  6.58004478698508E-02
 cg2d: Sum(rhs),rhsMax =  -3.18679527211430E-11  6.32610237194378E-02
 cg2d: Sum(rhs),rhsMax =  -3.29659632924972E-11  6.09692405839898E-02
 cg2d: Sum(rhs),rhsMax =  -3.40645289753638E-11  5.88067806489590E-02
 cg2d: Sum(rhs),rhsMax =  -3.53239659744986E-11  5.65868281683185E-02
 cg2d: Sum(rhs),rhsMax =  -3.67482710927902E-11  5.43125503620392E-02
 cg2d: Sum(rhs),rhsMax =  -3.83107989776477E-11  5.19593349281662E-02
 cg2d: Sum(rhs),rhsMax =  -4.01311206488231E-11  4.95307590817934E-02
 cg2d: Sum(rhs),rhsMax =  -4.22130108646002E-11  4.70538693514063E-02
 cg2d: Sum(rhs),rhsMax =  -4.45589121156331E-11  4.45042186844886E-02
 cg2d: Sum(rhs),rhsMax =  -4.72746286561687E-11  4.18835708091315E-02
 cg2d: Sum(rhs),rhsMax =  -5.05205877132653E-11  3.91955856740839E-02
 cg2d: Sum(rhs),rhsMax =  -5.43018963128361E-11  3.64439057363091E-02
 cg2d: Sum(rhs),rhsMax =  -5.88205040230605E-11  3.36321532378284E-02
 cg2d: Sum(rhs),rhsMax =  -6.44607700550637E-11  3.07639300310398E-02
 cg2d: Sum(rhs),rhsMax =  -7.13170078547876E-11  2.78428198126734E-02
 cg2d: Sum(rhs),rhsMax =  -7.99184607380710E-11  2.48723925830060E-02
 cg2d: Sum(rhs),rhsMax =  -9.10917452578985E-11  2.18562111102603E-02
 cg2d: Sum(rhs),rhsMax =  -1.05922159931993E-10  1.88214209031734E-02
 cg2d: Sum(rhs),rhsMax =  -1.26603338923559E-10  1.57507750719711E-02
 cg2d: Sum(rhs),rhsMax =  -1.57248769561136E-10  1.26810965238862E-02
 cg2d: Sum(rhs),rhsMax =  -1.84862347651915E-10  1.07916402018006E-02
 cg2d: Sum(rhs),rhsMax =  -1.93609905885239E-10  1.03082556166392E-02
 cg2d: Sum(rhs),rhsMax =  -2.03929095832223E-10  9.78758657747197E-03
 cg2d: Sum(rhs),rhsMax =  -1.95302551908583E-10  1.02221804967463E-02
 cg2d: Sum(rhs),rhsMax =  -1.63274171960381E-10  1.22323510930282E-02
 cg2d: Sum(rhs),rhsMax =  -1.40207734311559E-10  1.42499011102857E-02
 cg2d: Sum(rhs),rhsMax =  -1.22671095503790E-10  1.62980106258750E-02
 cg2d: Sum(rhs),rhsMax =  -1.08671405207872E-10  1.83960669314342E-02
 cg2d: Sum(rhs),rhsMax =  -9.72218971995176E-11  2.05824257704503E-02
 cg2d: Sum(rhs),rhsMax =  -8.75065575556278E-11  2.28673200221755E-02
 cg2d: Sum(rhs),rhsMax =  -7.92160781415419E-11  2.52861930707653E-02
 cg2d: Sum(rhs),rhsMax =  -7.15674186579918E-11  2.79984466758237E-02
 cg2d: Sum(rhs),rhsMax =  -6.51995124556493E-11  3.07721401758137E-02
 cg2d: Sum(rhs),rhsMax =  -5.97598637241958E-11  3.36253531924482E-02
 cg2d: Sum(rhs),rhsMax =  -5.48324718963045E-11  3.66869218868617E-02
 cg2d: Sum(rhs),rhsMax =  -5.07026642893038E-11  3.97202754278762E-02
 cg2d: Sum(rhs),rhsMax =  -4.72181183042153E-11  4.27097373467343E-02
 cg2d: Sum(rhs),rhsMax =  -4.42195169370052E-11  4.56636682492010E-02
 cg2d: Sum(rhs),rhsMax =  -4.16180423457035E-11  4.85644513082072E-02
 cg2d: Sum(rhs),rhsMax =  -3.93426402567343E-11  5.14303151533675E-02
 cg2d: Sum(rhs),rhsMax =  -3.74066333463929E-11  5.42321599021774E-02
 cg2d: Sum(rhs),rhsMax =  -3.56142892954381E-11  5.70044658648513E-02
 cg2d: Sum(rhs),rhsMax =  -3.40747430271904E-11  5.97030056769635E-02
 cg2d: Sum(rhs),rhsMax =  -3.26644267190090E-11  6.23790318226922E-02
 cg2d: Sum(rhs),rhsMax =  -3.13575831967228E-11  6.49753432266088E-02
 cg2d: Sum(rhs),rhsMax =  -3.02354807857341E-11  6.75547934112442E-02
 cg2d: Sum(rhs),rhsMax =  -2.92404989110651E-11  7.00550240292006E-02
 cg2d: Sum(rhs),rhsMax =  -2.81022982662193E-11  7.29392181141767E-02
 cg2d: Sum(rhs),rhsMax =  -2.67845745582918E-11  7.67742645092124E-02
 cg2d: Sum(rhs),rhsMax =  -2.55400145476870E-11  8.07288982132579E-02
 cg2d: Sum(rhs),rhsMax =  -2.43587372494858E-11  8.48016068468607E-02
 cg2d: Sum(rhs),rhsMax =  -2.33484342970769E-11  8.89901345457559E-02
 cg2d: Sum(rhs),rhsMax =  -2.23194795978543E-11  9.32914685175900E-02
 cg2d: Sum(rhs),rhsMax =  -2.12820872036446E-11  9.77018290389217E-02
 cg2d: Sum(rhs),rhsMax =  -2.03669303644460E-11  1.02216663225296E-01
 cg2d: Sum(rhs),rhsMax =  -1.95546911996303E-11  1.06830642846725E-01
 cg2d: Sum(rhs),rhsMax =  -1.87088122771684E-11  1.11537666485894E-01
 cg2d: Sum(rhs),rhsMax =  -1.80508941127755E-11  1.16330866278960E-01
 cg2d: Sum(rhs),rhsMax =  -1.73505654288419E-11  1.21202619440335E-01
 cg2d: Sum(rhs),rhsMax =  -1.66753277852649E-11  1.26144564707823E-01
 cg2d: Sum(rhs),rhsMax =  -1.61695101752457E-11  1.31147623814529E-01
 cg2d: Sum(rhs),rhsMax =  -1.56745727508678E-11  1.36202028073082E-01
 cg2d: Sum(rhs),rhsMax =  -1.52333701208818E-11  1.41297350084468E-01
 cg2d: Sum(rhs),rhsMax =  -1.48259182708443E-11  1.46422540532295E-01
 cg2d: Sum(rhs),rhsMax =  -1.44009248970178E-11  1.51565969976924E-01
 cg2d: Sum(rhs),rhsMax =  -1.40563116701742E-11  1.56715475508905E-01
 cg2d: Sum(rhs),rhsMax =  -1.37188038706881E-11  1.61858412069326E-01
 cg2d: Sum(rhs),rhsMax =  -1.33733024654248E-11  1.66981708218990E-01
 cg2d: Sum(rhs),rhsMax =  -1.30906396833552E-11  1.72071926071872E-01
 cg2d: Sum(rhs),rhsMax =  -1.28150823286433E-11  1.77115325078537E-01
 cg2d: Sum(rhs),rhsMax =  -1.25450760890544E-11  1.82097929280445E-01
 cg2d: Sum(rhs),rhsMax =  -1.23367982496347E-11  1.87005597623382E-01
 cg2d: Sum(rhs),rhsMax =  -1.21005427899945E-11  1.91824096882192E-01
 cg2d: Sum(rhs),rhsMax =  -1.18975940210930E-11  1.96539176713166E-01
 cg2d: Sum(rhs),rhsMax =  -1.17350573702879E-11  2.01136646313063E-01
 cg2d: Sum(rhs),rhsMax =  -1.15600862216070E-11  2.05602452142588E-01
 cg2d: Sum(rhs),rhsMax =  -1.13994369499437E-11  2.09922756110286E-01
 cg2d: Sum(rhs),rhsMax =  -1.12687636999453E-11  2.14084013635678E-01
 cg2d: Sum(rhs),rhsMax =  -1.11572973082730E-11  2.18073050981493E-01
 cg2d: Sum(rhs),rhsMax =  -1.10489395410696E-11  2.21877141233951E-01
 cg2d: Sum(rhs),rhsMax =  -1.09534603609518E-11  2.25484078317344E-01
 cg2d: Sum(rhs),rhsMax =  -1.08806297305364E-11  2.28882248416252E-01
 cg2d: Sum(rhs),rhsMax =  -1.07970299367821E-11  2.32060698187480E-01
 cg2d: Sum(rhs),rhsMax =  -1.07687192496542E-11  2.35009199196884E-01
 cg2d: Sum(rhs),rhsMax =  -1.06998854221274E-11  2.37718308034621E-01
 cg2d: Sum(rhs),rhsMax =  -1.05211395151628E-11  2.43671867683268E-01
 cg2d: Sum(rhs),rhsMax =  -1.03222985714524E-11  2.50121095962884E-01
 cg2d: Sum(rhs),rhsMax =  -1.01395558615991E-11  2.56404688505342E-01
 cg2d: Sum(rhs),rhsMax =  -9.97923965684322E-12  2.62503019038224E-01
 cg2d: Sum(rhs),rhsMax =  -9.80049374987857E-12  2.68396839086707E-01
 cg2d: Sum(rhs),rhsMax =  -9.66593471929400E-12  2.74067382498577E-01
 cg2d: Sum(rhs),rhsMax =  -9.54281098586307E-12  2.79496468177627E-01
 cg2d: Sum(rhs),rhsMax =  -9.40802991067358E-12  2.84666600239257E-01
 cg2d: Sum(rhs),rhsMax =  -9.29767374202584E-12  2.89561064815514E-01
 cg2d: Sum(rhs),rhsMax =  -9.21740461734544E-12  2.94164022757247E-01
 cg2d: Sum(rhs),rhsMax =  -9.07618424861312E-12  2.98460597505877E-01
 cg2d: Sum(rhs),rhsMax =  -9.01967389665970E-12  3.02436957448214E-01
 cg2d: Sum(rhs),rhsMax =  -8.94440077559011E-12  3.06080392123056E-01
 cg2d: Sum(rhs),rhsMax =  -8.82982575944879E-12  3.09379381666482E-01
 cg2d: Sum(rhs),rhsMax =  -8.74289529662065E-12  3.12323658955777E-01
 cg2d: Sum(rhs),rhsMax =  -8.70015171017258E-12  3.14904263972717E-01
 cg2d: Sum(rhs),rhsMax =  -8.66118288200823E-12  3.17113589972554E-01
 cg2d: Sum(rhs),rhsMax =  -8.63176197185567E-12  3.18945421113626E-01
 cg2d: Sum(rhs),rhsMax =  -8.59856630341937E-12  3.20394961274866E-01
 cg2d: Sum(rhs),rhsMax =  -8.59579074585781E-12  3.21458853864084E-01
 cg2d: Sum(rhs),rhsMax =  -8.58602078324111E-12  3.22135192504193E-01
 cg2d: Sum(rhs),rhsMax =  -8.59401438901841E-12  3.22423522547897E-01
 cg2d: Sum(rhs),rhsMax =  -8.65818527984175E-12  3.22324833482251E-01
 cg2d: Sum(rhs),rhsMax =  -8.74456063115758E-12  3.21841542344363E-01
 cg2d: Sum(rhs),rhsMax =  -8.80295836225287E-12  3.20977468253446E-01
 cg2d: Sum(rhs),rhsMax =  -8.93196627771431E-12  3.19737798405868E-01
 cg2d: Sum(rhs),rhsMax =  -9.01334562541933E-12  3.18129045929598E-01
 cg2d: Sum(rhs),rhsMax =  -9.08961794721108E-12  3.16159000007563E-01
 cg2d: Sum(rhs),rhsMax =  -9.22295573246856E-12  3.13836668668178E-01
 cg2d: Sum(rhs),rhsMax =  -9.32265376007990E-12  3.11172214701453E-01
 cg2d: Sum(rhs),rhsMax =  -9.47220080149691E-12  3.08176885692373E-01
 cg2d: Sum(rhs),rhsMax =  -9.59454737881060E-12  3.04862938301545E-01
 cg2d: Sum(rhs),rhsMax =  -9.76296821164624E-12  3.01243557820038E-01
 cg2d: Sum(rhs),rhsMax =  -9.93916060565425E-12  2.97332773648479E-01
 cg2d: Sum(rhs),rhsMax =  -1.01705310839861E-11  2.93145371069414E-01
 cg2d: Sum(rhs),rhsMax =  -1.03466124556917E-11  2.88696800122469E-01
 cg2d: Sum(rhs),rhsMax =  -1.05726538635054E-11  2.84003082678515E-01
 cg2d: Sum(rhs),rhsMax =  -1.08505426865690E-11  2.79080718296732E-01
 cg2d: Sum(rhs),rhsMax =  -1.10906839267955E-11  2.73946589246110E-01
 cg2d: Sum(rhs),rhsMax =  -1.13865583628581E-11  2.68617865740852E-01
 cg2d: Sum(rhs),rhsMax =  -1.16747722600508E-11  2.63111912013566E-01
 cg2d: Sum(rhs),rhsMax =  -1.20146115278885E-11  2.57446193869076E-01
 cg2d: Sum(rhs),rhsMax =  -1.23466792345539E-11  2.51638188271689E-01
 cg2d: Sum(rhs),rhsMax =  -1.26961774427059E-11  2.45705295427431E-01
 cg2d: Sum(rhs),rhsMax =  -1.30671029552332E-11  2.39664753938451E-01
 cg2d: Sum(rhs),rhsMax =  -1.35006450463493E-11  2.33533559572256E-01
 cg2d: Sum(rhs),rhsMax =  -1.39124267661828E-11  2.27328388020355E-01
 cg2d: Sum(rhs),rhsMax =  -1.43519640616319E-11  2.21065521992020E-01
 cg2d: Sum(rhs),rhsMax =  -1.48108192377094E-11  2.14760783018407E-01
 cg2d: Sum(rhs),rhsMax =  -1.53026480376184E-11  2.08429468179861E-01
 cg2d: Sum(rhs),rhsMax =  -1.58001389749529E-11  2.02086291986637E-01
 cg2d: Sum(rhs),rhsMax =  -1.63452584800439E-11  1.95745333748639E-01
 cg2d: Sum(rhs),rhsMax =  -1.69333436161878E-11  1.89419990341772E-01
 cg2d: Sum(rhs),rhsMax =  -1.74458225643548E-11  1.83122934466840E-01
 cg2d: Sum(rhs),rhsMax =  -1.81648029951020E-11  1.76866078446544E-01
 cg2d: Sum(rhs),rhsMax =  -1.87763138370656E-11  1.70660543482861E-01
 cg2d: Sum(rhs),rhsMax =  -1.94683158483144E-11  1.64516634687966E-01
 cg2d: Sum(rhs),rhsMax =  -2.02013961114744E-11  1.58443821458661E-01
 cg2d: Sum(rhs),rhsMax =  -2.09662287531387E-11  1.52450723094242E-01
 cg2d: Sum(rhs),rhsMax =  -2.17631468402146E-11  1.46545099534514E-01
 cg2d: Sum(rhs),rhsMax =  -2.26605401110191E-11  1.40733847048910E-01
 cg2d: Sum(rhs),rhsMax =  -2.36087815963515E-11  1.35022998676191E-01
 cg2d: Sum(rhs),rhsMax =  -2.45700126910720E-11  1.29417729175836E-01
 cg2d: Sum(rhs),rhsMax =  -2.56326071479407E-11  1.23922364246511E-01
 cg2d: Sum(rhs),rhsMax =  -2.67594835179352E-11  1.18540393711134E-01
 cg2d: Sum(rhs),rhsMax =  -2.79323231211492E-11  1.13274488398556E-01
 cg2d: Sum(rhs),rhsMax =  -2.91972002131047E-11  1.08126520400282E-01
 cg2d: Sum(rhs),rhsMax =  -3.05555580837336E-11  1.03097586391979E-01
 cg2d: Sum(rhs),rhsMax =  -3.20785620289143E-11  9.81880337235996E-02
 cg2d: Sum(rhs),rhsMax =  -3.36810579426583E-11  9.33974889350560E-02
 cg2d: Sum(rhs),rhsMax =  -3.53560514199103E-11  8.87248884312774E-02
 cg2d: Sum(rhs),rhsMax =  -3.72846198359866E-11  8.41685110269873E-02
 cg2d: Sum(rhs),rhsMax =  -3.93236554430132E-11  7.97260120176081E-02
 cg2d: Sum(rhs),rhsMax =  -4.15172340950676E-11  7.53944586201014E-02
 cg2d: Sum(rhs),rhsMax =  -4.39315250844174E-11  7.11703663851788E-02
 cg2d: Sum(rhs),rhsMax =  -4.65644189873160E-11  6.70497364703500E-02
 cg2d: Sum(rhs),rhsMax =  -4.94813079399137E-11  6.30280935943420E-02
 cg2d: Sum(rhs),rhsMax =  -5.27287102869423E-11  5.91005243166852E-02
 cg2d: Sum(rhs),rhsMax =  -5.63293856004066E-11  5.52617156208386E-02
 cg2d: Sum(rhs),rhsMax =  -6.03896932460657E-11  5.15059936805620E-02
 cg2d: Sum(rhs),rhsMax =  -6.48827658267237E-11  4.78273627059665E-02
 cg2d: Sum(rhs),rhsMax =  -7.00844937639999E-11  4.42195437066955E-02
 cg2d: Sum(rhs),rhsMax =  -7.61615215338907E-11  4.06760131039813E-02
 cg2d: Sum(rhs),rhsMax =  -8.32596214195291E-11  3.71900411432499E-02
 cg2d: Sum(rhs),rhsMax =  -9.17017572987788E-11  3.37547300636106E-02
 cg2d: Sum(rhs),rhsMax =  -1.01890273995764E-10  3.03630519572607E-02
 cg2d: Sum(rhs),rhsMax =  -1.14478315715871E-10  2.70078862951957E-02
 cg2d: Sum(rhs),rhsMax =  -1.22670762436883E-10  2.51906648699104E-02
 cg2d: Sum(rhs),rhsMax =  -1.28770771823383E-10  2.39809426940061E-02
 cg2d: Sum(rhs),rhsMax =  -1.35556899039102E-10  2.27661997939988E-02
 cg2d: Sum(rhs),rhsMax =  -1.43176581701709E-10  2.15408838492879E-02
 cg2d: Sum(rhs),rhsMax =  -1.51854084862180E-10  2.02994075584150E-02
 cg2d: Sum(rhs),rhsMax =  -1.61792357289414E-10  1.90361605936169E-02
 cg2d: Sum(rhs),rhsMax =  -1.73410175108302E-10  1.77455226208283E-02
 cg2d: Sum(rhs),rhsMax =  -1.87357684922063E-10  1.64218773355033E-02
 cg2d: Sum(rhs),rhsMax =  -2.04295691474954E-10  1.50596274309098E-02
 cg2d: Sum(rhs),rhsMax =  -2.00973571118368E-10  1.53055061665139E-02
 cg2d: Sum(rhs),rhsMax =  -1.63805746744572E-10  1.87731043830222E-02
 cg2d: Sum(rhs),rhsMax =  -1.38388356329955E-10  2.22083932284684E-02
 cg2d: Sum(rhs),rhsMax =  -1.19928122988000E-10  2.56088692421839E-02
 cg2d: Sum(rhs),rhsMax =  -1.05819408791064E-10  2.89961731998388E-02
 cg2d: Sum(rhs),rhsMax =  -9.47931455552720E-11  3.23542483167862E-02
 cg2d: Sum(rhs),rhsMax =  -8.58741966425214E-11  3.56843743970669E-02
 cg2d: Sum(rhs),rhsMax =  -7.85012749249248E-11  3.90139921173327E-02
 cg2d: Sum(rhs),rhsMax =  -7.23417679926452E-11  4.23215348099530E-02
 cg2d: Sum(rhs),rhsMax =  -6.69836131006463E-11  4.56428153315811E-02
 cg2d: Sum(rhs),rhsMax =  -6.23629897722466E-11  4.89776290815741E-02
 cg2d: Sum(rhs),rhsMax =  -5.82771886303846E-11  5.23486401258907E-02
 cg2d: Sum(rhs),rhsMax =  -5.45471168234002E-11  5.58408408397662E-02
 cg2d: Sum(rhs),rhsMax =  -5.12043463185563E-11  5.94004366666797E-02
 cg2d: Sum(rhs),rhsMax =  -4.82550943647908E-11  6.29648950237764E-02
 cg2d: Sum(rhs),rhsMax =  -4.55287751943700E-11  6.66350766381024E-02
 cg2d: Sum(rhs),rhsMax =  -4.30693258834935E-11  7.03606537064277E-02
 cg2d: Sum(rhs),rhsMax =  -4.08279521302291E-11  7.41717164703751E-02
 cg2d: Sum(rhs),rhsMax =  -3.87260779000087E-11  7.81205196133144E-02
 cg2d: Sum(rhs),rhsMax =  -3.67787467148162E-11  8.21905461460440E-02
 cg2d: Sum(rhs),rhsMax =  -3.48280293493985E-11  8.64083174956896E-02
 cg2d: Sum(rhs),rhsMax =  -3.29693494727223E-11  9.10456366971576E-02
 cg2d: Sum(rhs),rhsMax =  -3.12622705500587E-11  9.58325025431703E-02
 cg2d: Sum(rhs),rhsMax =  -2.96812019406900E-11  1.00668069052369E-01
 cg2d: Sum(rhs),rhsMax =  -2.82876500001805E-11  1.05546489400184E-01
 cg2d: Sum(rhs),rhsMax =  -2.70942712710109E-11  1.10461388419713E-01
 cg2d: Sum(rhs),rhsMax =  -2.59842702909907E-11  1.15405883488012E-01
 cg2d: Sum(rhs),rhsMax =  -2.49707476918104E-11  1.20372608527131E-01
 cg2d: Sum(rhs),rhsMax =  -2.40318320798849E-11  1.25353741017090E-01
 cg2d: Sum(rhs),rhsMax =  -2.31169527964425E-11  1.30341031878070E-01
 cg2d: Sum(rhs),rhsMax =  -2.22974971819667E-11  1.35325838044209E-01
 cg2d: Sum(rhs),rhsMax =  -2.14981366042366E-11  1.40299157523208E-01
 cg2d: Sum(rhs),rhsMax =  -2.07744932367859E-11  1.45251666715844E-01
 cg2d: Sum(rhs),rhsMax =  -2.01290095702689E-11  1.50173759755818E-01
 cg2d: Sum(rhs),rhsMax =  -1.95243821110580E-11  1.55055589625764E-01
 cg2d: Sum(rhs),rhsMax =  -1.89499527181169E-11  1.59887110807666E-01
 cg2d: Sum(rhs),rhsMax =  -1.84320336771293E-11  1.64658123231376E-01
 cg2d: Sum(rhs),rhsMax =  -1.79694037427680E-11  1.69358317294236E-01
 cg2d: Sum(rhs),rhsMax =  -1.75087722098510E-11  1.73977319734592E-01
 cg2d: Sum(rhs),rhsMax =  -1.71291869577317E-11  1.78504740149503E-01
 cg2d: Sum(rhs),rhsMax =  -1.67506009063345E-11  1.82930217951457E-01
 cg2d: Sum(rhs),rhsMax =  -1.64105395938918E-11  1.87243469559223E-01
 cg2d: Sum(rhs),rhsMax =  -1.60899071843801E-11  1.91434335614224E-01
 cg2d: Sum(rhs),rhsMax =  -1.58206781009085E-11  1.95492828006144E-01
 cg2d: Sum(rhs),rhsMax =  -1.55456758577088E-11  1.99409176478007E-01
 cg2d: Sum(rhs),rhsMax =  -1.53015378145938E-11  2.03173874566321E-01
 cg2d: Sum(rhs),rhsMax =  -1.50791601427613E-11  2.06777724616857E-01
 cg2d: Sum(rhs),rhsMax =  -1.48661083443358E-11  2.10211881602736E-01
 cg2d: Sum(rhs),rhsMax =  -1.46561651703792E-11  2.13467895461116E-01
 cg2d: Sum(rhs),rhsMax =  -1.44970702109504E-11  2.16537751659599E-01
 cg2d: Sum(rhs),rhsMax =  -1.43328682256083E-11  2.19413909703486E-01
 cg2d: Sum(rhs),rhsMax =  -1.41786582474879E-11  2.22089339310632E-01
 cg2d: Sum(rhs),rhsMax =  -1.40671918558155E-11  2.24557553987203E-01
 cg2d: Sum(rhs),rhsMax =  -1.39488420813905E-11  2.26812641765232E-01
 cg2d: Sum(rhs),rhsMax =  -1.38485889422668E-11  2.28849292891002E-01
 cg2d: Sum(rhs),rhsMax =  -1.37646560816052E-11  2.30662824282438E-01
 cg2d: Sum(rhs),rhsMax =  -1.37153621793118E-11  2.32249200622284E-01
 cg2d: Sum(rhs),rhsMax =  -1.36596289834756E-11  2.33605051950337E-01
 cg2d: Sum(rhs),rhsMax =  -1.36123334826266E-11  2.34727687679867E-01
 cg2d: Sum(rhs),rhsMax =  -1.36325395416748E-11  2.35615107007574E-01
 cg2d: Sum(rhs),rhsMax =  -1.36622935187347E-11  2.36266005662580E-01
 cg2d: Sum(rhs),rhsMax =  -1.37021505253188E-11  2.36679778979538E-01
 cg2d: Sum(rhs),rhsMax =  -1.37134748001699E-11  2.36856521314372E-01
 cg2d: Sum(rhs),rhsMax =  -1.37418965096003E-11  2.36797021837337E-01
 cg2d: Sum(rhs),rhsMax =  -1.38005162853005E-11  2.36502756804347E-01
 cg2d: Sum(rhs),rhsMax =  -1.38168365637625E-11  2.35975878317950E-01
 cg2d: Sum(rhs),rhsMax =  -1.38655753545436E-11  2.35219199687784E-01
 cg2d: Sum(rhs),rhsMax =  -1.39448452785018E-11  2.34236177448132E-01
 cg2d: Sum(rhs),rhsMax =  -1.40359945888235E-11  2.33030890114597E-01
 cg2d: Sum(rhs),rhsMax =  -1.41441303114220E-11  2.31608013955809E-01
 cg2d: Sum(rhs),rhsMax =  -1.42085232468503E-11  2.29972796046714E-01
 cg2d: Sum(rhs),rhsMax =  -1.43850487077657E-11  2.28131024653859E-01
 cg2d: Sum(rhs),rhsMax =  -1.45959910824445E-11  2.26088997148006E-01
 cg2d: Sum(rhs),rhsMax =  -1.47845069520258E-11  2.23853485846057E-01
 cg2d: Sum(rhs),rhsMax =  -1.49664725057619E-11  2.21987102149805E-01
 cg2d: Sum(rhs),rhsMax =  -1.51133550119198E-11  2.21489340532645E-01
 cg2d: Sum(rhs),rhsMax =  -1.52294843402956E-11  2.20749978441120E-01
 cg2d: Sum(rhs),rhsMax =  -1.54174450983646E-11  2.19772349404703E-01
 cg2d: Sum(rhs),rhsMax =  -1.55430113224497E-11  2.18560466879017E-01
 cg2d: Sum(rhs),rhsMax =  -1.57531765410113E-11  2.17118997942419E-01
 cg2d: Sum(rhs),rhsMax =  -1.59806612387570E-11  2.15453233973021E-01
 cg2d: Sum(rhs),rhsMax =  -1.61761715133935E-11  2.13569058475324E-01
 cg2d: Sum(rhs),rhsMax =  -1.64355196119459E-11  2.11472912407326E-01
 cg2d: Sum(rhs),rhsMax =  -1.66326952211193E-11  2.09171757120454E-01
 cg2d: Sum(rhs),rhsMax =  -1.69587677234517E-11  2.06673035278283E-01
 cg2d: Sum(rhs),rhsMax =  -1.72571956724710E-11  2.03984630119132E-01
 cg2d: Sum(rhs),rhsMax =  -1.75242043098933E-11  2.01114823172006E-01
 cg2d: Sum(rhs),rhsMax =  -1.79252168663879E-11  1.98072250778421E-01
 cg2d: Sum(rhs),rhsMax =  -1.82875936616256E-11  1.94865859772426E-01
 cg2d: Sum(rhs),rhsMax =  -1.85688131537631E-11  1.91504862469592E-01
 cg2d: Sum(rhs),rhsMax =  -1.88707938164612E-11  1.87998691231217E-01
 cg2d: Sum(rhs),rhsMax =  -1.91876514676892E-11  1.84356952822597E-01
 cg2d: Sum(rhs),rhsMax =  -1.95844451766902E-11  1.80589383086330E-01
 cg2d: Sum(rhs),rhsMax =  -1.99026350955478E-11  1.76705801919662E-01
 cg2d: Sum(rhs),rhsMax =  -2.03406180787624E-11  1.72716068848202E-01
 cg2d: Sum(rhs),rhsMax =  -2.08071337937099E-11  1.68630039455182E-01
 cg2d: Sum(rhs),rhsMax =  -2.12936335231007E-11  1.64457522898939E-01
 cg2d: Sum(rhs),rhsMax =  -2.18222107051247E-11  1.60208240695720E-01
 cg2d: Sum(rhs),rhsMax =  -2.23566720691792E-11  1.55891786963389E-01
 cg2d: Sum(rhs),rhsMax =  -2.29561925024768E-11  1.51517590433656E-01
 cg2d: Sum(rhs),rhsMax =  -2.36071162618146E-11  1.47094878204189E-01
 cg2d: Sum(rhs),rhsMax =  -2.42562636643129E-11  1.42632641398636E-01
 cg2d: Sum(rhs),rhsMax =  -2.50099940757309E-11  1.38139602874818E-01
 cg2d: Sum(rhs),rhsMax =  -2.58112420326029E-11  1.33624187218516E-01
 cg2d: Sum(rhs),rhsMax =  -2.66533461967811E-11  1.29094493004730E-01
 cg2d: Sum(rhs),rhsMax =  -2.76314526814758E-11  1.24558267506578E-01
 cg2d: Sum(rhs),rhsMax =  -2.86528578641310E-11  1.20022883804831E-01
 cg2d: Sum(rhs),rhsMax =  -2.97792901449156E-11  1.15495320303714E-01
 cg2d: Sum(rhs),rhsMax =  -3.09420267186056E-11  1.10982142914381E-01
 cg2d: Sum(rhs),rhsMax =  -3.21561666183356E-11  1.06489489879171E-01
 cg2d: Sum(rhs),rhsMax =  -3.35147465335695E-11  1.02023059173453E-01
 cg2d: Sum(rhs),rhsMax =  -3.49328344029232E-11  9.75880984630709E-02
 cg2d: Sum(rhs),rhsMax =  -3.65154573245263E-11  9.31893975204482E-02
 cg2d: Sum(rhs),rhsMax =  -3.81643605606996E-11  8.88312832234212E-02
 cg2d: Sum(rhs),rhsMax =  -4.00596222860372E-11  8.45176167060782E-02
 cg2d: Sum(rhs),rhsMax =  -4.21309653830804E-11  8.02517928519785E-02
 cg2d: Sum(rhs),rhsMax =  -4.44253522857707E-11  7.60367421215634E-02
 cg2d: Sum(rhs),rhsMax =  -4.69779770639889E-11  7.18749344944849E-02
 cg2d: Sum(rhs),rhsMax =  -4.97460961312868E-11  6.77683854134508E-02
 cg2d: Sum(rhs),rhsMax =  -5.28694865664647E-11  6.37186638968521E-02
 cg2d: Sum(rhs),rhsMax =  -5.63787905250024E-11  5.97269025131908E-02
 cg2d: Sum(rhs),rhsMax =  -6.03097571882927E-11  5.57938090637688E-02
 cg2d: Sum(rhs),rhsMax =  -6.47569775580337E-11  5.19196799255321E-02
 cg2d: Sum(rhs),rhsMax =  -6.98765489914877E-11  4.81044149867993E-02
 cg2d: Sum(rhs),rhsMax =  -7.57858220623575E-11  4.43475340607431E-02
 cg2d: Sum(rhs),rhsMax =  -8.26078094817717E-11  4.06481946685052E-02
 cg2d: Sum(rhs),rhsMax =  -9.07915964631911E-11  3.70052109319314E-02
 cg2d: Sum(rhs),rhsMax =  -1.00602304264896E-10  3.34170735185233E-02
 cg2d: Sum(rhs),rhsMax =  -1.12537312801919E-10  2.98819704802594E-02
 cg2d: Sum(rhs),rhsMax =  -1.24619425889705E-10  2.70029620271825E-02
 cg2d: Sum(rhs),rhsMax =  -1.36104238990242E-10  2.47236937969466E-02
 cg2d: Sum(rhs),rhsMax =  -1.49612988664671E-10  2.24878298638745E-02
 cg2d: Sum(rhs),rhsMax =  -1.65918390138131E-10  2.02913852232420E-02
 cg2d: Sum(rhs),rhsMax =  -1.85675363972848E-10  1.81302175046704E-02
 cg2d: Sum(rhs),rhsMax =  -2.10483963591912E-10  1.60000389510850E-02
 cg2d: Sum(rhs),rhsMax =  -2.42360465030345E-10  1.38964286316762E-02
 cg2d: Sum(rhs),rhsMax =  -2.85113210818366E-10  1.18148448721217E-02
 cg2d: Sum(rhs),rhsMax =  -3.45619678709941E-10  9.75063793060071E-03
 cg2d: Sum(rhs),rhsMax =  -3.75360409421432E-10  8.97869374360170E-03
 cg2d: Sum(rhs),rhsMax =  -3.74711150996632E-10  8.99813802816563E-03
 cg2d: Sum(rhs),rhsMax =  -3.21043414075461E-10  1.05033710507402E-02
 cg2d: Sum(rhs),rhsMax =  -2.51581644405974E-10  1.34047139284143E-02
 cg2d: Sum(rhs),rhsMax =  -2.06639372279938E-10  1.63254297569566E-02
 cg2d: Sum(rhs),rhsMax =  -1.75307435235084E-10  1.92430156834972E-02
 cg2d: Sum(rhs),rhsMax =  -1.52264312269779E-10  2.21606155415683E-02
 cg2d: Sum(rhs),rhsMax =  -1.34445898858360E-10  2.51136886111996E-02
 cg2d: Sum(rhs),rhsMax =  -1.20261689495749E-10  2.80730433690468E-02
 cg2d: Sum(rhs),rhsMax =  -1.08723585690029E-10  3.10804339424063E-02
 cg2d: Sum(rhs),rhsMax =  -9.88924497846710E-11  3.41912948732778E-02
 cg2d: Sum(rhs),rhsMax =  -9.07047770226654E-11  3.73254368590679E-02
 cg2d: Sum(rhs),rhsMax =  -8.37118152574590E-11  4.04767182918478E-02
 cg2d: Sum(rhs),rhsMax =  -7.77080622071935E-11  4.36476164941471E-02
 cg2d: Sum(rhs),rhsMax =  -7.24563742338091E-11  4.68403840240979E-02
 cg2d: Sum(rhs),rhsMax =  -6.78134215448267E-11  5.00570334688631E-02
 cg2d: Sum(rhs),rhsMax =  -6.37765396049872E-11  5.32993233964608E-02
 cg2d: Sum(rhs),rhsMax =  -6.01265703892295E-11  5.65687455028589E-02
 cg2d: Sum(rhs),rhsMax =  -5.68463054406720E-11  5.98665129151355E-02
 cg2d: Sum(rhs),rhsMax =  -5.39328581794507E-11  6.31935496502528E-02
 cg2d: Sum(rhs),rhsMax =  -5.12034858957122E-11  6.65504812488968E-02
 cg2d: Sum(rhs),rhsMax =  -4.87898610401771E-11  6.99376266009637E-02
 cg2d: Sum(rhs),rhsMax =  -4.65458782628048E-11  7.33549909817005E-02
 cg2d: Sum(rhs),rhsMax =  -4.45048442543339E-11  7.68022603294674E-02
 cg2d: Sum(rhs),rhsMax =  -4.25925961167195E-11  8.02787968075565E-02
 cg2d: Sum(rhs),rhsMax =  -4.09469125273176E-11  8.37836357031487E-02
 cg2d: Sum(rhs),rhsMax =  -3.93735044568189E-11  8.73154837206929E-02
 cg2d: Sum(rhs),rhsMax =  -3.79207776290968E-11  9.08727187250417E-02
 cg2d: Sum(rhs),rhsMax =  -3.65831809290285E-11  9.44533909806860E-02
 cg2d: Sum(rhs),rhsMax =  -3.52922135959943E-11  9.80552259186775E-02
 cg2d: Sum(rhs),rhsMax =  -3.41442429885319E-11  1.01675628445283E-01
 cg2d: Sum(rhs),rhsMax =  -3.30409033466594E-11  1.05311688789377E-01
 cg2d: Sum(rhs),rhsMax =  -3.19557713623908E-11  1.08960189871616E-01
 cg2d: Sum(rhs),rhsMax =  -3.09824388367019E-11  1.12617616172267E-01
 cg2d: Sum(rhs),rhsMax =  -3.00968139299584E-11  1.16280164060206E-01
 cg2d: Sum(rhs),rhsMax =  -2.92047497296721E-11  1.19943753569857E-01
 cg2d: Sum(rhs),rhsMax =  -2.83435497294704E-11  1.23604041581266E-01
 cg2d: Sum(rhs),rhsMax =  -2.75532929805422E-11  1.27256436399560E-01
 cg2d: Sum(rhs),rhsMax =  -2.68638444822500E-11  1.30896113729410E-01
 cg2d: Sum(rhs),rhsMax =  -2.60782506700252E-11  1.34518034023004E-01
 cg2d: Sum(rhs),rhsMax =  -2.54520848841366E-11  1.38116961174314E-01
 cg2d: Sum(rhs),rhsMax =  -2.48272513658776E-11  1.41687482519404E-01
 cg2d: Sum(rhs),rhsMax =  -2.42281750217899E-11  1.45224030081595E-01
 cg2d: Sum(rhs),rhsMax =  -2.36957120591796E-11  1.48720902973740E-01
 cg2d: Sum(rhs),rhsMax =  -2.31346053425341E-11  1.52172290842092E-01
 cg2d: Sum(rhs),rhsMax =  -2.27191598867194E-11  1.55572298212224E-01
 cg2d: Sum(rhs),rhsMax =  -2.22795115689678E-11  1.58914969576706E-01
 cg2d: Sum(rhs),rhsMax =  -2.18625118009186E-11  1.62194315053394E-01
 cg2d: Sum(rhs),rhsMax =  -2.14810391696574E-11  1.65404336444677E-01
 cg2d: Sum(rhs),rhsMax =  -2.11461959054304E-11  1.68539053529051E-01
 cg2d: Sum(rhs),rhsMax =  -2.08176809124438E-11  1.71592530425414E-01
 cg2d: Sum(rhs),rhsMax =  -2.05151451382335E-11  1.74558901884470E-01
 cg2d: Sum(rhs),rhsMax =  -2.02633465562485E-11  1.77432399366957E-01
 cg2d: Sum(rhs),rhsMax =  -1.99915639598203E-11  1.80207376771398E-01
 cg2d: Sum(rhs),rhsMax =  -1.97624139275376E-11  1.82878335707188E-01
 cg2d: Sum(rhs),rhsMax =  -1.93692839545179E-11  1.87192264683683E-01
 cg2d: Sum(rhs),rhsMax =  -1.89278592799269E-11  1.92055215114851E-01
 cg2d: Sum(rhs),rhsMax =  -1.85319537493456E-11  1.96861488742364E-01
 cg2d: Sum(rhs),rhsMax =  -1.81203940741170E-11  2.01601395759514E-01
 cg2d: Sum(rhs),rhsMax =  -1.77781123156251E-11  2.06265216234127E-01
 cg2d: Sum(rhs),rhsMax =  -1.74490422111262E-11  2.10843237025704E-01
 cg2d: Sum(rhs),rhsMax =  -1.71190839282076E-11  2.15325789155006E-01
 cg2d: Sum(rhs),rhsMax =  -1.68315361648297E-11  2.19703285418579E-01
 cg2d: Sum(rhs),rhsMax =  -1.65570890331423E-11  2.23966258036771E-01
 cg2d: Sum(rhs),rhsMax =  -1.63123958785150E-11  2.28105396121072E-01
 cg2d: Sum(rhs),rhsMax =  -1.60483848432591E-11  2.32111582744683E-01
 cg2d: Sum(rhs),rhsMax =  -1.58333346433892E-11  2.35975931398851E-01
 cg2d: Sum(rhs),rhsMax =  -1.56267221385065E-11  2.39689821632553E-01
 cg2d: Sum(rhs),rhsMax =  -1.54437573840482E-11  2.43244933655773E-01
 cg2d: Sum(rhs),rhsMax =  -1.52915458073721E-11  2.46633281703337E-01
 cg2d: Sum(rhs),rhsMax =  -1.51303414241966E-11  2.49847245964735E-01
 cg2d: Sum(rhs),rhsMax =  -1.50278678390237E-11  2.52879602895674E-01
(PID.TID 0000.0001)      cg2d_init_res =   3.34902221505547E-02
(PID.TID 0000.0001)      cg2d_iters(min,last) =      -1      37
(PID.TID 0000.0001)      cg2d_last_res =   7.10529337285338E-14
(PID.TID 0000.0001) // =======================================================
(PID.TID 0000.0001) // Begin MONITOR dynamic field statistics
(PID.TID 0000.0001) // =======================================================
(PID.TID 0000.0001) %MON time_tsnumber                =                   960
(PID.TID 0000.0001) %MON time_secondsf                =   1.4400000000000E+04
(PID.TID 0000.0001) %MON dynstat_eta_max              =   4.4058066358465E-02
(PID.TID 0000.0001) %MON dynstat_eta_min              =  -4.3314457167883E-02
(PID.TID 0000.0001) %MON dynstat_eta_mean             =   8.3935345723493E-15
(PID.TID 0000.0001) %MON dynstat_eta_sd               =   2.9223666645095E-02
(PID.TID 0000.0001) %MON dynstat_eta_del2             =   9.9589016296691E-06
(PID.TID 0000.0001) %MON dynstat_uvel_max             =   1.0775990429950E+00
(PID.TID 0000.0001) %MON dynstat_uvel_min             =  -5.3283110974224E-01
(PID.TID 0000.0001) %MON dynstat_uvel_mean            =   4.5213604560575E-01
(PID.TID 0000.0001) %MON dynstat_uvel_sd              =   5.1423417270096E-02
(PID.TID 0000.0001) %MON dynstat_uvel_del2            =   2.9621446840167E-04
(PID.TID 0000.0001) %MON dynstat_vvel_max             =   0.0000000000000E+00
(PID.TID 0000.0001) %MON dynstat_vvel_min             =   0.0000000000000E+00
(PID.TID 0000.0001) %MON dynstat_vvel_mean            =   0.0000000000000E+00
(PID.TID 0000.0001) %MON dynstat_vvel_sd              =   0.0000000000000E+00
(PID.TID 0000.0001) %MON dynstat_vvel_del2            =   0.0000000000000E+00
(PID.TID 0000.0001) %MON dynstat_wvel_max             =   1.1487567285916E-02
(PID.TID 0000.0001) %MON dynstat_wvel_min             =  -1.7438439208437E-02
(PID.TID 0000.0001) %MON dynstat_wvel_mean            =   1.8965715787128E-20
(PID.TID 0000.0001) %MON dynstat_wvel_sd              =   1.3692601190494E-03
(PID.TID 0000.0001) %MON dynstat_wvel_del2            =   2.2456314403898E-05
(PID.TID 0000.0001) %MON dynstat_theta_max            =   1.5000000000003E+01
(PID.TID 0000.0001) %MON dynstat_theta_min            =   9.9999999999983E+00
(PID.TID 0000.0001) %MON dynstat_theta_mean           =   1.4047646241573E+01
(PID.TID 0000.0001) %MON dynstat_theta_sd             =   1.8927825093904E+00
(PID.TID 0000.0001) %MON dynstat_theta_del2           =   5.8452666602783E-04
(PID.TID 0000.0001) %MON dynstat_salt_max             =   3.5000000000000E+01
(PID.TID 0000.0001) %MON dynstat_salt_min             =   3.5000000000000E+01
(PID.TID 0000.0001) %MON dynstat_salt_mean            =   3.5000000000000E+01
(PID.TID 0000.0001) %MON dynstat_salt_sd              =   3.0553337637684E-13
(PID.TID 0000.0001) %MON dynstat_salt_del2            =   0.0000000000000E+00
(PID.TID 0000.0001) %MON dynstat_sst_max              =   1.5000000000000E+01
(PID.TID 0000.0001) %MON dynstat_sst_min              =   1.5000000000000E+01
(PID.TID 0000.0001) %MON dynstat_sst_mean             =   1.5000000000000E+01
(PID.TID 0000.0001) %MON dynstat_sst_sd               =   1.0537219336652E-13
(PID.TID 0000.0001) %MON dynstat_sst_del2             =   3.0054656185457E-15
(PID.TID 0000.0001) %MON dynstat_sss_max              =   3.5000000000000E+01
(PID.TID 0000.0001) %MON dynstat_sss_min              =   3.5000000000000E+01
(PID.TID 0000.0001) %MON dynstat_sss_mean             =   3.5000000000000E+01
(PID.TID 0000.0001) %MON dynstat_sss_sd               =   2.8421709430404E-14
(PID.TID 0000.0001) %MON dynstat_sss_del2             =   0.0000000000000E+00
(PID.TID 0000.0001) %MON forcing_qnet_max             =   0.0000000000000E+00
(PID.TID 0000.0001) %MON forcing_qnet_min             =   0.0000000000000E+00
(PID.TID 0000.0001) %MON forcing_qnet_mean            =   0.0000000000000E+00
(PID.TID 0000.0001) %MON forcing_qnet_sd              =   0.0000000000000E+00
(PID.TID 0000.0001) %MON forcing_qnet_del2            =   0.0000000000000E+00
(PID.TID 0000.0001) %MON forcing_qsw_max              =   0.0000000000000E+00
(PID.TID 0000.0001) %MON forcing_qsw_min              =   0.0000000000000E+00
(PID.TID 0000.0001) %MON forcing_qsw_mean             =   0.0000000000000E+00
(PID.TID 0000.0001) %MON forcing_qsw_sd               =   0.0000000000000E+00
(PID.TID 0000.0001) %MON forcing_qsw_del2             =   0.0000000000000E+00
(PID.TID 0000.0001) %MON forcing_empmr_max            =   0.0000000000000E+00
(PID.TID 0000.0001) %MON forcing_empmr_min            =   0.0000000000000E+00
(PID.TID 0000.0001) %MON forcing_empmr_mean           =   0.0000000000000E+00
(PID.TID 0000.0001) %MON forcing_empmr_sd             =   0.0000000000000E+00
(PID.TID 0000.0001) %MON forcing_empmr_del2           =   0.0000000000000E+00
(PID.TID 0000.0001) %MON forcing_fu_max               =   0.0000000000000E+00
(PID.TID 0000.0001) %MON forcing_fu_min               =   0.0000000000000E+00
(PID.TID 0000.0001) %MON forcing_fu_mean              =   0.0000000000000E+00
(PID.TID 0000.0001) %MON forcing_fu_sd                =   0.0000000000000E+00
(PID.TID 0000.0001) %MON forcing_fu_del2              =   0.0000000000000E+00
(PID.TID 0000.0001) %MON forcing_fv_max               =   0.0000000000000E+00
(PID.TID 0000.0001) %MON forcing_fv_min               =   0.0000000000000E+00
(PID.TID 0000.0001) %MON forcing_fv_mean              =   0.0000000000000E+00
(PID.TID 0000.0001) %MON forcing_fv_sd                =   0.0000000000000E+00
(PID.TID 0000.0001) %MON forcing_fv_del2              =   0.0000000000000E+00
(PID.TID 0000.0001) %MON advcfl_uvel_max              =   8.0819928224623E-02
(PID.TID 0000.0001) %MON advcfl_vvel_max              =   0.0000000000000E+00
(PID.TID 0000.0001) %MON advcfl_wvel_max              =   7.1747675935693E-02
(PID.TID 0000.0001) %MON advcfl_W_hf_max              =   7.2528247901633E-02
(PID.TID 0000.0001) %MON pe_b_mean                    =   2.1166678685232E-05
(PID.TID 0000.0001) %MON ke_max                       =   5.2429609029671E-01
(PID.TID 0000.0001) %MON ke_mean                      =   1.0353970724112E-01
(PID.TID 0000.0001) %MON ke_vol                       =   9.6656965507697E+10
(PID.TID 0000.0001) %MON vort_r_min                   =   0.0000000000000E+00
(PID.TID 0000.0001) %MON vort_r_max                   =   0.0000000000000E+00
(PID.TID 0000.0001) %MON vort_a_mean                  =   0.0000000000000E+00
(PID.TID 0000.0001) %MON vort_a_sd                    =   0.0000000000000E+00
(PID.TID 0000.0001) %MON vort_p_mean                  =   0.0000000000000E+00
(PID.TID 0000.0001) %MON vort_p_sd                    =   0.0000000000000E+00
(PID.TID 0000.0001) %MON surfExpan_theta_mean         =  -2.8084070922509E-19
(PID.TID 0000.0001) %MON surfExpan_salt_mean          =   7.7280659314321E-19
(PID.TID 0000.0001) // =======================================================
(PID.TID 0000.0001) // End MONITOR dynamic field statistics
(PID.TID 0000.0001) // =======================================================
(PID.TID 0000.0001) // =======================================================
(PID.TID 0000.0001) // Begin OBCS MONITOR field statistics
(PID.TID 0000.0001) // =======================================================
(PID.TID 0000.0001) %MON obc_E_uVel_max               =   4.4822851314926E-01
(PID.TID 0000.0001) %MON obc_E_uVel_min               =   4.4822851314926E-01
(PID.TID 0000.0001) %MON obc_E_uVel_mean              =   4.4822851314926E-01
(PID.TID 0000.0001) %MON obc_E_uVel_sd                =   0.0000000000000E+00
(PID.TID 0000.0001) %MON obc_E_uVel_Int               =   4.4822851314926E+05
(PID.TID 0000.0001) %MON obc_W_uVel_max               =   4.4822851314926E-01
(PID.TID 0000.0001) %MON obc_W_uVel_min               =   4.4822851314926E-01
(PID.TID 0000.0001) %MON obc_W_uVel_mean              =   4.4822851314926E-01
(PID.TID 0000.0001) %MON obc_W_uVel_sd                =   0.0000000000000E+00
(PID.TID 0000.0001) %MON obc_W_uVel_Int               =   4.4822851314926E+05
(PID.TID 0000.0001) // =======================================================
(PID.TID 0000.0001) // End OBCS MONITOR field statistics
(PID.TID 0000.0001) // =======================================================
 cg2d: Sum(rhs),rhsMax =  -1.49047441055927E-11  2.55723553739259E-01
 cg2d: Sum(rhs),rhsMax =  -1.48052681225863E-11  2.58372751098727E-01
 cg2d: Sum(rhs),rhsMax =  -1.46489487207191E-11  2.60821323419614E-01
 cg2d: Sum(rhs),rhsMax =  -1.45381484628615E-11  2.63063897256542E-01
 cg2d: Sum(rhs),rhsMax =  -1.44360079445960E-11  2.65095617217591E-01
 cg2d: Sum(rhs),rhsMax =  -1.43663969609520E-11  2.66912163498085E-01
 cg2d: Sum(rhs),rhsMax =  -1.42875711262036E-11  2.68509766938749E-01
 cg2d: Sum(rhs),rhsMax =  -1.42188483209793E-11  2.69885221540435E-01
 cg2d: Sum(rhs),rhsMax =  -1.41401335085334E-11  2.71035894399694E-01
 cg2d: Sum(rhs),rhsMax =  -1.41235911854665E-11  2.71959733040755E-01
 cg2d: Sum(rhs),rhsMax =  -1.41010536580666E-11  2.72655270146039E-01
 cg2d: Sum(rhs),rhsMax =  -1.40732980824509E-11  2.73121625632415E-01
 cg2d: Sum(rhs),rhsMax =  -1.40609746068776E-11  2.73358506129038E-01
 cg2d: Sum(rhs),rhsMax =  -1.40593092723407E-11  2.73366201796686E-01
 cg2d: Sum(rhs),rhsMax =  -1.41026079703011E-11  2.73145580524296E-01
 cg2d: Sum(rhs),rhsMax =  -1.41032741041158E-11  2.72698079531787E-01
 cg2d: Sum(rhs),rhsMax =  -1.41562317423904E-11  2.72025694406447E-01
 cg2d: Sum(rhs),rhsMax =  -1.42664768887357E-11  2.71130965612071E-01
 cg2d: Sum(rhs),rhsMax =  -1.43620670911560E-11  2.70016962496073E-01
 cg2d: Sum(rhs),rhsMax =  -1.44463330187250E-11  2.68687264878882E-01
 cg2d: Sum(rhs),rhsMax =  -1.45613521240762E-11  2.67145942435383E-01
 cg2d: Sum(rhs),rhsMax =  -1.47005740913642E-11  2.65397531836269E-01
 cg2d: Sum(rhs),rhsMax =  -1.48405732147694E-11  2.63447011761585E-01
 cg2d: Sum(rhs),rhsMax =  -1.50016665756425E-11  2.61299776057632E-01
 cg2d: Sum(rhs),rhsMax =  -1.51926249358780E-11  2.58961605421776E-01
 cg2d: Sum(rhs),rhsMax =  -1.54111168271243E-11  2.56438637378756E-01
 cg2d: Sum(rhs),rhsMax =  -1.56252788485745E-11  2.53737335077248E-01
 cg2d: Sum(rhs),rhsMax =  -1.58693058693871E-11  2.50864455175315E-01
 cg2d: Sum(rhs),rhsMax =  -1.61264335218902E-11  2.47827015075332E-01
 cg2d: Sum(rhs),rhsMax =  -1.64190883111814E-11  2.44632259832835E-01
 cg2d: Sum(rhs),rhsMax =  -1.66764380082896E-11  2.41287628737104E-01
 cg2d: Sum(rhs),rhsMax =  -1.69947389494496E-11  2.37800721936599E-01
 cg2d: Sum(rhs),rhsMax =  -1.72905023632097E-11  2.34179267381594E-01
 cg2d: Sum(rhs),rhsMax =  -1.76257897166465E-11  2.30431088204243E-01
 cg2d: Sum(rhs),rhsMax =  -1.79454229254361E-11  2.26564070713550E-01
 cg2d: Sum(rhs),rhsMax =  -1.83476567272578E-11  2.22586133120097E-01
 cg2d: Sum(rhs),rhsMax =  -1.87000415152738E-11  2.18505195100002E-01
 cg2d: Sum(rhs),rhsMax =  -1.91024973617004E-11  2.14329148276781E-01
 cg2d: Sum(rhs),rhsMax =  -1.95330418506501E-11  2.10065827599097E-01
 cg2d: Sum(rhs),rhsMax =  -1.99023020286404E-11  2.05722983744307E-01
 cg2d: Sum(rhs),rhsMax =  -2.03601580039958E-11  2.01308256582269E-01
 cg2d: Sum(rhs),rhsMax =  -2.07901473814331E-11  1.96829149747533E-01
 cg2d: Sum(rhs),rhsMax =  -2.12502238028378E-11  1.92293006475225E-01
 cg2d: Sum(rhs),rhsMax =  -2.17399431790000E-11  1.87706986590844E-01
 cg2d: Sum(rhs),rhsMax =  -2.22653007142526E-11  1.83078044704896E-01
 cg2d: Sum(rhs),rhsMax =  -2.28240759625464E-11  1.78412909713781E-01
 cg2d: Sum(rhs),rhsMax =  -2.33831842777477E-11  1.73718065689124E-01
 cg2d: Sum(rhs),rhsMax =  -2.40178987809259E-11  1.68999734223996E-01
 cg2d: Sum(rhs),rhsMax =  -2.46632714251405E-11  1.64263858234207E-01
 cg2d: Sum(rhs),rhsMax =  -2.53428389385135E-11  1.59516087545019E-01
 cg2d: Sum(rhs),rhsMax =  -2.60088617309862E-11  1.54761766079306E-01
 cg2d: Sum(rhs),rhsMax =  -2.68270961001349E-11  1.50005920716305E-01
 cg2d: Sum(rhs),rhsMax =  -2.76606515470235E-11  1.45253251882184E-01
 cg2d: Sum(rhs),rhsMax =  -2.85431678292980E-11  1.40508125935615E-01
 cg2d: Sum(rhs),rhsMax =  -2.94787527721496E-11  1.35774569401090E-01
 cg2d: Sum(rhs),rhsMax =  -3.05268033073958E-11  1.31056264998703E-01
 cg2d: Sum(rhs),rhsMax =  -3.16244808118427E-11  1.26356549538447E-01
 cg2d: Sum(rhs),rhsMax =  -3.27707860847681E-11  1.21678413650103E-01
 cg2d: Sum(rhs),rhsMax =  -3.40222294781256E-11  1.17024503308053E-01
 cg2d: Sum(rhs),rhsMax =  -3.53785889473102E-11  1.12397123093870E-01
 cg2d: Sum(rhs),rhsMax =  -3.68064467792806E-11  1.07798241172945E-01
 cg2d: Sum(rhs),rhsMax =  -3.83907350354207E-11  1.03229495912339E-01
 cg2d: Sum(rhs),rhsMax =  -4.00776078990361E-11  9.86922040609619E-02
 cg2d: Sum(rhs),rhsMax =  -4.19653201078063E-11  9.41873704149054E-02
 cg2d: Sum(rhs),rhsMax =  -4.40224523501342E-11  8.97156988957531E-02
 cg2d: Sum(rhs),rhsMax =  -4.63101779146768E-11  8.52776048791908E-02
 cg2d: Sum(rhs),rhsMax =  -4.87682116911969E-11  8.08732287001735E-02
 cg2d: Sum(rhs),rhsMax =  -5.15151254987245E-11  7.65024502532032E-02
 cg2d: Sum(rhs),rhsMax =  -5.45380407501739E-11  7.21649044725829E-02
 cg2d: Sum(rhs),rhsMax =  -5.79615244689080E-11  6.78599975826794E-02
 cg2d: Sum(rhs),rhsMax =  -6.18141093866598E-11  6.35869239906317E-02
 cg2d: Sum(rhs),rhsMax =  -6.61861676576336E-11  5.93446837329902E-02
 cg2d: Sum(rhs),rhsMax =  -7.11961600785571E-11  5.51321003381413E-02
 cg2d: Sum(rhs),rhsMax =  -7.69442287662514E-11  5.09478388716839E-02
 cg2d: Sum(rhs),rhsMax =  -8.37341307402539E-11  4.67904241476923E-02
 cg2d: Sum(rhs),rhsMax =  -9.17427245283875E-11  4.26582590114692E-02
 cg2d: Sum(rhs),rhsMax =  -1.01427755083705E-10  3.85496426091543E-02
 cg2d: Sum(rhs),rhsMax =  -1.13309917004756E-10  3.44627885754598E-02
 cg2d: Sum(rhs),rhsMax =  -1.28444699321051E-10  3.03958430900762E-02
 cg2d: Sum(rhs),rhsMax =  -1.41280764864860E-10  2.76285348645139E-02
 cg2d: Sum(rhs),rhsMax =  -1.52473145220711E-10  2.55835757818843E-02
 cg2d: Sum(rhs),rhsMax =  -1.65741864677216E-10  2.35249143721683E-02
 cg2d: Sum(rhs),rhsMax =  -1.81728077031096E-10  2.14493253780293E-02
 cg2d: Sum(rhs),rhsMax =  -2.01363814511524E-10  1.93536160897228E-02
 cg2d: Sum(rhs),rhsMax =  -2.26001883874005E-10  1.72346392308408E-02
 cg2d: Sum(rhs),rhsMax =  -2.58025378840898E-10  1.50893058138134E-02
 cg2d: Sum(rhs),rhsMax =  -3.01351610332290E-10  1.29145979909168E-02
 cg2d: Sum(rhs),rhsMax =  -3.62594287928175E-10  1.07326920695074E-02
 cg2d: Sum(rhs),rhsMax =  -2.73434497266578E-10  1.42284689624219E-02
 cg2d: Sum(rhs),rhsMax =  -2.19129270284668E-10  1.77517446717269E-02
 cg2d: Sum(rhs),rhsMax =  -1.82807352588910E-10  2.12679899613848E-02
 cg2d: Sum(rhs),rhsMax =  -1.56705017018144E-10  2.47987392809171E-02
 cg2d: Sum(rhs),rhsMax =  -1.36919760251875E-10  2.83636067669874E-02
 cg2d: Sum(rhs),rhsMax =  -1.21653881413053E-10  3.19233596914812E-02
 cg2d: Sum(rhs),rhsMax =  -1.09298015082970E-10  3.55210820952459E-02
 cg2d: Sum(rhs),rhsMax =  -9.91026982699594E-11  3.91414886631867E-02
 cg2d: Sum(rhs),rhsMax =  -9.05875929824163E-11  4.27716519263086E-02
 cg2d: Sum(rhs),rhsMax =  -8.33388913434874E-11  4.64624306671401E-02
 cg2d: Sum(rhs),rhsMax =  -7.71294139667589E-11  5.01530805014714E-02
 cg2d: Sum(rhs),rhsMax =  -7.17004788874931E-11  5.39225628601727E-02
 cg2d: Sum(rhs),rhsMax =  -6.69657662655254E-11  5.77122928494026E-02
 cg2d: Sum(rhs),rhsMax =  -6.26955154459097E-11  6.15744845643840E-02
 cg2d: Sum(rhs),rhsMax =  -5.88534221357406E-11  6.55666260016495E-02
 cg2d: Sum(rhs),rhsMax =  -5.53901924327249E-11  6.95933899148547E-02
 cg2d: Sum(rhs),rhsMax =  -5.23135978980349E-11  7.36194018383202E-02
 cg2d: Sum(rhs),rhsMax =  -4.95857799265309E-11  7.76427718556672E-02
 cg2d: Sum(rhs),rhsMax =  -4.70637417926412E-11  8.16613704586551E-02
 cg2d: Sum(rhs),rhsMax =  -4.47605286169050E-11  8.56728330793372E-02
 cg2d: Sum(rhs),rhsMax =  -4.26463309111114E-11  8.96745658951312E-02
 cg2d: Sum(rhs),rhsMax =  -4.07842648542101E-11  9.36637528511687E-02
 cg2d: Sum(rhs),rhsMax =  -3.90549814710539E-11  9.76373638398478E-02
 cg2d: Sum(rhs),rhsMax =  -3.74310582529347E-11  1.01592163973843E-01
 cg2d: Sum(rhs),rhsMax =  -3.59486884704552E-11  1.05524723888279E-01
 cg2d: Sum(rhs),rhsMax =  -3.45716788530126E-11  1.09431431008470E-01
 cg2d: Sum(rhs),rhsMax =  -3.34168248627975E-11  1.13308501722574E-01
 cg2d: Sum(rhs),rhsMax =  -3.23678861491317E-11  1.17151994398884E-01
 cg2d: Sum(rhs),rhsMax =  -3.13853387723384E-11  1.20957823188851E-01
 cg2d: Sum(rhs),rhsMax =  -3.04198888301244E-11  1.24721772558148E-01
 cg2d: Sum(rhs),rhsMax =  -2.96233038099558E-11  1.28439512487730E-01
 cg2d: Sum(rhs),rhsMax =  -2.88573609452669E-11  1.32106614285356E-01
 cg2d: Sum(rhs),rhsMax =  -2.81018541770095E-11  1.35718566945898E-01
 cg2d: Sum(rhs),rhsMax =  -2.74626987817328E-11  1.39270793995401E-01
 cg2d: Sum(rhs),rhsMax =  -2.68143285353517E-11  1.42758670749922E-01
 cg2d: Sum(rhs),rhsMax =  -2.62518895510766E-11  1.46177541916908E-01
 cg2d: Sum(rhs),rhsMax =  -2.56783483365552E-11  1.49522739463339E-01
 cg2d: Sum(rhs),rhsMax =  -2.51276777163412E-11  1.52789600675213E-01
 cg2d: Sum(rhs),rhsMax =  -2.46533904402213E-11  1.55973486330263E-01
 cg2d: Sum(rhs),rhsMax =  -2.41665576439232E-11  1.59069798900700E-01
 cg2d: Sum(rhs),rhsMax =  -2.37209141218386E-11  1.62074000706015E-01
 cg2d: Sum(rhs),rhsMax =  -2.33023600415549E-11  1.64981631935107E-01
 cg2d: Sum(rhs),rhsMax =  -2.29450902722306E-11  1.67788328456679E-01
 cg2d: Sum(rhs),rhsMax =  -2.25649499085989E-11  1.70489839341052E-01
 cg2d: Sum(rhs),rhsMax =  -2.21870299910165E-11  1.73082044013226E-01
 cg2d: Sum(rhs),rhsMax =  -2.19181339744523E-11  1.75560968950879E-01
 cg2d: Sum(rhs),rhsMax =  -2.16038298361809E-11  1.77922803843011E-01
 cg2d: Sum(rhs),rhsMax =  -2.13413731131595E-11  1.80163917125904E-01
 cg2d: Sum(rhs),rhsMax =  -2.10863548844031E-11  1.82280870797533E-01
 cg2d: Sum(rhs),rhsMax =  -2.08719708183480E-11  1.84270434420965E-01
 cg2d: Sum(rhs),rhsMax =  -2.06609174213668E-11  1.86129598228779E-01
 cg2d: Sum(rhs),rhsMax =  -2.04631867006810E-11  1.87855585233478E-01
 cg2d: Sum(rhs),rhsMax =  -2.02990957376414E-11  1.89445862256373E-01
 cg2d: Sum(rhs),rhsMax =  -2.01512140307614E-11  1.90898149797868E-01
 cg2d: Sum(rhs),rhsMax =  -2.00002236994123E-11  1.92210430700047E-01
 cg2d: Sum(rhs),rhsMax =  -1.98828731257095E-11  1.93380957498717E-01
 cg2d: Sum(rhs),rhsMax =  -1.97679650426608E-11  1.94408258476559E-01
 cg2d: Sum(rhs),rhsMax =  -1.96527238927047E-11  1.95291142421966E-01
 cg2d: Sum(rhs),rhsMax =  -1.95976568306833E-11  1.96028702114635E-01
 cg2d: Sum(rhs),rhsMax =  -1.95302662930885E-11  1.96620316525244E-01
 cg2d: Sum(rhs),rhsMax =  -1.94814164800050E-11  1.97065651811341E-01
 cg2d: Sum(rhs),rhsMax =  -1.94335658676437E-11  1.97364661186976E-01
 cg2d: Sum(rhs),rhsMax =  -1.94456672986121E-11  1.97517583737779E-01
 cg2d: Sum(rhs),rhsMax =  -1.94203542136506E-11  1.97524942234213E-01
 cg2d: Sum(rhs),rhsMax =  -1.94543270382042E-11  1.97387540063471E-01
 cg2d: Sum(rhs),rhsMax =  -1.94729787850179E-11  1.97106457350819E-01
 cg2d: Sum(rhs),rhsMax =  -1.95372606981437E-11  1.96683046308314E-01
 cg2d: Sum(rhs),rhsMax =  -1.95780058831474E-11  1.96118925838687E-01
 cg2d: Sum(rhs),rhsMax =  -1.96694882603765E-11  1.95415975553670E-01
 cg2d: Sum(rhs),rhsMax =  -1.97678540203583E-11  1.94576329080969E-01
 cg2d: Sum(rhs),rhsMax =  -1.98796534789381E-11  1.93602366655702E-01
 cg2d: Sum(rhs),rhsMax =  -1.99875671569316E-11  1.92496706980586E-01
 cg2d: Sum(rhs),rhsMax =  -2.01020311507705E-11  1.91262198340503E-01
 cg2d: Sum(rhs),rhsMax =  -2.02852179498336E-11  1.89901908922475E-01
 cg2d: Sum(rhs),rhsMax =  -2.04639638567983E-11  1.88419116422544E-01
 cg2d: Sum(rhs),rhsMax =  -2.06492600796082E-11  1.87286102026227E-01
 cg2d: Sum(rhs),rhsMax =  -2.07304173827083E-11  1.86700182841073E-01
 cg2d: Sum(rhs),rhsMax =  -2.08866257622731E-11  1.85960651283138E-01
 cg2d: Sum(rhs),rhsMax =  -2.10390593835541E-11  1.85069497697077E-01
 cg2d: Sum(rhs),rhsMax =  -2.12454498438319E-11  1.84029011288545E-01
 cg2d: Sum(rhs),rhsMax =  -2.14356310479502E-11  1.82841766917880E-01
 cg2d: Sum(rhs),rhsMax =  -2.16869855407253E-11  1.81510610536601E-01
 cg2d: Sum(rhs),rhsMax =  -2.19250173572050E-11  1.80038643548499E-01
 cg2d: Sum(rhs),rhsMax =  -2.21802576305663E-11  1.78429206284652E-01
 cg2d: Sum(rhs),rhsMax =  -2.24759100220240E-11  1.76685860732662E-01
 cg2d: Sum(rhs),rhsMax =  -2.27912133610175E-11  1.74812372703474E-01
 cg2d: Sum(rhs),rhsMax =  -2.31311636511577E-11  1.72812693610152E-01
 cg2d: Sum(rhs),rhsMax =  -2.34907648888338E-11  1.70690942000848E-01
 cg2d: Sum(rhs),rhsMax =  -2.38303821120667E-11  1.68451385059159E-01
 cg2d: Sum(rhs),rhsMax =  -2.42438291664371E-11  1.66098420239540E-01
 cg2d: Sum(rhs),rhsMax =  -2.47235565353776E-11  1.63636557191649E-01
 cg2d: Sum(rhs),rhsMax =  -2.51887399826956E-11  1.61070400065817E-01
 cg2d: Sum(rhs),rhsMax =  -2.57361909561382E-11  1.58404630364342E-01
 cg2d: Sum(rhs),rhsMax =  -2.61244359478496E-11  1.55643990469207E-01
 cg2d: Sum(rhs),rhsMax =  -2.65830690793223E-11  1.52793267690673E-01
 cg2d: Sum(rhs),rhsMax =  -2.70837796634282E-11  1.49857278843850E-01
 cg2d: Sum(rhs),rhsMax =  -2.75857114928613E-11  1.46840855290334E-01
 cg2d: Sum(rhs),rhsMax =  -2.81625833764565E-11  1.43748828442188E-01
 cg2d: Sum(rhs),rhsMax =  -2.86940471383446E-11  1.40586015574547E-01
 cg2d: Sum(rhs),rhsMax =  -2.92691426651004E-11  1.37357205835794E-01
 cg2d: Sum(rhs),rhsMax =  -2.99867908282181E-11  1.34067146375736E-01
 cg2d: Sum(rhs),rhsMax =  -3.07461833770617E-11  1.30720528544698E-01
 cg2d: Sum(rhs),rhsMax =  -3.15254489180461E-11  1.27321974173010E-01
 cg2d: Sum(rhs),rhsMax =  -3.23857607398281E-11  1.23876022102374E-01
 cg2d: Sum(rhs),rhsMax =  -3.32636140853992E-11  1.20387114919490E-01
 cg2d: Sum(rhs),rhsMax =  -3.42242900686074E-11  1.16859586151533E-01
 cg2d: Sum(rhs),rhsMax =  -3.52833318117973E-11  1.13297647777812E-01
 cg2d: Sum(rhs),rhsMax =  -3.64190899659889E-11  1.09705378517403E-01
 cg2d: Sum(rhs),rhsMax =  -3.76060294016156E-11  1.06086713049731E-01
 cg2d: Sum(rhs),rhsMax =  -3.88913345972242E-11  1.02445432281841E-01
 cg2d: Sum(rhs),rhsMax =  -4.03017619277080E-11  9.87851547393676E-02
 cg2d: Sum(rhs),rhsMax =  -4.18183265793459E-11  9.51093291716186E-02
 cg2d: Sum(rhs),rhsMax =  -4.34271507643302E-11  9.14212283487320E-02
 cg2d: Sum(rhs),rhsMax =  -4.52059500943847E-11  8.77239440281891E-02
 cg2d: Sum(rhs),rhsMax =  -4.71700456472490E-11  8.40203831019603E-02
 cg2d: Sum(rhs),rhsMax =  -4.92820229069935E-11  8.03132648027494E-02
 cg2d: Sum(rhs),rhsMax =  -5.16450215926056E-11  7.66051187137095E-02
 cg2d: Sum(rhs),rhsMax =  -5.42571543249437E-11  7.28982837149858E-02
 cg2d: Sum(rhs),rhsMax =  -5.70823388557073E-11  6.91949077329374E-02
 cg2d: Sum(rhs),rhsMax =  -6.02756733414367E-11  6.54969485393487E-02
 cg2d: Sum(rhs),rhsMax =  -6.38893382642891E-11  6.18061752710643E-02
 cg2d: Sum(rhs),rhsMax =  -6.77783384972486E-11  5.81241707252550E-02
 cg2d: Sum(rhs),rhsMax =  -7.24243998106999E-11  5.44523345132616E-02
 cg2d: Sum(rhs),rhsMax =  -7.76531061674746E-11  5.07918871143654E-02
 cg2d: Sum(rhs),rhsMax =  -8.30103763505008E-11  4.75266423651056E-02
 cg2d: Sum(rhs),rhsMax =  -8.82792727807669E-11  4.47239163678561E-02
 cg2d: Sum(rhs),rhsMax =  -9.41619004990457E-11  4.19386958838346E-02
 cg2d: Sum(rhs),rhsMax =  -1.00905173106014E-10  3.91696313319305E-02
 cg2d: Sum(rhs),rhsMax =  -1.08570263890329E-10  3.64152405101784E-02
 cg2d: Sum(rhs),rhsMax =  -1.17429954649140E-10  3.36739159800103E-02
 cg2d: Sum(rhs),rhsMax =  -1.27825305895612E-10  3.09439325775700E-02
 cg2d: Sum(rhs),rhsMax =  -1.40178979535222E-10  2.82234550956156E-02
 cg2d: Sum(rhs),rhsMax =  -1.55122470424374E-10  2.55105461881044E-02
 cg2d: Sum(rhs),rhsMax =  -1.73523750923721E-10  2.28031745528431E-02
 cg2d: Sum(rhs),rhsMax =  -1.96895055815105E-10  2.00992234449416E-02
 cg2d: Sum(rhs),rhsMax =  -2.27565744026492E-10  1.73964995659123E-02
 cg2d: Sum(rhs),rhsMax =  -2.69456790213951E-10  1.46927423614480E-02
 cg2d: Sum(rhs),rhsMax =  -3.30389410274634E-10  1.19856337464992E-02
 cg2d: Sum(rhs),rhsMax =  -3.96450622330846E-10  9.99122099618330E-03
 cg2d: Sum(rhs),rhsMax =  -4.01549904438525E-10  9.86514926322588E-03
 cg2d: Sum(rhs),rhsMax =  -3.69829278312750E-10  1.07137558190664E-02
 cg2d: Sum(rhs),rhsMax =  -2.87203594240282E-10  1.37967532303666E-02
 cg2d: Sum(rhs),rhsMax =  -2.34428254586305E-10  1.69076727054836E-02
 cg2d: Sum(rhs),rhsMax =  -1.97934224566154E-10  2.00328954279814E-02
 cg2d: Sum(rhs),rhsMax =  -1.70972458413132E-10  2.31987281726286E-02
 cg2d: Sum(rhs),rhsMax =  -1.50345846883226E-10  2.63808070373261E-02
 cg2d: Sum(rhs),rhsMax =  -1.34019351172299E-10  2.96074072939197E-02
 cg2d: Sum(rhs),rhsMax =  -1.20666587832829E-10  3.29054184763283E-02
 cg2d: Sum(rhs),rhsMax =  -1.09571240969331E-10  3.62526914040390E-02
 cg2d: Sum(rhs),rhsMax =  -1.00378372280829E-10  3.95930222745559E-02
 cg2d: Sum(rhs),rhsMax =  -9.26458909589201E-11  4.29266868984627E-02
 cg2d: Sum(rhs),rhsMax =  -8.60689297610406E-11  4.62538748011999E-02
 cg2d: Sum(rhs),rhsMax =  -8.03466182475177E-11  4.95746810081526E-02
 cg2d: Sum(rhs),rhsMax =  -7.53495044136798E-11  5.28890983623080E-02
 cg2d: Sum(rhs),rhsMax =  -7.09527991915593E-11  5.61970105905473E-02
 cg2d: Sum(rhs),rhsMax =  -6.70792310586421E-11  5.94981863180702E-02
 cg2d: Sum(rhs),rhsMax =  -6.36042329915654E-11  6.27922741664377E-02
 cg2d: Sum(rhs),rhsMax =  -6.04760685973815E-11  6.60787991494684E-02
 cg2d: Sum(rhs),rhsMax =  -5.76421133047234E-11  6.93571602840702E-02
 cg2d: Sum(rhs),rhsMax =  -5.50703926904816E-11  7.26266293195041E-02
 cg2d: Sum(rhs),rhsMax =  -5.27367038927196E-11  7.58863505190237E-02
 cg2d: Sum(rhs),rhsMax =  -5.06485964280046E-11  7.91353412922434E-02
 cg2d: Sum(rhs),rhsMax =  -4.88125095898795E-11  8.23724934365402E-02
 cg2d: Sum(rhs),rhsMax =  -4.70287142562142E-11  8.55965747578179E-02
 cg2d: Sum(rhs),rhsMax =  -4.53805881761582E-11  8.88062308914676E-02
 cg2d: Sum(rhs),rhsMax =  -4.39134284491161E-11  9.19999872180041E-02
 cg2d: Sum(rhs),rhsMax =  -4.25416368798892E-11  9.51762508497697E-02
 cg2d: Sum(rhs),rhsMax =  -4.12689882267614E-11  9.83333127420057E-02
 cg2d: Sum(rhs),rhsMax =  -4.00609545536668E-11  1.01469350042597E-01
 cg2d: Sum(rhs),rhsMax =  -3.89072107864763E-11  1.04582428832266E-01
 cg2d: Sum(rhs),rhsMax =  -3.78715947491060E-11  1.07670507417767E-01
 cg2d: Sum(rhs),rhsMax =  -3.68660657557029E-11  1.10731440326198E-01
 cg2d: Sum(rhs),rhsMax =  -3.59410279315853E-11  1.13762983114689E-01
 cg2d: Sum(rhs),rhsMax =  -3.50717233033038E-11  1.16762798066547E-01
 cg2d: Sum(rhs),rhsMax =  -3.42179617973670E-11  1.19728460791488E-01
 cg2d: Sum(rhs),rhsMax =  -3.34703376125844E-11  1.22657467700509E-01
 cg2d: Sum(rhs),rhsMax =  -3.27067262162473E-11  1.25547244300285E-01
 cg2d: Sum(rhs),rhsMax =  -3.20372617323983E-11  1.28395154203408E-01
 cg2d: Sum(rhs),rhsMax =  -3.13877812629926E-11  1.31198508760088E-01
 cg2d: Sum(rhs),rhsMax =  -3.08095771117678E-11  1.33954577173852E-01
 cg2d: Sum(rhs),rhsMax =  -3.02065039647914E-11  1.36660596953095E-01
 cg2d: Sum(rhs),rhsMax =  -2.96722646453418E-11  1.39313784541348E-01
 cg2d: Sum(rhs),rhsMax =  -2.91762169979393E-11  1.41911345964087E-01
 cg2d: Sum(rhs),rhsMax =  -2.86610735145132E-11  1.44506739587630E-01
 cg2d: Sum(rhs),rhsMax =  -2.79206657793907E-11  1.48515490098022E-01
 cg2d: Sum(rhs),rhsMax =  -2.71738187507253E-11  1.52506200431962E-01
 cg2d: Sum(rhs),rhsMax =  -2.65034660884567E-11  1.56473810623818E-01
 cg2d: Sum(rhs),rhsMax =  -2.58609800241061E-11  1.60413160347793E-01
 cg2d: Sum(rhs),rhsMax =  -2.52422527324825E-11  1.64319003688068E-01
 cg2d: Sum(rhs),rhsMax =  -2.46611620013937E-11  1.68186024219543E-01
 cg2d: Sum(rhs),rhsMax =  -2.41566766590040E-11  1.72008850353556E-01
 cg2d: Sum(rhs),rhsMax =  -2.36011210574816E-11  1.75782070904826E-01
 cg2d: Sum(rhs),rhsMax =  -2.31188401755844E-11  1.79500250835288E-01
 cg2d: Sum(rhs),rhsMax =  -2.27007301845106E-11  1.83157947132745E-01
 cg2d: Sum(rhs),rhsMax =  -2.22742935207521E-11  1.86749724771332E-01
 cg2d: Sum(rhs),rhsMax =  -2.18746132318870E-11  1.90270172704052E-01
 cg2d: Sum(rhs),rhsMax =  -2.14763762329540E-11  1.93713919832953E-01
 cg2d: Sum(rhs),rhsMax =  -2.11446415931960E-11  1.97075650899459E-01
 cg2d: Sum(rhs),rhsMax =  -2.08087991282468E-11  2.00350122235273E-01
 cg2d: Sum(rhs),rhsMax =  -2.05311323497881E-11  2.03532177313384E-01
 cg2d: Sum(rhs),rhsMax =  -2.02472483223914E-11  2.06616762039409E-01
 cg2d: Sum(rhs),rhsMax =  -1.99982252979680E-11  2.09598939725399E-01
 cg2d: Sum(rhs),rhsMax =  -1.97388771994156E-11  2.12473905691405E-01
 cg2d: Sum(rhs),rhsMax =  -1.95223837096137E-11  2.15237001443827E-01
 cg2d: Sum(rhs),rhsMax =  -1.93202120968294E-11  2.17883728383760E-01
 cg2d: Sum(rhs),rhsMax =  -1.91361371193466E-11  2.20409761002498E-01
 cg2d: Sum(rhs),rhsMax =  -1.89429583130618E-11  2.22810959524760E-01
 cg2d: Sum(rhs),rhsMax =  -1.87843074428429E-11  2.25083381960783E-01
 cg2d: Sum(rhs),rhsMax =  -1.86421988956909E-11  2.27223295536085E-01
 cg2d: Sum(rhs),rhsMax =  -1.84787740664660E-11  2.29227187463763E-01
 cg2d: Sum(rhs),rhsMax =  -1.83925097374527E-11  2.31091775009206E-01
 cg2d: Sum(rhs),rhsMax =  -1.82771575651941E-11  2.32814014817234E-01
 cg2d: Sum(rhs),rhsMax =  -1.81902271023660E-11  2.34391111458018E-01
 cg2d: Sum(rhs),rhsMax =  -1.81201720295121E-11  2.35820525154359E-01
 cg2d: Sum(rhs),rhsMax =  -1.80091497270496E-11  2.37099978637098E-01
 cg2d: Sum(rhs),rhsMax =  -1.79530834643060E-11  2.38227463111293E-01
 cg2d: Sum(rhs),rhsMax =  -1.79172232606106E-11  2.39201243275995E-01
 cg2d: Sum(rhs),rhsMax =  -1.78677073137123E-11  2.40019861343565E-01
 cg2d: Sum(rhs),rhsMax =  -1.78275172402209E-11  2.40682140040126E-01
 cg2d: Sum(rhs),rhsMax =  -1.77726722228044E-11  2.41187184601983E-01
 cg2d: Sum(rhs),rhsMax =  -1.77567960335523E-11  2.41534383708893E-01
 cg2d: Sum(rhs),rhsMax =  -1.77473591378430E-11  2.41723409398739E-01
 cg2d: Sum(rhs),rhsMax =  -1.77695635983355E-11  2.41754215965397E-01
 cg2d: Sum(rhs),rhsMax =  -1.78109749171540E-11  2.41627037851642E-01
 cg2d: Sum(rhs),rhsMax =  -1.78502768122257E-11  2.41342386555376E-01
 cg2d: Sum(rhs),rhsMax =  -1.78858039490137E-11  2.40901046566103E-01
 cg2d: Sum(rhs),rhsMax =  -1.79071202310865E-11  2.40304070326501E-01
 cg2d: Sum(rhs),rhsMax =  -1.79978254521984E-11  2.39552772369471E-01
 cg2d: Sum(rhs),rhsMax =  -1.80527814919174E-11  2.38648722601948E-01
 cg2d: Sum(rhs),rhsMax =  -1.81369363971839E-11  2.37593738735364E-01
 cg2d: Sum(rhs),rhsMax =  -1.82466264320169E-11  2.36389877903369E-01
 cg2d: Sum(rhs),rhsMax =  -1.83516535301465E-11  2.35039427524333E-01
 cg2d: Sum(rhs),rhsMax =  -1.84626758326090E-11  2.33544895456084E-01
 cg2d: Sum(rhs),rhsMax =  -1.86012316660822E-11  2.31908999508071E-01
 cg2d: Sum(rhs),rhsMax =  -1.87776461046951E-11  2.30134656274149E-01
 cg2d: Sum(rhs),rhsMax =  -1.89821491858311E-11  2.28224969393496E-01
 cg2d: Sum(rhs),rhsMax =  -1.92151849986999E-11  2.26183217293599E-01
 cg2d: Sum(rhs),rhsMax =  -1.94085858495896E-11  2.24012840469602E-01
 cg2d: Sum(rhs),rhsMax =  -1.96441751754151E-11  2.21717428354729E-01
 cg2d: Sum(rhs),rhsMax =  -1.98777660997962E-11  2.19300705913762E-01
 cg2d: Sum(rhs),rhsMax =  -2.01462180271506E-11  2.16766519877926E-01
 cg2d: Sum(rhs),rhsMax =  -2.03196348635970E-11  2.14118824702632E-01
 cg2d: Sum(rhs),rhsMax =  -2.05443440037811E-11  2.11361668487740E-01
 cg2d: Sum(rhs),rhsMax =  -2.07451833489358E-11  2.08499178865902E-01
 cg2d: Sum(rhs),rhsMax =  -2.09522399430284E-11  2.05535548915000E-01
 cg2d: Sum(rhs),rhsMax =  -2.12058148818528E-11  2.02475023167259E-01
 cg2d: Sum(rhs),rhsMax =  -2.14509521256900E-11  1.99321883762980E-01
 cg2d: Sum(rhs),rhsMax =  -2.17746931596707E-11  1.96080436814784E-01
 cg2d: Sum(rhs),rhsMax =  -2.21190843419095E-11  1.92754999074263E-01
 cg2d: Sum(rhs),rhsMax =  -2.24736895759747E-11  1.89349884900518E-01
 cg2d: Sum(rhs),rhsMax =  -2.28304042337868E-11  1.85869393703499E-01
 cg2d: Sum(rhs),rhsMax =  -2.32520669385394E-11  1.82317797831739E-01
 cg2d: Sum(rhs),rhsMax =  -2.36449748669543E-11  1.78699330835287E-01
 cg2d: Sum(rhs),rhsMax =  -2.41000552847481E-11  1.75018176188654E-01
 cg2d: Sum(rhs),rhsMax =  -2.45625741968070E-11  1.71278456500596E-01
 cg2d: Sum(rhs),rhsMax =  -2.50302001347791E-11  1.67484223228545E-01
 cg2d: Sum(rhs),rhsMax =  -2.55748755506602E-11  1.63639446903011E-01
 cg2d: Sum(rhs),rhsMax =  -2.61436428061756E-11  1.59748007889176E-01
 cg2d: Sum(rhs),rhsMax =  -2.67048605451237E-11  1.55813687657943E-01
 cg2d: Sum(rhs),rhsMax =  -2.73239209036547E-11  1.51840160698316E-01
 cg2d: Sum(rhs),rhsMax =  -2.80430123567044E-11  1.47830987086276E-01
 cg2d: Sum(rhs),rhsMax =  -2.87757595529570E-11  1.43789605675791E-01
 cg2d: Sum(rhs),rhsMax =  -2.95616864320891E-11  1.39719327981933E-01
 cg2d: Sum(rhs),rhsMax =  -3.04408720452898E-11  1.35623332830469E-01
 cg2d: Sum(rhs),rhsMax =  -3.13521431039021E-11  1.31504661803044E-01
 cg2d: Sum(rhs),rhsMax =  -3.23195914475605E-11  1.27366215576896E-01
 cg2d: Sum(rhs),rhsMax =  -3.33685301612263E-11  1.23210751184726E-01
 cg2d: Sum(rhs),rhsMax =  -3.44814177211106E-11  1.19040880193843E-01
 cg2d: Sum(rhs),rhsMax =  -3.57097684755558E-11  1.14859067796158E-01
 cg2d: Sum(rhs),rhsMax =  -3.69725361437645E-11  1.10667632796240E-01
 cg2d: Sum(rhs),rhsMax =  -3.83728604447242E-11  1.06468748464401E-01
 cg2d: Sum(rhs),rhsMax =  -3.98938659884607E-11  1.02264444207533E-01
 cg2d: Sum(rhs),rhsMax =  -4.15332213066222E-11  9.80566079961271E-02
 cg2d: Sum(rhs),rhsMax =  -4.33088009899052E-11  9.38469894607128E-02
 cg2d: Sum(rhs),rhsMax =  -4.52488047031352E-11  8.96372036319088E-02
 cg2d: Sum(rhs),rhsMax =  -4.74109640435927E-11  8.54287352354867E-02
 cg2d: Sum(rhs),rhsMax =  -4.98473484711326E-11  8.12229434041156E-02
 cg2d: Sum(rhs),rhsMax =  -5.25198773360103E-11  7.70210668285115E-02
 cg2d: Sum(rhs),rhsMax =  -5.55150370118440E-11  7.28242293045442E-02
 cg2d: Sum(rhs),rhsMax =  -5.88548099145214E-11  6.86334456214665E-02
 cg2d: Sum(rhs),rhsMax =  -6.26128038305751E-11  6.44496277723895E-02
 cg2d: Sum(rhs),rhsMax =  -6.69353461546507E-11  6.02735914862557E-02
 cg2d: Sum(rhs),rhsMax =  -7.18797243948188E-11  5.61060630779599E-02
 cg2d: Sum(rhs),rhsMax =  -7.75707276190474E-11  5.19476866159517E-02
 cg2d: Sum(rhs),rhsMax =  -8.42247382948358E-11  4.77990314047137E-02
 cg2d: Sum(rhs),rhsMax =  -9.21266396503029E-11  4.36605997996709E-02
 cg2d: Sum(rhs),rhsMax =  -1.01680330821807E-10  3.95328352546357E-02
 cg2d: Sum(rhs),rhsMax =  -1.13446141369877E-10  3.54161306437122E-02
 cg2d: Sum(rhs),rhsMax =  -1.28194788118208E-10  3.13108368143980E-02
 cg2d: Sum(rhs),rhsMax =  -1.47428846908326E-10  2.72172713155478E-02
 cg2d: Sum(rhs),rhsMax =  -1.64209645880931E-10  2.44280998310879E-02
 cg2d: Sum(rhs),rhsMax =  -1.82872827991787E-10  2.19340912560842E-02
 cg2d: Sum(rhs),rhsMax =  -2.06437533734061E-10  1.94236343702103E-02
 cg2d: Sum(rhs),rhsMax =  -2.37322606011503E-10  1.68955109437890E-02
 cg2d: Sum(rhs),rhsMax =  -2.79318124185579E-10  1.43485445325348E-02
 cg2d: Sum(rhs),rhsMax =  -3.40072081606024E-10  1.17816100643906E-02
 cg2d: Sum(rhs),rhsMax =  -3.66793151407308E-10  1.09210926088650E-02
 cg2d: Sum(rhs),rhsMax =  -3.69371311315092E-10  1.08428168591567E-02
 cg2d: Sum(rhs),rhsMax =  -3.12707248983912E-10  1.28060967085880E-02
 cg2d: Sum(rhs),rhsMax =  -2.46351231081299E-10  1.62523671420196E-02
 cg2d: Sum(rhs),rhsMax =  -2.03130096076976E-10  1.97075717597032E-02
 cg2d: Sum(rhs),rhsMax =  -1.72447972568435E-10  2.32034060774288E-02
 cg2d: Sum(rhs),rhsMax =  -1.49918522041048E-10  2.66808907440501E-02
 cg2d: Sum(rhs),rhsMax =  -1.32368116467774E-10  3.02186790627142E-02
 cg2d: Sum(rhs),rhsMax =  -1.18504928092733E-10  3.37442102761796E-02
 cg2d: Sum(rhs),rhsMax =  -1.07121256309739E-10  3.72981317946503E-02
 cg2d: Sum(rhs),rhsMax =  -9.77130043544605E-11  4.08708958726626E-02
 cg2d: Sum(rhs),rhsMax =  -8.97711904812581E-11  4.44526972776853E-02
 cg2d: Sum(rhs),rhsMax =  -8.29409874114617E-11  4.80708582639938E-02
 cg2d: Sum(rhs),rhsMax =  -7.70591368493001E-11  5.17150522880287E-02
 cg2d: Sum(rhs),rhsMax =  -7.19085901934591E-11  5.53930503618675E-02
 cg2d: Sum(rhs),rhsMax =  -6.73353595104231E-11  5.91157602978159E-02
 cg2d: Sum(rhs),rhsMax =  -6.33356700419085E-11  6.28117270292693E-02
 cg2d: Sum(rhs),rhsMax =  -5.98112670502360E-11  6.64795260688856E-02
 cg2d: Sum(rhs),rhsMax =  -5.66849900351940E-11  7.01176581208935E-02
 cg2d: Sum(rhs),rhsMax =  -5.38052935539213E-11  7.37245501660334E-02
 cg2d: Sum(rhs),rhsMax =  -5.12054842971565E-11  7.72985568503878E-02
 cg2d: Sum(rhs),rhsMax =  -4.89122076174908E-11  8.08379621960934E-02
 cg2d: Sum(rhs),rhsMax =  -4.67599292619525E-11  8.43409816535084E-02
 cg2d: Sum(rhs),rhsMax =  -4.48545645070908E-11  8.78057645126865E-02
 cg2d: Sum(rhs),rhsMax =  -4.31285007707061E-11  9.12303966868928E-02
 cg2d: Sum(rhs),rhsMax =  -4.14918099878037E-11  9.46129038736994E-02
 cg2d: Sum(rhs),rhsMax =  -4.00132149636079E-11  9.79512550909568E-02
 cg2d: Sum(rhs),rhsMax =  -3.86224385806599E-11  1.01243366577616E-01
 cg2d: Sum(rhs),rhsMax =  -3.73073794079914E-11  1.04487106043922E-01
 cg2d: Sum(rhs),rhsMax =  -3.61383145630612E-11  1.07680297250715E-01
 cg2d: Sum(rhs),rhsMax =  -3.50367512780281E-11  1.10820724898853E-01
 cg2d: Sum(rhs),rhsMax =  -3.40895089934179E-11  1.13906139809624E-01
 cg2d: Sum(rhs),rhsMax =  -3.32419647364190E-11  1.16934264383545E-01
 cg2d: Sum(rhs),rhsMax =  -3.24694715558849E-11  1.19902798331200E-01
 cg2d: Sum(rhs),rhsMax =  -3.17280646200402E-11  1.22809424676282E-01
 cg2d: Sum(rhs),rhsMax =  -3.10491632404819E-11  1.25651816037052E-01
 cg2d: Sum(rhs),rhsMax =  -3.04042346854771E-11  1.28427641195902E-01
 cg2d: Sum(rhs),rhsMax =  -2.98181479507775E-11  1.31134571965731E-01
 cg2d: Sum(rhs),rhsMax =  -2.92819102298836E-11  1.33770290363774E-01
 cg2d: Sum(rhs),rhsMax =  -2.87796453335432E-11  1.36332496092677E-01
 cg2d: Sum(rhs),rhsMax =  -2.83375545251374E-11  1.38818914313021E-01
 cg2d: Sum(rhs),rhsMax =  -2.78805867282017E-11  1.41227303681611E-01
 cg2d: Sum(rhs),rhsMax =  -2.75014455652922E-11  1.43555464604750E-01
 cg2d: Sum(rhs),rhsMax =  -2.71098699045069E-11  1.45801247648647E-01
 cg2d: Sum(rhs),rhsMax =  -2.67796895769834E-11  1.47962562018054E-01
 cg2d: Sum(rhs),rhsMax =  -2.64583910336569E-11  1.50037384004261E-01
 cg2d: Sum(rhs),rhsMax =  -2.61393129363796E-11  1.52023765292229E-01
 cg2d: Sum(rhs),rhsMax =  -2.58536525521436E-11  1.53919841010354E-01
 cg2d: Sum(rhs),rhsMax =  -2.55762078182897E-11  1.55723837408304E-01
 cg2d: Sum(rhs),rhsMax =  -2.53841392350296E-11  1.57434079054818E-01
 cg2d: Sum(rhs),rhsMax =  -2.51594300948454E-11  1.59048995461155E-01
 cg2d: Sum(rhs),rhsMax =  -2.49186227208043E-11  1.60567127067670E-01
 cg2d: Sum(rhs),rhsMax =  -2.47543097131597E-11  1.61987130511403E-01
 cg2d: Sum(rhs),rhsMax =  -2.46374032286667E-11  1.63307783161002E-01
 cg2d: Sum(rhs),rhsMax =  -2.44549935857208E-11  1.64527986951791E-01
 cg2d: Sum(rhs),rhsMax =  -2.43435271940484E-11  1.65646771533093E-01
 cg2d: Sum(rhs),rhsMax =  -2.42921238680083E-11  1.66663296775779E-01
 cg2d: Sum(rhs),rhsMax =  -2.41806574763359E-11  1.67576854702576E-01
 cg2d: Sum(rhs),rhsMax =  -2.41231479236603E-11  1.68386870915605E-01
 cg2d: Sum(rhs),rhsMax =  -2.40344411039928E-11  1.69092905643050E-01
 cg2d: Sum(rhs),rhsMax =  -2.39751551944778E-11  1.69694654445249E-01
 cg2d: Sum(rhs),rhsMax =  -2.39412933922267E-11  1.70191948686447E-01
 cg2d: Sum(rhs),rhsMax =  -2.39012143410378E-11  1.70584755835134E-01
 cg2d: Sum(rhs),rhsMax =  -2.38764563675886E-11  1.70873179630971E-01
 cg2d: Sum(rhs),rhsMax =  -2.38592479107069E-11  1.71057460133600E-01
 cg2d: Sum(rhs),rhsMax =  -2.38759012560763E-11  1.71137973645676E-01
 cg2d: Sum(rhs),rhsMax =  -2.39035458093895E-11  1.71115232480294E-01
 cg2d: Sum(rhs),rhsMax =  -2.39473996188622E-11  1.70989884504137E-01
 cg2d: Sum(rhs),rhsMax =  -2.39673836333054E-11  1.70762712420873E-01
 cg2d: Sum(rhs),rhsMax =  -2.40246711413761E-11  1.70434632742116E-01
 cg2d: Sum(rhs),rhsMax =  -2.40729658429473E-11  1.70006694306372E-01
 cg2d: Sum(rhs),rhsMax =  -2.41813236101507E-11  1.69480076270335E-01
 cg2d: Sum(rhs),rhsMax =  -2.42945663586625E-11  1.68856085505669E-01
 cg2d: Sum(rhs),rhsMax =  -2.44284592554322E-11  1.68136153347363E-01
 cg2d: Sum(rhs),rhsMax =  -2.45726772263311E-11  1.67321831655951E-01
 cg2d: Sum(rhs),rhsMax =  -2.47135645281560E-11  1.66414788198146E-01
 cg2d: Sum(rhs),rhsMax =  -2.49014142639226E-11  1.65416801277170E-01
 cg2d: Sum(rhs),rhsMax =  -2.51090259695275E-11  1.64329753701539E-01
 cg2d: Sum(rhs),rhsMax =  -2.52301513015141E-11  1.63473309612550E-01
 cg2d: Sum(rhs),rhsMax =  -2.53516097004081E-11  1.62829515507080E-01
 cg2d: Sum(rhs),rhsMax =  -2.54591903114942E-11  1.62073618599642E-01
 cg2d: Sum(rhs),rhsMax =  -2.56179522040156E-11  1.61206835685341E-01
 cg2d: Sum(rhs),rhsMax =  -2.58214560844294E-11  1.60230535403951E-01
 cg2d: Sum(rhs),rhsMax =  -2.59817722891853E-11  1.59146233046689E-01
 cg2d: Sum(rhs),rhsMax =  -2.62025956487832E-11  1.57955585124542E-01
 cg2d: Sum(rhs),rhsMax =  -2.64229749191713E-11  1.56660383642765E-01
 cg2d: Sum(rhs),rhsMax =  -2.66996424969079E-11  1.55262550144510E-01
 cg2d: Sum(rhs),rhsMax =  -2.69517741458003E-11  1.53764129466781E-01
 cg2d: Sum(rhs),rhsMax =  -2.72424305336472E-11  1.52167283038371E-01
 cg2d: Sum(rhs),rhsMax =  -2.75818257122751E-11  1.50474281793966E-01
 cg2d: Sum(rhs),rhsMax =  -2.79384293477847E-11  1.48687498677031E-01
 cg2d: Sum(rhs),rhsMax =  -2.83658652122654E-11  1.46809400715695E-01
 cg2d: Sum(rhs),rhsMax =  -2.88177259832878E-11  1.44842540674238E-01
 cg2d: Sum(rhs),rhsMax =  -2.92781354715999E-11  1.42789548295308E-01
 cg2d: Sum(rhs),rhsMax =  -2.98083779881608E-11  1.40653121169033E-01
 cg2d: Sum(rhs),rhsMax =  -3.02896596693358E-11  1.38436015446673E-01
(PID.TID 0000.0001)      cg2d_init_res =   8.35662149715973E-02
(PID.TID 0000.0001)      cg2d_iters(min,last) =      -1      37
(PID.TID 0000.0001)      cg2d_last_res =   9.70085724850948E-14
(PID.TID 0000.0001) // =======================================================
(PID.TID 0000.0001) // Begin MONITOR dynamic field statistics
(PID.TID 0000.0001) // =======================================================
(PID.TID 0000.0001) %MON time_tsnumber                =                  1440
(PID.TID 0000.0001) %MON time_secondsf                =   2.1600000000000E+04
(PID.TID 0000.0001) %MON dynstat_eta_max              =   2.8772082898780E-02
(PID.TID 0000.0001) %MON dynstat_eta_min              =  -2.2956056468849E-02
(PID.TID 0000.0001) %MON dynstat_eta_mean             =   9.2684222148667E-15
(PID.TID 0000.0001) %MON dynstat_eta_sd               =   1.8156615770716E-02
(PID.TID 0000.0001) %MON dynstat_eta_del2             =   1.0235365771282E-05
(PID.TID 0000.0001) %MON dynstat_uvel_max             =   1.0169589217761E+00
(PID.TID 0000.0001) %MON dynstat_uvel_min             =  -5.4008630351060E-01
(PID.TID 0000.0001) %MON dynstat_uvel_mean            =   4.5066914337139E-01
(PID.TID 0000.0001) %MON dynstat_uvel_sd              =   6.4844469707332E-02
(PID.TID 0000.0001) %MON dynstat_uvel_del2            =   3.1117584293503E-04
(PID.TID 0000.0001) %MON dynstat_vvel_max             =   0.0000000000000E+00
(PID.TID 0000.0001) %MON dynstat_vvel_min             =   0.0000000000000E+00
(PID.TID 0000.0001) %MON dynstat_vvel_mean            =   0.0000000000000E+00
(PID.TID 0000.0001) %MON dynstat_vvel_sd              =   0.0000000000000E+00
(PID.TID 0000.0001) %MON dynstat_vvel_del2            =   0.0000000000000E+00
(PID.TID 0000.0001) %MON dynstat_wvel_max             =   1.1943685174202E-02
(PID.TID 0000.0001) %MON dynstat_wvel_min             =  -1.5119113427500E-02
(PID.TID 0000.0001) %MON dynstat_wvel_mean            =   6.4820363888848E-20
(PID.TID 0000.0001) %MON dynstat_wvel_sd              =   1.5177853644639E-03
(PID.TID 0000.0001) %MON dynstat_wvel_del2            =   2.3957509026064E-05
(PID.TID 0000.0001) %MON dynstat_theta_max            =   1.5000000000004E+01
(PID.TID 0000.0001) %MON dynstat_theta_min            =   9.9999999999974E+00
(PID.TID 0000.0001) %MON dynstat_theta_mean           =   1.4047646066802E+01
(PID.TID 0000.0001) %MON dynstat_theta_sd             =   1.8865253600843E+00
(PID.TID 0000.0001) %MON dynstat_theta_del2           =   5.4470543854920E-04
(PID.TID 0000.0001) %MON dynstat_salt_max             =   3.5000000000000E+01
(PID.TID 0000.0001) %MON dynstat_salt_min             =   3.5000000000000E+01
(PID.TID 0000.0001) %MON dynstat_salt_mean            =   3.5000000000000E+01
(PID.TID 0000.0001) %MON dynstat_salt_sd              =   3.0553337637684E-13
(PID.TID 0000.0001) %MON dynstat_salt_del2            =   0.0000000000000E+00
(PID.TID 0000.0001) %MON dynstat_sst_max              =   1.5000000000000E+01
(PID.TID 0000.0001) %MON dynstat_sst_min              =   1.5000000000000E+01
(PID.TID 0000.0001) %MON dynstat_sst_mean             =   1.5000000000000E+01
(PID.TID 0000.0001) %MON dynstat_sst_sd               =   1.5667432228425E-13
(PID.TID 0000.0001) %MON dynstat_sst_del2             =   4.1959002510651E-15
(PID.TID 0000.0001) %MON dynstat_sss_max              =   3.5000000000000E+01
(PID.TID 0000.0001) %MON dynstat_sss_min              =   3.5000000000000E+01
(PID.TID 0000.0001) %MON dynstat_sss_mean             =   3.5000000000000E+01
(PID.TID 0000.0001) %MON dynstat_sss_sd               =   2.8421709430404E-14
(PID.TID 0000.0001) %MON dynstat_sss_del2             =   0.0000000000000E+00
(PID.TID 0000.0001) %MON forcing_qnet_max             =   0.0000000000000E+00
(PID.TID 0000.0001) %MON forcing_qnet_min             =   0.0000000000000E+00
(PID.TID 0000.0001) %MON forcing_qnet_mean            =   0.0000000000000E+00
(PID.TID 0000.0001) %MON forcing_qnet_sd              =   0.0000000000000E+00
(PID.TID 0000.0001) %MON forcing_qnet_del2            =   0.0000000000000E+00
(PID.TID 0000.0001) %MON forcing_qsw_max              =   0.0000000000000E+00
(PID.TID 0000.0001) %MON forcing_qsw_min              =   0.0000000000000E+00
(PID.TID 0000.0001) %MON forcing_qsw_mean             =   0.0000000000000E+00
(PID.TID 0000.0001) %MON forcing_qsw_sd               =   0.0000000000000E+00
(PID.TID 0000.0001) %MON forcing_qsw_del2             =   0.0000000000000E+00
(PID.TID 0000.0001) %MON forcing_empmr_max            =   0.0000000000000E+00
(PID.TID 0000.0001) %MON forcing_empmr_min            =   0.0000000000000E+00
(PID.TID 0000.0001) %MON forcing_empmr_mean           =   0.0000000000000E+00
(PID.TID 0000.0001) %MON forcing_empmr_sd             =   0.0000000000000E+00
(PID.TID 0000.0001) %MON forcing_empmr_del2           =   0.0000000000000E+00
(PID.TID 0000.0001) %MON forcing_fu_max               =   0.0000000000000E+00
(PID.TID 0000.0001) %MON forcing_fu_min               =   0.0000000000000E+00
(PID.TID 0000.0001) %MON forcing_fu_mean              =   0.0000000000000E+00
(PID.TID 0000.0001) %MON forcing_fu_sd                =   0.0000000000000E+00
(PID.TID 0000.0001) %MON forcing_fu_del2              =   0.0000000000000E+00
(PID.TID 0000.0001) %MON forcing_fv_max               =   0.0000000000000E+00
(PID.TID 0000.0001) %MON forcing_fv_min               =   0.0000000000000E+00
(PID.TID 0000.0001) %MON forcing_fv_mean              =   0.0000000000000E+00
(PID.TID 0000.0001) %MON forcing_fv_sd                =   0.0000000000000E+00
(PID.TID 0000.0001) %MON forcing_fv_del2              =   0.0000000000000E+00
(PID.TID 0000.0001) %MON advcfl_uvel_max              =   7.5754568493644E-02
(PID.TID 0000.0001) %MON advcfl_vvel_max              =   0.0000000000000E+00
(PID.TID 0000.0001) %MON advcfl_wvel_max              =   6.7195321203275E-02
(PID.TID 0000.0001) %MON advcfl_W_hf_max              =   6.8166385971408E-02
(PID.TID 0000.0001) %MON pe_b_mean                    =   8.1705842594087E-06
(PID.TID 0000.0001) %MON ke_max                       =   4.7418499297833E-01
(PID.TID 0000.0001) %MON ke_mean                      =   1.0365912742282E-01
(PID.TID 0000.0001) %MON ke_vol                       =   9.6656965507697E+10
(PID.TID 0000.0001) %MON vort_r_min                   =   0.0000000000000E+00
(PID.TID 0000.0001) %MON vort_r_max                   =   0.0000000000000E+00
(PID.TID 0000.0001) %MON vort_a_mean                  =   0.0000000000000E+00
(PID.TID 0000.0001) %MON vort_a_sd                    =   0.0000000000000E+00
(PID.TID 0000.0001) %MON vort_p_mean                  =   0.0000000000000E+00
(PID.TID 0000.0001) %MON vort_p_sd                    =   0.0000000000000E+00
(PID.TID 0000.0001) %MON surfExpan_theta_mean         =   2.2886248264410E-18
(PID.TID 0000.0001) %MON surfExpan_salt_mean          =   3.0539826813370E-18
(PID.TID 0000.0001) // =======================================================
(PID.TID 0000.0001) // End MONITOR dynamic field statistics
(PID.TID 0000.0001) // =======================================================
(PID.TID 0000.0001) // =======================================================
(PID.TID 0000.0001) // Begin OBCS MONITOR field statistics
(PID.TID 0000.0001) // =======================================================
(PID.TID 0000.0001) %MON obc_E_uVel_max               =   4.4822851314926E-01
(PID.TID 0000.0001) %MON obc_E_uVel_min               =   4.4822851314926E-01
(PID.TID 0000.0001) %MON obc_E_uVel_mean              =   4.4822851314926E-01
(PID.TID 0000.0001) %MON obc_E_uVel_sd                =   0.0000000000000E+00
(PID.TID 0000.0001) %MON obc_E_uVel_Int               =   4.4822851314926E+05
(PID.TID 0000.0001) %MON obc_W_uVel_max               =   4.4822851314926E-01
(PID.TID 0000.0001) %MON obc_W_uVel_min               =   4.4822851314926E-01
(PID.TID 0000.0001) %MON obc_W_uVel_mean              =   4.4822851314926E-01
(PID.TID 0000.0001) %MON obc_W_uVel_sd                =   0.0000000000000E+00
(PID.TID 0000.0001) %MON obc_W_uVel_Int               =   4.4822851314926E+05
(PID.TID 0000.0001) // =======================================================
(PID.TID 0000.0001) // End OBCS MONITOR field statistics
(PID.TID 0000.0001) // =======================================================
(PID.TID 0000.0001) %CHECKPOINT      1440 0000001440
 cg2d: Sum(rhs),rhsMax =  -3.09174907897614E-11  1.36141036343196E-01
 cg2d: Sum(rhs),rhsMax =  -3.15266701633732E-11  1.33771028612552E-01
 cg2d: Sum(rhs),rhsMax =  -3.21529469715642E-11  1.31328867150194E-01
 cg2d: Sum(rhs),rhsMax =  -3.28000959726182E-11  1.28817447812415E-01
 cg2d: Sum(rhs),rhsMax =  -3.34664518319983E-11  1.26239678616010E-01
 cg2d: Sum(rhs),rhsMax =  -3.42997852342819E-11  1.23598471438456E-01
 cg2d: Sum(rhs),rhsMax =  -3.51345619264976E-11  1.20896734299344E-01
 cg2d: Sum(rhs),rhsMax =  -3.59642315927999E-11  1.18137364234246E-01
 cg2d: Sum(rhs),rhsMax =  -3.67905705900284E-11  1.15323240808505E-01
 cg2d: Sum(rhs),rhsMax =  -3.76023656656344E-11  1.12457220198793E-01
 cg2d: Sum(rhs),rhsMax =  -3.84765552752242E-11  1.09542129808151E-01
 cg2d: Sum(rhs),rhsMax =  -3.94494437117032E-11  1.06580763046385E-01
 cg2d: Sum(rhs),rhsMax =  -4.04840605483514E-11  1.03575874418088E-01
 cg2d: Sum(rhs),rhsMax =  -4.15703027556447E-11  1.00530174810700E-01
 cg2d: Sum(rhs),rhsMax =  -4.28861390844304E-11  9.74463268606681E-02
 cg2d: Sum(rhs),rhsMax =  -4.43313163955850E-11  9.43269403377523E-02
 cg2d: Sum(rhs),rhsMax =  -4.59633442417839E-11  9.11745675342133E-02
 cg2d: Sum(rhs),rhsMax =  -4.77073935911676E-11  8.79916986929938E-02
 cg2d: Sum(rhs),rhsMax =  -4.95768981423339E-11  8.47807575345097E-02
 cg2d: Sum(rhs),rhsMax =  -5.16418019458342E-11  8.15440969682824E-02
 cg2d: Sum(rhs),rhsMax =  -5.39018829570637E-11  7.82839951238503E-02
 cg2d: Sum(rhs),rhsMax =  -5.62924151736865E-11  7.50026518420103E-02
 cg2d: Sum(rhs),rhsMax =  -5.89930326810872E-11  7.17021855697537E-02
 cg2d: Sum(rhs),rhsMax =  -6.17745854469831E-11  6.85326019200773E-02
 cg2d: Sum(rhs),rhsMax =  -6.44851949616054E-11  6.56960361155221E-02
 cg2d: Sum(rhs),rhsMax =  -6.74673650280511E-11  6.28524392636048E-02
 cg2d: Sum(rhs),rhsMax =  -7.07575109615277E-11  6.00020854603380E-02
 cg2d: Sum(rhs),rhsMax =  -7.44039274636066E-11  5.71451568967917E-02
 cg2d: Sum(rhs),rhsMax =  -7.83969555939734E-11  5.42817463508682E-02
 cg2d: Sum(rhs),rhsMax =  -8.28963564458718E-11  5.14118600797269E-02
 cg2d: Sum(rhs),rhsMax =  -8.78808137372289E-11  4.85354210988034E-02
 cg2d: Sum(rhs),rhsMax =  -9.34780031158766E-11  4.56522728482012E-02
 cg2d: Sum(rhs),rhsMax =  -9.99320626249300E-11  4.27621831926089E-02
 cg2d: Sum(rhs),rhsMax =  -1.07256870052197E-10  3.98648487577904E-02
 cg2d: Sum(rhs),rhsMax =  -1.15738418848821E-10  3.69598995803954E-02
 cg2d: Sum(rhs),rhsMax =  -1.25651822280304E-10  3.40469040462713E-02
 cg2d: Sum(rhs),rhsMax =  -1.37558742174804E-10  3.11253740931125E-02
 cg2d: Sum(rhs),rhsMax =  -1.51927026514898E-10  2.81947706627666E-02
 cg2d: Sum(rhs),rhsMax =  -1.69719460707540E-10  2.52545093710130E-02
 cg2d: Sum(rhs),rhsMax =  -1.92279969724041E-10  2.23039663739521E-02
 cg2d: Sum(rhs),rhsMax =  -2.21745732886802E-10  1.93424844308900E-02
 cg2d: Sum(rhs),rhsMax =  -2.62041277565572E-10  1.63693791444764E-02
 cg2d: Sum(rhs),rhsMax =  -3.20589055302634E-10  1.33839453573483E-02
 cg2d: Sum(rhs),rhsMax =  -3.68181457544026E-10  1.16590934203119E-02
 cg2d: Sum(rhs),rhsMax =  -3.71054992287512E-10  1.15704141791077E-02
 cg2d: Sum(rhs),rhsMax =  -3.73965636235596E-10  1.14847073099610E-02
 cg2d: Sum(rhs),rhsMax =  -3.76782827160582E-10  1.14021593974375E-02
 cg2d: Sum(rhs),rhsMax =  -3.16167203529005E-10  1.35936214174288E-02
 cg2d: Sum(rhs),rhsMax =  -2.59054222517818E-10  1.65981000142536E-02
 cg2d: Sum(rhs),rhsMax =  -2.19169016268950E-10  1.96198046327518E-02
 cg2d: Sum(rhs),rhsMax =  -1.89540272366173E-10  2.26937539072596E-02
 cg2d: Sum(rhs),rhsMax =  -1.66765823372828E-10  2.57967575215686E-02
 cg2d: Sum(rhs),rhsMax =  -1.48720036285965E-10  2.89398951929967E-02
 cg2d: Sum(rhs),rhsMax =  -1.33950628367074E-10  3.21511107321583E-02
 cg2d: Sum(rhs),rhsMax =  -1.21778143125084E-10  3.53833248509099E-02
 cg2d: Sum(rhs),rhsMax =  -1.11694431481624E-10  3.86007586163789E-02
 cg2d: Sum(rhs),rhsMax =  -1.03163255715799E-10  4.18027487956257E-02
 cg2d: Sum(rhs),rhsMax =  -9.59414769852174E-11  4.49886051440749E-02
 cg2d: Sum(rhs),rhsMax =  -8.96709373421345E-11  4.81576083541302E-02
 cg2d: Sum(rhs),rhsMax =  -8.41997582767817E-11  5.13090083944032E-02
 cg2d: Sum(rhs),rhsMax =  -7.94231347356344E-11  5.44420231833051E-02
 cg2d: Sum(rhs),rhsMax =  -7.51589901426541E-11  5.75558375198098E-02
 cg2d: Sum(rhs),rhsMax =  -7.13774594984784E-11  6.06496021783726E-02
 cg2d: Sum(rhs),rhsMax =  -6.79694078797866E-11  6.37224331039932E-02
 cg2d: Sum(rhs),rhsMax =  -6.49478248959667E-11  6.67734106569171E-02
 cg2d: Sum(rhs),rhsMax =  -6.20814510909895E-11  6.98015789153757E-02
 cg2d: Sum(rhs),rhsMax =  -5.96211968684202E-11  7.28059449546958E-02
 cg2d: Sum(rhs),rhsMax =  -5.73763259126281E-11  7.57854781390228E-02
 cg2d: Sum(rhs),rhsMax =  -5.53115331314302E-11  7.87391095013009E-02
 cg2d: Sum(rhs),rhsMax =  -5.34150501607655E-11  8.16657312396242E-02
 cg2d: Sum(rhs),rhsMax =  -5.16848785991897E-11  8.45641964357654E-02
 cg2d: Sum(rhs),rhsMax =  -5.00670616077059E-11  8.74333190559255E-02
 cg2d: Sum(rhs),rhsMax =  -4.85576023834255E-11  9.02718742819253E-02
 cg2d: Sum(rhs),rhsMax =  -4.71747085839525E-11  9.30785992145527E-02
 cg2d: Sum(rhs),rhsMax =  -4.58344473486250E-11  9.58521939803093E-02
 cg2d: Sum(rhs),rhsMax =  -4.46149783783767E-11  9.85913232571169E-02
 cg2d: Sum(rhs),rhsMax =  -4.35549374344646E-11  1.01294618217040E-01
 cg2d: Sum(rhs),rhsMax =  -4.24837942603062E-11  1.03960678865757E-01
 cg2d: Sum(rhs),rhsMax =  -4.14699385942185E-11  1.06588076739451E-01
 cg2d: Sum(rhs),rhsMax =  -4.04937194886656E-11  1.09241390383966E-01
 cg2d: Sum(rhs),rhsMax =  -3.92855747932686E-11  1.12786213479983E-01
 cg2d: Sum(rhs),rhsMax =  -3.81509268621016E-11  1.16323882312140E-01
 cg2d: Sum(rhs),rhsMax =  -3.70614650080370E-11  1.19851753310623E-01
 cg2d: Sum(rhs),rhsMax =  -3.60085294914825E-11  1.23367088214844E-01
 cg2d: Sum(rhs),rhsMax =  -3.50688367234397E-11  1.26867059711700E-01
 cg2d: Sum(rhs),rhsMax =  -3.42040840095592E-11  1.30348757295241E-01
 cg2d: Sum(rhs),rhsMax =  -3.33908456440213E-11  1.33809193320398E-01
 cg2d: Sum(rhs),rhsMax =  -3.26313420728752E-11  1.37245309232817E-01
 cg2d: Sum(rhs),rhsMax =  -3.19217985378373E-11  1.40653981969265E-01
 cg2d: Sum(rhs),rhsMax =  -3.12045944639294E-11  1.44032030526372E-01
 cg2d: Sum(rhs),rhsMax =  -3.05403480282962E-11  1.47376222705486E-01
 cg2d: Sum(rhs),rhsMax =  -2.99222868704874E-11  1.50683282045670E-01
 cg2d: Sum(rhs),rhsMax =  -2.93267632400784E-11  1.53949894957374E-01
 cg2d: Sum(rhs),rhsMax =  -2.87371237917000E-11  1.57172718068024E-01
 cg2d: Sum(rhs),rhsMax =  -2.82253109773478E-11  1.60348385784908E-01
 cg2d: Sum(rhs),rhsMax =  -2.77098344270144E-11  1.63473518072832E-01
 cg2d: Sum(rhs),rhsMax =  -2.72093458875133E-11  1.66544728434311E-01
 cg2d: Sum(rhs),rhsMax =  -2.67448285740102E-11  1.69558632069246E-01
 cg2d: Sum(rhs),rhsMax =  -2.63243871145846E-11  1.72511854179866E-01
 cg2d: Sum(rhs),rhsMax =  -2.58617571802233E-11  1.75401038376289E-01
 cg2d: Sum(rhs),rhsMax =  -2.54906096230911E-11  1.78222855130458E-01
 cg2d: Sum(rhs),rhsMax =  -2.51151321961629E-11  1.80974010219997E-01
 cg2d: Sum(rhs),rhsMax =  -2.47774023520719E-11  1.83651253099230E-01
 cg2d: Sum(rhs),rhsMax =  -2.44232412072165E-11  1.86251385139261E-01
 cg2d: Sum(rhs),rhsMax =  -2.41345832208140E-11  1.88771267679506E-01
 cg2d: Sum(rhs),rhsMax =  -2.37956321313959E-11  1.91207829847525E-01
 cg2d: Sum(rhs),rhsMax =  -2.35299557616031E-11  1.93558076103195E-01
 cg2d: Sum(rhs),rhsMax =  -2.32422969759227E-11  1.95819093479785E-01
 cg2d: Sum(rhs),rhsMax =  -2.29952723529436E-11  1.97988058500462E-01
 cg2d: Sum(rhs),rhsMax =  -2.27620144954699E-11  2.00062243765275E-01
 cg2d: Sum(rhs),rhsMax =  -2.25249818797124E-11  2.02039024210335E-01
 cg2d: Sum(rhs),rhsMax =  -2.23155938172681E-11  2.03915883050563E-01
 cg2d: Sum(rhs),rhsMax =  -2.21359597318838E-11  2.05690417413748E-01
 cg2d: Sum(rhs),rhsMax =  -2.19736451256836E-11  2.07360343678036E-01
 cg2d: Sum(rhs),rhsMax =  -2.18142170993474E-11  2.08923502535668E-01
 cg2d: Sum(rhs),rhsMax =  -2.16423545751354E-11  2.10377863780784E-01
 cg2d: Sum(rhs),rhsMax =  -2.14858131286633E-11  2.11721530834528E-01
 cg2d: Sum(rhs),rhsMax =  -2.13749018485032E-11  2.12952744992502E-01
 cg2d: Sum(rhs),rhsMax =  -2.12991846382238E-11  2.14069889385350E-01
 cg2d: Sum(rhs),rhsMax =  -2.12005968336371E-11  2.15071492640047E-01
 cg2d: Sum(rhs),rhsMax =  -2.11352046974866E-11  2.15956232235930E-01
 cg2d: Sum(rhs),rhsMax =  -2.10962358693223E-11  2.16722937533122E-01
 cg2d: Sum(rhs),rhsMax =  -2.10287343094251E-11  2.17370592443231E-01
 cg2d: Sum(rhs),rhsMax =  -2.09928741057297E-11  2.17898337682502E-01
 cg2d: Sum(rhs),rhsMax =  -2.09644523962993E-11  2.18305472615992E-01
 cg2d: Sum(rhs),rhsMax =  -2.09688932883978E-11  2.18591456668100E-01
 cg2d: Sum(rhs),rhsMax =  -2.10096384734015E-11  2.18755910278896E-01
 cg2d: Sum(rhs),rhsMax =  -2.10397255173689E-11  2.18798615383828E-01
 cg2d: Sum(rhs),rhsMax =  -2.10660378030525E-11  2.18719515410117E-01
 cg2d: Sum(rhs),rhsMax =  -2.11159978391606E-11  2.18518714773870E-01
 cg2d: Sum(rhs),rhsMax =  -2.12001527444272E-11  2.18196477854054E-01
 cg2d: Sum(rhs),rhsMax =  -2.12390105502891E-11  2.17753227552935E-01
 cg2d: Sum(rhs),rhsMax =  -2.13513651203812E-11  2.17189543342708E-01
 cg2d: Sum(rhs),rhsMax =  -2.15052420315942E-11  2.16506158810203E-01
 cg2d: Sum(rhs),rhsMax =  -2.16017204124341E-11  2.15703958716533E-01
 cg2d: Sum(rhs),rhsMax =  -2.17793560963742E-11  2.14783975589923E-01
 cg2d: Sum(rhs),rhsMax =  -2.19251283795074E-11  2.13747385895140E-01
 cg2d: Sum(rhs),rhsMax =  -2.20859996957756E-11  2.12595505704343E-01
 cg2d: Sum(rhs),rhsMax =  -2.22177831687986E-11  2.11329785969246E-01
 cg2d: Sum(rhs),rhsMax =  -2.24481544464084E-11  2.09951807436115E-01
 cg2d: Sum(rhs),rhsMax =  -2.25821583654806E-11  2.08463275187346E-01
 cg2d: Sum(rhs),rhsMax =  -2.27334817637370E-11  2.06866012838823E-01
 cg2d: Sum(rhs),rhsMax =  -2.28603802554517E-11  2.05161956429877E-01
 cg2d: Sum(rhs),rhsMax =  -2.30173657911337E-11  2.03353148059454E-01
 cg2d: Sum(rhs),rhsMax =  -2.31892283153456E-11  2.01441729279998E-01
 cg2d: Sum(rhs),rhsMax =  -2.33307817509854E-11  1.99429934366130E-01
 cg2d: Sum(rhs),rhsMax =  -2.35416131033617E-11  1.97320083418451E-01
 cg2d: Sum(rhs),rhsMax =  -2.36963781929944E-11  1.95114575345123E-01
 cg2d: Sum(rhs),rhsMax =  -2.39296360504682E-11  1.92815880837451E-01
 cg2d: Sum(rhs),rhsMax =  -2.41211495222160E-11  1.90426535358646E-01
 cg2d: Sum(rhs),rhsMax =  -2.43896014495704E-11  1.87949132201026E-01
 cg2d: Sum(rhs),rhsMax =  -2.46712650309178E-11  1.85386315604317E-01
 cg2d: Sum(rhs),rhsMax =  -2.50010012692314E-11  1.82740773937816E-01
 cg2d: Sum(rhs),rhsMax =  -2.53407295147667E-11  1.80015232975513E-01
 cg2d: Sum(rhs),rhsMax =  -2.56844545631907E-11  1.77212449281047E-01
 cg2d: Sum(rhs),rhsMax =  -2.60568233656500E-11  1.74335203789088E-01
 cg2d: Sum(rhs),rhsMax =  -2.64332999933004E-11  1.71386295481280E-01
 cg2d: Sum(rhs),rhsMax =  -2.68572941664047E-11  1.68368535168091E-01
 cg2d: Sum(rhs),rhsMax =  -2.73009392870449E-11  1.65284739390536E-01
 cg2d: Sum(rhs),rhsMax =  -2.77547984595117E-11  1.62137724454361E-01
 cg2d: Sum(rhs),rhsMax =  -2.82643908278146E-11  1.58930300628045E-01
 cg2d: Sum(rhs),rhsMax =  -2.87893042738574E-11  1.55665266469695E-01
 cg2d: Sum(rhs),rhsMax =  -2.93076674040549E-11  1.52345403338820E-01
 cg2d: Sum(rhs),rhsMax =  -2.98930880049397E-11  1.48973470107211E-01
 cg2d: Sum(rhs),rhsMax =  -3.05133696087978E-11  1.45552198070784E-01
 cg2d: Sum(rhs),rhsMax =  -3.12005976610408E-11  1.42084286125540E-01
 cg2d: Sum(rhs),rhsMax =  -3.19787529790005E-11  1.38572396300823E-01
 cg2d: Sum(rhs),rhsMax =  -3.27470273120412E-11  1.35019149580131E-01
 cg2d: Sum(rhs),rhsMax =  -3.36204397655138E-11  1.31427122029602E-01
 cg2d: Sum(rhs),rhsMax =  -3.45630191134205E-11  1.27798841287270E-01
 cg2d: Sum(rhs),rhsMax =  -3.55185880707154E-11  1.24136783456942E-01
 cg2d: Sum(rhs),rhsMax =  -3.65606434016286E-11  1.20443370425448E-01
 cg2d: Sum(rhs),rhsMax =  -3.76987330241718E-11  1.16720967600656E-01
 cg2d: Sum(rhs),rhsMax =  -3.88803433892804E-11  1.12971882059977E-01
 cg2d: Sum(rhs),rhsMax =  -4.01786381942770E-11  1.09198361096563E-01
 cg2d: Sum(rhs),rhsMax =  -4.15529832764605E-11  1.05402591148586E-01
 cg2d: Sum(rhs),rhsMax =  -4.30571134302227E-11  1.01586697094568E-01
 cg2d: Sum(rhs),rhsMax =  -4.46808146037370E-11  9.77527418948752E-02
 cg2d: Sum(rhs),rhsMax =  -4.64551730416929E-11  9.39027265573818E-02
 cg2d: Sum(rhs),rhsMax =  -4.83731943390353E-11  9.00385904052814E-02
 cg2d: Sum(rhs),rhsMax =  -5.04695174541325E-11  8.61622116248527E-02
 cg2d: Sum(rhs),rhsMax =  -5.27824450813341E-11  8.22754080870061E-02
 cg2d: Sum(rhs),rhsMax =  -5.53472823128232E-11  7.83799383827246E-02
 cg2d: Sum(rhs),rhsMax =  -5.81977799285482E-11  7.44775030889802E-02
 cg2d: Sum(rhs),rhsMax =  -6.13694650652974E-11  7.05697462879832E-02
 cg2d: Sum(rhs),rhsMax =  -6.49812426090079E-11  6.66582573066861E-02
 cg2d: Sum(rhs),rhsMax =  -6.89960311106574E-11  6.27445725992116E-02
 cg2d: Sum(rhs),rhsMax =  -7.35428384857073E-11  5.88301778056031E-02
 cg2d: Sum(rhs),rhsMax =  -7.87599985230258E-11  5.49165099728270E-02
 cg2d: Sum(rhs),rhsMax =  -8.47480974286441E-11  5.10049599207094E-02
 cg2d: Sum(rhs),rhsMax =  -9.17179665549384E-11  4.70968747320993E-02
 cg2d: Sum(rhs),rhsMax =  -9.99605953566629E-11  4.31935603457253E-02
 cg2d: Sum(rhs),rhsMax =  -1.09774966894349E-10  3.92962842402730E-02
 cg2d: Sum(rhs),rhsMax =  -1.21777032902060E-10  3.54062781808180E-02
 cg2d: Sum(rhs),rhsMax =  -1.36696098884670E-10  3.15247409901357E-02
 cg2d: Sum(rhs),rhsMax =  -1.55735868645479E-10  2.76528413685116E-02
 cg2d: Sum(rhs),rhsMax =  -1.80978787511776E-10  2.37917207530885E-02
 cg2d: Sum(rhs),rhsMax =  -2.15841011730333E-10  1.99424962052031E-02
 cg2d: Sum(rhs),rhsMax =  -2.55281795702444E-10  1.68530125909403E-02
 cg2d: Sum(rhs),rhsMax =  -3.03070013529805E-10  1.41918390217037E-02
 cg2d: Sum(rhs),rhsMax =  -3.38214789508129E-10  1.27152772588695E-02
 cg2d: Sum(rhs),rhsMax =  -3.41013328686302E-10  1.26087579296479E-02
 cg2d: Sum(rhs),rhsMax =  -3.43972017535776E-10  1.24980653933331E-02
 cg2d: Sum(rhs),rhsMax =  -3.47047168780534E-10  1.23832778298708E-02
 cg2d: Sum(rhs),rhsMax =  -3.50324033671079E-10  1.22644457731007E-02
 cg2d: Sum(rhs),rhsMax =  -3.25403676226799E-10  1.32017071437174E-02
 cg2d: Sum(rhs),rhsMax =  -2.60886701131113E-10  1.64611339515866E-02
 cg2d: Sum(rhs),rhsMax =  -2.17887541342776E-10  1.96990648060541E-02
 cg2d: Sum(rhs),rhsMax =  -1.86797299850383E-10  2.29738782019489E-02
 cg2d: Sum(rhs),rhsMax =  -1.63458246937864E-10  2.62520816253332E-02
 cg2d: Sum(rhs),rhsMax =  -1.45207845747564E-10  2.95318769044182E-02
 cg2d: Sum(rhs),rhsMax =  -1.30469079984152E-10  3.28458844028089E-02
 cg2d: Sum(rhs),rhsMax =  -1.18541843008302E-10  3.61325855088324E-02
 cg2d: Sum(rhs),rhsMax =  -1.08409725640968E-10  3.94763861246420E-02
 cg2d: Sum(rhs),rhsMax =  -9.99255123090848E-11  4.27917759918293E-02
 cg2d: Sum(rhs),rhsMax =  -9.26246856991497E-11  4.61608579845522E-02
 cg2d: Sum(rhs),rhsMax =  -8.62642179910722E-11  4.95274773101254E-02
 cg2d: Sum(rhs),rhsMax =  -8.07037769945396E-11  5.29162992790076E-02
 cg2d: Sum(rhs),rhsMax =  -7.58435536596380E-11  5.62704364628382E-02
 cg2d: Sum(rhs),rhsMax =  -7.15917325422311E-11  5.95886466327926E-02
 cg2d: Sum(rhs),rhsMax =  -6.77339295762636E-11  6.28696652346842E-02
 cg2d: Sum(rhs),rhsMax =  -6.43332054295342E-11  6.61122060268673E-02
 cg2d: Sum(rhs),rhsMax =  -6.12904171859441E-11  6.93149620080750E-02
 cg2d: Sum(rhs),rhsMax =  -5.85418380438796E-11  7.24766066045630E-02
 cg2d: Sum(rhs),rhsMax =  -5.60473889521518E-11  7.55957950981439E-02
 cg2d: Sum(rhs),rhsMax =  -5.37967448366317E-11  7.86711662653305E-02
 cg2d: Sum(rhs),rhsMax =  -5.17140774647373E-11  8.17013441965609E-02
 cg2d: Sum(rhs),rhsMax =  -4.98407981552873E-11  8.46849402652547E-02
 cg2d: Sum(rhs),rhsMax =  -4.81226170023774E-11  8.76205552189869E-02
 cg2d: Sum(rhs),rhsMax =  -4.65235627800098E-11  9.05067813690250E-02
 cg2d: Sum(rhs),rhsMax =  -4.50146586672417E-11  9.33422048592979E-02
 cg2d: Sum(rhs),rhsMax =  -4.36491953692553E-11  9.61254080032857E-02
 cg2d: Sum(rhs),rhsMax =  -4.23739932031708E-11  9.88549716824913E-02
 cg2d: Sum(rhs),rhsMax =  -4.11642941955392E-11  1.01529477806248E-01
 cg2d: Sum(rhs),rhsMax =  -4.01099153890527E-11  1.04147511838511E-01
 cg2d: Sum(rhs),rhsMax =  -3.90800725114104E-11  1.06707665402253E-01
 cg2d: Sum(rhs),rhsMax =  -3.82515130681327E-11  1.09208538972682E-01
 cg2d: Sum(rhs),rhsMax =  -3.74333897212864E-11  1.11648744669971E-01
 cg2d: Sum(rhs),rhsMax =  -3.66747743285600E-11  1.14026909159689E-01
 cg2d: Sum(rhs),rhsMax =  -3.59586804776768E-11  1.16341676665632E-01
 cg2d: Sum(rhs),rhsMax =  -3.53018725363086E-11  1.18591712092997E-01
 cg2d: Sum(rhs),rhsMax =  -3.46732642597658E-11  1.20775704248320E-01
 cg2d: Sum(rhs),rhsMax =  -3.41078276733242E-11  1.22892369141375E-01
 cg2d: Sum(rhs),rhsMax =  -3.36118910482242E-11  1.24940453342766E-01
 cg2d: Sum(rhs),rhsMax =  -3.31189520252906E-11  1.26918737376992E-01
 cg2d: Sum(rhs),rhsMax =  -3.26536575556702E-11  1.28826039109391E-01
 cg2d: Sum(rhs),rhsMax =  -3.22438742372810E-11  1.30661217091477E-01
 cg2d: Sum(rhs),rhsMax =  -3.18740589477784E-11  1.32423173831852E-01
 cg2d: Sum(rhs),rhsMax =  -3.15201198475279E-11  1.34110858961914E-01
 cg2d: Sum(rhs),rhsMax =  -3.12042613970220E-11  1.35723272270188E-01
 cg2d: Sum(rhs),rhsMax =  -3.08834069429054E-11  1.37259466591996E-01
 cg2d: Sum(rhs),rhsMax =  -3.06412673012346E-11  1.38718550524318E-01
 cg2d: Sum(rhs),rhsMax =  -3.03633784781709E-11  1.40099690974248E-01
 cg2d: Sum(rhs),rhsMax =  -3.01288993753701E-11  1.41402115540234E-01
 cg2d: Sum(rhs),rhsMax =  -2.99272828740982E-11  1.42625114725052E-01
 cg2d: Sum(rhs),rhsMax =  -2.97089020051544E-11  1.43768043985791E-01
 cg2d: Sum(rhs),rhsMax =  -2.96013213940682E-11  1.44830325627103E-01
 cg2d: Sum(rhs),rhsMax =  -2.94987367865929E-11  1.45811450558154E-01
 cg2d: Sum(rhs),rhsMax =  -2.93857160826860E-11  1.46710979879347E-01
 cg2d: Sum(rhs),rhsMax =  -2.92931234824323E-11  1.47528546310017E-01
 cg2d: Sum(rhs),rhsMax =  -2.92129653800544E-11  1.48263855472752E-01
 cg2d: Sum(rhs),rhsMax =  -2.91410229280586E-11  1.48916687021949E-01
 cg2d: Sum(rhs),rhsMax =  -2.90976132077958E-11  1.49486895600370E-01
 cg2d: Sum(rhs),rhsMax =  -2.90579782458167E-11  1.49974411606099E-01
 cg2d: Sum(rhs),rhsMax =  -2.90105717226652E-11  1.50379241752827E-01
 cg2d: Sum(rhs),rhsMax =  -2.90294455140838E-11  1.50701469407025E-01
 cg2d: Sum(rhs),rhsMax =  -2.90146795478563E-11  1.50941254690502E-01
 cg2d: Sum(rhs),rhsMax =  -2.90086843435233E-11  1.51098834326778E-01
 cg2d: Sum(rhs),rhsMax =  -2.90358848076266E-11  1.51174521228826E-01
 cg2d: Sum(rhs),rhsMax =  -2.90237833766582E-11  1.51168703784063E-01
 cg2d: Sum(rhs),rhsMax =  -2.90855117768274E-11  1.51081844938142E-01
 cg2d: Sum(rhs),rhsMax =  -2.91251467388065E-11  1.50914480991825E-01
 cg2d: Sum(rhs),rhsMax =  -2.91937585217283E-11  1.50667220116944E-01
 cg2d: Sum(rhs),rhsMax =  -2.92496027398670E-11  1.50340740599118E-01
 cg2d: Sum(rhs),rhsMax =  -2.93481905444537E-11  1.49935788836419E-01
 cg2d: Sum(rhs),rhsMax =  -2.94965163405436E-11  1.49453177118910E-01
 cg2d: Sum(rhs),rhsMax =  -2.95752311529895E-11  1.48893781191181E-01
 cg2d: Sum(rhs),rhsMax =  -2.97311064656469E-11  1.48258537641465E-01
 cg2d: Sum(rhs),rhsMax =  -2.98737701243112E-11  1.47548441102973E-01
 cg2d: Sum(rhs),rhsMax =  -3.00128810692968E-11  1.46764541256709E-01
 cg2d: Sum(rhs),rhsMax =  -3.01881852848851E-11  1.45907939699774E-01
 cg2d: Sum(rhs),rhsMax =  -3.03780334220960E-11  1.44979786775624E-01
 cg2d: Sum(rhs),rhsMax =  -3.05618863549739E-11  1.44132380449990E-01
 cg2d: Sum(rhs),rhsMax =  -3.07702752166961E-11  1.43357333747757E-01
 cg2d: Sum(rhs),rhsMax =  -3.09741121640172E-11  1.42493892305757E-01
 cg2d: Sum(rhs),rhsMax =  -3.11917158768438E-11  1.41543005025654E-01
 cg2d: Sum(rhs),rhsMax =  -3.15074633050472E-11  1.40505715805871E-01
 cg2d: Sum(rhs),rhsMax =  -3.17914583547463E-11  1.39383160607203E-01
 cg2d: Sum(rhs),rhsMax =  -3.21358495369850E-11  1.38176563931567E-01
 cg2d: Sum(rhs),rhsMax =  -3.24519300320958E-11  1.36887234646658E-01
 cg2d: Sum(rhs),rhsMax =  -3.28974625318779E-11  1.35516561265694E-01
 cg2d: Sum(rhs),rhsMax =  -3.32882610365459E-11  1.34066006790122E-01
 cg2d: Sum(rhs),rhsMax =  -3.37680994277889E-11  1.32537103212040E-01
 cg2d: Sum(rhs),rhsMax =  -3.42232908678852E-11  1.30931445788038E-01
 cg2d: Sum(rhs),rhsMax =  -3.47361028829596E-11  1.29250687204730E-01
 cg2d: Sum(rhs),rhsMax =  -3.53187479262829E-11  1.27496531757688E-01
 cg2d: Sum(rhs),rhsMax =  -3.58708618364290E-11  1.25670729604747E-01
 cg2d: Sum(rhs),rhsMax =  -3.64747121395226E-11  1.23775071388003E-01
 cg2d: Sum(rhs),rhsMax =  -3.71273012333972E-11  1.21811383170398E-01
 cg2d: Sum(rhs),rhsMax =  -3.78002074086226E-11  1.19781521740541E-01
 cg2d: Sum(rhs),rhsMax =  -3.85266263336348E-11  1.17687370343134E-01
 cg2d: Sum(rhs),rhsMax =  -3.93006738264035E-11  1.15530834865954E-01
 cg2d: Sum(rhs),rhsMax =  -4.01578770237165E-11  1.13313840486812E-01
 cg2d: Sum(rhs),rhsMax =  -4.10271816519980E-11  1.11038328709261E-01
 cg2d: Sum(rhs),rhsMax =  -4.19398960005424E-11  1.08706254738290E-01
 cg2d: Sum(rhs),rhsMax =  -4.29606350493827E-11  1.06319585082745E-01
 cg2d: Sum(rhs),rhsMax =  -4.40475433904908E-11  1.03880295382655E-01
 cg2d: Sum(rhs),rhsMax =  -4.52078374735265E-11  1.01390368318780E-01
 cg2d: Sum(rhs),rhsMax =  -4.64422944546072E-11  9.88517913314400E-02
 cg2d: Sum(rhs),rhsMax =  -4.77846651136815E-11  9.62665542615223E-02
 cg2d: Sum(rhs),rhsMax =  -4.92251794881327E-11  9.36366468384605E-02
 cg2d: Sum(rhs),rhsMax =  -5.07237585267717E-11  9.09640559578253E-02
 cg2d: Sum(rhs),rhsMax =  -5.23431298304899E-11  8.82507627132605E-02
 cg2d: Sum(rhs),rhsMax =  -5.39560618406654E-11  8.56583591956033E-02
 cg2d: Sum(rhs),rhsMax =  -5.56800161533033E-11  8.31356143917120E-02
 cg2d: Sum(rhs),rhsMax =  -5.74925662633063E-11  8.05859733189599E-02
 cg2d: Sum(rhs),rhsMax =  -5.94160276534694E-11  7.80103244527754E-02
 cg2d: Sum(rhs),rhsMax =  -6.15286710470286E-11  7.54095071954633E-02
 cg2d: Sum(rhs),rhsMax =  -6.38435970756746E-11  7.27843110596971E-02
 cg2d: Sum(rhs),rhsMax =  -6.62914168003681E-11  7.01354752172295E-02
 cg2d: Sum(rhs),rhsMax =  -6.89798218544979E-11  6.74636884566332E-02
 cg2d: Sum(rhs),rhsMax =  -7.19334591892107E-11  6.47695895804564E-02
 cg2d: Sum(rhs),rhsMax =  -7.51013695676761E-11  6.20537682584201E-02
 cg2d: Sum(rhs),rhsMax =  -7.86587461831800E-11  5.93167663388046E-02
 cg2d: Sum(rhs),rhsMax =  -8.25901569356802E-11  5.65590796012292E-02
 cg2d: Sum(rhs),rhsMax =  -8.69491145749635E-11  5.37811599183598E-02
 cg2d: Sum(rhs),rhsMax =  -9.17965703450818E-11  5.09834177808202E-02
 cg2d: Sum(rhs),rhsMax =  -9.72930624953960E-11  4.81662251356255E-02
 cg2d: Sum(rhs),rhsMax =  -1.03437258758277E-10  4.53299184630003E-02
 cg2d: Sum(rhs),rhsMax =  -1.10428000077434E-10  4.24748020270276E-02
 cg2d: Sum(rhs),rhsMax =  -1.18611009902736E-10  3.96011512577070E-02
 cg2d: Sum(rhs),rhsMax =  -1.28021038214854E-10  3.67092161951254E-02
 cg2d: Sum(rhs),rhsMax =  -1.39090960971089E-10  3.37992249324326E-02
 cg2d: Sum(rhs),rhsMax =  -1.52372336970075E-10  3.08713870532370E-02
 cg2d: Sum(rhs),rhsMax =  -1.68535629896382E-10  2.79258970357160E-02
 cg2d: Sum(rhs),rhsMax =  -1.88609572404630E-10  2.49629376083090E-02
 cg2d: Sum(rhs),rhsMax =  -2.14274042953377E-10  2.19826830561525E-02
 cg2d: Sum(rhs),rhsMax =  -2.48133735780698E-10  1.89853024900935E-02
 cg2d: Sum(rhs),rhsMax =  -2.94970270431349E-10  1.59709630984624E-02
 cg2d: Sum(rhs),rhsMax =  -3.64048236001224E-10  1.29398334054069E-02
 cg2d: Sum(rhs),rhsMax =  -3.77432529674593E-10  1.24836577020036E-02
 cg2d: Sum(rhs),rhsMax =  -3.70434298686828E-10  1.27211008575146E-02
 cg2d: Sum(rhs),rhsMax =  -3.60759366824226E-10  1.30657982701250E-02
 cg2d: Sum(rhs),rhsMax =  -3.51638440587720E-10  1.34070758133519E-02
 cg2d: Sum(rhs),rhsMax =  -3.43046480111298E-10  1.37445693433209E-02
 cg2d: Sum(rhs),rhsMax =  -3.35042771304472E-10  1.40779077510320E-02
 cg2d: Sum(rhs),rhsMax =  -2.87913470842227E-10  1.63806851731060E-02
 cg2d: Sum(rhs),rhsMax =  -2.45278575228269E-10  1.92297113763348E-02
 cg2d: Sum(rhs),rhsMax =  -2.13411177618639E-10  2.21061029468676E-02
 cg2d: Sum(rhs),rhsMax =  -1.88504212239593E-10  2.50371888229878E-02
 cg2d: Sum(rhs),rhsMax =  -1.68559721736017E-10  2.80060231599413E-02
 cg2d: Sum(rhs),rhsMax =  -1.52207801917825E-10  3.10353505819129E-02
 cg2d: Sum(rhs),rhsMax =  -1.38736577781629E-10  3.40574105777094E-02
 cg2d: Sum(rhs),rhsMax =  -1.27556631923653E-10  3.70621209044236E-02
 cg2d: Sum(rhs),rhsMax =  -1.18109078073303E-10  4.00484959032274E-02
 cg2d: Sum(rhs),rhsMax =  -1.09988018692775E-10  4.30155582083767E-02
 cg2d: Sum(rhs),rhsMax =  -1.03019370811808E-10  4.59623384331828E-02
 cg2d: Sum(rhs),rhsMax =  -9.68776170395813E-11  4.88878743198717E-02
 cg2d: Sum(rhs),rhsMax =  -9.15085784924941E-11  5.17912093268266E-02
 cg2d: Sum(rhs),rhsMax =  -8.67554916794688E-11  5.46713907006107E-02
 cg2d: Sum(rhs),rhsMax =  -8.24944557109575E-11  5.75274671416463E-02
 cg2d: Sum(rhs),rhsMax =  -7.86093412585842E-11  6.03584862278818E-02
 cg2d: Sum(rhs),rhsMax =  -7.51625428563329E-11  6.31634918253187E-02
 cg2d: Sum(rhs),rhsMax =  -7.20610238147401E-11  6.59415216967705E-02
 cg2d: Sum(rhs),rhsMax =  -6.92903512344856E-11  6.86916055706922E-02
 cg2d: Sum(rhs),rhsMax =  -6.67430555267856E-11  7.14127638195520E-02
 cg2d: Sum(rhs),rhsMax =  -6.43900488483951E-11  7.41040068036295E-02
 cg2d: Sum(rhs),rhsMax =  -6.17469408936699E-11  7.73455101718729E-02
 cg2d: Sum(rhs),rhsMax =  -5.93127769121793E-11  8.06659637503744E-02
 cg2d: Sum(rhs),rhsMax =  -5.70428149160307E-11  8.39820237496625E-02
 cg2d: Sum(rhs),rhsMax =  -5.49761347556910E-11  8.72921134265227E-02
 cg2d: Sum(rhs),rhsMax =  -5.30124832920364E-11  9.05945958821574E-02
 cg2d: Sum(rhs),rhsMax =  -5.12383468986854E-11  9.38877751827812E-02
 cg2d: Sum(rhs),rhsMax =  -4.95574692394030E-11  9.71698976445902E-02
 cg2d: Sum(rhs),rhsMax =  -4.79972728228972E-11  1.00439153290763E-01
 cg2d: Sum(rhs),rhsMax =  -4.65315563857871E-11  1.03693677489504E-01
 cg2d: Sum(rhs),rhsMax =  -4.51908510612498E-11  1.06931552782226E-01
 cg2d: Sum(rhs),rhsMax =  -4.39308589506027E-11  1.10150810910305E-01
 cg2d: Sum(rhs),rhsMax =  -4.27236024336253E-11  1.13349435047842E-01
 cg2d: Sum(rhs),rhsMax =  -4.16285894644375E-11  1.16525362246648E-01
 cg2d: Sum(rhs),rhsMax =  -4.05639966061244E-11  1.19676486098050E-01
 cg2d: Sum(rhs),rhsMax =  -3.95667942854061E-11  1.22800659613761E-01
 cg2d: Sum(rhs),rhsMax =  -3.86063403468029E-11  1.25895698324703E-01
 cg2d: Sum(rhs),rhsMax =  -3.78040931892087E-11  1.28959383598294E-01
 cg2d: Sum(rhs),rhsMax =  -3.69886343776216E-11  1.31989466163560E-01
 cg2d: Sum(rhs),rhsMax =  -3.62430085942833E-11  1.34983669837072E-01
 cg2d: Sum(rhs),rhsMax =  -3.55577789434847E-11  1.37939695434990E-01
 cg2d: Sum(rhs),rhsMax =  -3.48560069696191E-11  1.40855224855303E-01
 cg2d: Sum(rhs),rhsMax =  -3.42640360528890E-11  1.43727925314318E-01
 cg2d: Sum(rhs),rhsMax =  -3.36261019029394E-11  1.46555453715977E-01
 cg2d: Sum(rhs),rhsMax =  -3.30819815985706E-11  1.49335461132625E-01
 cg2d: Sum(rhs),rhsMax =  -3.25210969265299E-11  1.52065597375224E-01
 cg2d: Sum(rhs),rhsMax =  -3.19937409898330E-11  1.54743515631452E-01
 cg2d: Sum(rhs),rhsMax =  -3.15174553122688E-11  1.57366877150848E-01
 cg2d: Sum(rhs),rhsMax =  -3.10289571814337E-11  1.59933355958104E-01
 cg2d: Sum(rhs),rhsMax =  -3.05890868190772E-11  1.62440643578422E-01
 cg2d: Sum(rhs),rhsMax =  -3.01780822553610E-11  1.64886453761668E-01
 cg2d: Sum(rhs),rhsMax =  -2.97972757579146E-11  1.67268527194243E-01
 cg2d: Sum(rhs),rhsMax =  -2.93927104877412E-11  1.69584636189557E-01
 cg2d: Sum(rhs),rhsMax =  -2.90212298637016E-11  1.71832589352210E-01
 cg2d: Sum(rhs),rhsMax =  -2.87052603908933E-11  1.74010236204022E-01
 cg2d: Sum(rhs),rhsMax =  -2.84290369023665E-11  1.76115471764761E-01
 cg2d: Sum(rhs),rhsMax =  -2.81444867411551E-11  1.78146241078825E-01
 cg2d: Sum(rhs),rhsMax =  -2.78623790705979E-11  1.80100543675552E-01
 cg2d: Sum(rhs),rhsMax =  -2.75967027008051E-11  1.81976437948779E-01
 cg2d: Sum(rhs),rhsMax =  -2.73542299922269E-11  1.83772045451917E-01
 cg2d: Sum(rhs),rhsMax =  -2.71290767628329E-11  1.85485555076768E-01
 cg2d: Sum(rhs),rhsMax =  -2.69348987558260E-11  1.87115227102685E-01
 cg2d: Sum(rhs),rhsMax =  -2.67212918458881E-11  1.88659397080242E-01
 cg2d: Sum(rhs),rhsMax =  -2.65251154374369E-11  1.90116479540596E-01
 cg2d: Sum(rhs),rhsMax =  -2.63311594750348E-11  1.91484971512510E-01
 cg2d: Sum(rhs),rhsMax =  -2.61912713739321E-11  1.92763455833269E-01
 cg2d: Sum(rhs),rhsMax =  -2.60461652246136E-11  1.93950604220849E-01
 cg2d: Sum(rhs),rhsMax =  -2.58946197817522E-11  1.95045180091327E-01
 cg2d: Sum(rhs),rhsMax =  -2.57438514950081E-11  1.96046041119511E-01
 cg2d: Sum(rhs),rhsMax =  -2.56412668875328E-11  1.96952141529579E-01
 cg2d: Sum(rhs),rhsMax =  -2.55296894735579E-11  1.97762534108148E-01
 cg2d: Sum(rhs),rhsMax =  -2.54964938051216E-11  1.98476371938661E-01
 cg2d: Sum(rhs),rhsMax =  -2.53750354062277E-11  1.99092909815491E-01
 cg2d: Sum(rhs),rhsMax =  -2.53245202586072E-11  1.99611505362310E-01
 cg2d: Sum(rhs),rhsMax =  -2.52994292182507E-11  2.00031619853102E-01
 cg2d: Sum(rhs),rhsMax =  -2.53161935859225E-11  2.00352818745261E-01
 cg2d: Sum(rhs),rhsMax =  -2.53321807974771E-11  2.00574771913586E-01
 cg2d: Sum(rhs),rhsMax =  -2.53378429349027E-11  2.00697253590996E-01
 cg2d: Sum(rhs),rhsMax =  -2.53728149601784E-11  2.00720142023520E-01
 cg2d: Sum(rhs),rhsMax =  -2.54822829504064E-11  2.00643418835740E-01
 cg2d: Sum(rhs),rhsMax =  -2.55192533771265E-11  2.00467168161153E-01
 cg2d: Sum(rhs),rhsMax =  -2.56112908658679E-11  2.00191575561534E-01
 cg2d: Sum(rhs),rhsMax =  -2.57037724438192E-11  1.99816926713364E-01
 cg2d: Sum(rhs),rhsMax =  -2.58437715672244E-11  1.99343605887311E-01
 cg2d: Sum(rhs),rhsMax =  -2.59932075863389E-11  1.98772094244458E-01
 cg2d: Sum(rhs),rhsMax =  -2.61807242551981E-11  1.98102967969669E-01
 cg2d: Sum(rhs),rhsMax =  -2.63593591398603E-11  1.97336896279509E-01
 cg2d: Sum(rhs),rhsMax =  -2.64510635616944E-11  1.96474639278143E-01
 cg2d: Sum(rhs),rhsMax =  -2.64728239329770E-11  1.95517045607266E-01
 cg2d: Sum(rhs),rhsMax =  -2.64820387840814E-11  1.94465050006042E-01
 cg2d: Sum(rhs),rhsMax =  -2.66168198592709E-11  1.93319670782880E-01
 cg2d: Sum(rhs),rhsMax =  -2.67207367343758E-11  1.92082007128915E-01
 cg2d: Sum(rhs),rhsMax =  -2.68453037577387E-11  1.90753236270146E-01
 cg2d: Sum(rhs),rhsMax =  -2.69930744423164E-11  1.89334610455389E-01
 cg2d: Sum(rhs),rhsMax =  -2.71510591787205E-11  1.87827453771684E-01
 cg2d: Sum(rhs),rhsMax =  -2.73029376884892E-11  1.86233158816395E-01
 cg2d: Sum(rhs),rhsMax =  -2.74733569227692E-11  1.84553183234521E-01
 cg2d: Sum(rhs),rhsMax =  -2.76471068261230E-11  1.82789046179308E-01
 cg2d: Sum(rhs),rhsMax =  -2.78316258928157E-11  1.80942324598211E-01
 cg2d: Sum(rhs),rhsMax =  -2.80683254416658E-11  1.79014649434672E-01
 cg2d: Sum(rhs),rhsMax =  -2.83351120344832E-11  1.77007701813916E-01
 cg2d: Sum(rhs),rhsMax =  -2.86063395193992E-11  1.74923209245465E-01
 cg2d: Sum(rhs),rhsMax =  -2.89428481181631E-11  1.72762941858215E-01
 cg2d: Sum(rhs),rhsMax =  -2.92526003420335E-11  1.70528708681275E-01
 cg2d: Sum(rhs),rhsMax =  -2.96005442379510E-11  1.68222353986902E-01
 cg2d: Sum(rhs),rhsMax =  -2.99842373152615E-11  1.65845753858266E-01
 cg2d: Sum(rhs),rhsMax =  -3.05608871542518E-11  1.63400812861660E-01
 cg2d: Sum(rhs),rhsMax =  -3.09844372381463E-11  1.60889460838209E-01
 cg2d: Sum(rhs),rhsMax =  -3.14254178235274E-11  1.58313649830231E-01
 cg2d: Sum(rhs),rhsMax =  -3.18809423305311E-11  1.55675351145749E-01
 cg2d: Sum(rhs),rhsMax =  -3.23714388628105E-11  1.52976552557441E-01
 cg2d: Sum(rhs),rhsMax =  -3.28851390563045E-11  1.50219255621848E-01
 cg2d: Sum(rhs),rhsMax =  -3.34476890628821E-11  1.47405473097728E-01
 cg2d: Sum(rhs),rhsMax =  -3.40291128608783E-11  1.44537226440422E-01
 cg2d: Sum(rhs),rhsMax =  -3.46286332941759E-11  1.41616543350111E-01
 cg2d: Sum(rhs),rhsMax =  -3.53026496924258E-11  1.38645455370250E-01
 cg2d: Sum(rhs),rhsMax =  -3.60197427440312E-11  1.35625995473899E-01
 cg2d: Sum(rhs),rhsMax =  -3.67206265394771E-11  1.32560195666911E-01
 cg2d: Sum(rhs),rhsMax =  -3.75328657042928E-11  1.29450084695567E-01
 cg2d: Sum(rhs),rhsMax =  -3.83922893476552E-11  1.26297685722430E-01
 cg2d: Sum(rhs),rhsMax =  -3.93470811488328E-11  1.23105014040227E-01
 cg2d: Sum(rhs),rhsMax =  -4.03613809041303E-11  1.19874074846355E-01
 cg2d: Sum(rhs),rhsMax =  -4.14562828510157E-11  1.16606861100982E-01
 cg2d: Sum(rhs),rhsMax =  -4.26114699081381E-11  1.13305351491644E-01
 cg2d: Sum(rhs),rhsMax =  -4.38287184323372E-11  1.09971508527605E-01
 cg2d: Sum(rhs),rhsMax =  -4.51909620835522E-11  1.06607276787438E-01
 cg2d: Sum(rhs),rhsMax =  -4.66474636695580E-11  1.03214581341660E-01
 cg2d: Sum(rhs),rhsMax =  -4.81669149010600E-11  9.97953263683219E-02
 cg2d: Sum(rhs),rhsMax =  -4.98390217984479E-11  9.63513939735979E-02
 cg2d: Sum(rhs),rhsMax =  -5.16255926896747E-11  9.28846432225592E-02
 cg2d: Sum(rhs),rhsMax =  -5.35556043956831E-11  8.93969093782990E-02
 cg2d: Sum(rhs),rhsMax =  -5.58202373213135E-11  8.58900033411362E-02
 cg2d: Sum(rhs),rhsMax =  -5.81620307471553E-11  8.23657112756913E-02
 cg2d: Sum(rhs),rhsMax =  -6.06921179979736E-11  7.88257944077418E-02
(PID.TID 0000.0001)      cg2d_init_res =   2.21109806390686E-01
(PID.TID 0000.0001)      cg2d_iters(min,last) =      -1      39
(PID.TID 0000.0001)      cg2d_last_res =   8.73642207221571E-14
(PID.TID 0000.0001) // =======================================================
(PID.TID 0000.0001) // Begin MONITOR dynamic field statistics
(PID.TID 0000.0001) // =======================================================
(PID.TID 0000.0001) %MON time_tsnumber                =                  1920
(PID.TID 0000.0001) %MON time_secondsf                =   2.8800000000000E+04
(PID.TID 0000.0001) %MON dynstat_eta_max              =   1.3670799398249E-02
(PID.TID 0000.0001) %MON dynstat_eta_min              =  -1.2001983052353E-02
(PID.TID 0000.0001) %MON dynstat_eta_mean             =   1.0532752527792E-14
(PID.TID 0000.0001) %MON dynstat_eta_sd               =   9.8007703149060E-03
(PID.TID 0000.0001) %MON dynstat_eta_del2             =   1.5981091715830E-05
(PID.TID 0000.0001) %MON dynstat_uvel_max             =   1.0643334969775E+00
(PID.TID 0000.0001) %MON dynstat_uvel_min             =  -1.4832803231986E-01
(PID.TID 0000.0001) %MON dynstat_uvel_mean            =   4.5693983013142E-01
(PID.TID 0000.0001) %MON dynstat_uvel_sd              =   7.5874784256418E-02
(PID.TID 0000.0001) %MON dynstat_uvel_del2            =   3.4484556842578E-04
(PID.TID 0000.0001) %MON dynstat_vvel_max             =   0.0000000000000E+00
(PID.TID 0000.0001) %MON dynstat_vvel_min             =   0.0000000000000E+00
(PID.TID 0000.0001) %MON dynstat_vvel_mean            =   0.0000000000000E+00
(PID.TID 0000.0001) %MON dynstat_vvel_sd              =   0.0000000000000E+00
(PID.TID 0000.0001) %MON dynstat_vvel_del2            =   0.0000000000000E+00
(PID.TID 0000.0001) %MON dynstat_wvel_max             =   1.9109440998008E-02
(PID.TID 0000.0001) %MON dynstat_wvel_min             =  -1.5120599911111E-02
(PID.TID 0000.0001) %MON dynstat_wvel_mean            =   7.0660555623024E-20
(PID.TID 0000.0001) %MON dynstat_wvel_sd              =   1.7089895517288E-03
(PID.TID 0000.0001) %MON dynstat_wvel_del2            =   2.6498780371559E-05
(PID.TID 0000.0001) %MON dynstat_theta_max            =   1.5000000000006E+01
(PID.TID 0000.0001) %MON dynstat_theta_min            =   9.9999999999966E+00
(PID.TID 0000.0001) %MON dynstat_theta_mean           =   1.4047647594930E+01
(PID.TID 0000.0001) %MON dynstat_theta_sd             =   1.8783201951442E+00
(PID.TID 0000.0001) %MON dynstat_theta_del2           =   6.3218770104464E-04
(PID.TID 0000.0001) %MON dynstat_salt_max             =   3.5000000000000E+01
(PID.TID 0000.0001) %MON dynstat_salt_min             =   3.5000000000000E+01
(PID.TID 0000.0001) %MON dynstat_salt_mean            =   3.5000000000000E+01
(PID.TID 0000.0001) %MON dynstat_salt_sd              =   3.0553337637684E-13
(PID.TID 0000.0001) %MON dynstat_salt_del2            =   0.0000000000000E+00
(PID.TID 0000.0001) %MON dynstat_sst_max              =   1.5000000000000E+01
(PID.TID 0000.0001) %MON dynstat_sst_min              =   1.4999999999999E+01
(PID.TID 0000.0001) %MON dynstat_sst_mean             =   1.5000000000000E+01
(PID.TID 0000.0001) %MON dynstat_sst_sd               =   2.0124778571483E-13
(PID.TID 0000.0001) %MON dynstat_sst_del2             =   5.3902212582040E-15
(PID.TID 0000.0001) %MON dynstat_sss_max              =   3.5000000000000E+01
(PID.TID 0000.0001) %MON dynstat_sss_min              =   3.5000000000000E+01
(PID.TID 0000.0001) %MON dynstat_sss_mean             =   3.5000000000000E+01
(PID.TID 0000.0001) %MON dynstat_sss_sd               =   2.8421709430404E-14
(PID.TID 0000.0001) %MON dynstat_sss_del2             =   0.0000000000000E+00
(PID.TID 0000.0001) %MON forcing_qnet_max             =   0.0000000000000E+00
(PID.TID 0000.0001) %MON forcing_qnet_min             =   0.0000000000000E+00
(PID.TID 0000.0001) %MON forcing_qnet_mean            =   0.0000000000000E+00
(PID.TID 0000.0001) %MON forcing_qnet_sd              =   0.0000000000000E+00
(PID.TID 0000.0001) %MON forcing_qnet_del2            =   0.0000000000000E+00
(PID.TID 0000.0001) %MON forcing_qsw_max              =   0.0000000000000E+00
(PID.TID 0000.0001) %MON forcing_qsw_min              =   0.0000000000000E+00
(PID.TID 0000.0001) %MON forcing_qsw_mean             =   0.0000000000000E+00
(PID.TID 0000.0001) %MON forcing_qsw_sd               =   0.0000000000000E+00
(PID.TID 0000.0001) %MON forcing_qsw_del2             =   0.0000000000000E+00
(PID.TID 0000.0001) %MON forcing_empmr_max            =   0.0000000000000E+00
(PID.TID 0000.0001) %MON forcing_empmr_min            =   0.0000000000000E+00
(PID.TID 0000.0001) %MON forcing_empmr_mean           =   0.0000000000000E+00
(PID.TID 0000.0001) %MON forcing_empmr_sd             =   0.0000000000000E+00
(PID.TID 0000.0001) %MON forcing_empmr_del2           =   0.0000000000000E+00
(PID.TID 0000.0001) %MON forcing_fu_max               =   0.0000000000000E+00
(PID.TID 0000.0001) %MON forcing_fu_min               =   0.0000000000000E+00
(PID.TID 0000.0001) %MON forcing_fu_mean              =   0.0000000000000E+00
(PID.TID 0000.0001) %MON forcing_fu_sd                =   0.0000000000000E+00
(PID.TID 0000.0001) %MON forcing_fu_del2              =   0.0000000000000E+00
(PID.TID 0000.0001) %MON forcing_fv_max               =   0.0000000000000E+00
(PID.TID 0000.0001) %MON forcing_fv_min               =   0.0000000000000E+00
(PID.TID 0000.0001) %MON forcing_fv_mean              =   0.0000000000000E+00
(PID.TID 0000.0001) %MON forcing_fv_sd                =   0.0000000000000E+00
(PID.TID 0000.0001) %MON forcing_fv_del2              =   0.0000000000000E+00
(PID.TID 0000.0001) %MON advcfl_uvel_max              =   7.9825012273310E-02
(PID.TID 0000.0001) %MON advcfl_vvel_max              =   0.0000000000000E+00
(PID.TID 0000.0001) %MON advcfl_wvel_max              =   1.0285501265153E-01
(PID.TID 0000.0001) %MON advcfl_W_hf_max              =   1.0397401390676E-01
(PID.TID 0000.0001) %MON pe_b_mean                    =   2.3806948342904E-06
(PID.TID 0000.0001) %MON ke_max                       =   4.9568317473224E-01
(PID.TID 0000.0001) %MON ke_mean                      =   1.0732275668094E-01
(PID.TID 0000.0001) %MON ke_vol                       =   9.6656965507697E+10
(PID.TID 0000.0001) %MON vort_r_min                   =   0.0000000000000E+00
(PID.TID 0000.0001) %MON vort_r_max                   =   0.0000000000000E+00
(PID.TID 0000.0001) %MON vort_a_mean                  =   0.0000000000000E+00
(PID.TID 0000.0001) %MON vort_a_sd                    =   0.0000000000000E+00
(PID.TID 0000.0001) %MON vort_p_mean                  =   0.0000000000000E+00
(PID.TID 0000.0001) %MON vort_p_sd                    =   0.0000000000000E+00
(PID.TID 0000.0001) %MON surfExpan_theta_mean         =  -1.4152602669611E-19
(PID.TID 0000.0001) %MON surfExpan_salt_mean          =   2.0856467092058E-18
(PID.TID 0000.0001) // =======================================================
(PID.TID 0000.0001) // End MONITOR dynamic field statistics
(PID.TID 0000.0001) // =======================================================
(PID.TID 0000.0001) // =======================================================
(PID.TID 0000.0001) // Begin OBCS MONITOR field statistics
(PID.TID 0000.0001) // =======================================================
(PID.TID 0000.0001) %MON obc_E_uVel_max               =   4.4822851314926E-01
(PID.TID 0000.0001) %MON obc_E_uVel_min               =   4.4822851314926E-01
(PID.TID 0000.0001) %MON obc_E_uVel_mean              =   4.4822851314926E-01
(PID.TID 0000.0001) %MON obc_E_uVel_sd                =   0.0000000000000E+00
(PID.TID 0000.0001) %MON obc_E_uVel_Int               =   4.4822851314926E+05
(PID.TID 0000.0001) %MON obc_W_uVel_max               =   4.4822851314926E-01
(PID.TID 0000.0001) %MON obc_W_uVel_min               =   4.4822851314926E-01
(PID.TID 0000.0001) %MON obc_W_uVel_mean              =   4.4822851314926E-01
(PID.TID 0000.0001) %MON obc_W_uVel_sd                =   0.0000000000000E+00
(PID.TID 0000.0001) %MON obc_W_uVel_Int               =   4.4822851314926E+05
(PID.TID 0000.0001) // =======================================================
(PID.TID 0000.0001) // End OBCS MONITOR field statistics
(PID.TID 0000.0001) // =======================================================
 cg2d: Sum(rhs),rhsMax =  -6.34412522515504E-11  7.52719889611749E-02
 cg2d: Sum(rhs),rhsMax =  -6.65326682636191E-11  7.17060062137422E-02
 cg2d: Sum(rhs),rhsMax =  -6.98957558498137E-11  6.81295326754391E-02
 cg2d: Sum(rhs),rhsMax =  -7.37057082034198E-11  6.45442303320328E-02
 cg2d: Sum(rhs),rhsMax =  -7.80500108987781E-11  6.09517369375798E-02
 cg2d: Sum(rhs),rhsMax =  -8.29118995682165E-11  5.73536663713369E-02
 cg2d: Sum(rhs),rhsMax =  -8.84319284466528E-11  5.37516090214990E-02
 cg2d: Sum(rhs),rhsMax =  -9.47255607286479E-11  5.01471321893212E-02
 cg2d: Sum(rhs),rhsMax =  -1.01997410517640E-10  4.65417805123255E-02
 cg2d: Sum(rhs),rhsMax =  -1.10509379425139E-10  4.29370764089618E-02
 cg2d: Sum(rhs),rhsMax =  -1.20615406551394E-10  3.93345205497301E-02
 cg2d: Sum(rhs),rhsMax =  -1.32701183375161E-10  3.57355923689519E-02
 cg2d: Sum(rhs),rhsMax =  -1.47458711907689E-10  3.21417506104561E-02
 cg2d: Sum(rhs),rhsMax =  -1.65903735194206E-10  2.85544339066613E-02
 cg2d: Sum(rhs),rhsMax =  -1.89566362607252E-10  2.49750614249728E-02
 cg2d: Sum(rhs),rhsMax =  -2.21118900967099E-10  2.14050335853657E-02
 cg2d: Sum(rhs),rhsMax =  -2.65150790212942E-10  1.78457328437425E-02
 cg2d: Sum(rhs),rhsMax =  -3.03684855040842E-10  1.55792413796732E-02
 cg2d: Sum(rhs),rhsMax =  -3.06020986329258E-10  1.54578737095766E-02
 cg2d: Sum(rhs),rhsMax =  -3.08422398731523E-10  1.53333062470229E-02
 cg2d: Sum(rhs),rhsMax =  -3.10939246572772E-10  1.52055740348255E-02
 cg2d: Sum(rhs),rhsMax =  -3.13646331129291E-10  1.50747124044780E-02
 cg2d: Sum(rhs),rhsMax =  -3.10060727093386E-10  1.52447885862564E-02
 cg2d: Sum(rhs),rhsMax =  -3.06439651431845E-10  1.54249561579143E-02
 cg2d: Sum(rhs),rhsMax =  -3.02816827169039E-10  1.56070015035544E-02
 cg2d: Sum(rhs),rhsMax =  -2.99245073165366E-10  1.57907331064015E-02
 cg2d: Sum(rhs),rhsMax =  -2.54456011816728E-10  1.85690947693744E-02
 cg2d: Sum(rhs),rhsMax =  -2.18741358359864E-10  2.15927804970165E-02
 cg2d: Sum(rhs),rhsMax =  -1.92016180733390E-10  2.45911780974654E-02
 cg2d: Sum(rhs),rhsMax =  -1.70682135092193E-10  2.76464533030475E-02
 cg2d: Sum(rhs),rhsMax =  -1.53803414448817E-10  3.06737814034376E-02
 cg2d: Sum(rhs),rhsMax =  -1.39828260081742E-10  3.37268066224643E-02
 cg2d: Sum(rhs),rhsMax =  -1.28168364810222E-10  3.67768922787350E-02
 cg2d: Sum(rhs),rhsMax =  -1.18269061211151E-10  3.98429849972078E-02
 cg2d: Sum(rhs),rhsMax =  -1.09776854273491E-10  4.29089548133541E-02
 cg2d: Sum(rhs),rhsMax =  -1.02315156347288E-10  4.60042360257353E-02
 cg2d: Sum(rhs),rhsMax =  -9.58859658339861E-11  4.90783387332554E-02
 cg2d: Sum(rhs),rhsMax =  -9.02818930725857E-11  5.21153429080812E-02
 cg2d: Sum(rhs),rhsMax =  -8.52700132725204E-11  5.51140826740369E-02
 cg2d: Sum(rhs),rhsMax =  -8.08099143156937E-11  5.80734001935473E-02
 cg2d: Sum(rhs),rhsMax =  -7.68501928760656E-11  6.09921456686680E-02
 cg2d: Sum(rhs),rhsMax =  -7.33247906836709E-11  6.38691773285879E-02
 cg2d: Sum(rhs),rhsMax =  -7.01106950273811E-11  6.67033614348467E-02
 cg2d: Sum(rhs),rhsMax =  -6.72326638806453E-11  6.94935723418237E-02
 cg2d: Sum(rhs),rhsMax =  -6.46001030446541E-11  7.22386926549935E-02
 cg2d: Sum(rhs),rhsMax =  -6.21941387279890E-11  7.49376135230357E-02
 cg2d: Sum(rhs),rhsMax =  -6.00252070270813E-11  7.75892351036631E-02
 cg2d: Sum(rhs),rhsMax =  -5.79801762157217E-11  8.01924672337370E-02
 cg2d: Sum(rhs),rhsMax =  -5.61337643034676E-11  8.27462303220388E-02
 cg2d: Sum(rhs),rhsMax =  -5.43934897123677E-11  8.52494564723996E-02
 cg2d: Sum(rhs),rhsMax =  -5.28073140770857E-11  8.77010908305878E-02
 cg2d: Sum(rhs),rhsMax =  -5.13957765235773E-11  9.01000931383470E-02
 cg2d: Sum(rhs),rhsMax =  -5.00208763298815E-11  9.24454394677865E-02
 cg2d: Sum(rhs),rhsMax =  -4.87985207797692E-11  9.47361241009259E-02
 cg2d: Sum(rhs),rhsMax =  -4.76073624966489E-11  9.69711615132880E-02
 cg2d: Sum(rhs),rhsMax =  -4.65301130958551E-11  9.91495884200070E-02
 cg2d: Sum(rhs),rhsMax =  -4.54760673562760E-11  1.01270465830708E-01
 cg2d: Sum(rhs),rhsMax =  -4.45492531753189E-11  1.03332881078629E-01
 cg2d: Sum(rhs),rhsMax =  -4.36314318008613E-11  1.05335949791537E-01
 cg2d: Sum(rhs),rhsMax =  -4.28115320971756E-11  1.07278817766883E-01
 cg2d: Sum(rhs),rhsMax =  -4.20654622246275E-11  1.09160662728810E-01
 cg2d: Sum(rhs),rhsMax =  -4.14134282422651E-11  1.10980695951038E-01
 cg2d: Sum(rhs),rhsMax =  -4.08227895931645E-11  1.12738163748030E-01
 cg2d: Sum(rhs),rhsMax =  -4.02435862412176E-11  1.14432348827818E-01
 cg2d: Sum(rhs),rhsMax =  -3.97145649699837E-11  1.16062571512779E-01
 cg2d: Sum(rhs),rhsMax =  -3.92162968765319E-11  1.17628190837630E-01
 cg2d: Sum(rhs),rhsMax =  -3.87124776679570E-11  1.19128605532385E-01
 cg2d: Sum(rhs),rhsMax =  -3.82933684761610E-11  1.20563254928703E-01
 cg2d: Sum(rhs),rhsMax =  -3.79138942463442E-11  1.21931619761899E-01
 cg2d: Sum(rhs),rhsMax =  -3.75424136223046E-11  1.23233222882945E-01
 cg2d: Sum(rhs),rhsMax =  -3.72063491127506E-11  1.24467629884821E-01
 cg2d: Sum(rhs),rhsMax =  -3.68700625585916E-11  1.25634449635440E-01
 cg2d: Sum(rhs),rhsMax =  -3.66862096257137E-11  1.26733334707597E-01
 cg2d: Sum(rhs),rhsMax =  -3.64712704481462E-11  1.27763981652256E-01
 cg2d: Sum(rhs),rhsMax =  -3.62735397274605E-11  1.28726131112837E-01
 cg2d: Sum(rhs),rhsMax =  -3.61032315154830E-11  1.29619567756454E-01
 cg2d: Sum(rhs),rhsMax =  -3.59516860726217E-11  1.30444119968087E-01
 cg2d: Sum(rhs),rhsMax =  -3.58424401269986E-11  1.31199659301223E-01
 cg2d: Sum(rhs),rhsMax =  -3.57015528251736E-11  1.31886099672386E-01
 cg2d: Sum(rhs),rhsMax =  -3.56167317860923E-11  1.32503396299735E-01
 cg2d: Sum(rhs),rhsMax =  -3.55334650592454E-11  1.33051544404153E-01
 cg2d: Sum(rhs),rhsMax =  -3.54917206735195E-11  1.33530577713333E-01
 cg2d: Sum(rhs),rhsMax =  -3.54427598381335E-11  1.33940566822641E-01
 cg2d: Sum(rhs),rhsMax =  -3.53715945422550E-11  1.34281617491613E-01
 cg2d: Sum(rhs),rhsMax =  -3.53852502854579E-11  1.34553868966179E-01
 cg2d: Sum(rhs),rhsMax =  -3.53695961408107E-11  1.34757492419336E-01
 cg2d: Sum(rhs),rhsMax =  -3.53557183530029E-11  1.34892689591964E-01
 cg2d: Sum(rhs),rhsMax =  -3.53703732969279E-11  1.34959691718587E-01
 cg2d: Sum(rhs),rhsMax =  -3.54954954318032E-11  1.34958758834299E-01
 cg2d: Sum(rhs),rhsMax =  -3.55095952642159E-11  1.34890179478314E-01
 cg2d: Sum(rhs),rhsMax =  -3.55823148723289E-11  1.34754270775274E-01
 cg2d: Sum(rhs),rhsMax =  -3.56660256883856E-11  1.34551378875381E-01
 cg2d: Sum(rhs),rhsMax =  -3.57566198871950E-11  1.34281879704166E-01
 cg2d: Sum(rhs),rhsMax =  -3.58678642342625E-11  1.33946179941666E-01
 cg2d: Sum(rhs),rhsMax =  -3.59556828755103E-11  1.33544718128645E-01
 cg2d: Sum(rhs),rhsMax =  -3.61092267198160E-11  1.33077965793334E-01
 cg2d: Sum(rhs),rhsMax =  -3.62961882771629E-11  1.32546428466798E-01
 cg2d: Sum(rhs),rhsMax =  -3.64682728459798E-11  1.31950646422146E-01
 cg2d: Sum(rhs),rhsMax =  -3.66923158523491E-11  1.31291195115084E-01
 cg2d: Sum(rhs),rhsMax =  -3.69351216278346E-11  1.30568685238452E-01
 cg2d: Sum(rhs),rhsMax =  -3.72034625328865E-11  1.29783762330208E-01
 cg2d: Sum(rhs),rhsMax =  -3.74760222854320E-11  1.28937105958374E-01
 cg2d: Sum(rhs),rhsMax =  -3.78314046756145E-11  1.28029428446210E-01
 cg2d: Sum(rhs),rhsMax =  -3.81830123075133E-11  1.27061473177930E-01
 cg2d: Sum(rhs),rhsMax =  -3.84909881745443E-11  1.26100993950778E-01
 cg2d: Sum(rhs),rhsMax =  -3.88764576086942E-11  1.25091479390283E-01
 cg2d: Sum(rhs),rhsMax =  -3.93007848487059E-11  1.24011272484118E-01
 cg2d: Sum(rhs),rhsMax =  -3.97898380910533E-11  1.22861277817734E-01
 cg2d: Sum(rhs),rhsMax =  -4.02213817807251E-11  1.21642455212055E-01
 cg2d: Sum(rhs),rhsMax =  -4.07395228663177E-11  1.20355817610889E-01
 cg2d: Sum(rhs),rhsMax =  -4.13202805304991E-11  1.19002428752845E-01
 cg2d: Sum(rhs),rhsMax =  -4.18698409276885E-11  1.17583400687552E-01
 cg2d: Sum(rhs),rhsMax =  -4.24763557660413E-11  1.16099891182852E-01
 cg2d: Sum(rhs),rhsMax =  -4.30717683741477E-11  1.14553101108757E-01
 cg2d: Sum(rhs),rhsMax =  -4.37339053860342E-11  1.12944271785466E-01
 cg2d: Sum(rhs),rhsMax =  -4.44813075262118E-11  1.11274682430136E-01
 cg2d: Sum(rhs),rhsMax =  -4.52240467296861E-11  1.09545647602298E-01
 cg2d: Sum(rhs),rhsMax =  -4.60474991470505E-11  1.07758514671851E-01
 cg2d: Sum(rhs),rhsMax =  -4.69042582551538E-11  1.05914661331106E-01
 cg2d: Sum(rhs),rhsMax =  -4.78230788303335E-11  1.04065260036124E-01
 cg2d: Sum(rhs),rhsMax =  -4.87652140890305E-11  1.02204384189326E-01
 cg2d: Sum(rhs),rhsMax =  -4.97590857406749E-11  1.00299102539210E-01
 cg2d: Sum(rhs),rhsMax =  -5.08139086363713E-11  9.83502979672425E-02
 cg2d: Sum(rhs),rhsMax =  -5.19043696911581E-11  9.63588448557947E-02
 cg2d: Sum(rhs),rhsMax =  -5.31226174160793E-11  9.43256088379278E-02
 cg2d: Sum(rhs),rhsMax =  -5.43741718317392E-11  9.22514467044370E-02
 cg2d: Sum(rhs),rhsMax =  -5.57884849428092E-11  9.01372064452767E-02
 cg2d: Sum(rhs),rhsMax =  -5.71855895969975E-11  8.79837273841042E-02
 cg2d: Sum(rhs),rhsMax =  -5.87319082256954E-11  8.57918403860547E-02
 cg2d: Sum(rhs),rhsMax =  -6.04203354015453E-11  8.35623681082337E-02
 cg2d: Sum(rhs),rhsMax =  -6.21495077623990E-11  8.12961252755464E-02
 cg2d: Sum(rhs),rhsMax =  -6.40795194684074E-11  7.89939189110515E-02
 cg2d: Sum(rhs),rhsMax =  -6.61672938662150E-11  7.66565485385392E-02
 cg2d: Sum(rhs),rhsMax =  -6.83639811427383E-11  7.42848063874518E-02
 cg2d: Sum(rhs),rhsMax =  -7.07779390651808E-11  7.18794775317781E-02
 cg2d: Sum(rhs),rhsMax =  -7.33174632117084E-11  6.94413399621730E-02
 cg2d: Sum(rhs),rhsMax =  -7.61387619618858E-11  6.69711646037361E-02
 cg2d: Sum(rhs),rhsMax =  -7.91547938305825E-11  6.44697152978594E-02
 cg2d: Sum(rhs),rhsMax =  -8.24436074964296E-11  6.19377487633998E-02
 cg2d: Sum(rhs),rhsMax =  -8.61101190352542E-11  5.93760145575674E-02
 cg2d: Sum(rhs),rhsMax =  -9.01042573886457E-11  5.67852550570033E-02
 cg2d: Sum(rhs),rhsMax =  -9.45871159174771E-11  5.41662054792192E-02
 cg2d: Sum(rhs),rhsMax =  -9.95392657188177E-11  5.15195939638792E-02
 cg2d: Sum(rhs),rhsMax =  -1.05099262626140E-10  4.88461417322692E-02
 cg2d: Sum(rhs),rhsMax =  -1.11371911692970E-10  4.61465633421667E-02
 cg2d: Sum(rhs),rhsMax =  -1.18507426094538E-10  4.34215670512263E-02
 cg2d: Sum(rhs),rhsMax =  -1.26540999900726E-10  4.06718552948533E-02
 cg2d: Sum(rhs),rhsMax =  -1.35847666449251E-10  3.78981253087291E-02
 cg2d: Sum(rhs),rhsMax =  -1.46747503038114E-10  3.51010698851672E-02
 cg2d: Sum(rhs),rhsMax =  -1.59586788228694E-10  3.22813782436326E-02
 cg2d: Sum(rhs),rhsMax =  -1.75042758066013E-10  2.94397370459985E-02
 cg2d: Sum(rhs),rhsMax =  -1.93928317848702E-10  2.65768315308479E-02
 cg2d: Sum(rhs),rhsMax =  -2.17635243160430E-10  2.36933467630134E-02
 cg2d: Sum(rhs),rhsMax =  -2.48168041672159E-10  2.07899689949687E-02
 cg2d: Sum(rhs),rhsMax =  -2.55337417875978E-10  2.02126843972979E-02
 cg2d: Sum(rhs),rhsMax =  -2.58225996141448E-10  1.99918511524450E-02
 cg2d: Sum(rhs),rhsMax =  -2.61153376701628E-10  1.97708027873938E-02
 cg2d: Sum(rhs),rhsMax =  -2.64092192558962E-10  1.95496222855413E-02
 cg2d: Sum(rhs),rhsMax =  -2.67138311471626E-10  1.93286349327880E-02
 cg2d: Sum(rhs),rhsMax =  -2.70296440178092E-10  1.91083482002491E-02
 cg2d: Sum(rhs),rhsMax =  -2.73452538390728E-10  1.88888620573670E-02
 cg2d: Sum(rhs),rhsMax =  -2.76645872876458E-10  1.86703180709227E-02
 cg2d: Sum(rhs),rhsMax =  -2.76174971780563E-10  1.87050626231981E-02
 cg2d: Sum(rhs),rhsMax =  -2.72287192792930E-10  1.89747675248095E-02
 cg2d: Sum(rhs),rhsMax =  -2.68606359377088E-10  1.92399099206371E-02
 cg2d: Sum(rhs),rhsMax =  -2.64998356591661E-10  1.95002878802513E-02
 cg2d: Sum(rhs),rhsMax =  -2.41972997194750E-10  2.13619350794055E-02
 cg2d: Sum(rhs),rhsMax =  -2.15421236404723E-10  2.39994380564592E-02
 cg2d: Sum(rhs),rhsMax =  -1.93796201308771E-10  2.66848559883757E-02
 cg2d: Sum(rhs),rhsMax =  -1.76011760721906E-10  2.94012738443128E-02
 cg2d: Sum(rhs),rhsMax =  -1.60860880171754E-10  3.21856815738548E-02
 cg2d: Sum(rhs),rhsMax =  -1.48017376133680E-10  3.49901149178679E-02
 cg2d: Sum(rhs),rhsMax =  -1.36870181854931E-10  3.78568597530051E-02
 cg2d: Sum(rhs),rhsMax =  -1.27215904477396E-10  4.07543220189278E-02
 cg2d: Sum(rhs),rhsMax =  -1.18651866110042E-10  4.36947286869992E-02
 cg2d: Sum(rhs),rhsMax =  -1.11130216140509E-10  4.66938338784678E-02
 cg2d: Sum(rhs),rhsMax =  -1.04266151268462E-10  4.97682186451368E-02
 cg2d: Sum(rhs),rhsMax =  -9.81458248006106E-11  5.29159176773751E-02
 cg2d: Sum(rhs),rhsMax =  -9.26585475014008E-11  5.60620597196891E-02
 cg2d: Sum(rhs),rhsMax =  -8.77623529405014E-11  5.92054692857920E-02
 cg2d: Sum(rhs),rhsMax =  -8.33745295025778E-11  6.23449344715086E-02
 cg2d: Sum(rhs),rhsMax =  -7.94789789537731E-11  6.54792062886373E-02
 cg2d: Sum(rhs),rhsMax =  -7.59555751628227E-11  6.86069983394959E-02
 cg2d: Sum(rhs),rhsMax =  -7.27371496367368E-11  7.17269868451562E-02
 cg2d: Sum(rhs),rhsMax =  -6.97998325804861E-11  7.48378110240069E-02
 cg2d: Sum(rhs),rhsMax =  -6.71251942918616E-11  7.79380738024510E-02
 cg2d: Sum(rhs),rhsMax =  -6.46107611856905E-11  8.10263428279919E-02
 cg2d: Sum(rhs),rhsMax =  -6.23211482420061E-11  8.41011517445152E-02
 cg2d: Sum(rhs),rhsMax =  -6.02231597923719E-11  8.71610016838817E-02
 cg2d: Sum(rhs),rhsMax =  -5.82476289423539E-11  9.02043629285329E-02
 cg2d: Sum(rhs),rhsMax =  -5.64335245201164E-11  9.32296767012666E-02
 cg2d: Sum(rhs),rhsMax =  -5.47143441664844E-11  9.62353570422020E-02
 cg2d: Sum(rhs),rhsMax =  -5.31058530484074E-11  9.92197927389800E-02
 cg2d: Sum(rhs),rhsMax =  -5.16102716119349E-11  1.02181349283979E-01
 cg2d: Sum(rhs),rhsMax =  -5.02246022549002E-11  1.05118370840855E-01
 cg2d: Sum(rhs),rhsMax =  -4.89023266325717E-11  1.08029182210163E-01
 cg2d: Sum(rhs),rhsMax =  -4.76997330522977E-11  1.10912090790020E-01
 cg2d: Sum(rhs),rhsMax =  -4.65167904195596E-11  1.13765388532850E-01
 cg2d: Sum(rhs),rhsMax =  -4.54446480446791E-11  1.16587353903160E-01
 cg2d: Sum(rhs),rhsMax =  -4.44072556504693E-11  1.19376253843980E-01
 cg2d: Sum(rhs),rhsMax =  -4.34953184580422E-11  1.22130345759421E-01
 cg2d: Sum(rhs),rhsMax =  -4.26829682709240E-11  1.24847879527175E-01
 cg2d: Sum(rhs),rhsMax =  -4.18435286420049E-11  1.27527099546315E-01
 cg2d: Sum(rhs),rhsMax =  -4.10596001643171E-11  1.30166246828267E-01
 cg2d: Sum(rhs),rhsMax =  -4.03111988234173E-11  1.32763561138569E-01
 cg2d: Sum(rhs),rhsMax =  -3.96080945819222E-11  1.35317283197000E-01
 cg2d: Sum(rhs),rhsMax =  -3.89551724211401E-11  1.37825656940496E-01
 cg2d: Sum(rhs),rhsMax =  -3.83318932151155E-11  1.40286931853883E-01
 cg2d: Sum(rhs),rhsMax =  -3.77597952905262E-11  1.42699365372475E-01
 cg2d: Sum(rhs),rhsMax =  -3.72016861760471E-11  1.45061225359430E-01
 cg2d: Sum(rhs),rhsMax =  -3.66698893472517E-11  1.47370792659308E-01
 cg2d: Sum(rhs),rhsMax =  -3.61564111983625E-11  1.49626363729132E-01
 cg2d: Sum(rhs),rhsMax =  -3.56725760042309E-11  1.51826253339524E-01
 cg2d: Sum(rhs),rhsMax =  -3.52248230583996E-11  1.53968797343984E-01
 cg2d: Sum(rhs),rhsMax =  -3.47999407068755E-11  1.56052355507159E-01
 cg2d: Sum(rhs),rhsMax =  -3.43576278538649E-11  1.58075314383373E-01
 cg2d: Sum(rhs),rhsMax =  -3.39951400363248E-11  1.60036090232291E-01
 cg2d: Sum(rhs),rhsMax =  -3.36382033339078E-11  1.61933131949757E-01
 cg2d: Sum(rhs),rhsMax =  -3.33116867423655E-11  1.63764923994456E-01
 cg2d: Sum(rhs),rhsMax =  -3.30030447415197E-11  1.65529989276806E-01
 cg2d: Sum(rhs),rhsMax =  -3.27101679076236E-11  1.67226891991530E-01
 cg2d: Sum(rhs),rhsMax =  -3.24501536752564E-11  1.68854240373049E-01
 cg2d: Sum(rhs),rhsMax =  -3.22162296839679E-11  1.70410689343007E-01
 cg2d: Sum(rhs),rhsMax =  -3.19894111200369E-11  1.71894943025015E-01
 cg2d: Sum(rhs),rhsMax =  -3.17276205308303E-11  1.73305757104897E-01
 cg2d: Sum(rhs),rhsMax =  -3.15630854785809E-11  1.74641941018909E-01
 cg2d: Sum(rhs),rhsMax =  -3.13288284203850E-11  1.75902359964172E-01
 cg2d: Sum(rhs),rhsMax =  -3.11694003940488E-11  1.77085936708524E-01
 cg2d: Sum(rhs),rhsMax =  -3.09484660121484E-11  1.78191653205470E-01
 cg2d: Sum(rhs),rhsMax =  -3.08115755132121E-11  1.79218552026501E-01
 cg2d: Sum(rhs),rhsMax =  -3.06622505164000E-11  1.80165737620655E-01
 cg2d: Sum(rhs),rhsMax =  -3.05189207239209E-11  1.81032377419443E-01
 cg2d: Sum(rhs),rhsMax =  -3.04296587927411E-11  1.81817702814381E-01
 cg2d: Sum(rhs),rhsMax =  -3.03189695571859E-11  1.82521010039353E-01
 cg2d: Sum(rhs),rhsMax =  -3.02536884433380E-11  1.83141660964511E-01
 cg2d: Sum(rhs),rhsMax =  -3.01353386689129E-11  1.83679083865522E-01
 cg2d: Sum(rhs),rhsMax =  -3.00902636141132E-11  1.84132774205370E-01
 cg2d: Sum(rhs),rhsMax =  -3.00290903254563E-11  1.84502295463118E-01
 cg2d: Sum(rhs),rhsMax =  -2.99866798059156E-11  1.84787280038386E-01
 cg2d: Sum(rhs),rhsMax =  -2.99609226317443E-11  1.84987430251746E-01
 cg2d: Sum(rhs),rhsMax =  -2.99571478734606E-11  1.85102519448724E-01
 cg2d: Sum(rhs),rhsMax =  -2.99860136721009E-11  1.85132393181501E-01
 cg2d: Sum(rhs),rhsMax =  -3.00528490981833E-11  1.85076970476386E-01
 cg2d: Sum(rhs),rhsMax =  -3.01236813271544E-11  1.84936245140557E-01
 cg2d: Sum(rhs),rhsMax =  -3.02206037972041E-11  1.84710287004903E-01
 cg2d: Sum(rhs),rhsMax =  -3.03315150773642E-11  1.84399243014830E-01
 cg2d: Sum(rhs),rhsMax =  -3.04489766733695E-11  1.84003338082759E-01
 cg2d: Sum(rhs),rhsMax =  -3.04822833641083E-11  1.83522875603620E-01
 cg2d: Sum(rhs),rhsMax =  -3.04956060404038E-11  1.82958237543643E-01
 cg2d: Sum(rhs),rhsMax =  -3.05868663730280E-11  1.82309884038953E-01
 cg2d: Sum(rhs),rhsMax =  -3.07130987309279E-11  1.81578352345752E-01
 cg2d: Sum(rhs),rhsMax =  -3.07820435807571E-11  1.80764255206144E-01
 cg2d: Sum(rhs),rhsMax =  -3.09129388753604E-11  1.79868278593376E-01
 cg2d: Sum(rhs),rhsMax =  -3.10365066980012E-11  1.78891178987501E-01
 cg2d: Sum(rhs),rhsMax =  -3.11758396875916E-11  1.77833780167543E-01
 cg2d: Sum(rhs),rhsMax =  -3.13462589218716E-11  1.76696969626775E-01
 cg2d: Sum(rhs),rhsMax =  -3.14660519862286E-11  1.75481694735472E-01
 cg2d: Sum(rhs),rhsMax =  -3.16379145104406E-11  1.74188958820678E-01
 cg2d: Sum(rhs),rhsMax =  -3.18125525922142E-11  1.72819817306687E-01
 cg2d: Sum(rhs),rhsMax =  -3.19940740567404E-11  1.71375374043036E-01
 cg2d: Sum(rhs),rhsMax =  -3.21975779371542E-11  1.69856777922477E-01
 cg2d: Sum(rhs),rhsMax =  -3.24126281370241E-11  1.68265219904605E-01
 cg2d: Sum(rhs),rhsMax =  -3.26422222585165E-11  1.66601930368061E-01
 cg2d: Sum(rhs),rhsMax =  -3.29540839061337E-11  1.64868176871642E-01
 cg2d: Sum(rhs),rhsMax =  -3.32558425242269E-11  1.63065262318112E-01
 cg2d: Sum(rhs),rhsMax =  -3.36027872194222E-11  1.61194523466923E-01
 cg2d: Sum(rhs),rhsMax =  -3.39536176952038E-11  1.59257329654638E-01
 cg2d: Sum(rhs),rhsMax =  -3.43246542300335E-11  1.57255081716209E-01
 cg2d: Sum(rhs),rhsMax =  -3.47344375484226E-11  1.55189211005883E-01
 cg2d: Sum(rhs),rhsMax =  -3.51525475394965E-11  1.53061178381781E-01
 cg2d: Sum(rhs),rhsMax =  -3.55752094449713E-11  1.50872473084794E-01
 cg2d: Sum(rhs),rhsMax =  -3.60582674829857E-11  1.48624611482376E-01
 cg2d: Sum(rhs),rhsMax =  -3.65424357440247E-11  1.46319135626769E-01
 cg2d: Sum(rhs),rhsMax =  -3.70719011044685E-11  1.43957611617764E-01
 cg2d: Sum(rhs),rhsMax =  -3.76210174124481E-11  1.41541627776798E-01
 cg2d: Sum(rhs),rhsMax =  -3.81933373816423E-11  1.39072792654563E-01
 cg2d: Sum(rhs),rhsMax =  -3.88499232784056E-11  1.36552732909304E-01
 cg2d: Sum(rhs),rhsMax =  -3.94911880974291E-11  1.33983091093124E-01
 cg2d: Sum(rhs),rhsMax =  -4.01833011309805E-11  1.31365523402615E-01
 cg2d: Sum(rhs),rhsMax =  -4.09684508539954E-11  1.28701697444183E-01
 cg2d: Sum(rhs),rhsMax =  -4.17312850942153E-11  1.25993290054837E-01
 cg2d: Sum(rhs),rhsMax =  -4.25492974187591E-11  1.23241985202209E-01
 cg2d: Sum(rhs),rhsMax =  -4.34280389427499E-11  1.20449472081682E-01
 cg2d: Sum(rhs),rhsMax =  -4.44337899807579E-11  1.17617443314895E-01
 cg2d: Sum(rhs),rhsMax =  -4.55152582290452E-11  1.14747593284294E-01
 cg2d: Sum(rhs),rhsMax =  -4.66388039299659E-11  1.11841616608772E-01
 cg2d: Sum(rhs),rhsMax =  -4.78558304095600E-11  1.08901206748441E-01
 cg2d: Sum(rhs),rhsMax =  -4.91340301778109E-11  1.05928054718340E-01
 cg2d: Sum(rhs),rhsMax =  -5.05055997024328E-11  1.02923847887705E-01
 cg2d: Sum(rhs),rhsMax =  -5.20101739454049E-11  9.98902688427295E-02
 cg2d: Sum(rhs),rhsMax =  -5.35993471828533E-11  9.68289942952072E-02
 cg2d: Sum(rhs),rhsMax =  -5.53319612350833E-11  9.37416940257310E-02
 cg2d: Sum(rhs),rhsMax =  -5.71382940961485E-11  9.06300298572068E-02
 cg2d: Sum(rhs),rhsMax =  -5.91385829196156E-11  8.74956546614074E-02
 cg2d: Sum(rhs),rhsMax =  -6.12908612751539E-11  8.43402114079899E-02
 cg2d: Sum(rhs),rhsMax =  -6.35946850735536E-11  8.11653322682183E-02
 cg2d: Sum(rhs),rhsMax =  -6.61600774165549E-11  7.79726377821190E-02
 cg2d: Sum(rhs),rhsMax =  -6.89088786032244E-11  7.47637361205148E-02
 cg2d: Sum(rhs),rhsMax =  -7.19511117353022E-11  7.15402224637224E-02
 cg2d: Sum(rhs),rhsMax =  -7.52546913673768E-11  6.83036784567431E-02
 cg2d: Sum(rhs),rhsMax =  -7.89109888543749E-11  6.50556717792134E-02
 cg2d: Sum(rhs),rhsMax =  -8.30163715548338E-11  6.17977558203234E-02
 cg2d: Sum(rhs),rhsMax =  -8.76314576458981E-11  5.85314694638695E-02
 cg2d: Sum(rhs),rhsMax =  -9.27626864211106E-11  5.52583369655843E-02
 cg2d: Sum(rhs),rhsMax =  -9.86034587313611E-11  5.19798679048244E-02
 cg2d: Sum(rhs),rhsMax =  -1.05171649167346E-10  4.86975571869993E-02
 cg2d: Sum(rhs),rhsMax =  -1.12753140157906E-10  4.54128851006974E-02
 cg2d: Sum(rhs),rhsMax =  -1.21487264692632E-10  4.21273174070924E-02
 cg2d: Sum(rhs),rhsMax =  -1.31676003434222E-10  3.88423054432800E-02
 cg2d: Sum(rhs),rhsMax =  -1.43800416019246E-10  3.55592862361524E-02
 cg2d: Sum(rhs),rhsMax =  -1.58324797716602E-10  3.22796826388584E-02
 cg2d: Sum(rhs),rhsMax =  -1.76172298971267E-10  2.90049034376795E-02
 cg2d: Sum(rhs),rhsMax =  -1.98560168307438E-10  2.57363434712176E-02
 cg2d: Sum(rhs),rhsMax =  -2.27259766560906E-10  2.24753837597467E-02
 cg2d: Sum(rhs),rhsMax =  -2.49430476273460E-10  2.04747673321311E-02
 cg2d: Sum(rhs),rhsMax =  -2.46270448478469E-10  2.07345785555474E-02
 cg2d: Sum(rhs),rhsMax =  -2.43200515281927E-10  2.09959567605233E-02
 cg2d: Sum(rhs),rhsMax =  -2.40128167350306E-10  2.12587881243769E-02
 cg2d: Sum(rhs),rhsMax =  -2.37139960446164E-10  2.15223581562502E-02
 cg2d: Sum(rhs),rhsMax =  -2.34254241004983E-10  2.17862153255903E-02
 cg2d: Sum(rhs),rhsMax =  -2.31417773832732E-10  2.20502179027426E-02
 cg2d: Sum(rhs),rhsMax =  -2.28582153205537E-10  2.23141390819327E-02
 cg2d: Sum(rhs),rhsMax =  -2.25856888746989E-10  2.25778713743010E-02
 cg2d: Sum(rhs),rhsMax =  -2.23181528813399E-10  2.28416672238861E-02
 cg2d: Sum(rhs),rhsMax =  -2.20488738378322E-10  2.31055469947173E-02
 cg2d: Sum(rhs),rhsMax =  -2.17911133582049E-10  2.33698138437596E-02
 cg2d: Sum(rhs),rhsMax =  -2.15430118188920E-10  2.36343245767080E-02
 cg2d: Sum(rhs),rhsMax =  -2.12937889543241E-10  2.38989007104779E-02
 cg2d: Sum(rhs),rhsMax =  -2.01084482398528E-10  2.53011756038881E-02
 cg2d: Sum(rhs),rhsMax =  -1.81386905495629E-10  2.80394861058736E-02
 cg2d: Sum(rhs),rhsMax =  -1.64933178226079E-10  3.08233996001792E-02
 cg2d: Sum(rhs),rhsMax =  -1.51346379873019E-10  3.35796216442042E-02
 cg2d: Sum(rhs),rhsMax =  -1.39672606813690E-10  3.63691176406643E-02
 cg2d: Sum(rhs),rhsMax =  -1.29743660259862E-10  3.91385716240653E-02
 cg2d: Sum(rhs),rhsMax =  -1.21019527732358E-10  4.19443850587882E-02
 cg2d: Sum(rhs),rhsMax =  -1.13476450458450E-10  4.47155943824367E-02
 cg2d: Sum(rhs),rhsMax =  -1.06815778444513E-10  4.74511420699316E-02
 cg2d: Sum(rhs),rhsMax =  -1.00925934276574E-10  5.01499900952504E-02
 cg2d: Sum(rhs),rhsMax =  -9.57908197207757E-11  5.28111211304146E-02
 cg2d: Sum(rhs),rhsMax =  -9.11920539081734E-11  5.54335398391416E-02
 cg2d: Sum(rhs),rhsMax =  -8.70165051125582E-11  5.80162742301468E-02
 cg2d: Sum(rhs),rhsMax =  -8.33020319390698E-11  6.05583770173306E-02
 cg2d: Sum(rhs),rhsMax =  -7.99149635355434E-11  6.30589269156814E-02
 cg2d: Sum(rhs),rhsMax =  -7.68500818537632E-11  6.55170297851150E-02
 cg2d: Sum(rhs),rhsMax =  -7.40525418763127E-11  6.79318195220027E-02
 cg2d: Sum(rhs),rhsMax =  -7.14822645520030E-11  7.03024585927500E-02
 cg2d: Sum(rhs),rhsMax =  -6.90885126886087E-11  7.26281381080214E-02
 cg2d: Sum(rhs),rhsMax =  -6.68393118630206E-11  7.49080773494328E-02
 cg2d: Sum(rhs),rhsMax =  -6.48560094518302E-11  7.71415226841205E-02
 cg2d: Sum(rhs),rhsMax =  -6.29699625775970E-11  7.93277458415886E-02
 cg2d: Sum(rhs),rhsMax =  -6.12740969074821E-11  8.14660415736391E-02
 cg2d: Sum(rhs),rhsMax =  -5.96592775181648E-11  8.35557247667691E-02
 cg2d: Sum(rhs),rhsMax =  -5.81743542227287E-11  8.55961271202660E-02
 cg2d: Sum(rhs),rhsMax =  -5.67628166692202E-11  8.75865935540271E-02
 cg2d: Sum(rhs),rhsMax =  -5.54620793735694E-11  8.95264785454940E-02
 cg2d: Sum(rhs),rhsMax =  -5.42764722055722E-11  9.14151426170451E-02
 cg2d: Sum(rhs),rhsMax =  -5.31603649989165E-11  9.32519491987813E-02
 cg2d: Sum(rhs),rhsMax =  -5.21250820284536E-11  9.50362620730197E-02
 cg2d: Sum(rhs),rhsMax =  -5.11491959898080E-11  9.67674435808804E-02
 cg2d: Sum(rhs),rhsMax =  -5.02589081463611E-11  9.84448537249812E-02
 cg2d: Sum(rhs),rhsMax =  -4.94002616591160E-11  1.00067850254820E-01
 cg2d: Sum(rhs),rhsMax =  -4.86263251886498E-11  1.01635789746885E-01
 cg2d: Sum(rhs),rhsMax =  -4.78762585132131E-11  1.03148029659195E-01
 cg2d: Sum(rhs),rhsMax =  -4.70687933074032E-11  1.04603931253465E-01
 cg2d: Sum(rhs),rhsMax =  -4.63545868356618E-11  1.06002863248686E-01
 cg2d: Sum(rhs),rhsMax =  -4.57345272764087E-11  1.07344206046629E-01
 cg2d: Sum(rhs),rhsMax =  -4.51886306152005E-11  1.08627356328780E-01
 cg2d: Sum(rhs),rhsMax =  -4.47289982830057E-11  1.09851731844384E-01
 cg2d: Sum(rhs),rhsMax =  -4.42719194637675E-11  1.11016776193718E-01
 cg2d: Sum(rhs),rhsMax =  -4.38629133014956E-11  1.12121963451462E-01
 cg2d: Sum(rhs),rhsMax =  -4.35154134947879E-11  1.13166802479880E-01
 cg2d: Sum(rhs),rhsMax =  -4.31141788936884E-11  1.14150840807903E-01
 cg2d: Sum(rhs),rhsMax =  -4.28655999584748E-11  1.15073667980678E-01
 cg2d: Sum(rhs),rhsMax =  -4.25420809690991E-11  1.15934918312663E-01
 cg2d: Sum(rhs),rhsMax =  -4.22792911791703E-11  1.16734273010335E-01
 cg2d: Sum(rhs),rhsMax =  -4.20489199015606E-11  1.17471461630956E-01
 cg2d: Sum(rhs),rhsMax =  -4.18320933448513E-11  1.18146262895429E-01
 cg2d: Sum(rhs),rhsMax =  -4.16708889616757E-11  1.18758504883533E-01
 cg2d: Sum(rhs),rhsMax =  -4.14901446532667E-11  1.19308064644619E-01
 cg2d: Sum(rhs),rhsMax =  -4.13928891163096E-11  1.19794867282607E-01
 cg2d: Sum(rhs),rhsMax =  -4.12447853648246E-11  1.20218884581029E-01
 cg2d: Sum(rhs),rhsMax =  -4.11617406825826E-11  1.20580133242300E-01
 cg2d: Sum(rhs),rhsMax =  -4.11027878399750E-11  1.20878672816180E-01
 cg2d: Sum(rhs),rhsMax =  -4.10347311685655E-11  1.21114603412119E-01
 cg2d: Sum(rhs),rhsMax =  -4.10068645706474E-11  1.21288063274248E-01
 cg2d: Sum(rhs),rhsMax =  -4.09654532518289E-11  1.21399226271106E-01
 cg2d: Sum(rhs),rhsMax =  -4.09854372662721E-11  1.21448299442483E-01
 cg2d: Sum(rhs),rhsMax =  -4.10289580088374E-11  1.21435520605733E-01
 cg2d: Sum(rhs),rhsMax =  -4.10591560751072E-11  1.21361156079604E-01
 cg2d: Sum(rhs),rhsMax =  -4.11228828767207E-11  1.21225498570352E-01
 cg2d: Sum(rhs),rhsMax =  -4.12073708488947E-11  1.21028865256256E-01
 cg2d: Sum(rhs),rhsMax =  -4.13197254189868E-11  1.20771596092194E-01
 cg2d: Sum(rhs),rhsMax =  -4.14523970704295E-11  1.20454052340915E-01
 cg2d: Sum(rhs),rhsMax =  -4.17065271207662E-11  1.20076615338860E-01
 cg2d: Sum(rhs),rhsMax =  -4.18551859837635E-11  1.19639685492216E-01
 cg2d: Sum(rhs),rhsMax =  -4.20816714807870E-11  1.19143681423332E-01
 cg2d: Sum(rhs),rhsMax =  -4.23254764569947E-11  1.18589039320997E-01
 cg2d: Sum(rhs),rhsMax =  -4.25982582541451E-11  1.17976212464519E-01
 cg2d: Sum(rhs),rhsMax =  -4.28558299958581E-11  1.17305670896951E-01
 cg2d: Sum(rhs),rhsMax =  -4.31976676651402E-11  1.16577901185301E-01
 cg2d: Sum(rhs),rhsMax =  -4.35455005387553E-11  1.15793406267335E-01
 cg2d: Sum(rhs),rhsMax =  -4.39414060693366E-11  1.14952705368029E-01
 cg2d: Sum(rhs),rhsMax =  -4.43608483280400E-11  1.14056333926889E-01
 cg2d: Sum(rhs),rhsMax =  -4.48232562177964E-11  1.13104843509543E-01
 cg2d: Sum(rhs),rhsMax =  -4.53236337349949E-11  1.12098801680305E-01
 cg2d: Sum(rhs),rhsMax =  -4.58227900068664E-11  1.11038791814739E-01
 cg2d: Sum(rhs),rhsMax =  -4.63616922630194E-11  1.09925412833634E-01
 cg2d: Sum(rhs),rhsMax =  -4.70059546842094E-11  1.08759278845356E-01
 cg2d: Sum(rhs),rhsMax =  -4.75599559734974E-11  1.07541018680896E-01
 cg2d: Sum(rhs),rhsMax =  -4.81916728745091E-11  1.06271275314303E-01
 cg2d: Sum(rhs),rhsMax =  -4.88631357598024E-11  1.04950705183237E-01
 cg2d: Sum(rhs),rhsMax =  -4.95490315444158E-11  1.03579977378584E-01
 cg2d: Sum(rhs),rhsMax =  -5.02895503018408E-11  1.02159772691135E-01
 cg2d: Sum(rhs),rhsMax =  -5.10792519392567E-11  1.00690782589525E-01
 cg2d: Sum(rhs),rhsMax =  -5.19131404530526E-11  9.91737081589353E-02
 cg2d: Sum(rhs),rhsMax =  -5.28076471439931E-11  9.76092589683378E-02
 cg2d: Sum(rhs),rhsMax =  -5.37481170681531E-11  9.59981518874283E-02
 cg2d: Sum(rhs),rhsMax =  -5.47414336082852E-11  9.43411098779283E-02
 cg2d: Sum(rhs),rhsMax =  -5.58143531392830E-11  9.26388607888116E-02
 cg2d: Sum(rhs),rhsMax =  -5.69607694345109E-11  9.08921361829963E-02
 cg2d: Sum(rhs),rhsMax =  -5.81873438321168E-11  8.91016702196674E-02
 cg2d: Sum(rhs),rhsMax =  -5.95227200861359E-11  8.72681986137081E-02
 cg2d: Sum(rhs),rhsMax =  -6.09134964690838E-11  8.53924576959301E-02
 cg2d: Sum(rhs),rhsMax =  -6.23586737802384E-11  8.34751835826277E-02
 cg2d: Sum(rhs),rhsMax =  -6.38803454577896E-11  8.15171114818218E-02
 cg2d: Sum(rhs),rhsMax =  -6.55281384709383E-11  7.95189751536747E-02
 cg2d: Sum(rhs),rhsMax =  -6.73027189534992E-11  7.74815065406080E-02
 cg2d: Sum(rhs),rhsMax =  -6.92098600652002E-11  7.54054355819872E-02
 cg2d: Sum(rhs),rhsMax =  -7.12689907089725E-11  7.32914902313424E-02
 cg2d: Sum(rhs),rhsMax =  -7.34857730222416E-11  7.11403966515299E-02
 cg2d: Sum(rhs),rhsMax =  -7.58756391050497E-11  6.89528796312791E-02
 cg2d: Sum(rhs),rhsMax =  -7.84404763365387E-11  6.67296631881051E-02
 cg2d: Sum(rhs),rhsMax =  -8.12717670939378E-11  6.44714714383945E-02
 cg2d: Sum(rhs),rhsMax =  -8.42851344273754E-11  6.21790296444845E-02
 cg2d: Sum(rhs),rhsMax =  -8.76360095602990E-11  5.98530654233376E-02
 cg2d: Sum(rhs),rhsMax =  -9.13504827337874E-11  5.74943100987104E-02
 cg2d: Sum(rhs),rhsMax =  -9.53715995066773E-11  5.51035001701484E-02
 cg2d: Sum(rhs),rhsMax =  -9.98312543742941E-11  5.26813788603136E-02
 cg2d: Sum(rhs),rhsMax =  -1.04852682092371E-10  5.02286976895360E-02
 cg2d: Sum(rhs),rhsMax =  -1.10419229315539E-10  4.77462180231579E-02
 cg2d: Sum(rhs),rhsMax =  -1.16589959908708E-10  4.52347125300331E-02
 cg2d: Sum(rhs),rhsMax =  -1.23534737994646E-10  4.26949664878144E-02
 cg2d: Sum(rhs),rhsMax =  -1.31462618568889E-10  4.01277788782229E-02
 cg2d: Sum(rhs),rhsMax =  -1.40597644637808E-10  3.75339632227980E-02
 cg2d: Sum(rhs),rhsMax =  -1.51190060471151E-10  3.49143481193009E-02
 cg2d: Sum(rhs),rhsMax =  -1.63664415353537E-10  3.22697774695333E-02
 cg2d: Sum(rhs),rhsMax =  -1.78466019740142E-10  2.96011103836990E-02
 cg2d: Sum(rhs),rhsMax =  -1.95356619769882E-10  2.70452750869196E-02
 cg2d: Sum(rhs),rhsMax =  -1.96715310707418E-10  2.68688817493740E-02
 cg2d: Sum(rhs),rhsMax =  -1.98113081495421E-10  2.66917334086064E-02
 cg2d: Sum(rhs),rhsMax =  -1.99506633435931E-10  2.65137417094117E-02
 cg2d: Sum(rhs),rhsMax =  -2.00953031992412E-10  2.63350466456482E-02
 cg2d: Sum(rhs),rhsMax =  -2.02361238876847E-10  2.61559085558621E-02
 cg2d: Sum(rhs),rhsMax =  -2.03867811521263E-10  2.59765624505444E-02
 cg2d: Sum(rhs),rhsMax =  -2.05347627790786E-10  2.57973166581425E-02
 cg2d: Sum(rhs),rhsMax =  -2.06840322647395E-10  2.56184047521158E-02
 cg2d: Sum(rhs),rhsMax =  -2.08366934817406E-10  2.54398086828265E-02
 cg2d: Sum(rhs),rhsMax =  -2.09909353787729E-10  2.52617300634784E-02
 cg2d: Sum(rhs),rhsMax =  -2.11484746381885E-10  2.50844052676413E-02
 cg2d: Sum(rhs),rhsMax =  -2.13071144061772E-10  2.49083972796257E-02
 cg2d: Sum(rhs),rhsMax =  -2.14616713289928E-10  2.47338356599461E-02
 cg2d: Sum(rhs),rhsMax =  -2.16198836611170E-10  2.45608236951383E-02
 cg2d: Sum(rhs),rhsMax =  -2.17865614438040E-10  2.43891007603280E-02
 cg2d: Sum(rhs),rhsMax =  -2.19449014515760E-10  2.42186889246958E-02
 cg2d: Sum(rhs),rhsMax =  -2.21103357844754E-10  2.40497154816053E-02
 cg2d: Sum(rhs),rhsMax =  -2.03682515298453E-10  2.61176874469143E-02
 cg2d: Sum(rhs),rhsMax =  -1.85288229204161E-10  2.87234543144450E-02
 cg2d: Sum(rhs),rhsMax =  -1.69862457433112E-10  3.13506243566004E-02
 cg2d: Sum(rhs),rhsMax =  -1.56418322738716E-10  3.40463110698025E-02
 cg2d: Sum(rhs),rhsMax =  -1.44956602277091E-10  3.67593225392769E-02
 cg2d: Sum(rhs),rhsMax =  -1.34876443347309E-10  3.95244388414798E-02
 cg2d: Sum(rhs),rhsMax =  -1.25953358853792E-10  4.23296443732810E-02
 cg2d: Sum(rhs),rhsMax =  -1.18014487071605E-10  4.51877719281369E-02
 cg2d: Sum(rhs),rhsMax =  -1.10874309733333E-10  4.81319547452236E-02
 cg2d: Sum(rhs),rhsMax =  -1.04495634367652E-10  5.10857442397398E-02
 cg2d: Sum(rhs),rhsMax =  -9.88589210493274E-11  5.40344660924489E-02
 cg2d: Sum(rhs),rhsMax =  -9.38136235362208E-11  5.69769452947610E-02
 cg2d: Sum(rhs),rhsMax =  -8.93033424986811E-11  5.99119914750037E-02
 cg2d: Sum(rhs),rhsMax =  -8.52278247975846E-11  6.28383986665599E-02
 cg2d: Sum(rhs),rhsMax =  -8.15524314745630E-11  6.57549450837462E-02
(PID.TID 0000.0001)      cg2d_init_res =   2.27563238793698E-01
(PID.TID 0000.0001)      cg2d_iters(min,last) =      -1      39
(PID.TID 0000.0001)      cg2d_last_res =   8.42207149518745E-14
(PID.TID 0000.0001) // =======================================================
(PID.TID 0000.0001) // Begin MONITOR dynamic field statistics
(PID.TID 0000.0001) // =======================================================
(PID.TID 0000.0001) %MON time_tsnumber                =                  2400
(PID.TID 0000.0001) %MON time_secondsf                =   3.6000000000000E+04
(PID.TID 0000.0001) %MON dynstat_eta_max              =   1.2168142417125E-02
(PID.TID 0000.0001) %MON dynstat_eta_min              =  -1.1825725159062E-02
(PID.TID 0000.0001) %MON dynstat_eta_mean             =   1.1839333853706E-14
(PID.TID 0000.0001) %MON dynstat_eta_sd               =   9.6741144894030E-03
(PID.TID 0000.0001) %MON dynstat_eta_del2             =   2.4362156066095E-05
(PID.TID 0000.0001) %MON dynstat_uvel_max             =   1.0626993802903E+00
(PID.TID 0000.0001) %MON dynstat_uvel_min             =  -1.8397537322016E-01
(PID.TID 0000.0001) %MON dynstat_uvel_mean            =   4.4982438419184E-01
(PID.TID 0000.0001) %MON dynstat_uvel_sd              =   8.4867711287475E-02
(PID.TID 0000.0001) %MON dynstat_uvel_del2            =   3.8584396219946E-04
(PID.TID 0000.0001) %MON dynstat_vvel_max             =   0.0000000000000E+00
(PID.TID 0000.0001) %MON dynstat_vvel_min             =   0.0000000000000E+00
(PID.TID 0000.0001) %MON dynstat_vvel_mean            =   0.0000000000000E+00
(PID.TID 0000.0001) %MON dynstat_vvel_sd              =   0.0000000000000E+00
(PID.TID 0000.0001) %MON dynstat_vvel_del2            =   0.0000000000000E+00
(PID.TID 0000.0001) %MON dynstat_wvel_max             =   2.5678310876293E-02
(PID.TID 0000.0001) %MON dynstat_wvel_min             =  -2.1722486141473E-02
(PID.TID 0000.0001) %MON dynstat_wvel_mean            =   2.8425757966891E-20
(PID.TID 0000.0001) %MON dynstat_wvel_sd              =   1.9341530907243E-03
(PID.TID 0000.0001) %MON dynstat_wvel_del2            =   3.5250159432814E-05
(PID.TID 0000.0001) %MON dynstat_theta_max            =   1.5000000000007E+01
(PID.TID 0000.0001) %MON dynstat_theta_min            =   9.9999999999965E+00
(PID.TID 0000.0001) %MON dynstat_theta_mean           =   1.4047134556828E+01
(PID.TID 0000.0001) %MON dynstat_theta_sd             =   1.8694334312069E+00
(PID.TID 0000.0001) %MON dynstat_theta_del2           =   7.2360868867074E-04
(PID.TID 0000.0001) %MON dynstat_salt_max             =   3.5000000000000E+01
(PID.TID 0000.0001) %MON dynstat_salt_min             =   3.5000000000000E+01
(PID.TID 0000.0001) %MON dynstat_salt_mean            =   3.5000000000000E+01
(PID.TID 0000.0001) %MON dynstat_salt_sd              =   3.0553337637684E-13
(PID.TID 0000.0001) %MON dynstat_salt_del2            =   0.0000000000000E+00
(PID.TID 0000.0001) %MON dynstat_sst_max              =   1.5000000000001E+01
(PID.TID 0000.0001) %MON dynstat_sst_min              =   1.4999999999999E+01
(PID.TID 0000.0001) %MON dynstat_sst_mean             =   1.5000000000000E+01
(PID.TID 0000.0001) %MON dynstat_sst_sd               =   2.9444030456997E-13
(PID.TID 0000.0001) %MON dynstat_sst_del2             =   6.1725609592354E-15
(PID.TID 0000.0001) %MON dynstat_sss_max              =   3.5000000000000E+01
(PID.TID 0000.0001) %MON dynstat_sss_min              =   3.5000000000000E+01
(PID.TID 0000.0001) %MON dynstat_sss_mean             =   3.5000000000000E+01
(PID.TID 0000.0001) %MON dynstat_sss_sd               =   2.8421709430404E-14
(PID.TID 0000.0001) %MON dynstat_sss_del2             =   0.0000000000000E+00
(PID.TID 0000.0001) %MON forcing_qnet_max             =   0.0000000000000E+00
(PID.TID 0000.0001) %MON forcing_qnet_min             =   0.0000000000000E+00
(PID.TID 0000.0001) %MON forcing_qnet_mean            =   0.0000000000000E+00
(PID.TID 0000.0001) %MON forcing_qnet_sd              =   0.0000000000000E+00
(PID.TID 0000.0001) %MON forcing_qnet_del2            =   0.0000000000000E+00
(PID.TID 0000.0001) %MON forcing_qsw_max              =   0.0000000000000E+00
(PID.TID 0000.0001) %MON forcing_qsw_min              =   0.0000000000000E+00
(PID.TID 0000.0001) %MON forcing_qsw_mean             =   0.0000000000000E+00
(PID.TID 0000.0001) %MON forcing_qsw_sd               =   0.0000000000000E+00
(PID.TID 0000.0001) %MON forcing_qsw_del2             =   0.0000000000000E+00
(PID.TID 0000.0001) %MON forcing_empmr_max            =   0.0000000000000E+00
(PID.TID 0000.0001) %MON forcing_empmr_min            =   0.0000000000000E+00
(PID.TID 0000.0001) %MON forcing_empmr_mean           =   0.0000000000000E+00
(PID.TID 0000.0001) %MON forcing_empmr_sd             =   0.0000000000000E+00
(PID.TID 0000.0001) %MON forcing_empmr_del2           =   0.0000000000000E+00
(PID.TID 0000.0001) %MON forcing_fu_max               =   0.0000000000000E+00
(PID.TID 0000.0001) %MON forcing_fu_min               =   0.0000000000000E+00
(PID.TID 0000.0001) %MON forcing_fu_mean              =   0.0000000000000E+00
(PID.TID 0000.0001) %MON forcing_fu_sd                =   0.0000000000000E+00
(PID.TID 0000.0001) %MON forcing_fu_del2              =   0.0000000000000E+00
(PID.TID 0000.0001) %MON forcing_fv_max               =   0.0000000000000E+00
(PID.TID 0000.0001) %MON forcing_fv_min               =   0.0000000000000E+00
(PID.TID 0000.0001) %MON forcing_fv_mean              =   0.0000000000000E+00
(PID.TID 0000.0001) %MON forcing_fv_sd                =   0.0000000000000E+00
(PID.TID 0000.0001) %MON forcing_fv_del2              =   0.0000000000000E+00
(PID.TID 0000.0001) %MON advcfl_uvel_max              =   7.9702453521769E-02
(PID.TID 0000.0001) %MON advcfl_vvel_max              =   0.0000000000000E+00
(PID.TID 0000.0001) %MON advcfl_wvel_max              =   1.3208695700208E-01
(PID.TID 0000.0001) %MON advcfl_W_hf_max              =   1.3352398439506E-01
(PID.TID 0000.0001) %MON pe_b_mean                    =   2.3195607552639E-06
(PID.TID 0000.0001) %MON ke_max                       =   4.9688963509740E-01
(PID.TID 0000.0001) %MON ke_mean                      =   1.0479057112737E-01
(PID.TID 0000.0001) %MON ke_vol                       =   9.6656965507697E+10
(PID.TID 0000.0001) %MON vort_r_min                   =   0.0000000000000E+00
(PID.TID 0000.0001) %MON vort_r_max                   =   0.0000000000000E+00
(PID.TID 0000.0001) %MON vort_a_mean                  =   0.0000000000000E+00
(PID.TID 0000.0001) %MON vort_a_sd                    =   0.0000000000000E+00
(PID.TID 0000.0001) %MON vort_p_mean                  =   0.0000000000000E+00
(PID.TID 0000.0001) %MON vort_p_sd                    =   0.0000000000000E+00
(PID.TID 0000.0001) %MON surfExpan_theta_mean         =   1.7309005501846E-18
(PID.TID 0000.0001) %MON surfExpan_salt_mean          =   2.3463525478565E-19
(PID.TID 0000.0001) // =======================================================
(PID.TID 0000.0001) // End MONITOR dynamic field statistics
(PID.TID 0000.0001) // =======================================================
(PID.TID 0000.0001) // =======================================================
(PID.TID 0000.0001) // Begin OBCS MONITOR field statistics
(PID.TID 0000.0001) // =======================================================
(PID.TID 0000.0001) %MON obc_E_uVel_max               =   4.4822851314926E-01
(PID.TID 0000.0001) %MON obc_E_uVel_min               =   4.4822851314926E-01
(PID.TID 0000.0001) %MON obc_E_uVel_mean              =   4.4822851314926E-01
(PID.TID 0000.0001) %MON obc_E_uVel_sd                =   0.0000000000000E+00
(PID.TID 0000.0001) %MON obc_E_uVel_Int               =   4.4822851314926E+05
(PID.TID 0000.0001) %MON obc_W_uVel_max               =   4.4822851314926E-01
(PID.TID 0000.0001) %MON obc_W_uVel_min               =   4.4822851314926E-01
(PID.TID 0000.0001) %MON obc_W_uVel_mean              =   4.4822851314926E-01
(PID.TID 0000.0001) %MON obc_W_uVel_sd                =   0.0000000000000E+00
(PID.TID 0000.0001) %MON obc_W_uVel_Int               =   4.4822851314926E+05
(PID.TID 0000.0001) // =======================================================
(PID.TID 0000.0001) // End OBCS MONITOR field statistics
(PID.TID 0000.0001) // =======================================================
 cg2d: Sum(rhs),rhsMax =  -7.82155451517497E-11  6.86603929124557E-02
 cg2d: Sum(rhs),rhsMax =  -7.51327888792730E-11  7.15534881254472E-02
 cg2d: Sum(rhs),rhsMax =  -7.22902848693252E-11  7.44329603335650E-02
 cg2d: Sum(rhs),rhsMax =  -6.96771529362650E-11  7.72975226859405E-02
 cg2d: Sum(rhs),rhsMax =  -6.72721878203220E-11  8.01458718267551E-02
 cg2d: Sum(rhs),rhsMax =  -6.50486331466027E-11  8.29766879204699E-02
 cg2d: Sum(rhs),rhsMax =  -6.29873930790836E-11  8.57886347557984E-02
 cg2d: Sum(rhs),rhsMax =  -6.10310690873916E-11  8.85803599345667E-02
 cg2d: Sum(rhs),rhsMax =  -5.92058624349079E-11  9.13504951534837E-02
 cg2d: Sum(rhs),rhsMax =  -5.75492986598647E-11  9.40976565872836E-02
 cg2d: Sum(rhs),rhsMax =  -5.59928770016427E-11  9.68204453825810E-02
 cg2d: Sum(rhs),rhsMax =  -5.45379297278714E-11  9.95174482733482E-02
 cg2d: Sum(rhs),rhsMax =  -5.31314992002763E-11  1.02187238331082E-01
 cg2d: Sum(rhs),rhsMax =  -5.18241005664777E-11  1.04828375865346E-01
 cg2d: Sum(rhs),rhsMax =  -5.06117370235870E-11  1.07439409491616E-01
 cg2d: Sum(rhs),rhsMax =  -4.94859708766171E-11  1.10018877383137E-01
 cg2d: Sum(rhs),rhsMax =  -4.84877693551766E-11  1.12565308721682E-01
 cg2d: Sum(rhs),rhsMax =  -4.74346117940172E-11  1.15077225358568E-01
 cg2d: Sum(rhs),rhsMax =  -4.64158711466212E-11  1.17553143691706E-01
 cg2d: Sum(rhs),rhsMax =  -4.55598891946352E-11  1.19991576756634E-01
 cg2d: Sum(rhs),rhsMax =  -4.47377690449002E-11  1.22391036519738E-01
 cg2d: Sum(rhs),rhsMax =  -4.39905889493275E-11  1.24750036356658E-01
 cg2d: Sum(rhs),rhsMax =  -4.32791580351477E-11  1.27067093681243E-01
 cg2d: Sum(rhs),rhsMax =  -4.25832702433127E-11  1.29340732685053E-01
 cg2d: Sum(rhs),rhsMax =  -4.19081436220381E-11  1.31569487141687E-01
 cg2d: Sum(rhs),rhsMax =  -4.13520329090034E-11  1.33751903228066E-01
 cg2d: Sum(rhs),rhsMax =  -4.07485156728171E-11  1.35886542309855E-01
 cg2d: Sum(rhs),rhsMax =  -4.02026190116089E-11  1.37971983645945E-01
 cg2d: Sum(rhs),rhsMax =  -3.96699340043938E-11  1.40006826978340E-01
 cg2d: Sum(rhs),rhsMax =  -3.91574550562268E-11  1.41989694981902E-01
 cg2d: Sum(rhs),rhsMax =  -3.86877196945079E-11  1.43919235544773E-01
 cg2d: Sum(rhs),rhsMax =  -3.82291975853377E-11  1.45794123884612E-01
 cg2d: Sum(rhs),rhsMax =  -3.78066467021654E-11  1.47613064510290E-01
 cg2d: Sum(rhs),rhsMax =  -3.74256181601140E-11  1.49374793045490E-01
 cg2d: Sum(rhs),rhsMax =  -3.70474761979267E-11  1.51078077939734E-01
 cg2d: Sum(rhs),rhsMax =  -3.66693342357394E-11  1.52721722095394E-01
 cg2d: Sum(rhs),rhsMax =  -3.63511443168818E-11  1.54304564436725E-01
 cg2d: Sum(rhs),rhsMax =  -3.60984575564771E-11  1.55825481447583E-01
 cg2d: Sum(rhs),rhsMax =  -3.57959217822668E-11  1.57283388689669E-01
 cg2d: Sum(rhs),rhsMax =  -3.55785401140452E-11  1.58677242303925E-01
 cg2d: Sum(rhs),rhsMax =  -3.53127527219499E-11  1.60006040492975E-01
 cg2d: Sum(rhs),rhsMax =  -3.50867113141362E-11  1.61268824969367E-01
 cg2d: Sum(rhs),rhsMax =  -3.48732154265008E-11  1.62464682356923E-01
 cg2d: Sum(rhs),rhsMax =  -3.47066819728070E-11  1.63592745494075E-01
 cg2d: Sum(rhs),rhsMax =  -3.45005135571341E-11  1.64652194635821E-01
 cg2d: Sum(rhs),rhsMax =  -3.43345352149527E-11  1.65642258529826E-01
 cg2d: Sum(rhs),rhsMax =  -3.41683348281663E-11  1.66562215348328E-01
 cg2d: Sum(rhs),rhsMax =  -3.40492078976240E-11  1.67411393467247E-01
 cg2d: Sum(rhs),rhsMax =  -3.39088757073114E-11  1.68189172094425E-01
 cg2d: Sum(rhs),rhsMax =  -3.37684324946963E-11  1.68894981766413E-01
 cg2d: Sum(rhs),rhsMax =  -3.36695116232022E-11  1.69528304717845E-01
 cg2d: Sum(rhs),rhsMax =  -3.35863559186578E-11  1.70088675157066E-01
 cg2d: Sum(rhs),rhsMax =  -3.34906546939351E-11  1.70575679488941E-01
 cg2d: Sum(rhs),rhsMax =  -3.34201555318714E-11  1.70988956515099E-01
 cg2d: Sum(rhs),rhsMax =  -3.33477689906658E-11  1.71328197638923E-01
 cg2d: Sum(rhs),rhsMax =  -3.32854854789844E-11  1.71593147097653E-01
 cg2d: Sum(rhs),rhsMax =  -3.33182370582108E-11  1.71783602236982E-01
 cg2d: Sum(rhs),rhsMax =  -3.32734950703184E-11  1.71899413825524E-01
 cg2d: Sum(rhs),rhsMax =  -3.32949223746937E-11  1.71940486415119E-01
 cg2d: Sum(rhs),rhsMax =  -3.33097993632236E-11  1.71906778768604E-01
 cg2d: Sum(rhs),rhsMax =  -3.33569838417702E-11  1.71798304288209E-01
 cg2d: Sum(rhs),rhsMax =  -3.34103855692547E-11  1.71615131424400E-01
 cg2d: Sum(rhs),rhsMax =  -3.34555716463569E-11  1.71357384037202E-01
 cg2d: Sum(rhs),rhsMax =  -3.34633432075293E-11  1.71025241676977E-01
 cg2d: Sum(rhs),rhsMax =  -3.34255956246921E-11  1.70618939761036E-01
 cg2d: Sum(rhs),rhsMax =  -3.34611227614801E-11  1.70138769646146E-01
 cg2d: Sum(rhs),rhsMax =  -3.35158567565941E-11  1.69585078496128E-01
 cg2d: Sum(rhs),rhsMax =  -3.36113359367118E-11  1.68958268964781E-01
 cg2d: Sum(rhs),rhsMax =  -3.37070371614345E-11  1.68258798703296E-01
 cg2d: Sum(rhs),rhsMax =  -3.38096217689099E-11  1.67487179670969E-01
 cg2d: Sum(rhs),rhsMax =  -3.39340777699704E-11  1.66643977246580E-01
 cg2d: Sum(rhs),rhsMax =  -3.40886208149982E-11  1.65729809201651E-01
 cg2d: Sum(rhs),rhsMax =  -3.42058603663986E-11  1.64745344459803E-01
 cg2d: Sum(rhs),rhsMax =  -3.43711725747653E-11  1.63691301685145E-01
 cg2d: Sum(rhs),rhsMax =  -3.45432571435822E-11  1.62568447724677E-01
 cg2d: Sum(rhs),rhsMax =  -3.47227802066641E-11  1.61377595929431E-01
 cg2d: Sum(rhs),rhsMax =  -3.48953088646908E-11  1.60119604378279E-01
 cg2d: Sum(rhs),rhsMax =  -3.51058071501598E-11  1.58795374027771E-01
 cg2d: Sum(rhs),rhsMax =  -3.53732598767920E-11  1.57405846811199E-01
 cg2d: Sum(rhs),rhsMax =  -3.55858675860077E-11  1.55952003746809E-01
 cg2d: Sum(rhs),rhsMax =  -3.58485463536340E-11  1.54434862979529E-01
 cg2d: Sum(rhs),rhsMax =  -3.61796148595772E-11  1.52855477839255E-01
 cg2d: Sum(rhs),rhsMax =  -3.65271146662849E-11  1.51214934960215E-01
 cg2d: Sum(rhs),rhsMax =  -3.69158037472062E-11  1.49514352434211E-01
 cg2d: Sum(rhs),rhsMax =  -3.72756270294872E-11  1.47754878105526E-01
 cg2d: Sum(rhs),rhsMax =  -3.76741970953276E-11  1.45937687939437E-01
 cg2d: Sum(rhs),rhsMax =  -3.81250586656279E-11  1.44063984474736E-01
 cg2d: Sum(rhs),rhsMax =  -3.85550480430652E-11  1.42134995371530E-01
 cg2d: Sum(rhs),rhsMax =  -3.90639742775534E-11  1.40151972058031E-01
 cg2d: Sum(rhs),rhsMax =  -3.95666832631036E-11  1.38116188476529E-01
 cg2d: Sum(rhs),rhsMax =  -4.01273458905393E-11  1.36028939909375E-01
 cg2d: Sum(rhs),rhsMax =  -4.06685796150441E-11  1.33891541882268E-01
 cg2d: Sum(rhs),rhsMax =  -4.12683220929466E-11  1.31705329118871E-01
 cg2d: Sum(rhs),rhsMax =  -4.18887147191072E-11  1.29471654509814E-01
 cg2d: Sum(rhs),rhsMax =  -4.25763868605600E-11  1.27191888067659E-01
 cg2d: Sum(rhs),rhsMax =  -4.32605062883340E-11  1.24867415840602E-01
 cg2d: Sum(rhs),rhsMax =  -4.40111280752831E-11  1.22499638760078E-01
 cg2d: Sum(rhs),rhsMax =  -4.48243664408210E-11  1.20089971412087E-01
 cg2d: Sum(rhs),rhsMax =  -4.56424897876673E-11  1.17639840679431E-01
 cg2d: Sum(rhs),rhsMax =  -4.65599780952175E-11  1.15150684247372E-01
 cg2d: Sum(rhs),rhsMax =  -4.74823513840761E-11  1.12623949088631E-01
 cg2d: Sum(rhs),rhsMax =  -4.84662310284989E-11  1.10061089823937E-01
 cg2d: Sum(rhs),rhsMax =  -4.95831153912718E-11  1.07463566984134E-01
 cg2d: Sum(rhs),rhsMax =  -5.07980324471191E-11  1.04832845207098E-01
 cg2d: Sum(rhs),rhsMax =  -5.20516962865258E-11  1.02170391414957E-01
 cg2d: Sum(rhs),rhsMax =  -5.34314814615300E-11  9.94776730054533E-02
 cg2d: Sum(rhs),rhsMax =  -5.48894263374677E-11  9.67561561170947E-02
 cg2d: Sum(rhs),rhsMax =  -5.64325253193942E-11  9.40073040084651E-02
 cg2d: Sum(rhs),rhsMax =  -5.80951953210729E-11  9.12325755907334E-02
 cg2d: Sum(rhs),rhsMax =  -5.98652238892328E-11  8.84334241504290E-02
 cg2d: Sum(rhs),rhsMax =  -6.18060047585800E-11  8.56112962960391E-02
 cg2d: Sum(rhs),rhsMax =  -6.38540331721060E-11  8.27676311572987E-02
 cg2d: Sum(rhs),rhsMax =  -6.60518306716540E-11  7.99038598516297E-02
 cg2d: Sum(rhs),rhsMax =  -6.84772238912501E-11  7.70214052247185E-02
 cg2d: Sum(rhs),rhsMax =  -7.10732583897311E-11  7.41216818798999E-02
 cg2d: Sum(rhs),rhsMax =  -7.39175387565183E-11  7.12060964615297E-02
 cg2d: Sum(rhs),rhsMax =  -7.70135066829880E-11  6.82760481782797E-02
 cg2d: Sum(rhs),rhsMax =  -8.04003530419095E-11  6.53329294908025E-02
 cg2d: Sum(rhs),rhsMax =  -8.41227087988727E-11  6.23781269149219E-02
 cg2d: Sum(rhs),rhsMax =  -8.82196538043445E-11  5.94130219108998E-02
 cg2d: Sum(rhs),rhsMax =  -9.27727894506347E-11  5.64389917814933E-02
 cg2d: Sum(rhs),rhsMax =  -9.79245573518028E-11  5.34574104990109E-02
 cg2d: Sum(rhs),rhsMax =  -1.03678066132318E-10  5.04696493873258E-02
 cg2d: Sum(rhs),rhsMax =  -1.10171649581048E-10  4.74770775938860E-02
 cg2d: Sum(rhs),rhsMax =  -1.17520215781042E-10  4.44810622972286E-02
 cg2d: Sum(rhs),rhsMax =  -1.25959687125032E-10  4.14829686134811E-02
 cg2d: Sum(rhs),rhsMax =  -1.35712219240247E-10  3.84841591781951E-02
 cg2d: Sum(rhs),rhsMax =  -1.47171608233521E-10  3.54859933933340E-02
 cg2d: Sum(rhs),rhsMax =  -1.60661595138833E-10  3.24898263725452E-02
 cg2d: Sum(rhs),rhsMax =  -1.76948677932387E-10  2.94970075912317E-02
 cg2d: Sum(rhs),rhsMax =  -1.91522464554339E-10  2.72350066430041E-02
 cg2d: Sum(rhs),rhsMax =  -1.90500726304776E-10  2.73689645219879E-02
 cg2d: Sum(rhs),rhsMax =  -1.89513571502431E-10  2.75028583516458E-02
 cg2d: Sum(rhs),rhsMax =  -1.88532411904418E-10  2.76364923635756E-02
 cg2d: Sum(rhs),rhsMax =  -1.87537929630111E-10  2.77691972552508E-02
 cg2d: Sum(rhs),rhsMax =  -1.86605356167213E-10  2.79002428753416E-02
 cg2d: Sum(rhs),rhsMax =  -1.85690015127148E-10  2.80292336574248E-02
 cg2d: Sum(rhs),rhsMax =  -1.84768353395093E-10  2.81560133961424E-02
 cg2d: Sum(rhs),rhsMax =  -1.83908388518006E-10  2.82807434881874E-02
 cg2d: Sum(rhs),rhsMax =  -1.83083104232651E-10  2.84032647533341E-02
 cg2d: Sum(rhs),rhsMax =  -1.82258985681472E-10  2.85233794253885E-02
 cg2d: Sum(rhs),rhsMax =  -1.81465953374982E-10  2.86409191502788E-02
 cg2d: Sum(rhs),rhsMax =  -1.80633286106513E-10  2.87557540973873E-02
 cg2d: Sum(rhs),rhsMax =  -1.79871006977805E-10  2.88675904876532E-02
 cg2d: Sum(rhs),rhsMax =  -1.79116610432573E-10  2.89761035404201E-02
 cg2d: Sum(rhs),rhsMax =  -1.78392300931307E-10  2.90815018266356E-02
 cg2d: Sum(rhs),rhsMax =  -1.77716508176218E-10  2.91837633715631E-02
 cg2d: Sum(rhs),rhsMax =  -1.77035830439820E-10  2.92828891831987E-02
 cg2d: Sum(rhs),rhsMax =  -1.75562453463840E-10  2.95236746737193E-02
 cg2d: Sum(rhs),rhsMax =  -1.64955715753479E-10  3.14165854451736E-02
 cg2d: Sum(rhs),rhsMax =  -1.55389145994889E-10  3.33408811373752E-02
 cg2d: Sum(rhs),rhsMax =  -1.45273237883714E-10  3.56495493066526E-02
 cg2d: Sum(rhs),rhsMax =  -1.36430200470272E-10  3.79429272998661E-02
 cg2d: Sum(rhs),rhsMax =  -1.28706156843350E-10  4.02199410248209E-02
 cg2d: Sum(rhs),rhsMax =  -1.21833654276315E-10  4.24795075561478E-02
 cg2d: Sum(rhs),rhsMax =  -1.15619069873674E-10  4.47205343345508E-02
 cg2d: Sum(rhs),rhsMax =  -1.10014442000761E-10  4.69419185580222E-02
 cg2d: Sum(rhs),rhsMax =  -1.05000452776949E-10  4.91425468724334E-02
 cg2d: Sum(rhs),rhsMax =  -1.00434438543573E-10  5.13212954655465E-02
 cg2d: Sum(rhs),rhsMax =  -9.62782076285862E-11  5.34770306510977E-02
 cg2d: Sum(rhs),rhsMax =  -9.25753917968564E-11  5.56086099972925E-02
 cg2d: Sum(rhs),rhsMax =  -8.90912899009777E-11  5.77148840083867E-02
 cg2d: Sum(rhs),rhsMax =  -8.59294857491477E-11  5.97946983129415E-02
 cg2d: Sum(rhs),rhsMax =  -8.29993851425570E-11  6.18468962542334E-02
 cg2d: Sum(rhs),rhsMax =  -8.03095367984952E-11  6.38703217254060E-02
 cg2d: Sum(rhs),rhsMax =  -7.77814479491212E-11  6.58807323289436E-02
 cg2d: Sum(rhs),rhsMax =  -7.53380691165262E-11  6.79438168740606E-02
 cg2d: Sum(rhs),rhsMax =  -7.30320248720773E-11  6.99639462209888E-02
 cg2d: Sum(rhs),rhsMax =  -7.10055347852290E-11  7.19403872810642E-02
 cg2d: Sum(rhs),rhsMax =  -6.90006940473609E-11  7.38724258519144E-02
 cg2d: Sum(rhs),rhsMax =  -6.71747102387599E-11  7.57593662937930E-02
 cg2d: Sum(rhs),rhsMax =  -6.54672982491888E-11  7.76005310723821E-02
 cg2d: Sum(rhs),rhsMax =  -6.38917807549433E-11  7.93952602157232E-02
 cg2d: Sum(rhs),rhsMax =  -6.24179596897534E-11  8.11429107383830E-02
 cg2d: Sum(rhs),rhsMax =  -6.10560491054457E-11  8.28428560919651E-02
 cg2d: Sum(rhs),rhsMax =  -5.97940585933543E-11  8.44944856937302E-02
 cg2d: Sum(rhs),rhsMax =  -5.86187764994861E-11  8.60972045785631E-02
 cg2d: Sum(rhs),rhsMax =  -5.74958969323802E-11  8.76504332280795E-02
 cg2d: Sum(rhs),rhsMax =  -5.64980284778471E-11  8.91536076016831E-02
 cg2d: Sum(rhs),rhsMax =  -5.55054890938322E-11  9.06061793874705E-02
 cg2d: Sum(rhs),rhsMax =  -5.46065415107932E-11  9.20076164726491E-02
 cg2d: Sum(rhs),rhsMax =  -5.37920818999282E-11  9.33574036322161E-02
 cg2d: Sum(rhs),rhsMax =  -5.29719601516376E-11  9.46550433988934E-02
 cg2d: Sum(rhs),rhsMax =  -5.22718535123090E-11  9.59000570954928E-02
 cg2d: Sum(rhs),rhsMax =  -5.15778530996158E-11  9.70919859766495E-02
 cg2d: Sum(rhs),rhsMax =  -5.09385866820367E-11  9.82303924376702E-02
 cg2d: Sum(rhs),rhsMax =  -5.03485031444484E-11  9.93148612408511E-02
 cg2d: Sum(rhs),rhsMax =  -4.98100449775052E-11  1.00345000705625E-01
 cg2d: Sum(rhs),rhsMax =  -4.93036722559737E-11  1.01320443813890E-01
 cg2d: Sum(rhs),rhsMax =  -4.88302731582735E-11  1.02240849188055E-01
 cg2d: Sum(rhs),rhsMax =  -4.84084994312184E-11  1.03105901911753E-01
 cg2d: Sum(rhs),rhsMax =  -4.79859485480461E-11  1.03915314175524E-01
 cg2d: Sum(rhs),rhsMax =  -4.75888217721376E-11  1.04668825742847E-01
 cg2d: Sum(rhs),rhsMax =  -4.71972461113523E-11  1.05366204251644E-01
 cg2d: Sum(rhs),rhsMax =  -4.68759475680258E-11  1.06007245345760E-01
 cg2d: Sum(rhs),rhsMax =  -4.65917304737218E-11  1.06591772686706E-01
 cg2d: Sum(rhs),rhsMax =  -4.64071003847266E-11  1.07129800948966E-01
 cg2d: Sum(rhs),rhsMax =  -4.62180294036330E-11  1.07647290549548E-01
 cg2d: Sum(rhs),rhsMax =  -4.60487203923776E-11  1.08107426978483E-01
 cg2d: Sum(rhs),rhsMax =  -4.58955096149793E-11  1.08509934034418E-01
 cg2d: Sum(rhs),rhsMax =  -4.58089122190586E-11  1.08854571523947E-01
 cg2d: Sum(rhs),rhsMax =  -4.56999993403429E-11  1.09141135024727E-01
 cg2d: Sum(rhs),rhsMax =  -4.56421567207599E-11  1.09369455862412E-01
 cg2d: Sum(rhs),rhsMax =  -4.55659954212706E-11  1.09539401294859E-01
 cg2d: Sum(rhs),rhsMax =  -4.55361304219082E-11  1.09650874859855E-01
 cg2d: Sum(rhs),rhsMax =  -4.55370186003279E-11  1.09703816858129E-01
 cg2d: Sum(rhs),rhsMax =  -4.55344650873712E-11  1.09698204915278E-01
 cg2d: Sum(rhs),rhsMax =  -4.55384618902599E-11  1.09634054558732E-01
 cg2d: Sum(rhs),rhsMax =  -4.56017446026635E-11  1.09511419731182E-01
 cg2d: Sum(rhs),rhsMax =  -4.57847093571218E-11  1.09330393167953E-01
 cg2d: Sum(rhs),rhsMax =  -4.58900695221587E-11  1.09091106581713E-01
 cg2d: Sum(rhs),rhsMax =  -4.60584903549943E-11  1.08793730609648E-01
 cg2d: Sum(rhs),rhsMax =  -4.62712090865125E-11  1.08438474483696E-01
 cg2d: Sum(rhs),rhsMax =  -4.64793759036297E-11  1.08025585431701E-01
 cg2d: Sum(rhs),rhsMax =  -4.67449412511201E-11  1.07555347805201E-01
 cg2d: Sum(rhs),rhsMax =  -4.70248284756281E-11  1.07028082035697E-01
 cg2d: Sum(rhs),rhsMax =  -4.73440175952078E-11  1.06444143503396E-01
 cg2d: Sum(rhs),rhsMax =  -4.77229367135124E-11  1.05803921350576E-01
 cg2d: Sum(rhs),rhsMax =  -4.81128470397607E-11  1.05107837335988E-01
 cg2d: Sum(rhs),rhsMax =  -4.85432805064079E-11  1.04356344820028E-01
 cg2d: Sum(rhs),rhsMax =  -4.89950302551279E-11  1.03549927967775E-01
 cg2d: Sum(rhs),rhsMax =  -4.94749796686733E-11  1.02689101266661E-01
 cg2d: Sum(rhs),rhsMax =  -4.99623675764838E-11  1.01774409499375E-01
 cg2d: Sum(rhs),rhsMax =  -5.04666308742685E-11  1.00806428021807E-01
 cg2d: Sum(rhs),rhsMax =  -5.10292919031485E-11  9.97857632617557E-02
 cg2d: Sum(rhs),rhsMax =  -5.16092724112127E-11  9.87130533109210E-02
 cg2d: Sum(rhs),rhsMax =  -5.22792920065740E-11  9.75889684623341E-02
 cg2d: Sum(rhs),rhsMax =  -5.29329913234733E-11  9.64142115477926E-02
 cg2d: Sum(rhs),rhsMax =  -5.36538591333624E-11  9.51895179703022E-02
 cg2d: Sum(rhs),rhsMax =  -5.44704281679742E-11  9.39156553257848E-02
 cg2d: Sum(rhs),rhsMax =  -5.52858869795614E-11  9.25934225506353E-02
 cg2d: Sum(rhs),rhsMax =  -5.61627411244103E-11  9.12236486746515E-02
 cg2d: Sum(rhs),rhsMax =  -5.71289682227416E-11  8.98071912132748E-02
 cg2d: Sum(rhs),rhsMax =  -5.81608095018282E-11  8.83449343675590E-02
 cg2d: Sum(rhs),rhsMax =  -5.92328408544063E-11  8.68377870910306E-02
 cg2d: Sum(rhs),rhsMax =  -6.03846972424549E-11  8.52866811589663E-02
 cg2d: Sum(rhs),rhsMax =  -6.15645312507240E-11  8.36925693663785E-02
 cg2d: Sum(rhs),rhsMax =  -6.28684881931463E-11  8.20564239534156E-02
 cg2d: Sum(rhs),rhsMax =  -6.42501607472923E-11  8.03792353163025E-02
 cg2d: Sum(rhs),rhsMax =  -6.56987797498232E-11  7.86620110166834E-02
 cg2d: Sum(rhs),rhsMax =  -6.72150113345538E-11  7.69057750592971E-02
 cg2d: Sum(rhs),rhsMax =  -6.88514800728512E-11  7.51115673727183E-02
 cg2d: Sum(rhs),rhsMax =  -7.06186220611471E-11  7.32804434047767E-02
 cg2d: Sum(rhs),rhsMax =  -7.25275395296876E-11  7.14134737356709E-02
 cg2d: Sum(rhs),rhsMax =  -7.44982964206997E-11  6.95117436077728E-02
 cg2d: Sum(rhs),rhsMax =  -7.66906538274270E-11  6.75763523244048E-02
 cg2d: Sum(rhs),rhsMax =  -7.90554288698786E-11  6.56084124648022E-02
 cg2d: Sum(rhs),rhsMax =  -8.16102740941460E-11  6.36090488745015E-02
 cg2d: Sum(rhs),rhsMax =  -8.43450864707052E-11  6.15793974365276E-02
 cg2d: Sum(rhs),rhsMax =  -8.73281447155705E-11  5.95206036399810E-02
 cg2d: Sum(rhs),rhsMax =  -9.06098529540600E-11  5.74338209705621E-02
 cg2d: Sum(rhs),rhsMax =  -9.40511002411881E-11  5.53202091553605E-02
 cg2d: Sum(rhs),rhsMax =  -9.79232250841733E-11  5.31809323067162E-02
 cg2d: Sum(rhs),rhsMax =  -1.02178598915259E-10  5.10171570285458E-02
 cg2d: Sum(rhs),rhsMax =  -1.06813113909254E-10  4.88300505699039E-02
 cg2d: Sum(rhs),rhsMax =  -1.11976650174483E-10  4.66207791228840E-02
 cg2d: Sum(rhs),rhsMax =  -1.17676091093699E-10  4.43905063484421E-02
 cg2d: Sum(rhs),rhsMax =  -1.24083188168811E-10  4.21403922501828E-02
 cg2d: Sum(rhs),rhsMax =  -1.31250121881976E-10  3.98715924833135E-02
 cg2d: Sum(rhs),rhsMax =  -1.39269928922658E-10  3.75852581073874E-02
 cg2d: Sum(rhs),rhsMax =  -1.48368872743276E-10  3.52825357000941E-02
 cg2d: Sum(rhs),rhsMax =  -1.58875579359119E-10  3.29645676861358E-02
 cg2d: Sum(rhs),rhsMax =  -1.67888924984538E-10  3.12073069790117E-02
 cg2d: Sum(rhs),rhsMax =  -1.69624869705842E-10  3.08963523805235E-02
 cg2d: Sum(rhs),rhsMax =  -1.71380798441589E-10  3.05827447627036E-02
 cg2d: Sum(rhs),rhsMax =  -1.73234093736596E-10  3.02665021359044E-02
 cg2d: Sum(rhs),rhsMax =  -1.75148451297957E-10  2.99476507022218E-02
 cg2d: Sum(rhs),rhsMax =  -1.77126424638629E-10  2.96263282525460E-02
 cg2d: Sum(rhs),rhsMax =  -1.79153691881595E-10  2.93028536492458E-02
 cg2d: Sum(rhs),rhsMax =  -1.81161696755083E-10  2.89775242909330E-02
 cg2d: Sum(rhs),rhsMax =  -1.83303483503039E-10  2.86504589235705E-02
 cg2d: Sum(rhs),rhsMax =  -1.85491622062273E-10  2.83219531098810E-02
 cg2d: Sum(rhs),rhsMax =  -1.87709042753781E-10  2.79922006848610E-02
 cg2d: Sum(rhs),rhsMax =  -1.90026938629018E-10  2.76614464352098E-02
 cg2d: Sum(rhs),rhsMax =  -1.92396182319143E-10  2.73298611720793E-02
 cg2d: Sum(rhs),rhsMax =  -1.94849247847628E-10  2.69974722156034E-02
 cg2d: Sum(rhs),rhsMax =  -1.97325017436967E-10  2.66644838637648E-02
 cg2d: Sum(rhs),rhsMax =  -1.99893268604256E-10  2.63313360468095E-02
 cg2d: Sum(rhs),rhsMax =  -2.01050731618579E-10  2.61885079314444E-02
 cg2d: Sum(rhs),rhsMax =  -2.01809291500155E-10  2.61026058647105E-02
 cg2d: Sum(rhs),rhsMax =  -2.02544037097852E-10  2.60160702327870E-02
 cg2d: Sum(rhs),rhsMax =  -2.03283612165706E-10  2.59293030412431E-02
 cg2d: Sum(rhs),rhsMax =  -2.04032679640420E-10  2.58427818601683E-02
 cg2d: Sum(rhs),rhsMax =  -1.86911153221558E-10  2.82152340773246E-02
 cg2d: Sum(rhs),rhsMax =  -1.71748726351950E-10  3.07165989219261E-02
 cg2d: Sum(rhs),rhsMax =  -1.58717483600412E-10  3.32487306029225E-02
 cg2d: Sum(rhs),rhsMax =  -1.47327816613085E-10  3.58332181025763E-02
 cg2d: Sum(rhs),rhsMax =  -1.37369116082198E-10  3.84414156262916E-02
 cg2d: Sum(rhs),rhsMax =  -1.28558719225680E-10  4.10995985708642E-02
 cg2d: Sum(rhs),rhsMax =  -1.20543464099399E-10  4.38381514883179E-02
 cg2d: Sum(rhs),rhsMax =  -1.13421383396428E-10  4.66133290872967E-02
 cg2d: Sum(rhs),rhsMax =  -1.07067243959591E-10  4.93833223882421E-02
 cg2d: Sum(rhs),rhsMax =  -1.01409769470706E-10  5.21469385916592E-02
 cg2d: Sum(rhs),rhsMax =  -9.63575885748469E-11  5.49029695780662E-02
 cg2d: Sum(rhs),rhsMax =  -9.18541909200599E-11  5.76501921138565E-02
 cg2d: Sum(rhs),rhsMax =  -8.77944383859131E-11  6.03873683577917E-02
 cg2d: Sum(rhs),rhsMax =  -8.40922886879980E-11  6.31132466467607E-02
 cg2d: Sum(rhs),rhsMax =  -8.06967825894844E-11  6.58265625238150E-02
 cg2d: Sum(rhs),rhsMax =  -7.75887132320463E-11  6.85260399602568E-02
 cg2d: Sum(rhs),rhsMax =  -7.47318873450808E-11  7.12103927176689E-02
 cg2d: Sum(rhs),rhsMax =  -7.20631332384869E-11  7.38783257953190E-02
 cg2d: Sum(rhs),rhsMax =  -6.96573909664266E-11  7.65285369129345E-02
 cg2d: Sum(rhs),rhsMax =  -6.74017508472957E-11  7.91597179875708E-02
 cg2d: Sum(rhs),rhsMax =  -6.52898846098537E-11  8.17705565749911E-02
 cg2d: Sum(rhs),rhsMax =  -6.33290087037608E-11  8.43597372596280E-02
 cg2d: Sum(rhs),rhsMax =  -6.15415496341143E-11  8.69259429894658E-02
 cg2d: Sum(rhs),rhsMax =  -5.98139315854951E-11  8.94678563632777E-02
 cg2d: Sum(rhs),rhsMax =  -5.82131010062881E-11  9.19841608884621E-02
 cg2d: Sum(rhs),rhsMax =  -5.67403901641228E-11  9.44735422325272E-02
 cg2d: Sum(rhs),rhsMax =  -5.53547208070881E-11  9.69346894916018E-02
 cg2d: Sum(rhs),rhsMax =  -5.40482103517093E-11  9.93662964958994E-02
 cg2d: Sum(rhs),rhsMax =  -5.27741184086494E-11  1.01767063165457E-01
 cg2d: Sum(rhs),rhsMax =  -5.16070519651635E-11  1.04135696921475E-01
 cg2d: Sum(rhs),rhsMax =  -5.05980812803841E-11  1.06470914148790E-01
 cg2d: Sum(rhs),rhsMax =  -4.95958829560550E-11  1.08771441695049E-01
 cg2d: Sum(rhs),rhsMax =  -4.86981566183431E-11  1.11036018383704E-01
 cg2d: Sum(rhs),rhsMax =  -4.78276307447345E-11  1.13263396511923E-01
 cg2d: Sum(rhs),rhsMax =  -4.70198324720172E-11  1.15452343301198E-01
 cg2d: Sum(rhs),rhsMax =  -4.62608840123835E-11  1.17601642270741E-01
 cg2d: Sum(rhs),rhsMax =  -4.54991599951882E-11  1.19710094503792E-01
 cg2d: Sum(rhs),rhsMax =  -4.48117098983403E-11  1.21776519786975E-01
 cg2d: Sum(rhs),rhsMax =  -4.41351399871337E-11  1.23799757605115E-01
 cg2d: Sum(rhs),rhsMax =  -4.35249614127997E-11  1.25778667989495E-01
 cg2d: Sum(rhs),rhsMax =  -4.29430935255937E-11  1.27712132225692E-01
 cg2d: Sum(rhs),rhsMax =  -4.23623358614122E-11  1.29599053436940E-01
 cg2d: Sum(rhs),rhsMax =  -4.18339807239931E-11  1.31438357067476E-01
 cg2d: Sum(rhs),rhsMax =  -4.13165057722154E-11  1.33228991296922E-01
 cg2d: Sum(rhs),rhsMax =  -4.08574285515328E-11  1.34969927418976E-01
 cg2d: Sum(rhs),rhsMax =  -4.04054567582079E-11  1.36660160227038E-01
 cg2d: Sum(rhs),rhsMax =  -3.99819066743134E-11  1.38298708437063E-01
 cg2d: Sum(rhs),rhsMax =  -3.95505850292466E-11  1.39884615179457E-01
 cg2d: Sum(rhs),rhsMax =  -3.91831012080956E-11  1.41416948585925E-01
 cg2d: Sum(rhs),rhsMax =  -3.88091780934019E-11  1.42894802489762E-01
 cg2d: Sum(rhs),rhsMax =  -3.84456910751396E-11  1.44317297248298E-01
 cg2d: Sum(rhs),rhsMax =  -3.81248366210230E-11  1.45683580694728E-01
 cg2d: Sum(rhs),rhsMax =  -3.78804765333030E-11  1.46992829208079E-01
 cg2d: Sum(rhs),rhsMax =  -3.76326747542066E-11  1.48244248889919E-01
 cg2d: Sum(rhs),rhsMax =  -3.73998609859427E-11  1.49437076829386E-01
 cg2d: Sum(rhs),rhsMax =  -3.71878083882393E-11  1.50570582430895E-01
 cg2d: Sum(rhs),rhsMax =  -3.69896335783437E-11  1.51644068769975E-01
 cg2d: Sum(rhs),rhsMax =  -3.68206576339958E-11  1.52656873962330E-01
 cg2d: Sum(rhs),rhsMax =  -3.66453534184075E-11  1.53608372518170E-01
 cg2d: Sum(rhs),rhsMax =  -3.64919205964043E-11  1.54497976654735E-01
 cg2d: Sum(rhs),rhsMax =  -3.63497010269498E-11  1.55325137542246E-01
 cg2d: Sum(rhs),rhsMax =  -3.61914942459407E-11  1.56089346461633E-01
 cg2d: Sum(rhs),rhsMax =  -3.60648177988310E-11  1.56790135856248E-01
 cg2d: Sum(rhs),rhsMax =  -3.59644536374049E-11  1.57427080270555E-01
 cg2d: Sum(rhs),rhsMax =  -3.58979512782298E-11  1.57999797135885E-01
 cg2d: Sum(rhs),rhsMax =  -3.58677532119600E-11  1.58507947416611E-01
 cg2d: Sum(rhs),rhsMax =  -3.58050256110687E-11  1.58951236107928E-01
 cg2d: Sum(rhs),rhsMax =  -3.57753826563112E-11  1.59329412577468E-01
 cg2d: Sum(rhs),rhsMax =  -3.57044394050376E-11  1.59642270745170E-01
 cg2d: Sum(rhs),rhsMax =  -3.56928930855815E-11  1.59889649099731E-01
 cg2d: Sum(rhs),rhsMax =  -3.56497054099236E-11  1.60071430548494E-01
 cg2d: Sum(rhs),rhsMax =  -3.56800144984959E-11  1.60187542100731E-01
 cg2d: Sum(rhs),rhsMax =  -3.56766838294220E-11  1.60237954440996E-01
 cg2d: Sum(rhs),rhsMax =  -3.57107676762780E-11  1.60222681356332E-01
 cg2d: Sum(rhs),rhsMax =  -3.57588403332443E-11  1.60141779035696E-01
 cg2d: Sum(rhs),rhsMax =  -3.57730511879595E-11  1.59995345266579E-01
 cg2d: Sum(rhs),rhsMax =  -3.57579521548246E-11  1.59783518551199E-01
 cg2d: Sum(rhs),rhsMax =  -3.58008067635751E-11  1.59506477170070E-01
 cg2d: Sum(rhs),rhsMax =  -3.58950646983658E-11  1.59164438226824E-01
 cg2d: Sum(rhs),rhsMax =  -3.59676732841763E-11  1.58757656676389E-01
 cg2d: Sum(rhs),rhsMax =  -3.60320662196045E-11  1.58286424333133E-01
 cg2d: Sum(rhs),rhsMax =  -3.61412011429252E-11  1.57751068925982E-01
 cg2d: Sum(rhs),rhsMax =  -3.62618823857019E-11  1.57151953211602E-01
 cg2d: Sum(rhs),rhsMax =  -3.63432617334070E-11  1.56489474152926E-01
 cg2d: Sum(rhs),rhsMax =  -3.65127927892672E-11  1.55764062158523E-01
 cg2d: Sum(rhs),rhsMax =  -3.66749963731650E-11  1.54976180401521E-01
 cg2d: Sum(rhs),rhsMax =  -3.68124419836136E-11  1.54126324241145E-01
 cg2d: Sum(rhs),rhsMax =  -3.69532182631360E-11  1.53215020718264E-01
 cg2d: Sum(rhs),rhsMax =  -3.71376263075263E-11  1.52242828128131E-01
 cg2d: Sum(rhs),rhsMax =  -3.73271413778298E-11  1.51210335672360E-01
 cg2d: Sum(rhs),rhsMax =  -3.75393049978356E-11  1.50118163190200E-01
 cg2d: Sum(rhs),rhsMax =  -3.78052034122334E-11  1.48966960966036E-01
 cg2d: Sum(rhs),rhsMax =  -3.80324660653741E-11  1.47757409606550E-01
 cg2d: Sum(rhs),rhsMax =  -3.83364451295165E-11  1.46490219977508E-01
 cg2d: Sum(rhs),rhsMax =  -3.85602660912809E-11  1.45166133212612E-01
 cg2d: Sum(rhs),rhsMax =  -3.88897802849897E-11  1.43785920717212E-01
 cg2d: Sum(rhs),rhsMax =  -3.92478272104313E-11  1.42350384145569E-01
 cg2d: Sum(rhs),rhsMax =  -3.96016552883793E-11  1.40860355416911E-01
 cg2d: Sum(rhs),rhsMax =  -3.99903443693006E-11  1.39316696710095E-01
 cg2d: Sum(rhs),rhsMax =  -4.03922451042149E-11  1.37720300380384E-01
 cg2d: Sum(rhs),rhsMax =  -4.08308942212443E-11  1.36072088782858E-01
 cg2d: Sum(rhs),rhsMax =  -4.12577749742127E-11  1.34373013977840E-01
 cg2d: Sum(rhs),rhsMax =  -4.17818002418358E-11  1.32624057296615E-01
 cg2d: Sum(rhs),rhsMax =  -4.22848422942934E-11  1.30826228751512E-01
 cg2d: Sum(rhs),rhsMax =  -4.28301838439893E-11  1.28980566279258E-01
 cg2d: Sum(rhs),rhsMax =  -4.34123847981027E-11  1.27088134812463E-01
 cg2d: Sum(rhs),rhsMax =  -4.39996927781294E-11  1.25150025181022E-01
 cg2d: Sum(rhs),rhsMax =  -4.46302994561165E-11  1.23167352853019E-01
 cg2d: Sum(rhs),rhsMax =  -4.52944348694473E-11  1.21141256530307E-01
 cg2d: Sum(rhs),rhsMax =  -4.60067539620468E-11  1.19072896623529E-01
 cg2d: Sum(rhs),rhsMax =  -4.67611505072796E-11  1.16963453650241E-01
 cg2d: Sum(rhs),rhsMax =  -4.75425254720108E-11  1.14814126568079E-01
 cg2d: Sum(rhs),rhsMax =  -4.83670881123999E-11  1.12626131071877E-01
 cg2d: Sum(rhs),rhsMax =  -4.92391682982429E-11  1.10400697910121E-01
 cg2d: Sum(rhs),rhsMax =  -5.01716446166256E-11  1.08139071221977E-01
 cg2d: Sum(rhs),rhsMax =  -5.11777287215409E-11  1.05842506994987E-01
 cg2d: Sum(rhs),rhsMax =  -5.21996890157084E-11  1.03512271618976E-01
 cg2d: Sum(rhs),rhsMax =  -5.33815214254219E-11  1.01149640534049E-01
 cg2d: Sum(rhs),rhsMax =  -5.46378498000877E-11  9.87558969938494E-02
 cg2d: Sum(rhs),rhsMax =  -5.59648993814221E-11  9.63323309582214E-02
 cg2d: Sum(rhs),rhsMax =  -5.73475711362903E-11  9.38802381209242E-02
 cg2d: Sum(rhs),rhsMax =  -5.88589177397125E-11  9.14009190589130E-02
 cg2d: Sum(rhs),rhsMax =  -6.04781780211283E-11  8.88956784979581E-02
 cg2d: Sum(rhs),rhsMax =  -6.21699358660521E-11  8.63658246778485E-02
 cg2d: Sum(rhs),rhsMax =  -6.39984731876098E-11  8.38126687809803E-02
 cg2d: Sum(rhs),rhsMax =  -6.59871046693183E-11  8.12375244185788E-02
 cg2d: Sum(rhs),rhsMax =  -6.80964173938037E-11  7.86417071487182E-02
 cg2d: Sum(rhs),rhsMax =  -7.03711533489582E-11  7.60265340197454E-02
 cg2d: Sum(rhs),rhsMax =  -7.28359594859285E-11  7.33933231159861E-02
 cg2d: Sum(rhs),rhsMax =  -7.54692974780369E-11  7.07433930856592E-02
 cg2d: Sum(rhs),rhsMax =  -7.83425546657668E-11  6.80780626469875E-02
 cg2d: Sum(rhs),rhsMax =  -8.14996958808933E-11  6.53986500554829E-02
 cg2d: Sum(rhs),rhsMax =  -8.48854320167902E-11  6.27064725336974E-02
 cg2d: Sum(rhs),rhsMax =  -8.86130058219692E-11  6.00028456396129E-02
 cg2d: Sum(rhs),rhsMax =  -9.27308230203039E-11  5.72890826110381E-02
 cg2d: Sum(rhs),rhsMax =  -9.72839586665941E-11  5.45664936812028E-02
 cg2d: Sum(rhs),rhsMax =  -1.02352459840915E-10  5.18363853614819E-02
 cg2d: Sum(rhs),rhsMax =  -1.07969411189401E-10  4.91000596907081E-02
 cg2d: Sum(rhs),rhsMax =  -1.14337095347139E-10  4.63588134568220E-02
 cg2d: Sum(rhs),rhsMax =  -1.21489929227891E-10  4.36139373991266E-02
 cg2d: Sum(rhs),rhsMax =  -1.29621091637944E-10  4.08667153997634E-02
 cg2d: Sum(rhs),rhsMax =  -1.38930644766333E-10  3.81184236734189E-02
 cg2d: Sum(rhs),rhsMax =  -1.49659840076311E-10  3.53703299648015E-02
 cg2d: Sum(rhs),rhsMax =  -1.62165891826049E-10  3.26236927672587E-02
 cg2d: Sum(rhs),rhsMax =  -1.72169667411737E-10  3.07169151324590E-02
 cg2d: Sum(rhs),rhsMax =  -1.70638225771569E-10  3.09821261078432E-02
 cg2d: Sum(rhs),rhsMax =  -1.69143088424306E-10  3.12464495655211E-02
 cg2d: Sum(rhs),rhsMax =  -1.67638763981515E-10  3.15096596192474E-02
 cg2d: Sum(rhs),rhsMax =  -1.66185620820158E-10  3.17719860421418E-02
 cg2d: Sum(rhs),rhsMax =  -1.64742317010358E-10  3.20335311863268E-02
 cg2d: Sum(rhs),rhsMax =  -1.63379948459053E-10  3.22941321283145E-02
 cg2d: Sum(rhs),rhsMax =  -1.62025844130387E-10  3.25537595755041E-02
 cg2d: Sum(rhs),rhsMax =  -1.60674654137161E-10  3.28124899767039E-02
 cg2d: Sum(rhs),rhsMax =  -1.59387586462501E-10  3.30703665026118E-02
 cg2d: Sum(rhs),rhsMax =  -1.58119461968198E-10  3.33272505023201E-02
 cg2d: Sum(rhs),rhsMax =  -1.56837487441663E-10  3.35827914477210E-02
 cg2d: Sum(rhs),rhsMax =  -1.55612966956653E-10  3.38363275825344E-02
 cg2d: Sum(rhs),rhsMax =  -1.54417423292585E-10  3.40876825471229E-02
 cg2d: Sum(rhs),rhsMax =  -1.53223655985357E-10  3.43371937054703E-02
 cg2d: Sum(rhs),rhsMax =  -1.52069468128957E-10  3.45850248256311E-02
 cg2d: Sum(rhs),rhsMax =  -1.50928824993457E-10  3.48309986015941E-02
 cg2d: Sum(rhs),rhsMax =  -1.49840362340115E-10  3.50749346584427E-02
 cg2d: Sum(rhs),rhsMax =  -1.48800971544460E-10  3.53166871057530E-02
 cg2d: Sum(rhs),rhsMax =  -1.47747036827184E-10  3.55561368168911E-02
 cg2d: Sum(rhs),rhsMax =  -1.46749612461861E-10  3.57931592356562E-02
 cg2d: Sum(rhs),rhsMax =  -1.45778167315314E-10  3.60274499604442E-02
 cg2d: Sum(rhs),rhsMax =  -1.44554035408362E-10  3.63179443357018E-02
 cg2d: Sum(rhs),rhsMax =  -1.37999056626370E-10  3.80288381342198E-02
 cg2d: Sum(rhs),rhsMax =  -1.32064026381329E-10  3.97238314632967E-02
 cg2d: Sum(rhs),rhsMax =  -1.26689991830631E-10  4.14021191232683E-02
 cg2d: Sum(rhs),rhsMax =  -1.21687326881670E-10  4.30628977603296E-02
 cg2d: Sum(rhs),rhsMax =  -1.16327170118780E-10  4.49969457617374E-02
 cg2d: Sum(rhs),rhsMax =  -1.11274656156013E-10  4.70023568496733E-02
 cg2d: Sum(rhs),rhsMax =  -1.06663233800930E-10  4.89851466163436E-02
 cg2d: Sum(rhs),rhsMax =  -1.02469810414618E-10  5.09443203252807E-02
 cg2d: Sum(rhs),rhsMax =  -9.86335457753285E-11  5.28788872717285E-02
 cg2d: Sum(rhs),rhsMax =  -9.51262402182351E-11  5.47878615878501E-02
 cg2d: Sum(rhs),rhsMax =  -9.18805032057435E-11  5.66702631011254E-02
 cg2d: Sum(rhs),rhsMax =  -8.89053275443530E-11  5.85251182188372E-02
 cg2d: Sum(rhs),rhsMax =  -8.61487547965112E-11  6.03514608155849E-02
 cg2d: Sum(rhs),rhsMax =  -8.35415070454815E-11  6.21483331073861E-02
 cg2d: Sum(rhs),rhsMax =  -8.12321321319587E-11  6.39147866149524E-02
 cg2d: Sum(rhs),rhsMax =  -7.89482923480023E-11  6.56498831343337E-02
 cg2d: Sum(rhs),rhsMax =  -7.68064500888954E-11  6.73526956639147E-02
 cg2d: Sum(rhs),rhsMax =  -7.48088258006874E-11  6.90223092616664E-02
 cg2d: Sum(rhs),rhsMax =  -7.29578619740323E-11  7.06578218023600E-02
 cg2d: Sum(rhs),rhsMax =  -7.12049308404517E-11  7.22583445827518E-02
 cg2d: Sum(rhs),rhsMax =  -6.96135371569540E-11  7.38230027134089E-02
 cg2d: Sum(rhs),rhsMax =  -6.81045220218834E-11  7.53509352515726E-02
 cg2d: Sum(rhs),rhsMax =  -6.66573463092845E-11  7.68412950715582E-02
 cg2d: Sum(rhs),rhsMax =  -6.53560539021214E-11  7.82932485281427E-02
 cg2d: Sum(rhs),rhsMax =  -6.41232622555776E-11  7.97059750305987E-02
 cg2d: Sum(rhs),rhsMax =  -6.29153396047855E-11  8.10786666955362E-02
 cg2d: Sum(rhs),rhsMax =  -6.17961237736608E-11  8.24105282534550E-02
 cg2d: Sum(rhs),rhsMax =  -6.08236794263917E-11  8.37007773912882E-02
 cg2d: Sum(rhs),rhsMax =  -5.98712190935657E-11  8.49486456905948E-02
 cg2d: Sum(rhs),rhsMax =  -5.89573945219968E-11  8.61533802202661E-02
(PID.TID 0000.0001)      cg2d_init_res =   7.75738913461044E-02
(PID.TID 0000.0001)      cg2d_iters(min,last) =      -1      38
(PID.TID 0000.0001)      cg2d_last_res =   4.92296987297426E-14
(PID.TID 0000.0001) // =======================================================
(PID.TID 0000.0001) // Begin MONITOR dynamic field statistics
(PID.TID 0000.0001) // =======================================================
(PID.TID 0000.0001) %MON time_tsnumber                =                  2880
(PID.TID 0000.0001) %MON time_secondsf                =   4.3200000000000E+04
(PID.TID 0000.0001) %MON dynstat_eta_max              =   1.8924812458006E-02
(PID.TID 0000.0001) %MON dynstat_eta_min              =  -1.5001851346449E-02
(PID.TID 0000.0001) %MON dynstat_eta_mean             =   1.1187834900373E-14
(PID.TID 0000.0001) %MON dynstat_eta_sd               =   1.2479387621579E-02
(PID.TID 0000.0001) %MON dynstat_eta_del2             =   2.8659293028540E-05
(PID.TID 0000.0001) %MON dynstat_uvel_max             =   1.0043211153005E+00
(PID.TID 0000.0001) %MON dynstat_uvel_min             =  -2.3135248009720E-01
(PID.TID 0000.0001) %MON dynstat_uvel_mean            =   4.5457654081089E-01
(PID.TID 0000.0001) %MON dynstat_uvel_sd              =   9.3599069763833E-02
(PID.TID 0000.0001) %MON dynstat_uvel_del2            =   4.2007649500797E-04
(PID.TID 0000.0001) %MON dynstat_vvel_max             =   0.0000000000000E+00
(PID.TID 0000.0001) %MON dynstat_vvel_min             =   0.0000000000000E+00
(PID.TID 0000.0001) %MON dynstat_vvel_mean            =   0.0000000000000E+00
(PID.TID 0000.0001) %MON dynstat_vvel_sd              =   0.0000000000000E+00
(PID.TID 0000.0001) %MON dynstat_vvel_del2            =   0.0000000000000E+00
(PID.TID 0000.0001) %MON dynstat_wvel_max             =   2.7080990941548E-02
(PID.TID 0000.0001) %MON dynstat_wvel_min             =  -1.6651239678498E-02
(PID.TID 0000.0001) %MON dynstat_wvel_mean            =  -8.8133165629972E-20
(PID.TID 0000.0001) %MON dynstat_wvel_sd              =   1.9272640962812E-03
(PID.TID 0000.0001) %MON dynstat_wvel_del2            =   3.1657487452278E-05
(PID.TID 0000.0001) %MON dynstat_theta_max            =   1.5000000000009E+01
(PID.TID 0000.0001) %MON dynstat_theta_min            =   9.9999999999965E+00
(PID.TID 0000.0001) %MON dynstat_theta_mean           =   1.4040070551724E+01
(PID.TID 0000.0001) %MON dynstat_theta_sd             =   1.8633024357586E+00
(PID.TID 0000.0001) %MON dynstat_theta_del2           =   7.1962374363301E-04
(PID.TID 0000.0001) %MON dynstat_salt_max             =   3.5000000000000E+01
(PID.TID 0000.0001) %MON dynstat_salt_min             =   3.5000000000000E+01
(PID.TID 0000.0001) %MON dynstat_salt_mean            =   3.5000000000000E+01
(PID.TID 0000.0001) %MON dynstat_salt_sd              =   3.0553337637684E-13
(PID.TID 0000.0001) %MON dynstat_salt_del2            =   0.0000000000000E+00
(PID.TID 0000.0001) %MON dynstat_sst_max              =   1.5000000000001E+01
(PID.TID 0000.0001) %MON dynstat_sst_min              =   1.4999999999999E+01
(PID.TID 0000.0001) %MON dynstat_sst_mean             =   1.5000000000000E+01
(PID.TID 0000.0001) %MON dynstat_sst_sd               =   3.6798438476820E-13
(PID.TID 0000.0001) %MON dynstat_sst_del2             =   7.1039319503746E-15
(PID.TID 0000.0001) %MON dynstat_sss_max              =   3.5000000000000E+01
(PID.TID 0000.0001) %MON dynstat_sss_min              =   3.5000000000000E+01
(PID.TID 0000.0001) %MON dynstat_sss_mean             =   3.5000000000000E+01
(PID.TID 0000.0001) %MON dynstat_sss_sd               =   2.8421709430404E-14
(PID.TID 0000.0001) %MON dynstat_sss_del2             =   0.0000000000000E+00
(PID.TID 0000.0001) %MON forcing_qnet_max             =   0.0000000000000E+00
(PID.TID 0000.0001) %MON forcing_qnet_min             =   0.0000000000000E+00
(PID.TID 0000.0001) %MON forcing_qnet_mean            =   0.0000000000000E+00
(PID.TID 0000.0001) %MON forcing_qnet_sd              =   0.0000000000000E+00
(PID.TID 0000.0001) %MON forcing_qnet_del2            =   0.0000000000000E+00
(PID.TID 0000.0001) %MON forcing_qsw_max              =   0.0000000000000E+00
(PID.TID 0000.0001) %MON forcing_qsw_min              =   0.0000000000000E+00
(PID.TID 0000.0001) %MON forcing_qsw_mean             =   0.0000000000000E+00
(PID.TID 0000.0001) %MON forcing_qsw_sd               =   0.0000000000000E+00
(PID.TID 0000.0001) %MON forcing_qsw_del2             =   0.0000000000000E+00
(PID.TID 0000.0001) %MON forcing_empmr_max            =   0.0000000000000E+00
(PID.TID 0000.0001) %MON forcing_empmr_min            =   0.0000000000000E+00
(PID.TID 0000.0001) %MON forcing_empmr_mean           =   0.0000000000000E+00
(PID.TID 0000.0001) %MON forcing_empmr_sd             =   0.0000000000000E+00
(PID.TID 0000.0001) %MON forcing_empmr_del2           =   0.0000000000000E+00
(PID.TID 0000.0001) %MON forcing_fu_max               =   0.0000000000000E+00
(PID.TID 0000.0001) %MON forcing_fu_min               =   0.0000000000000E+00
(PID.TID 0000.0001) %MON forcing_fu_mean              =   0.0000000000000E+00
(PID.TID 0000.0001) %MON forcing_fu_sd                =   0.0000000000000E+00
(PID.TID 0000.0001) %MON forcing_fu_del2              =   0.0000000000000E+00
(PID.TID 0000.0001) %MON forcing_fv_max               =   0.0000000000000E+00
(PID.TID 0000.0001) %MON forcing_fv_min               =   0.0000000000000E+00
(PID.TID 0000.0001) %MON forcing_fv_mean              =   0.0000000000000E+00
(PID.TID 0000.0001) %MON forcing_fv_sd                =   0.0000000000000E+00
(PID.TID 0000.0001) %MON forcing_fv_del2              =   0.0000000000000E+00
(PID.TID 0000.0001) %MON advcfl_uvel_max              =   7.2969959995189E-02
(PID.TID 0000.0001) %MON advcfl_vvel_max              =   0.0000000000000E+00
(PID.TID 0000.0001) %MON advcfl_wvel_max              =   1.4239056704405E-01
(PID.TID 0000.0001) %MON advcfl_W_hf_max              =   1.4393969157526E-01
(PID.TID 0000.0001) %MON pe_b_mean                    =   3.8598449175330E-06
(PID.TID 0000.0001) %MON ke_max                       =   4.4652790971767E-01
(PID.TID 0000.0001) %MON ke_mean                      =   1.0775248139563E-01
(PID.TID 0000.0001) %MON ke_vol                       =   9.6656965507697E+10
(PID.TID 0000.0001) %MON vort_r_min                   =   0.0000000000000E+00
(PID.TID 0000.0001) %MON vort_r_max                   =   0.0000000000000E+00
(PID.TID 0000.0001) %MON vort_a_mean                  =   0.0000000000000E+00
(PID.TID 0000.0001) %MON vort_a_sd                    =   0.0000000000000E+00
(PID.TID 0000.0001) %MON vort_p_mean                  =   0.0000000000000E+00
(PID.TID 0000.0001) %MON vort_p_sd                    =   0.0000000000000E+00
(PID.TID 0000.0001) %MON surfExpan_theta_mean         =  -3.2425288682183E-18
(PID.TID 0000.0001) %MON surfExpan_salt_mean          =  -5.2494982796885E-18
(PID.TID 0000.0001) // =======================================================
(PID.TID 0000.0001) // End MONITOR dynamic field statistics
(PID.TID 0000.0001) // =======================================================
(PID.TID 0000.0001) // =======================================================
(PID.TID 0000.0001) // Begin OBCS MONITOR field statistics
(PID.TID 0000.0001) // =======================================================
(PID.TID 0000.0001) %MON obc_E_uVel_max               =   4.4822851314926E-01
(PID.TID 0000.0001) %MON obc_E_uVel_min               =   4.4822851314926E-01
(PID.TID 0000.0001) %MON obc_E_uVel_mean              =   4.4822851314926E-01
(PID.TID 0000.0001) %MON obc_E_uVel_sd                =   0.0000000000000E+00
(PID.TID 0000.0001) %MON obc_E_uVel_Int               =   4.4822851314926E+05
(PID.TID 0000.0001) %MON obc_W_uVel_max               =   4.4822851314926E-01
(PID.TID 0000.0001) %MON obc_W_uVel_min               =   4.4822851314926E-01
(PID.TID 0000.0001) %MON obc_W_uVel_mean              =   4.4822851314926E-01
(PID.TID 0000.0001) %MON obc_W_uVel_sd                =   0.0000000000000E+00
(PID.TID 0000.0001) %MON obc_W_uVel_Int               =   4.4822851314926E+05
(PID.TID 0000.0001) // =======================================================
(PID.TID 0000.0001) // End OBCS MONITOR field statistics
(PID.TID 0000.0001) // =======================================================
(PID.TID 0000.0001) %CHECKPOINT      2880 0000002880
 cg2d: Sum(rhs),rhsMax =  -5.81236170305033E-11  8.73142456983712E-02
 cg2d: Sum(rhs),rhsMax =  -5.72955016764354E-11  8.84305270276472E-02
 cg2d: Sum(rhs),rhsMax =  -5.65394397966656E-11  8.95015319792487E-02
 cg2d: Sum(rhs),rhsMax =  -5.58569857034286E-11  9.05265938390100E-02
 cg2d: Sum(rhs),rhsMax =  -5.52083934124425E-11  9.15050738965171E-02
 cg2d: Sum(rhs),rhsMax =  -5.46113154697991E-11  9.24363637105254E-02
 cg2d: Sum(rhs),rhsMax =  -5.40365530099507E-11  9.33198871079070E-02
 cg2d: Sum(rhs),rhsMax =  -5.34966515530755E-11  9.41551018729760E-02
 cg2d: Sum(rhs),rhsMax =  -5.29843946495134E-11  9.49415010733650E-02
 cg2d: Sum(rhs),rhsMax =  -5.25308685439541E-11  9.56786139616016E-02
 cg2d: Sum(rhs),rhsMax =  -5.21105381068310E-11  9.63660063988154E-02
 cg2d: Sum(rhs),rhsMax =  -5.17150766654595E-11  9.70032807741679E-02
 cg2d: Sum(rhs),rhsMax =  -5.13644682342829E-11  9.75900754394354E-02
 cg2d: Sum(rhs),rhsMax =  -5.10415043564194E-11  9.81260637345742E-02
 cg2d: Sum(rhs),rhsMax =  -5.07486275225233E-11  9.86109527343004E-02
 cg2d: Sum(rhs),rhsMax =  -5.04953856506063E-11  9.90444818837458E-02
 cg2d: Sum(rhs),rhsMax =  -5.02664576629286E-11  9.94264217018301E-02
 cg2d: Sum(rhs),rhsMax =  -5.00873786890565E-11  9.97565727091068E-02
 cg2d: Sum(rhs),rhsMax =  -4.99192909231283E-11  1.00034764685219E-01
 cg2d: Sum(rhs),rhsMax =  -4.98118213343446E-11  1.00260856289816E-01
 cg2d: Sum(rhs),rhsMax =  -4.97121233067332E-11  1.00434735005528E-01
 cg2d: Sum(rhs),rhsMax =  -4.96720442555443E-11  1.00556317300732E-01
 cg2d: Sum(rhs),rhsMax =  -4.96868102217718E-11  1.00625548880465E-01
 cg2d: Sum(rhs),rhsMax =  -4.97206720240229E-11  1.00642404903036E-01
 cg2d: Sum(rhs),rhsMax =  -4.97780705543960E-11  1.00606890083606E-01
 cg2d: Sum(rhs),rhsMax =  -4.98548979877000E-11  1.00519038683922E-01
 cg2d: Sum(rhs),rhsMax =  -5.00144370363387E-11  1.00378914450011E-01
 cg2d: Sum(rhs),rhsMax =  -5.01700903043911E-11  1.00186610624998E-01
 cg2d: Sum(rhs),rhsMax =  -5.03346253566406E-11  9.99422500762503E-02
 cg2d: Sum(rhs),rhsMax =  -5.04901676023906E-11  9.96459856551008E-02
 cg2d: Sum(rhs),rhsMax =  -5.07236475044692E-11  9.92980007954873E-02
 cg2d: Sum(rhs),rhsMax =  -5.09803310677626E-11  9.88985102839400E-02
 cg2d: Sum(rhs),rhsMax =  -5.12568876231967E-11  9.84477610845177E-02
 cg2d: Sum(rhs),rhsMax =  -5.15730791406099E-11  9.79460330824481E-02
 cg2d: Sum(rhs),rhsMax =  -5.19179144120585E-11  9.73936396174202E-02
 cg2d: Sum(rhs),rhsMax =  -5.23207033253925E-11  9.67909277040349E-02
 cg2d: Sum(rhs),rhsMax =  -5.26921839494321E-11  9.61382778738698E-02
 cg2d: Sum(rhs),rhsMax =  -5.31925614666307E-11  9.54361036138969E-02
 cg2d: Sum(rhs),rhsMax =  -5.36781730176017E-11  9.46848504155545E-02
 cg2d: Sum(rhs),rhsMax =  -5.42280664816985E-11  9.38849944854994E-02
 cg2d: Sum(rhs),rhsMax =  -5.48047163206888E-11  9.30370411995199E-02
 cg2d: Sum(rhs),rhsMax =  -5.53675993941738E-11  9.21415234121455E-02
 cg2d: Sum(rhs),rhsMax =  -5.60075319455677E-11  9.11989997498057E-02
 cg2d: Sum(rhs),rhsMax =  -5.66287017278455E-11  9.02100530122532E-02
 cg2d: Sum(rhs),rhsMax =  -5.73447955787287E-11  8.91752888160176E-02
 cg2d: Sum(rhs),rhsMax =  -5.80899772728571E-11  8.80953344786279E-02
 cg2d: Sum(rhs),rhsMax =  -5.89038817722098E-11  8.69708382490892E-02
 cg2d: Sum(rhs),rhsMax =  -5.97626392817574E-11  8.58024688624377E-02
 cg2d: Sum(rhs),rhsMax =  -6.06685812698515E-11  8.45909153591033E-02
 cg2d: Sum(rhs),rhsMax =  -6.16454665092192E-11  8.33368870933632E-02
 cg2d: Sum(rhs),rhsMax =  -6.27041751855018E-11  8.20411138591376E-02
 cg2d: Sum(rhs),rhsMax =  -6.37954133964058E-11  8.07043460749023E-02
 cg2d: Sum(rhs),rhsMax =  -6.49851283895941E-11  7.93273549797114E-02
 cg2d: Sum(rhs),rhsMax =  -6.62387922290009E-11  7.79109327911261E-02
 cg2d: Sum(rhs),rhsMax =  -6.76362299500965E-11  7.64558927643709E-02
 cg2d: Sum(rhs),rhsMax =  -6.90254520208100E-11  7.49630690789976E-02
 cg2d: Sum(rhs),rhsMax =  -7.05937530653955E-11  7.34333164752523E-02
 cg2d: Sum(rhs),rhsMax =  -7.22236714878477E-11  7.18675095733342E-02
 cg2d: Sum(rhs),rhsMax =  -7.39754923984037E-11  7.02665418354955E-02
 cg2d: Sum(rhs),rhsMax =  -7.58344498308361E-11  6.86313241712117E-02
 cg2d: Sum(rhs),rhsMax =  -7.78671571666223E-11  6.69627832357647E-02
 cg2d: Sum(rhs),rhsMax =  -7.99946775487115E-11  6.52618595258005E-02
 cg2d: Sum(rhs),rhsMax =  -8.22479861994907E-11  6.35295054211519E-02
 cg2d: Sum(rhs),rhsMax =  -8.46475112226130E-11  6.17666833476176E-02
 cg2d: Sum(rhs),rhsMax =  -8.72341088253847E-11  5.99743642332697E-02
 cg2d: Sum(rhs),rhsMax =  -9.00043373164294E-11  5.81535263956129E-02
 cg2d: Sum(rhs),rhsMax =  -9.30366894635881E-11  5.63051549262107E-02
 cg2d: Sum(rhs),rhsMax =  -9.63280566423919E-11  5.44302415588767E-02
 cg2d: Sum(rhs),rhsMax =  -9.98794380535628E-11  5.25297849212968E-02
 cg2d: Sum(rhs),rhsMax =  -1.03739017376370E-10  5.06047909995443E-02
 cg2d: Sum(rhs),rhsMax =  -1.07963749051976E-10  4.86562736061054E-02
 cg2d: Sum(rhs),rhsMax =  -1.12595821555317E-10  4.66852546433474E-02
 cg2d: Sum(rhs),rhsMax =  -1.17735265980912E-10  4.46927639950021E-02
 cg2d: Sum(rhs),rhsMax =  -1.23350107905651E-10  4.26798389537258E-02
 cg2d: Sum(rhs),rhsMax =  -1.29620869593339E-10  4.06475231579873E-02
 cg2d: Sum(rhs),rhsMax =  -1.36643807380210E-10  3.85968651171200E-02
 cg2d: Sum(rhs),rhsMax =  -1.44497080967199E-10  3.65289164613681E-02
 cg2d: Sum(rhs),rhsMax =  -1.47271639328039E-10  3.58518460566863E-02
 cg2d: Sum(rhs),rhsMax =  -1.47982848197614E-10  3.56831490118013E-02
 cg2d: Sum(rhs),rhsMax =  -1.48714707215447E-10  3.55116705497806E-02
 cg2d: Sum(rhs),rhsMax =  -1.49479872924019E-10  3.53374643282237E-02
 cg2d: Sum(rhs),rhsMax =  -1.50301993073754E-10  3.51604885661156E-02
 cg2d: Sum(rhs),rhsMax =  -1.51110457480286E-10  3.49807002162845E-02
 cg2d: Sum(rhs),rhsMax =  -1.51964663075432E-10  3.47981231280155E-02
 cg2d: Sum(rhs),rhsMax =  -1.52812540399339E-10  3.46129098899570E-02
 cg2d: Sum(rhs),rhsMax =  -1.53740353781018E-10  3.44255612325366E-02
 cg2d: Sum(rhs),rhsMax =  -1.54642798566584E-10  3.42361409004293E-02
 cg2d: Sum(rhs),rhsMax =  -1.55528312451025E-10  3.40445825973597E-02
 cg2d: Sum(rhs),rhsMax =  -1.56464785572297E-10  3.38510376642558E-02
 cg2d: Sum(rhs),rhsMax =  -1.57405533052213E-10  3.36556733182443E-02
 cg2d: Sum(rhs),rhsMax =  -1.58415031092929E-10  3.34586312949965E-02
 cg2d: Sum(rhs),rhsMax =  -1.59437490987457E-10  3.32600751616404E-02
 cg2d: Sum(rhs),rhsMax =  -1.60424847017726E-10  3.30602081676416E-02
 cg2d: Sum(rhs),rhsMax =  -1.61434240975034E-10  3.28589958398643E-02
 cg2d: Sum(rhs),rhsMax =  -1.62468011266625E-10  3.26567626723148E-02
 cg2d: Sum(rhs),rhsMax =  -1.63548036224981E-10  3.24536873940737E-02
 cg2d: Sum(rhs),rhsMax =  -1.64610852726454E-10  3.22499164957421E-02
 cg2d: Sum(rhs),rhsMax =  -1.65742808366787E-10  3.20455144449320E-02
 cg2d: Sum(rhs),rhsMax =  -1.66840652404687E-10  3.18405678291212E-02
 cg2d: Sum(rhs),rhsMax =  -1.67956926144797E-10  3.16350959855556E-02
 cg2d: Sum(rhs),rhsMax =  -1.69073977041023E-10  3.14290183983831E-02
 cg2d: Sum(rhs),rhsMax =  -1.70248815045682E-10  3.12225250080197E-02
 cg2d: Sum(rhs),rhsMax =  -1.63489111137949E-10  3.25253435547892E-02
 cg2d: Sum(rhs),rhsMax =  -1.52235224426533E-10  3.49358054612444E-02
 cg2d: Sum(rhs),rhsMax =  -1.42217793097643E-10  3.74028644175802E-02
 cg2d: Sum(rhs),rhsMax =  -1.33323463380464E-10  3.99177281299782E-02
 cg2d: Sum(rhs),rhsMax =  -1.25238042159026E-10  4.24955118953691E-02
 cg2d: Sum(rhs),rhsMax =  -1.18134169113659E-10  4.50680511825468E-02
 cg2d: Sum(rhs),rhsMax =  -1.11801123914290E-10  4.76342337232814E-02
 cg2d: Sum(rhs),rhsMax =  -1.06141540001659E-10  5.01929483855184E-02
 cg2d: Sum(rhs),rhsMax =  -1.01054609125129E-10  5.27430857083817E-02
 cg2d: Sum(rhs),rhsMax =  -9.65203472702569E-11  5.52835382913347E-02
 cg2d: Sum(rhs),rhsMax =  -9.23926490870031E-11  5.78132010237194E-02
 cg2d: Sum(rhs),rhsMax =  -8.85895801161496E-11  6.03309711508936E-02
 cg2d: Sum(rhs),rhsMax =  -8.51356762865407E-11  6.28357481832360E-02
 cg2d: Sum(rhs),rhsMax =  -8.19624368375571E-11  6.53264336634551E-02
 cg2d: Sum(rhs),rhsMax =  -7.90690846130815E-11  6.78019308160488E-02
 cg2d: Sum(rhs),rhsMax =  -7.63660246150266E-11  7.02611441100117E-02
 cg2d: Sum(rhs),rhsMax =  -7.38529237764851E-11  7.27029787713937E-02
 cg2d: Sum(rhs),rhsMax =  -7.15593140299120E-11  7.51263402855990E-02
 cg2d: Sum(rhs),rhsMax =  -6.93707313814684E-11  7.75301339300389E-02
 cg2d: Sum(rhs),rhsMax =  -6.73566757924959E-11  7.99132643754129E-02
 cg2d: Sum(rhs),rhsMax =  -6.54938325794774E-11  8.22746353910860E-02
 cg2d: Sum(rhs),rhsMax =  -6.37462305164149E-11  8.46131496830956E-02
 cg2d: Sum(rhs),rhsMax =  -6.20741236190270E-11  8.69277088845127E-02
 cg2d: Sum(rhs),rhsMax =  -6.05319128155202E-11  8.92172137095205E-02
 cg2d: Sum(rhs),rhsMax =  -5.91158233476108E-11  9.14805642763199E-02
 cg2d: Sum(rhs),rhsMax =  -5.77438097337790E-11  9.37166605959486E-02
 cg2d: Sum(rhs),rhsMax =  -5.64418511928011E-11  9.59244032171908E-02
 cg2d: Sum(rhs),rhsMax =  -5.52508039319832E-11  9.81026940114921E-02
 cg2d: Sum(rhs),rhsMax =  -5.41858780067628E-11  1.00250437074625E-01
 cg2d: Sum(rhs),rhsMax =  -5.31801269687548E-11  1.02366539726759E-01
 cg2d: Sum(rhs),rhsMax =  -5.21749310422592E-11  1.04449913588587E-01
 cg2d: Sum(rhs),rhsMax =  -5.12996312096448E-11  1.06499475711781E-01
 cg2d: Sum(rhs),rhsMax =  -5.03912467308965E-11  1.08514149748396E-01
 cg2d: Sum(rhs),rhsMax =  -4.95522511911872E-11  1.10492867140922E-01
 cg2d: Sum(rhs),rhsMax =  -4.88348250726744E-11  1.12434568322156E-01
 cg2d: Sum(rhs),rhsMax =  -4.80950834713667E-11  1.14338203919243E-01
 cg2d: Sum(rhs),rhsMax =  -4.74058570176794E-11  1.16202735960662E-01
 cg2d: Sum(rhs),rhsMax =  -4.67185179431340E-11  1.18027139088695E-01
 cg2d: Sum(rhs),rhsMax =  -4.61085614134049E-11  1.19810401783655E-01
 cg2d: Sum(rhs),rhsMax =  -4.55173676527920E-11  1.21551527606216E-01
 cg2d: Sum(rhs),rhsMax =  -4.49208448216609E-11  1.23249536467808E-01
 cg2d: Sum(rhs),rhsMax =  -4.44092540519136E-11  1.24903465939313E-01
 cg2d: Sum(rhs),rhsMax =  -4.38820091375192E-11  1.26512372604055E-01
 cg2d: Sum(rhs),rhsMax =  -4.34169367125037E-11  1.28075333467368E-01
 cg2d: Sum(rhs),rhsMax =  -4.29490887299266E-11  1.29591447417017E-01
 cg2d: Sum(rhs),rhsMax =  -4.25375290546981E-11  1.31059836730971E-01
 cg2d: Sum(rhs),rhsMax =  -4.21520596205482E-11  1.32479648623966E-01
 cg2d: Sum(rhs),rhsMax =  -4.17456069712330E-11  1.33850056813995E-01
 cg2d: Sum(rhs),rhsMax =  -4.13638012730644E-11  1.35170263083557E-01
 cg2d: Sum(rhs),rhsMax =  -4.10783629334333E-11  1.36439498808155E-01
 cg2d: Sum(rhs),rhsMax =  -4.07636147059520E-11  1.37657026415238E-01
 cg2d: Sum(rhs),rhsMax =  -4.05289135585463E-11  1.38822140733428E-01
 cg2d: Sum(rhs),rhsMax =  -4.02463617987792E-11  1.39934170198389E-01
 cg2d: Sum(rhs),rhsMax =  -4.00461885874392E-11  1.40992477866906E-01
 cg2d: Sum(rhs),rhsMax =  -3.98179267335763E-11  1.41996462212578E-01
 cg2d: Sum(rhs),rhsMax =  -3.95837806976829E-11  1.42945557683175E-01
 cg2d: Sum(rhs),rhsMax =  -3.94038135453911E-11  1.43839235003771E-01
 cg2d: Sum(rhs),rhsMax =  -3.92178511887664E-11  1.44677001221456E-01
 cg2d: Sum(rhs),rhsMax =  -3.90688592588617E-11  1.45458399500700E-01
 cg2d: Sum(rhs),rhsMax =  -3.89084320318034E-11  1.46183008692060E-01
 cg2d: Sum(rhs),rhsMax =  -3.87401222212702E-11  1.46850442709517E-01
 cg2d: Sum(rhs),rhsMax =  -3.86523035800224E-11  1.47460349766864E-01
 cg2d: Sum(rhs),rhsMax =  -3.85411702552574E-11  1.48012411519351E-01
 cg2d: Sum(rhs),rhsMax =  -3.84464682312569E-11  1.48506342167003E-01
 cg2d: Sum(rhs),rhsMax =  -3.84005049980374E-11  1.48941887592139E-01
 cg2d: Sum(rhs),rhsMax =  -3.83463261144357E-11  1.49318824589619E-01
 cg2d: Sum(rhs),rhsMax =  -3.83292286798564E-11  1.49636960241993E-01
 cg2d: Sum(rhs),rhsMax =  -3.82774922869089E-11  1.49896131483257E-01
 cg2d: Sum(rhs),rhsMax =  -3.82326392767141E-11  1.50096204872984E-01
 cg2d: Sum(rhs),rhsMax =  -3.82519571573425E-11  1.50237076621729E-01
 cg2d: Sum(rhs),rhsMax =  -3.82557319156263E-11  1.50318672879363E-01
 cg2d: Sum(rhs),rhsMax =  -3.83242326762456E-11  1.50340950248345E-01
 cg2d: Sum(rhs),rhsMax =  -3.83044707064073E-11  1.50303896498724E-01
 cg2d: Sum(rhs),rhsMax =  -3.82879283833404E-11  1.50207531447959E-01
 cg2d: Sum(rhs),rhsMax =  -3.83113540891600E-11  1.50051907959466E-01
 cg2d: Sum(rhs),rhsMax =  -3.82956999445128E-11  1.49837112999743E-01
 cg2d: Sum(rhs),rhsMax =  -3.83435505568741E-11  1.49563268713373E-01
 cg2d: Sum(rhs),rhsMax =  -3.83698628425577E-11  1.49230533400318E-01
 cg2d: Sum(rhs),rhsMax =  -3.84509091233554E-11  1.48839102357326E-01
 cg2d: Sum(rhs),rhsMax =  -3.85188547724624E-11  1.48389208551166E-01
 cg2d: Sum(rhs),rhsMax =  -3.86169984878393E-11  1.47881123083289E-01
 cg2d: Sum(rhs),rhsMax =  -3.87284648795116E-11  1.47315155414326E-01
 cg2d: Sum(rhs),rhsMax =  -3.88366006021101E-11  1.46691653338849E-01
 cg2d: Sum(rhs),rhsMax =  -3.89547283319303E-11  1.46011002686264E-01
 cg2d: Sum(rhs),rhsMax =  -3.90911747416567E-11  1.45273626783463E-01
 cg2d: Sum(rhs),rhsMax =  -3.92960108897000E-11  1.44479985750520E-01
 cg2d: Sum(rhs),rhsMax =  -3.94094756828167E-11  1.43630575617297E-01
 cg2d: Sum(rhs),rhsMax =  -3.95874444336641E-11  1.42725927306294E-01
 cg2d: Sum(rhs),rhsMax =  -3.97833987975105E-11  1.41766605530329E-01
 cg2d: Sum(rhs),rhsMax =  -4.00076638484848E-11  1.40753207651621E-01
 cg2d: Sum(rhs),rhsMax =  -4.02156086209970E-11  1.39686362542613E-01
 cg2d: Sum(rhs),rhsMax =  -4.04660749353525E-11  1.38566729477896E-01
 cg2d: Sum(rhs),rhsMax =  -4.07058831086715E-11  1.37394997076466E-01
 cg2d: Sum(rhs),rhsMax =  -4.09373646093059E-11  1.36171882317192E-01
 cg2d: Sum(rhs),rhsMax =  -4.12457845655467E-11  1.34898129599160E-01
 cg2d: Sum(rhs),rhsMax =  -4.16184864349134E-11  1.33574509866649E-01
 cg2d: Sum(rhs),rhsMax =  -4.19984047539401E-11  1.32201819799876E-01
 cg2d: Sum(rhs),rhsMax =  -4.23985291320150E-11  1.30780881037226E-01
 cg2d: Sum(rhs),rhsMax =  -4.28215241043972E-11  1.29312539424751E-01
 cg2d: Sum(rhs),rhsMax =  -4.32868185740176E-11  1.27797664290759E-01
 cg2d: Sum(rhs),rhsMax =  -4.37487823745641E-11  1.26237147735158E-01
 cg2d: Sum(rhs),rhsMax =  -4.42519354493243E-11  1.24631903926847E-01
 cg2d: Sum(rhs),rhsMax =  -4.47705206241267E-11  1.22982868405233E-01
 cg2d: Sum(rhs),rhsMax =  -4.53246329357171E-11  1.21290997383791E-01
 cg2d: Sum(rhs),rhsMax =  -4.58995064178680E-11  1.19557267053934E-01
 cg2d: Sum(rhs),rhsMax =  -4.65588678721929E-11  1.17782672886055E-01
 cg2d: Sum(rhs),rhsMax =  -4.71924721523465E-11  1.15968228921682E-01
 cg2d: Sum(rhs),rhsMax =  -4.78812545168239E-11  1.14114967046939E-01
 cg2d: Sum(rhs),rhsMax =  -4.86085616202558E-11  1.12223936240993E-01
 cg2d: Sum(rhs),rhsMax =  -4.93800556000679E-11  1.10296201759318E-01
 cg2d: Sum(rhs),rhsMax =  -5.01813035569398E-11  1.08332844251148E-01
 cg2d: Sum(rhs),rhsMax =  -5.10402831110923E-11  1.06334958792681E-01
 cg2d: Sum(rhs),rhsMax =  -5.19434495416249E-11  1.04303653826700E-01
 cg2d: Sum(rhs),rhsMax =  -5.28946886291237E-11  1.02240049978519E-01
 cg2d: Sum(rhs),rhsMax =  -5.38897815260952E-11  1.00145278743193E-01
 cg2d: Sum(rhs),rhsMax =  -5.49271739203050E-11  9.80204810986657E-02
 cg2d: Sum(rhs),rhsMax =  -5.61306556789987E-11  9.58668059969253E-02
 cg2d: Sum(rhs),rhsMax =  -5.73976421947009E-11  9.36854087638981E-02
 cg2d: Sum(rhs),rhsMax =  -5.87381254746333E-11  9.14774494464432E-02
 cg2d: Sum(rhs),rhsMax =  -6.01437788461112E-11  8.92440911480194E-02
 cg2d: Sum(rhs),rhsMax =  -6.16725559510201E-11  8.69864983943799E-02
 cg2d: Sum(rhs),rhsMax =  -6.32668362143818E-11  8.47058355693460E-02
 cg2d: Sum(rhs),rhsMax =  -6.50099973853457E-11  8.24032654606608E-02
 cg2d: Sum(rhs),rhsMax =  -6.68428645766994E-11  8.00799479414989E-02
 cg2d: Sum(rhs),rhsMax =  -6.87847556690713E-11  7.77370388195923E-02
 cg2d: Sum(rhs),rhsMax =  -7.08860747877793E-11  7.53756888933048E-02
 cg2d: Sum(rhs),rhsMax =  -7.31419369515152E-11  7.29970432140467E-02
 cg2d: Sum(rhs),rhsMax =  -7.55459028667360E-11  7.06022405619628E-02
 cg2d: Sum(rhs),rhsMax =  -7.81565923091421E-11  6.81924131283817E-02
 cg2d: Sum(rhs),rhsMax =  -8.09852185312820E-11  6.57686863932587E-02
 cg2d: Sum(rhs),rhsMax =  -8.40294500648042E-11  6.33321791822496E-02
 cg2d: Sum(rhs),rhsMax =  -8.73315864069468E-11  6.08840038930198E-02
 cg2d: Sum(rhs),rhsMax =  -9.09339270549481E-11  5.84252668518672E-02
 cg2d: Sum(rhs),rhsMax =  -9.48653378074482E-11  5.59570687542164E-02
 cg2d: Sum(rhs),rhsMax =  -9.91265958205645E-11  5.34805051725126E-02
 cg2d: Sum(rhs),rhsMax =  -1.03900110737243E-10  5.09966670885532E-02
 cg2d: Sum(rhs),rhsMax =  -1.09120601443635E-10  4.85066414092211E-02
 cg2d: Sum(rhs),rhsMax =  -1.15004561429544E-10  4.60115114263976E-02
 cg2d: Sum(rhs),rhsMax =  -1.21617715898026E-10  4.35123571876386E-02
 cg2d: Sum(rhs),rhsMax =  -1.28989041670025E-10  4.10102557512535E-02
 cg2d: Sum(rhs),rhsMax =  -1.37314881687445E-10  3.85062813068248E-02
 cg2d: Sum(rhs),rhsMax =  -1.46867240591320E-10  3.60015051506736E-02
 cg2d: Sum(rhs),rhsMax =  -1.57795332356159E-10  3.34969955161572E-02
 cg2d: Sum(rhs),rhsMax =  -1.58490831569935E-10  3.33382152230665E-02
 cg2d: Sum(rhs),rhsMax =  -1.57534818523430E-10  3.35338923409767E-02
 cg2d: Sum(rhs),rhsMax =  -1.56551771546276E-10  3.37281007842384E-02
 cg2d: Sum(rhs),rhsMax =  -1.55638030241434E-10  3.39207481790868E-02
 cg2d: Sum(rhs),rhsMax =  -1.54719861922281E-10  3.41115224704930E-02
 cg2d: Sum(rhs),rhsMax =  -1.53773861699680E-10  3.43001369663071E-02
 cg2d: Sum(rhs),rhsMax =  -1.52885305110262E-10  3.44862108771425E-02
 cg2d: Sum(rhs),rhsMax =  -1.51999635100708E-10  3.46696389217315E-02
 cg2d: Sum(rhs),rhsMax =  -1.51195195252640E-10  3.48502591110446E-02
 cg2d: Sum(rhs),rhsMax =  -1.50370826901280E-10  3.50282519245450E-02
 cg2d: Sum(rhs),rhsMax =  -1.49558476714162E-10  3.52038854193168E-02
 cg2d: Sum(rhs),rhsMax =  -1.48785817000174E-10  3.53770659197430E-02
 cg2d: Sum(rhs),rhsMax =  -1.47998724386866E-10  3.55476000441804E-02
 cg2d: Sum(rhs),rhsMax =  -1.47250545090571E-10  3.57155440561558E-02
 cg2d: Sum(rhs),rhsMax =  -1.46496870190305E-10  3.58810313591743E-02
 cg2d: Sum(rhs),rhsMax =  -1.45783385363529E-10  3.60440564750420E-02
 cg2d: Sum(rhs),rhsMax =  -1.45102485582527E-10  3.62044222941037E-02
 cg2d: Sum(rhs),rhsMax =  -1.44383727196384E-10  3.63619579611566E-02
 cg2d: Sum(rhs),rhsMax =  -1.43728029478041E-10  3.65165811440483E-02
 cg2d: Sum(rhs),rhsMax =  -1.43084433190666E-10  3.66681225472721E-02
 cg2d: Sum(rhs),rhsMax =  -1.42444611661574E-10  3.68164531717056E-02
 cg2d: Sum(rhs),rhsMax =  -1.41854972213196E-10  3.69612273759681E-02
 cg2d: Sum(rhs),rhsMax =  -1.41297196165624E-10  3.71022451532332E-02
 cg2d: Sum(rhs),rhsMax =  -1.37969524693915E-10  3.79829382732401E-02
 cg2d: Sum(rhs),rhsMax =  -1.32801547536587E-10  3.94511759108672E-02
 cg2d: Sum(rhs),rhsMax =  -1.28020261058737E-10  4.09020859050437E-02
 cg2d: Sum(rhs),rhsMax =  -1.23690058195791E-10  4.23349865770382E-02
 cg2d: Sum(rhs),rhsMax =  -1.19525611630422E-10  4.37772496924324E-02
 cg2d: Sum(rhs),rhsMax =  -1.15499498853922E-10  4.52554574099406E-02
 cg2d: Sum(rhs),rhsMax =  -1.11845976924485E-10  4.67139945126619E-02
 cg2d: Sum(rhs),rhsMax =  -1.08400732834468E-10  4.81521925982508E-02
 cg2d: Sum(rhs),rhsMax =  -1.04526831634644E-10  4.98727459408417E-02
 cg2d: Sum(rhs),rhsMax =  -1.00981334405503E-10  5.16089131237376E-02
 cg2d: Sum(rhs),rhsMax =  -9.76897451820946E-11  5.33190000482276E-02
 cg2d: Sum(rhs),rhsMax =  -9.46018818837047E-11  5.50021728729351E-02
 cg2d: Sum(rhs),rhsMax =  -9.17782516651755E-11  5.66576107283830E-02
 cg2d: Sum(rhs),rhsMax =  -8.91836604566265E-11  5.82845051921842E-02
 cg2d: Sum(rhs),rhsMax =  -8.67361737988404E-11  5.98820598024740E-02
 cg2d: Sum(rhs),rhsMax =  -8.44674330480188E-11  6.14494896607441E-02
 cg2d: Sum(rhs),rhsMax =  -8.22715229276128E-11  6.29860211296194E-02
 cg2d: Sum(rhs),rhsMax =  -8.02182764658710E-11  6.44908916158129E-02
 cg2d: Sum(rhs),rhsMax =  -7.83109133095650E-11  6.59633494353402E-02
 cg2d: Sum(rhs),rhsMax =  -7.65264518420850E-11  6.74026537758255E-02
 cg2d: Sum(rhs),rhsMax =  -7.48144879381130E-11  6.88080747869134E-02
 cg2d: Sum(rhs),rhsMax =  -7.32520710755580E-11  7.01788938315805E-02
 cg2d: Sum(rhs),rhsMax =  -7.17883530398922E-11  7.15144039126740E-02
 cg2d: Sum(rhs),rhsMax =  -7.04358793512938E-11  7.28139102585292E-02
 cg2d: Sum(rhs),rhsMax =  -6.91380286355070E-11  7.40767310299490E-02
 cg2d: Sum(rhs),rhsMax =  -6.79175604645366E-11  7.53021981157588E-02
 cg2d: Sum(rhs),rhsMax =  -6.67997879233440E-11  7.64896580100159E-02
 cg2d: Sum(rhs),rhsMax =  -6.57459642283698E-11  7.76384727817898E-02
 cg2d: Sum(rhs),rhsMax =  -6.47436548817382E-11  7.87480211326509E-02
 cg2d: Sum(rhs),rhsMax =  -6.37917496604246E-11  7.98176994938291E-02
 cg2d: Sum(rhs),rhsMax =  -6.29450935818454E-11  8.08469230824873E-02
 cg2d: Sum(rhs),rhsMax =  -6.21195317407341E-11  8.18351268538560E-02
 cg2d: Sum(rhs),rhsMax =  -6.13472606048049E-11  8.27817663564166E-02
 cg2d: Sum(rhs),rhsMax =  -6.06128480740153E-11  8.36863185805615E-02
 cg2d: Sum(rhs),rhsMax =  -5.99844618420775E-11  8.45482829298159E-02
 cg2d: Sum(rhs),rhsMax =  -5.93486371158747E-11  8.53671824075632E-02
 cg2d: Sum(rhs),rhsMax =  -5.87671022955760E-11  8.61425650208182E-02
 cg2d: Sum(rhs),rhsMax =  -5.82264236825836E-11  8.68740052897717E-02
 cg2d: Sum(rhs),rhsMax =  -5.76864112034059E-11  8.75611056761792E-02
 cg2d: Sum(rhs),rhsMax =  -5.72327740755441E-11  8.82034977463112E-02
 cg2d: Sum(rhs),rhsMax =  -5.67745850332813E-11  8.88008429521260E-02
 cg2d: Sum(rhs),rhsMax =  -5.63293856004066E-11  8.93528329992230E-02
 cg2d: Sum(rhs),rhsMax =  -5.59309265568686E-11  8.98591898310797E-02
 cg2d: Sum(rhs),rhsMax =  -5.55990808948081E-11  9.03196652856115E-02
 cg2d: Sum(rhs),rhsMax =  -5.52869972025860E-11  9.07340404815888E-02
 cg2d: Sum(rhs),rhsMax =  -5.49952305917145E-11  9.11021249931135E-02
 cg2d: Sum(rhs),rhsMax =  -5.48047163206888E-11  9.14237558425556E-02
 cg2d: Sum(rhs),rhsMax =  -5.46037659532317E-11  9.16987963664920E-02
 cg2d: Sum(rhs),rhsMax =  -5.44793099521712E-11  9.19271350401583E-02
 cg2d: Sum(rhs),rhsMax =  -5.43451950107965E-11  9.21086843489348E-02
 cg2d: Sum(rhs),rhsMax =  -5.41822142707815E-11  9.22433797753405E-02
 cg2d: Sum(rhs),rhsMax =  -5.41121591979277E-11  9.23311789455387E-02
 cg2d: Sum(rhs),rhsMax =  -5.40945066518361E-11  9.23720609703590E-02
 cg2d: Sum(rhs),rhsMax =  -5.41002798115642E-11  9.23660260020273E-02
 cg2d: Sum(rhs),rhsMax =  -5.40908429158549E-11  9.23130949554501E-02
 cg2d: Sum(rhs),rhsMax =  -5.41072742166193E-11  9.22133094113637E-02
 cg2d: Sum(rhs),rhsMax =  -5.42649258861161E-11  9.20667316366120E-02
 cg2d: Sum(rhs),rhsMax =  -5.44735367924432E-11  9.18734446376996E-02
 cg2d: Sum(rhs),rhsMax =  -5.46669376433329E-11  9.16335521749743E-02
 cg2d: Sum(rhs),rhsMax =  -5.48695533453269E-11  9.13471787244937E-02
 cg2d: Sum(rhs),rhsMax =  -5.50860468351289E-11  9.10144694756001E-02
 cg2d: Sum(rhs),rhsMax =  -5.53415091530951E-11  9.06355905422120E-02
 cg2d: Sum(rhs),rhsMax =  -5.56458212841449E-11  9.02107295746652E-02
 cg2d: Sum(rhs),rhsMax =  -5.59944313138772E-11  8.97400968583587E-02
 cg2d: Sum(rhs),rhsMax =  -5.63928903574151E-11  8.92239268198674E-02
 cg2d: Sum(rhs),rhsMax =  -5.67780267246576E-11  8.86624797191603E-02
 cg2d: Sum(rhs),rhsMax =  -5.72165648193845E-11  8.80560432590341E-02
 cg2d: Sum(rhs),rhsMax =  -5.76466652191243E-11  8.74049338974156E-02
 cg2d: Sum(rhs),rhsMax =  -5.81369397067988E-11  8.67094977509395E-02
 cg2d: Sum(rhs),rhsMax =  -5.86939385982532E-11  8.59701110606764E-02
 cg2d: Sum(rhs),rhsMax =  -5.92791371545331E-11  8.51871802224494E-02
 cg2d: Sum(rhs),rhsMax =  -5.98940896878730E-11  8.43611413975033E-02
 cg2d: Sum(rhs),rhsMax =  -6.05626659933023E-11  8.34924597467751E-02
 cg2d: Sum(rhs),rhsMax =  -6.12769834873461E-11  8.25816283317241E-02
 cg2d: Sum(rhs),rhsMax =  -6.20195006462154E-11  8.16291668955611E-02
 cg2d: Sum(rhs),rhsMax =  -6.28501695132400E-11  8.06356206973761E-02
 cg2d: Sum(rhs),rhsMax =  -6.37264685465766E-11  7.96015595379563E-02
 cg2d: Sum(rhs),rhsMax =  -6.46741549203966E-11  7.85275770244699E-02
 cg2d: Sum(rhs),rhsMax =  -6.56327214798580E-11  7.74142899905631E-02
 cg2d: Sum(rhs),rhsMax =  -6.67165211964971E-11  7.62623378946243E-02
 cg2d: Sum(rhs),rhsMax =  -6.78737066550639E-11  7.50723820402725E-02
 cg2d: Sum(rhs),rhsMax =  -6.90802970382265E-11  7.38451046052082E-02
 cg2d: Sum(rhs),rhsMax =  -7.03795910439453E-11  7.25812076277134E-02
 cg2d: Sum(rhs),rhsMax =  -7.17282899742600E-11  7.12814121550232E-02
 cg2d: Sum(rhs),rhsMax =  -7.31967819689316E-11  6.99464576675933E-02
 cg2d: Sum(rhs),rhsMax =  -7.47247819177232E-11  6.85771017439642E-02
 cg2d: Sum(rhs),rhsMax =  -7.64033281086540E-11  6.71741198399420E-02
 cg2d: Sum(rhs),rhsMax =  -7.82116593711635E-11  6.57383050556302E-02
 cg2d: Sum(rhs),rhsMax =  -8.01352317836290E-11  6.42704678048233E-02
 cg2d: Sum(rhs),rhsMax =  -8.21613888035699E-11  6.27714353236315E-02
 cg2d: Sum(rhs),rhsMax =  -8.43555225671366E-11  6.12420509659481E-02
 cg2d: Sum(rhs),rhsMax =  -8.66127169985020E-11  5.96831732720376E-02
 cg2d: Sum(rhs),rhsMax =  -8.90132412223466E-11  5.80956748717687E-02
 cg2d: Sum(rhs),rhsMax =  -9.16381415194678E-11  5.64804413484838E-02
 cg2d: Sum(rhs),rhsMax =  -9.44138101033332E-11  5.48383701848397E-02
 cg2d: Sum(rhs),rhsMax =  -9.74702540901262E-11  5.31703698289584E-02
 cg2d: Sum(rhs),rhsMax =  -1.00731978314172E-10  5.14773588068437E-02
 cg2d: Sum(rhs),rhsMax =  -1.04297237513151E-10  4.97602647362609E-02
 cg2d: Sum(rhs),rhsMax =  -1.08172582002908E-10  4.80200231133505E-02
 cg2d: Sum(rhs),rhsMax =  -1.12395315277070E-10  4.62575758285733E-02
 cg2d: Sum(rhs),rhsMax =  -1.16995413357301E-10  4.44738694828885E-02
 cg2d: Sum(rhs),rhsMax =  -1.21965881838548E-10  4.26698536554170E-02
 cg2d: Sum(rhs),rhsMax =  -1.27430066498846E-10  4.08464792752328E-02
 cg2d: Sum(rhs),rhsMax =  -1.32023392218628E-10  3.94224951592667E-02
 cg2d: Sum(rhs),rhsMax =  -1.32844957256850E-10  3.91802370592415E-02
 cg2d: Sum(rhs),rhsMax =  -1.33715372108156E-10  3.89346869612872E-02
 cg2d: Sum(rhs),rhsMax =  -1.34605770973906E-10  3.86860141930235E-02
 cg2d: Sum(rhs),rhsMax =  -1.35495059616630E-10  3.84343239456600E-02
 cg2d: Sum(rhs),rhsMax =  -1.36428313091130E-10  3.81796212920402E-02
 cg2d: Sum(rhs),rhsMax =  -1.37385658405265E-10  3.79221112975691E-02
 cg2d: Sum(rhs),rhsMax =  -1.38378530856187E-10  3.76618306327364E-02
 cg2d: Sum(rhs),rhsMax =  -1.39365075035869E-10  3.73991979902951E-02
 cg2d: Sum(rhs),rhsMax =  -1.40366718248686E-10  3.71344535618362E-02
 cg2d: Sum(rhs),rhsMax =  -1.41385458896082E-10  3.68677868509693E-02
 cg2d: Sum(rhs),rhsMax =  -1.42450384821302E-10  3.65994170840506E-02
 cg2d: Sum(rhs),rhsMax =  -1.43544731656675E-10  3.63295759992456E-02
 cg2d: Sum(rhs),rhsMax =  -1.44636247423335E-10  3.60583730436439E-02
 cg2d: Sum(rhs),rhsMax =  -1.45750800317757E-10  3.57856977265912E-02
 cg2d: Sum(rhs),rhsMax =  -1.46910872356187E-10  3.55116906525345E-02
 cg2d: Sum(rhs),rhsMax =  -1.48110107511812E-10  3.52362696266776E-02
 cg2d: Sum(rhs),rhsMax =  -1.49317697095697E-10  3.49589410947455E-02
 cg2d: Sum(rhs),rhsMax =  -1.50584447689006E-10  3.46794597388733E-02
 cg2d: Sum(rhs),rhsMax =  -1.51851392571345E-10  3.43975342197075E-02
 cg2d: Sum(rhs),rhsMax =  -1.53164326707755E-10  3.41128995487236E-02
 cg2d: Sum(rhs),rhsMax =  -1.54501703097942E-10  3.38255338400952E-02
 cg2d: Sum(rhs),rhsMax =  -1.55891355380078E-10  3.35355484022381E-02
 cg2d: Sum(rhs),rhsMax =  -1.57274582246458E-10  3.32432375363222E-02
 cg2d: Sum(rhs),rhsMax =  -1.58675073080872E-10  3.29487212922600E-02
 cg2d: Sum(rhs),rhsMax =  -1.60126356618662E-10  3.26516759870027E-02
 cg2d: Sum(rhs),rhsMax =  -1.61677837784424E-10  3.23519695733340E-02
 cg2d: Sum(rhs),rhsMax =  -1.63302593669812E-10  3.20499209187841E-02
 cg2d: Sum(rhs),rhsMax =  -1.62658886360134E-10  3.21760943552751E-02
 cg2d: Sum(rhs),rhsMax =  -1.51943790882569E-10  3.44594643413341E-02
 cg2d: Sum(rhs),rhsMax =  -1.42379774636936E-10  3.67861769428179E-02
 cg2d: Sum(rhs),rhsMax =  -1.33701161253441E-10  3.91812497051124E-02
 cg2d: Sum(rhs),rhsMax =  -1.26049393145422E-10  4.15782621409049E-02
 cg2d: Sum(rhs),rhsMax =  -1.19188547920146E-10  4.39697420179973E-02
 cg2d: Sum(rhs),rhsMax =  -1.13059672735005E-10  4.63545850355535E-02
 cg2d: Sum(rhs),rhsMax =  -1.07579833930060E-10  4.87316882245940E-02
 cg2d: Sum(rhs),rhsMax =  -1.02675867807989E-10  5.10999506154478E-02
 cg2d: Sum(rhs),rhsMax =  -9.82161019180694E-11  5.34582738360259E-02
 cg2d: Sum(rhs),rhsMax =  -9.41777766882979E-11  5.58055626453090E-02
 cg2d: Sum(rhs),rhsMax =  -9.04424313219465E-11  5.81407254113376E-02
 cg2d: Sum(rhs),rhsMax =  -8.70706839961599E-11  6.04626745462773E-02
 cg2d: Sum(rhs),rhsMax =  -8.39215363868107E-11  6.27703269119821E-02
 cg2d: Sum(rhs),rhsMax =  -8.09919908917323E-11  6.50626042080578E-02
 cg2d: Sum(rhs),rhsMax =  -7.83464404463530E-11  6.73384333508742E-02
 cg2d: Sum(rhs),rhsMax =  -7.58585416704705E-11  6.95967468476694E-02
 cg2d: Sum(rhs),rhsMax =  -7.35785876671002E-11  7.18364831654348E-02
 cg2d: Sum(rhs),rhsMax =  -7.14388548317402E-11  7.40565870901937E-02
 cg2d: Sum(rhs),rhsMax =  -6.94030388714850E-11  7.62560100652544E-02
 cg2d: Sum(rhs),rhsMax =  -6.75460798404970E-11  7.84337104991297E-02
 cg2d: Sum(rhs),rhsMax =  -6.57982557328296E-11  8.05886540302237E-02
 cg2d: Sum(rhs),rhsMax =  -6.41535713441499E-11  8.27198137365105E-02
 cg2d: Sum(rhs),rhsMax =  -6.26066976039397E-11  8.48261702825547E-02
 cg2d: Sum(rhs),rhsMax =  -6.11346528955892E-11  8.69067120035828E-02
 cg2d: Sum(rhs),rhsMax =  -5.97867311213918E-11  8.89604349346377E-02
 cg2d: Sum(rhs),rhsMax =  -5.84694515026740E-11  9.09863428082891E-02
 cg2d: Sum(rhs),rhsMax =  -5.72710767698936E-11  9.29834470589966E-02
 cg2d: Sum(rhs),rhsMax =  -5.61006796573338E-11  9.49507668858361E-02
 cg2d: Sum(rhs),rhsMax =  -5.51222401057316E-11  9.68873294420897E-02
 cg2d: Sum(rhs),rhsMax =  -5.41245936958035E-11  9.87921702256797E-02
 cg2d: Sum(rhs),rhsMax =  -5.31880095522297E-11  1.00664333750716E-01
 cg2d: Sum(rhs),rhsMax =  -5.23779908334632E-11  1.02502874578649E-01
 cg2d: Sum(rhs),rhsMax =  -5.15317788440939E-11  1.04306858773232E-01
 cg2d: Sum(rhs),rhsMax =  -5.07717201614355E-11  1.06075365822040E-01
 cg2d: Sum(rhs),rhsMax =  -5.00316454932204E-11  1.07807491035150E-01
 cg2d: Sum(rhs),rhsMax =  -4.93186602668061E-11  1.09502348391815E-01
 cg2d: Sum(rhs),rhsMax =  -4.86449769354635E-11  1.11159073761356E-01
 cg2d: Sum(rhs),rhsMax =  -4.80384620971108E-11  1.12776828378774E-01
 cg2d: Sum(rhs),rhsMax =  -4.74456030019610E-11  1.14354802415209E-01
 cg2d: Sum(rhs),rhsMax =  -4.68972638500986E-11  1.15892218449586E-01
 cg2d: Sum(rhs),rhsMax =  -4.63205029888059E-11  1.17388334628092E-01
 cg2d: Sum(rhs),rhsMax =  -4.58123539104349E-11  1.18842447296127E-01
 cg2d: Sum(rhs),rhsMax =  -4.53475035300244E-11  1.20253892909682E-01
 cg2d: Sum(rhs),rhsMax =  -4.48472370351283E-11  1.21622049058978E-01
 cg2d: Sum(rhs),rhsMax =  -4.44283498879372E-11  1.22946334492898E-01
 cg2d: Sum(rhs),rhsMax =  -4.40301128890042E-11  1.24226208100364E-01
 cg2d: Sum(rhs),rhsMax =  -4.36503055922799E-11  1.25461166874660E-01
 cg2d: Sum(rhs),rhsMax =  -4.32807123473822E-11  1.26650742957260E-01
 cg2d: Sum(rhs),rhsMax =  -4.30174784682436E-11  1.27794499926171E-01
 cg2d: Sum(rhs),rhsMax =  -4.25280921589888E-11  1.28892028544664E-01
 cg2d: Sum(rhs),rhsMax =  -4.22271106970129E-11  1.29942942225620E-01
 cg2d: Sum(rhs),rhsMax =  -4.19828616315954E-11  1.30946872463558E-01
 cg2d: Sum(rhs),rhsMax =  -4.17627044058122E-11  1.31903464508825E-01
 cg2d: Sum(rhs),rhsMax =  -4.15770751160949E-11  1.32812373522917E-01
 cg2d: Sum(rhs),rhsMax =  -4.13271639132518E-11  1.33673261410062E-01
 cg2d: Sum(rhs),rhsMax =  -4.11127798471966E-11  1.34485794466487E-01
 cg2d: Sum(rhs),rhsMax =  -4.09602352036131E-11  1.35249641928923E-01
 cg2d: Sum(rhs),rhsMax =  -4.07850420103273E-11  1.35964475443101E-01
 cg2d: Sum(rhs),rhsMax =  -4.06321642998364E-11  1.36629969416273E-01
 cg2d: Sum(rhs),rhsMax =  -4.04944966447829E-11  1.37245802169261E-01
 cg2d: Sum(rhs),rhsMax =  -4.03665989523461E-11  1.37811657769946E-01
 cg2d: Sum(rhs),rhsMax =  -4.02290423195950E-11  1.38327228393176E-01
 cg2d: Sum(rhs),rhsMax =  -4.01382260761807E-11  1.38792217046084E-01
 cg2d: Sum(rhs),rhsMax =  -4.00293131974649E-11  1.39206340507604E-01
 cg2d: Sum(rhs),rhsMax =  -3.99865696110169E-11  1.39569332329749E-01
 cg2d: Sum(rhs),rhsMax =  -3.99538180317904E-11  1.39880945764723E-01
 cg2d: Sum(rhs),rhsMax =  -3.99204003187492E-11  1.40140956497345E-01
 cg2d: Sum(rhs),rhsMax =  -3.99316135712979E-11  1.40349165095841E-01
 cg2d: Sum(rhs),rhsMax =  -3.98967525683247E-11  1.40505399142613E-01
 cg2d: Sum(rhs),rhsMax =  -3.99260624561748E-11  1.40609514969963E-01
 cg2d: Sum(rhs),rhsMax =  -3.98395760825565E-11  1.40661398982836E-01
 cg2d: Sum(rhs),rhsMax =  -3.98038269011636E-11  1.40660968570127E-01
 cg2d: Sum(rhs),rhsMax =  -3.97668564744436E-11  1.40608172621529E-01
 cg2d: Sum(rhs),rhsMax =  -3.97498700621668E-11  1.40502991680580E-01
 cg2d: Sum(rhs),rhsMax =  -3.97424315679018E-11  1.40345437781255E-01
 cg2d: Sum(rhs),rhsMax =  -3.97292199139088E-11  1.40135554013961E-01
 cg2d: Sum(rhs),rhsMax =  -3.97966104515035E-11  1.39873413839064E-01
 cg2d: Sum(rhs),rhsMax =  -3.98318045213841E-11  1.39559120257808E-01
 cg2d: Sum(rhs),rhsMax =  -3.98868715834055E-11  1.39192804903664E-01
 cg2d: Sum(rhs),rhsMax =  -4.00128818967005E-11  1.38774627118098E-01
(PID.TID 0000.0001)      cg2d_init_res =   2.05843413857917E-02
(PID.TID 0000.0001)      cg2d_iters(min,last) =      -1      37
(PID.TID 0000.0001)      cg2d_last_res =   5.02690153588285E-14
(PID.TID 0000.0001) // =======================================================
(PID.TID 0000.0001) // Begin MONITOR dynamic field statistics
(PID.TID 0000.0001) // =======================================================
(PID.TID 0000.0001) %MON time_tsnumber                =                  3360
(PID.TID 0000.0001) %MON time_secondsf                =   5.0400000000000E+04
(PID.TID 0000.0001) %MON dynstat_eta_max              =   2.4140900743386E-02
(PID.TID 0000.0001) %MON dynstat_eta_min              =  -2.0171049574490E-02
(PID.TID 0000.0001) %MON dynstat_eta_mean             =   1.2232459945759E-14
(PID.TID 0000.0001) %MON dynstat_eta_sd               =   1.6420707280062E-02
(PID.TID 0000.0001) %MON dynstat_eta_del2             =   3.2551132053005E-05
(PID.TID 0000.0001) %MON dynstat_uvel_max             =   1.1084564057920E+00
(PID.TID 0000.0001) %MON dynstat_uvel_min             =  -1.6008747167924E-01
(PID.TID 0000.0001) %MON dynstat_uvel_mean            =   4.5369544636010E-01
(PID.TID 0000.0001) %MON dynstat_uvel_sd              =   1.0084990951531E-01
(PID.TID 0000.0001) %MON dynstat_uvel_del2            =   4.4271209367255E-04
(PID.TID 0000.0001) %MON dynstat_vvel_max             =   0.0000000000000E+00
(PID.TID 0000.0001) %MON dynstat_vvel_min             =   0.0000000000000E+00
(PID.TID 0000.0001) %MON dynstat_vvel_mean            =   0.0000000000000E+00
(PID.TID 0000.0001) %MON dynstat_vvel_sd              =   0.0000000000000E+00
(PID.TID 0000.0001) %MON dynstat_vvel_del2            =   0.0000000000000E+00
(PID.TID 0000.0001) %MON dynstat_wvel_max             =   2.3908928000795E-02
(PID.TID 0000.0001) %MON dynstat_wvel_min             =  -2.0562927790694E-02
(PID.TID 0000.0001) %MON dynstat_wvel_mean            =  -1.3993620205802E-20
(PID.TID 0000.0001) %MON dynstat_wvel_sd              =   2.0637614011037E-03
(PID.TID 0000.0001) %MON dynstat_wvel_del2            =   3.7930606750129E-05
(PID.TID 0000.0001) %MON dynstat_theta_max            =   1.5000000000010E+01
(PID.TID 0000.0001) %MON dynstat_theta_min            =   9.9999999999965E+00
(PID.TID 0000.0001) %MON dynstat_theta_mean           =   1.4025491452127E+01
(PID.TID 0000.0001) %MON dynstat_theta_sd             =   1.8619628854880E+00
(PID.TID 0000.0001) %MON dynstat_theta_del2           =   8.1102366536656E-04
(PID.TID 0000.0001) %MON dynstat_salt_max             =   3.5000000000000E+01
(PID.TID 0000.0001) %MON dynstat_salt_min             =   3.5000000000000E+01
(PID.TID 0000.0001) %MON dynstat_salt_mean            =   3.5000000000000E+01
(PID.TID 0000.0001) %MON dynstat_salt_sd              =   3.0553337637684E-13
(PID.TID 0000.0001) %MON dynstat_salt_del2            =   0.0000000000000E+00
(PID.TID 0000.0001) %MON dynstat_sst_max              =   1.5000000000001E+01
(PID.TID 0000.0001) %MON dynstat_sst_min              =   1.4999999999999E+01
(PID.TID 0000.0001) %MON dynstat_sst_mean             =   1.5000000000000E+01
(PID.TID 0000.0001) %MON dynstat_sst_sd               =   3.8009055779688E-13
(PID.TID 0000.0001) %MON dynstat_sst_del2             =   6.3978553004282E-15
(PID.TID 0000.0001) %MON dynstat_sss_max              =   3.5000000000000E+01
(PID.TID 0000.0001) %MON dynstat_sss_min              =   3.5000000000000E+01
(PID.TID 0000.0001) %MON dynstat_sss_mean             =   3.5000000000000E+01
(PID.TID 0000.0001) %MON dynstat_sss_sd               =   2.8421709430404E-14
(PID.TID 0000.0001) %MON dynstat_sss_del2             =   0.0000000000000E+00
(PID.TID 0000.0001) %MON forcing_qnet_max             =   0.0000000000000E+00
(PID.TID 0000.0001) %MON forcing_qnet_min             =   0.0000000000000E+00
(PID.TID 0000.0001) %MON forcing_qnet_mean            =   0.0000000000000E+00
(PID.TID 0000.0001) %MON forcing_qnet_sd              =   0.0000000000000E+00
(PID.TID 0000.0001) %MON forcing_qnet_del2            =   0.0000000000000E+00
(PID.TID 0000.0001) %MON forcing_qsw_max              =   0.0000000000000E+00
(PID.TID 0000.0001) %MON forcing_qsw_min              =   0.0000000000000E+00
(PID.TID 0000.0001) %MON forcing_qsw_mean             =   0.0000000000000E+00
(PID.TID 0000.0001) %MON forcing_qsw_sd               =   0.0000000000000E+00
(PID.TID 0000.0001) %MON forcing_qsw_del2             =   0.0000000000000E+00
(PID.TID 0000.0001) %MON forcing_empmr_max            =   0.0000000000000E+00
(PID.TID 0000.0001) %MON forcing_empmr_min            =   0.0000000000000E+00
(PID.TID 0000.0001) %MON forcing_empmr_mean           =   0.0000000000000E+00
(PID.TID 0000.0001) %MON forcing_empmr_sd             =   0.0000000000000E+00
(PID.TID 0000.0001) %MON forcing_empmr_del2           =   0.0000000000000E+00
(PID.TID 0000.0001) %MON forcing_fu_max               =   0.0000000000000E+00
(PID.TID 0000.0001) %MON forcing_fu_min               =   0.0000000000000E+00
(PID.TID 0000.0001) %MON forcing_fu_mean              =   0.0000000000000E+00
(PID.TID 0000.0001) %MON forcing_fu_sd                =   0.0000000000000E+00
(PID.TID 0000.0001) %MON forcing_fu_del2              =   0.0000000000000E+00
(PID.TID 0000.0001) %MON forcing_fv_max               =   0.0000000000000E+00
(PID.TID 0000.0001) %MON forcing_fv_min               =   0.0000000000000E+00
(PID.TID 0000.0001) %MON forcing_fv_mean              =   0.0000000000000E+00
(PID.TID 0000.0001) %MON forcing_fv_sd                =   0.0000000000000E+00
(PID.TID 0000.0001) %MON forcing_fv_del2              =   0.0000000000000E+00
(PID.TID 0000.0001) %MON advcfl_uvel_max              =   7.9527344843278E-02
(PID.TID 0000.0001) %MON advcfl_vvel_max              =   0.0000000000000E+00
(PID.TID 0000.0001) %MON advcfl_wvel_max              =   1.3300504858988E-01
(PID.TID 0000.0001) %MON advcfl_W_hf_max              =   1.3445206427232E-01
(PID.TID 0000.0001) %MON pe_b_mean                    =   6.6829317417141E-06
(PID.TID 0000.0001) %MON ke_max                       =   4.7436554142151E-01
(PID.TID 0000.0001) %MON ke_mean                      =   1.0806082823761E-01
(PID.TID 0000.0001) %MON ke_vol                       =   9.6656965507697E+10
(PID.TID 0000.0001) %MON vort_r_min                   =   0.0000000000000E+00
(PID.TID 0000.0001) %MON vort_r_max                   =   0.0000000000000E+00
(PID.TID 0000.0001) %MON vort_a_mean                  =   0.0000000000000E+00
(PID.TID 0000.0001) %MON vort_a_sd                    =   0.0000000000000E+00
(PID.TID 0000.0001) %MON vort_p_mean                  =   0.0000000000000E+00
(PID.TID 0000.0001) %MON vort_p_sd                    =   0.0000000000000E+00
(PID.TID 0000.0001) %MON surfExpan_theta_mean         =  -6.7317971908740E-19
(PID.TID 0000.0001) %MON surfExpan_salt_mean          =  -6.5711837724195E-19
(PID.TID 0000.0001) // =======================================================
(PID.TID 0000.0001) // End MONITOR dynamic field statistics
(PID.TID 0000.0001) // =======================================================
(PID.TID 0000.0001) // =======================================================
(PID.TID 0000.0001) // Begin OBCS MONITOR field statistics
(PID.TID 0000.0001) // =======================================================
(PID.TID 0000.0001) %MON obc_E_uVel_max               =   4.4822851314926E-01
(PID.TID 0000.0001) %MON obc_E_uVel_min               =   4.4822851314926E-01
(PID.TID 0000.0001) %MON obc_E_uVel_mean              =   4.4822851314926E-01
(PID.TID 0000.0001) %MON obc_E_uVel_sd                =   0.0000000000000E+00
(PID.TID 0000.0001) %MON obc_E_uVel_Int               =   4.4822851314926E+05
(PID.TID 0000.0001) %MON obc_W_uVel_max               =   4.4822851314926E-01
(PID.TID 0000.0001) %MON obc_W_uVel_min               =   4.4822851314926E-01
(PID.TID 0000.0001) %MON obc_W_uVel_mean              =   4.4822851314926E-01
(PID.TID 0000.0001) %MON obc_W_uVel_sd                =   0.0000000000000E+00
(PID.TID 0000.0001) %MON obc_W_uVel_Int               =   4.4822851314926E+05
(PID.TID 0000.0001) // =======================================================
(PID.TID 0000.0001) // End OBCS MONITOR field statistics
(PID.TID 0000.0001) // =======================================================
 cg2d: Sum(rhs),rhsMax =  -4.00810495904125E-11  1.38304773074560E-01
 cg2d: Sum(rhs),rhsMax =  -4.01728650345490E-11  1.37783455001190E-01
 cg2d: Sum(rhs),rhsMax =  -4.03374000867984E-11  1.37210910556942E-01
 cg2d: Sum(rhs),rhsMax =  -4.04249966834413E-11  1.36587402412960E-01
 cg2d: Sum(rhs),rhsMax =  -4.05767641709076E-11  1.35913218045613E-01
 cg2d: Sum(rhs),rhsMax =  -4.06994438151287E-11  1.35188669813421E-01
 cg2d: Sum(rhs),rhsMax =  -4.08785227890007E-11  1.34414095270205E-01
 cg2d: Sum(rhs),rhsMax =  -4.10971257025494E-11  1.33589857690622E-01
 cg2d: Sum(rhs),rhsMax =  -4.12775369440510E-11  1.32716346777658E-01
 cg2d: Sum(rhs),rhsMax =  -4.14759337985515E-11  1.31793979508524E-01
 cg2d: Sum(rhs),rhsMax =  -4.17194057078518E-11  1.30823201063421E-01
 cg2d: Sum(rhs),rhsMax =  -4.19813073193609E-11  1.29804485773229E-01
 cg2d: Sum(rhs),rhsMax =  -4.22427648416601E-11  1.28738338006742E-01
 cg2d: Sum(rhs),rhsMax =  -4.25941504289540E-11  1.27625292954089E-01
 cg2d: Sum(rhs),rhsMax =  -4.29508650867660E-11  1.26465917283437E-01
 cg2d: Sum(rhs),rhsMax =  -4.33155733503554E-11  1.25260809530782E-01
 cg2d: Sum(rhs),rhsMax =  -4.36826130822965E-11  1.24010600221976E-01
 cg2d: Sum(rhs),rhsMax =  -4.41302550058253E-11  1.22715951732892E-01
 cg2d: Sum(rhs),rhsMax =  -4.45555814465592E-11  1.21377557879460E-01
 cg2d: Sum(rhs),rhsMax =  -4.49974502103601E-11  1.19996143260142E-01
 cg2d: Sum(rhs),rhsMax =  -4.54991599951882E-11  1.18572462371598E-01
 cg2d: Sum(rhs),rhsMax =  -4.59815518993878E-11  1.17107298529427E-01
 cg2d: Sum(rhs),rhsMax =  -4.65050220554986E-11  1.15601462634854E-01
 cg2d: Sum(rhs),rhsMax =  -4.71098715593143E-11  1.14055791833364E-01
 cg2d: Sum(rhs),rhsMax =  -4.76862993536997E-11  1.12471148111627E-01
 cg2d: Sum(rhs),rhsMax =  -4.83254547489764E-11  1.10848416875070E-01
 cg2d: Sum(rhs),rhsMax =  -4.90129048458243E-11  1.09188505544674E-01
 cg2d: Sum(rhs),rhsMax =  -4.97090146822643E-11  1.07492342192294E-01
 cg2d: Sum(rhs),rhsMax =  -5.04293273806411E-11  1.05760874225210E-01
 cg2d: Sum(rhs),rhsMax =  -5.12728748347513E-11  1.03995067143281E-01
 cg2d: Sum(rhs),rhsMax =  -5.20872234233138E-11  1.02195903363998E-01
 cg2d: Sum(rhs),rhsMax =  -5.29524202264042E-11  1.00364381104554E-01
 cg2d: Sum(rhs),rhsMax =  -5.38953326412184E-11  9.85015133078482E-02
 cg2d: Sum(rhs),rhsMax =  -5.49422729534399E-11  9.66083265995982E-02
 cg2d: Sum(rhs),rhsMax =  -5.59741142325265E-11  9.46858602421493E-02
 cg2d: Sum(rhs),rhsMax =  -5.70962166435152E-11  9.27351651275889E-02
 cg2d: Sum(rhs),rhsMax =  -5.82570658380632E-11  9.07573027749892E-02
 cg2d: Sum(rhs),rhsMax =  -5.95095084321429E-11  8.87533443143934E-02
 cg2d: Sum(rhs),rhsMax =  -6.08572081617353E-11  8.67243694523439E-02
 cg2d: Sum(rhs),rhsMax =  -6.22966123131619E-11  8.46714654272890E-02
 cg2d: Sum(rhs),rhsMax =  -6.38060715374422E-11  8.25957259645921E-02
 cg2d: Sum(rhs),rhsMax =  -6.54353238260796E-11  8.04982502361330E-02
 cg2d: Sum(rhs),rhsMax =  -6.71575017818782E-11  7.83801418291201E-02
 cg2d: Sum(rhs),rhsMax =  -6.90071333409037E-11  7.62425077434587E-02
 cg2d: Sum(rhs),rhsMax =  -7.09554637268184E-11  7.40864574155421E-02
 cg2d: Sum(rhs),rhsMax =  -7.30410176785767E-11  7.19131017705565E-02
 cg2d: Sum(rhs),rhsMax =  -7.52730100472832E-11  6.97235523099014E-02
 cg2d: Sum(rhs),rhsMax =  -7.76722020034981E-11  6.75189202369840E-02
 cg2d: Sum(rhs),rhsMax =  -8.02148347744946E-11  6.53003156197497E-02
 cg2d: Sum(rhs),rhsMax =  -8.30336910340179E-11  6.30688465843502E-02
 cg2d: Sum(rhs),rhsMax =  -8.59915472162243E-11  6.08256185500683E-02
 cg2d: Sum(rhs),rhsMax =  -8.91998697127860E-11  5.85717335000398E-02
 cg2d: Sum(rhs),rhsMax =  -9.26886345453681E-11  5.63082892880153E-02
 cg2d: Sum(rhs),rhsMax =  -9.65211244263742E-11  5.40363789610183E-02
 cg2d: Sum(rhs),rhsMax =  -1.00686681214768E-10  5.17570900926633E-02
 cg2d: Sum(rhs),rhsMax =  -1.05215280932214E-10  4.94715041436913E-02
 cg2d: Sum(rhs),rhsMax =  -1.10206288539416E-10  4.71806958414572E-02
 cg2d: Sum(rhs),rhsMax =  -1.15740916850626E-10  4.48857325717634E-02
 cg2d: Sum(rhs),rhsMax =  -1.21867627100869E-10  4.25876737799710E-02
 cg2d: Sum(rhs),rhsMax =  -1.28714927605245E-10  4.02875703819625E-02
 cg2d: Sum(rhs),rhsMax =  -1.36471445255637E-10  3.79864641879677E-02
 cg2d: Sum(rhs),rhsMax =  -1.45226830561285E-10  3.56853873435203E-02
 cg2d: Sum(rhs),rhsMax =  -1.55227719567108E-10  3.33853617923413E-02
 cg2d: Sum(rhs),rhsMax =  -1.60388813341683E-10  3.22979827940209E-02
 cg2d: Sum(rhs),rhsMax =  -1.59682045364207E-10  3.24257543530226E-02
 cg2d: Sum(rhs),rhsMax =  -1.59006308120269E-10  3.25524511063190E-02
 cg2d: Sum(rhs),rhsMax =  -1.58341090239489E-10  3.26776626752285E-02
 cg2d: Sum(rhs),rhsMax =  -1.57707395753715E-10  3.28014463691252E-02
 cg2d: Sum(rhs),rhsMax =  -1.57106178760857E-10  3.29238060960743E-02
 cg2d: Sum(rhs),rhsMax =  -1.56500673531568E-10  3.30445917353552E-02
 cg2d: Sum(rhs),rhsMax =  -1.55920887312533E-10  3.31640156429623E-02
 cg2d: Sum(rhs),rhsMax =  -1.55336021823160E-10  3.32825651154160E-02
 cg2d: Sum(rhs),rhsMax =  -1.54727647361241E-10  3.34003938502358E-02
 cg2d: Sum(rhs),rhsMax =  -1.53704438066171E-10  3.36092357006161E-02
 cg2d: Sum(rhs),rhsMax =  -1.51967438632994E-10  3.39902396189225E-02
 cg2d: Sum(rhs),rhsMax =  -1.50224110928576E-10  3.43684152194062E-02
 cg2d: Sum(rhs),rhsMax =  -1.48566103863601E-10  3.47434844484723E-02
 cg2d: Sum(rhs),rhsMax =  -1.46965550840150E-10  3.51154211366032E-02
 cg2d: Sum(rhs),rhsMax =  -1.45359169145820E-10  3.54842418747292E-02
 cg2d: Sum(rhs),rhsMax =  -1.43836498267547E-10  3.58498659467783E-02
 cg2d: Sum(rhs),rhsMax =  -1.42361455957030E-10  3.62120598446461E-02
 cg2d: Sum(rhs),rhsMax =  -1.40870870524168E-10  3.65705140393937E-02
 cg2d: Sum(rhs),rhsMax =  -1.39514622077286E-10  3.69249957804790E-02
 cg2d: Sum(rhs),rhsMax =  -1.38178579689452E-10  3.72756362603304E-02
 cg2d: Sum(rhs),rhsMax =  -1.36856637134031E-10  3.76220244935952E-02
 cg2d: Sum(rhs),rhsMax =  -1.35604194539951E-10  3.79638147051590E-02
 cg2d: Sum(rhs),rhsMax =  -1.34373956406364E-10  3.83008763537503E-02
 cg2d: Sum(rhs),rhsMax =  -1.33164479443337E-10  3.86331769766110E-02
 cg2d: Sum(rhs),rhsMax =  -1.31988309171049E-10  3.89606647393926E-02
 cg2d: Sum(rhs),rhsMax =  -1.30778721185720E-10  3.93190522361254E-02
 cg2d: Sum(rhs),rhsMax =  -1.25276233831073E-10  4.10091116728015E-02
 cg2d: Sum(rhs),rhsMax =  -1.20266241410150E-10  4.26779868256814E-02
 cg2d: Sum(rhs),rhsMax =  -1.15715437232211E-10  4.43248680669672E-02
 cg2d: Sum(rhs),rhsMax =  -1.11544773417904E-10  4.59489543489060E-02
 cg2d: Sum(rhs),rhsMax =  -1.07753583833414E-10  4.75494535478564E-02
 cg2d: Sum(rhs),rhsMax =  -1.04213859764002E-10  4.91255828141823E-02
 cg2d: Sum(rhs),rhsMax =  -1.00960018123430E-10  5.06765690025546E-02
 cg2d: Sum(rhs),rhsMax =  -9.79708536519297E-11  5.22016493145627E-02
 cg2d: Sum(rhs),rhsMax =  -9.51640988233748E-11  5.37000722422075E-02
 cg2d: Sum(rhs),rhsMax =  -9.25745036184367E-11  5.51710987929478E-02
 cg2d: Sum(rhs),rhsMax =  -9.00962637828684E-11  5.66140038458313E-02
 cg2d: Sum(rhs),rhsMax =  -8.78588313213413E-11  5.80280774076370E-02
 cg2d: Sum(rhs),rhsMax =  -8.57544035781643E-11  5.94126256960517E-02
 cg2d: Sum(rhs),rhsMax =  -8.37924174490468E-11  6.07669720365811E-02
 cg2d: Sum(rhs),rhsMax =  -8.19621037706497E-11  6.20904576166480E-02
 cg2d: Sum(rhs),rhsMax =  -8.01638755376644E-11  6.33824421616639E-02
 cg2d: Sum(rhs),rhsMax =  -7.84939890863257E-11  6.46423045714949E-02
 cg2d: Sum(rhs),rhsMax =  -7.69150299007038E-11  6.58694435145330E-02
 cg2d: Sum(rhs),rhsMax =  -7.54700746341541E-11  6.70632779309496E-02
 cg2d: Sum(rhs),rhsMax =  -7.41006145332790E-11  6.82232473600669E-02
 cg2d: Sum(rhs),rhsMax =  -7.27959914570420E-11  6.93488120731270E-02
 cg2d: Sum(rhs),rhsMax =  -7.15774106652134E-11  7.04394530788211E-02
 cg2d: Sum(rhs),rhsMax =  -7.04308833476830E-11  7.14946720882612E-02
 cg2d: Sum(rhs),rhsMax =  -6.93671786677896E-11  7.25139914745996E-02
 cg2d: Sum(rhs),rhsMax =  -6.83547662916340E-11  7.34969541990282E-02
 cg2d: Sum(rhs),rhsMax =  -6.73998634681539E-11  7.44431236539562E-02
 cg2d: Sum(rhs),rhsMax =  -6.65114630038488E-11  7.53520834012541E-02
 cg2d: Sum(rhs),rhsMax =  -6.56655840813869E-11  7.62234368232121E-02
 cg2d: Sum(rhs),rhsMax =  -6.48888720533591E-11  7.70568067177902E-02
 cg2d: Sum(rhs),rhsMax =  -6.42016440011162E-11  7.78518349377365E-02
 cg2d: Sum(rhs),rhsMax =  -6.34822194811591E-11  7.86081818707511E-02
 cg2d: Sum(rhs),rhsMax =  -6.28733731744546E-11  7.93255258725086E-02
 cg2d: Sum(rhs),rhsMax =  -6.22731866073423E-11  8.00035627449277E-02
 cg2d: Sum(rhs),rhsMax =  -6.16791062668653E-11  8.06420052176773E-02
 cg2d: Sum(rhs),rhsMax =  -6.11177775056149E-11  8.12405823697671E-02
 cg2d: Sum(rhs),rhsMax =  -6.06209527020951E-11  8.17990390022176E-02
 cg2d: Sum(rhs),rhsMax =  -6.01544369871476E-11  8.23171350465831E-02
 cg2d: Sum(rhs),rhsMax =  -5.97262239665497E-11  8.27946451216564E-02
 cg2d: Sum(rhs),rhsMax =  -5.93504134727141E-11  8.32313582630471E-02
 cg2d: Sum(rhs),rhsMax =  -5.89881476997789E-11  8.36270777794467E-02
 cg2d: Sum(rhs),rhsMax =  -5.87099258098078E-11  8.39816212069085E-02
 cg2d: Sum(rhs),rhsMax =  -5.84264858716210E-11  8.42948203910571E-02
 cg2d: Sum(rhs),rhsMax =  -5.81954484601965E-11  8.45665217984809E-02
 cg2d: Sum(rhs),rhsMax =  -5.79984948956280E-11  8.47965871386667E-02
 cg2d: Sum(rhs),rhsMax =  -5.78257441929964E-11  8.49848943311736E-02
 cg2d: Sum(rhs),rhsMax =  -5.77017322811457E-11  8.51313387307100E-02
 cg2d: Sum(rhs),rhsMax =  -5.75326453144953E-11  8.52358345345963E-02
 cg2d: Sum(rhs),rhsMax =  -5.74267300379461E-11  8.52983162865344E-02
 cg2d: Sum(rhs),rhsMax =  -5.74030822875216E-11  8.53187403735435E-02
 cg2d: Sum(rhs),rhsMax =  -5.73481262478026E-11  8.52970863842807E-02
 cg2d: Sum(rhs),rhsMax =  -5.73477931808952E-11  8.52333581565462E-02
 cg2d: Sum(rhs),rhsMax =  -5.73681102622459E-11  8.51275843366220E-02
 cg2d: Sum(rhs),rhsMax =  -5.74474912085066E-11  8.49798183380158E-02
 cg2d: Sum(rhs),rhsMax =  -5.76211300895579E-11  8.47901377115403E-02
 cg2d: Sum(rhs),rhsMax =  -5.78400660700140E-11  8.45586430752922E-02
 cg2d: Sum(rhs),rhsMax =  -5.80286929618978E-11  8.42854568489571E-02
 cg2d: Sum(rhs),rhsMax =  -5.82704995366612E-11  8.39707220609461E-02
 cg2d: Sum(rhs),rhsMax =  -5.85713699763346E-11  8.36146014507075E-02
 cg2d: Sum(rhs),rhsMax =  -5.88880055829577E-11  8.32172769954460E-02
 cg2d: Sum(rhs),rhsMax =  -5.92647042552130E-11  8.27789498858971E-02
 cg2d: Sum(rhs),rhsMax =  -5.96379612360920E-11  8.22998408942010E-02
 cg2d: Sum(rhs),rhsMax =  -6.01014793488730E-11  8.17801910322736E-02
 cg2d: Sum(rhs),rhsMax =  -6.05520078522659E-11  8.12202624054899E-02
 cg2d: Sum(rhs),rhsMax =  -6.10690387148338E-11  8.06203391567298E-02
 cg2d: Sum(rhs),rhsMax =  -6.15635320500019E-11  7.99807283126197E-02
 cg2d: Sum(rhs),rhsMax =  -6.21209750306662E-11  7.93017603066103E-02
 cg2d: Sum(rhs),rhsMax =  -6.27243812445499E-11  7.85837890771585E-02
 cg2d: Sum(rhs),rhsMax =  -6.33580965470060E-11  7.78271917953655E-02
 cg2d: Sum(rhs),rhsMax =  -6.40533182050262E-11  7.70323684942692E-02
 cg2d: Sum(rhs),rhsMax =  -6.48173736905733E-11  7.61997417420923E-02
 cg2d: Sum(rhs),rhsMax =  -6.55753229494849E-11  7.53297562737058E-02
 cg2d: Sum(rhs),rhsMax =  -6.64464039346058E-11  7.44228785374889E-02
 cg2d: Sum(rhs),rhsMax =  -6.73138211837454E-11  7.34795960846556E-02
 cg2d: Sum(rhs),rhsMax =  -6.83233469800371E-11  7.25004166699226E-02
 cg2d: Sum(rhs),rhsMax =  -6.93379798022420E-11  7.14858671679669E-02
 cg2d: Sum(rhs),rhsMax =  -7.04555302988297E-11  7.04364925076991E-02
 cg2d: Sum(rhs),rhsMax =  -7.16228187869206E-11  6.93528547370842E-02
 cg2d: Sum(rhs),rhsMax =  -7.28784810277716E-11  6.82355321716089E-02
 cg2d: Sum(rhs),rhsMax =  -7.42264028019690E-11  6.70851185295743E-02
 cg2d: Sum(rhs),rhsMax =  -7.56232854115524E-11  6.59022220438957E-02
 cg2d: Sum(rhs),rhsMax =  -7.71417374423322E-11  6.46874645407235E-02
 cg2d: Sum(rhs),rhsMax =  -7.87409026870023E-11  6.34414805182188E-02
 cg2d: Sum(rhs),rhsMax =  -8.03809241389786E-11  6.21649163778858E-02
 cg2d: Sum(rhs),rhsMax =  -8.22120149734928E-11  6.08584300005928E-02
 cg2d: Sum(rhs),rhsMax =  -8.40867375728749E-11  5.95226907777584E-02
 cg2d: Sum(rhs),rhsMax =  -8.61145599273527E-11  5.81583800646019E-02
 cg2d: Sum(rhs),rhsMax =  -8.82846018512851E-11  5.67661919235941E-02
 cg2d: Sum(rhs),rhsMax =  -9.05721053712227E-11  5.53468340141915E-02
 cg2d: Sum(rhs),rhsMax =  -9.30669985521604E-11  5.39010284936354E-02
 cg2d: Sum(rhs),rhsMax =  -9.57637302789749E-11  5.24295127877290E-02
 cg2d: Sum(rhs),rhsMax =  -9.86426496041304E-11  5.09330401008172E-02
 cg2d: Sum(rhs),rhsMax =  -1.01724073608978E-10  4.94123796078659E-02
 cg2d: Sum(rhs),rhsMax =  -1.05072950340457E-10  4.78683163364371E-02
 cg2d: Sum(rhs),rhsMax =  -1.08722364444702E-10  4.63016507320851E-02
 cg2d: Sum(rhs),rhsMax =  -1.12643450123073E-10  4.47131978524732E-02
 cg2d: Sum(rhs),rhsMax =  -1.16908482894473E-10  4.31037861288331E-02
 cg2d: Sum(rhs),rhsMax =  -1.21582299783540E-10  4.14742556835930E-02
 cg2d: Sum(rhs),rhsMax =  -1.24766419418165E-10  4.04415462274563E-02
 cg2d: Sum(rhs),rhsMax =  -1.25776611348272E-10  4.01438816656596E-02
 cg2d: Sum(rhs),rhsMax =  -1.26837318425999E-10  3.98408637264110E-02
 cg2d: Sum(rhs),rhsMax =  -1.27932886506699E-10  3.95323694361186E-02
 cg2d: Sum(rhs),rhsMax =  -1.29069310794705E-10  3.92187034475199E-02
 cg2d: Sum(rhs),rhsMax =  -1.30201849302125E-10  3.88998615286176E-02
 cg2d: Sum(rhs),rhsMax =  -1.31413213644294E-10  3.85761733470377E-02
 cg2d: Sum(rhs),rhsMax =  -1.32665545216071E-10  3.82477425667013E-02
 cg2d: Sum(rhs),rhsMax =  -1.33938082846896E-10  3.79146944565735E-02
 cg2d: Sum(rhs),rhsMax =  -1.35152555813534E-10  3.75773756091149E-02
 cg2d: Sum(rhs),rhsMax =  -1.36422206864495E-10  3.72361823772643E-02
 cg2d: Sum(rhs),rhsMax =  -1.37743705330706E-10  3.68915908374735E-02
 cg2d: Sum(rhs),rhsMax =  -1.39097733331539E-10  3.65436242631166E-02
 cg2d: Sum(rhs),rhsMax =  -1.40513323199087E-10  3.61928683121226E-02
 cg2d: Sum(rhs),rhsMax =  -1.41914924256525E-10  3.58398747599288E-02
 cg2d: Sum(rhs),rhsMax =  -1.43377920647225E-10  3.54849071432640E-02
 cg2d: Sum(rhs),rhsMax =  -1.44875278440537E-10  3.51282247942619E-02
 cg2d: Sum(rhs),rhsMax =  -1.46388901001160E-10  3.47702905518982E-02
 cg2d: Sum(rhs),rhsMax =  -1.47932638361326E-10  3.44112370575820E-02
 cg2d: Sum(rhs),rhsMax =  -1.49491474754626E-10  3.40509778522552E-02
 cg2d: Sum(rhs),rhsMax =  -1.51112303226064E-10  3.36897893845385E-02
 cg2d: Sum(rhs),rhsMax =  -1.52831899913330E-10  3.33278560020728E-02
 cg2d: Sum(rhs),rhsMax =  -1.54573341973330E-10  3.29653231877058E-02
 cg2d: Sum(rhs),rhsMax =  -1.56338934853562E-10  3.26024520355232E-02
 cg2d: Sum(rhs),rhsMax =  -1.58129551119934E-10  3.22396283943811E-02
 cg2d: Sum(rhs),rhsMax =  -1.59957186385284E-10  3.18770774090470E-02
 cg2d: Sum(rhs),rhsMax =  -1.61817614863224E-10  3.15148770734200E-02
 cg2d: Sum(rhs),rhsMax =  -1.63103308636892E-10  3.12740673691250E-02
 cg2d: Sum(rhs),rhsMax =  -1.63787705620422E-10  3.11541522464129E-02
 cg2d: Sum(rhs),rhsMax =  -1.63862201585374E-10  3.11427994064457E-02
 cg2d: Sum(rhs),rhsMax =  -1.53461299223778E-10  3.32668067437695E-02
 cg2d: Sum(rhs),rhsMax =  -1.44001977009367E-10  3.54589883882685E-02
 cg2d: Sum(rhs),rhsMax =  -1.35555622282624E-10  3.76744195000174E-02
 cg2d: Sum(rhs),rhsMax =  -1.28097310536646E-10  3.98864791865147E-02
 cg2d: Sum(rhs),rhsMax =  -1.21385124174367E-10  4.20941505893626E-02
 cg2d: Sum(rhs),rhsMax =  -1.15472853501331E-10  4.42964079523636E-02
 cg2d: Sum(rhs),rhsMax =  -1.10093156813207E-10  4.64922173510798E-02
 cg2d: Sum(rhs),rhsMax =  -1.05209840839393E-10  4.86805377536974E-02
 cg2d: Sum(rhs),rhsMax =  -1.00775054967528E-10  5.08603224132994E-02
 cg2d: Sum(rhs),rhsMax =  -9.67401714291327E-11  5.30305205732593E-02
 cg2d: Sum(rhs),rhsMax =  -9.30117094455341E-11  5.51900794552847E-02
 cg2d: Sum(rhs),rhsMax =  -8.96103191649900E-11  5.73379464805699E-02
 cg2d: Sum(rhs),rhsMax =  -8.64478488793452E-11  5.94730716602556E-02
 cg2d: Sum(rhs),rhsMax =  -8.35636004836715E-11  6.15944100797347E-02
 cg2d: Sum(rhs),rhsMax =  -8.08199063229154E-11  6.37009243923627E-02
 cg2d: Sum(rhs),rhsMax =  -7.83176856700152E-11  6.57915872326379E-02
 cg2d: Sum(rhs),rhsMax =  -7.59865503852097E-11  6.78653834579728E-02
 cg2d: Sum(rhs),rhsMax =  -7.38148431267405E-11  6.99213121326966E-02
 cg2d: Sum(rhs),rhsMax =  -7.18149983924832E-11  7.19583881782472E-02
 cg2d: Sum(rhs),rhsMax =  -6.98591184900010E-11  7.39756436293049E-02
 cg2d: Sum(rhs),rhsMax =  -6.80838718736254E-11  7.59721284559492E-02
 cg2d: Sum(rhs),rhsMax =  -6.63994415006641E-11  7.79469109354337E-02
 cg2d: Sum(rhs),rhsMax =  -6.48392450841584E-11  7.98990775821731E-02
 cg2d: Sum(rhs),rhsMax =  -6.33467722721548E-11  8.18277326692479E-02
 cg2d: Sum(rhs),rhsMax =  -6.19315709826651E-11  8.37319973967151E-02
 cg2d: Sum(rhs),rhsMax =  -6.06840133698938E-11  8.56110087834546E-02
 cg2d: Sum(rhs),rhsMax =  -5.94903015738169E-11  8.74639183692253E-02
 cg2d: Sum(rhs),rhsMax =  -5.84002846082399E-11  8.92898908221115E-02
 cg2d: Sum(rhs),rhsMax =  -5.73525671399011E-11  9.10881025492154E-02
 cg2d: Sum(rhs),rhsMax =  -5.63337154702026E-11  9.28577404032952E-02
 cg2d: Sum(rhs),rhsMax =  -5.54236656569174E-11  9.45980005676618E-02
 cg2d: Sum(rhs),rhsMax =  -5.45165024234961E-11  9.63080876835497E-02
 cg2d: Sum(rhs),rhsMax =  -5.36272137807714E-11  9.79872142670703E-02
 cg2d: Sum(rhs),rhsMax =  -5.27861088173154E-11  9.96346004432711E-02
 cg2d: Sum(rhs),rhsMax =  -5.20693488326174E-11  1.01249474005169E-01
 cg2d: Sum(rhs),rhsMax =  -5.13454834205618E-11  1.02831070786889E-01
 cg2d: Sum(rhs),rhsMax =  -5.06554798107572E-11  1.04378635323708E-01
 cg2d: Sum(rhs),rhsMax =  -5.00078867204934E-11  1.05891421759031E-01
 cg2d: Sum(rhs),rhsMax =  -4.94043694843072E-11  1.07368694949502E-01
 cg2d: Sum(rhs),rhsMax =  -4.88095119877130E-11  1.08809731714638E-01
 cg2d: Sum(rhs),rhsMax =  -4.82526241185610E-11  1.10213822176097E-01
 cg2d: Sum(rhs),rhsMax =  -4.77254902264690E-11  1.11580271131862E-01
 cg2d: Sum(rhs),rhsMax =  -4.72206718171719E-11  1.12908399422275E-01
 cg2d: Sum(rhs),rhsMax =  -4.67638150425387E-11  1.14197545241537E-01
 cg2d: Sum(rhs),rhsMax =  -4.63035165765291E-11  1.15447065360815E-01
 cg2d: Sum(rhs),rhsMax =  -4.58683091508760E-11  1.16656336238172E-01
 cg2d: Sum(rhs),rhsMax =  -4.54518644943391E-11  1.17824754999480E-01
 cg2d: Sum(rhs),rhsMax =  -4.50642856364425E-11  1.18951740282732E-01
 cg2d: Sum(rhs),rhsMax =  -4.46952475030571E-11  1.20036732944581E-01
 cg2d: Sum(rhs),rhsMax =  -4.43568515251513E-11  1.21079196638732E-01
 cg2d: Sum(rhs),rhsMax =  -4.40283365321648E-11  1.22078618280020E-01
 cg2d: Sum(rhs),rhsMax =  -4.37183622636894E-11  1.23034508398942E-01
 cg2d: Sum(rhs),rhsMax =  -4.34846603170058E-11  1.23946401409810E-01
 cg2d: Sum(rhs),rhsMax =  -4.32612834444512E-11  1.24813855816581E-01
 cg2d: Sum(rhs),rhsMax =  -4.30002700113619E-11  1.25636454374899E-01
 cg2d: Sum(rhs),rhsMax =  -4.28295177101745E-11  1.26413804227081E-01
 cg2d: Sum(rhs),rhsMax =  -4.26411128628956E-11  1.27145537024586E-01
 cg2d: Sum(rhs),rhsMax =  -4.24681401156590E-11  1.27831309049663E-01
 cg2d: Sum(rhs),rhsMax =  -4.22938351007929E-11  1.28470801344123E-01
 cg2d: Sum(rhs),rhsMax =  -4.21724877242013E-11  1.29063719848982E-01
 cg2d: Sum(rhs),rhsMax =  -4.20324886007961E-11  1.29609795554768E-01
 cg2d: Sum(rhs),rhsMax =  -4.19039247745445E-11  1.30108784661249E-01
 cg2d: Sum(rhs),rhsMax =  -4.18244328059814E-11  1.30560468734195E-01
 cg2d: Sum(rhs),rhsMax =  -4.17897938476131E-11  1.30964654844043E-01
 cg2d: Sum(rhs),rhsMax =  -4.16885415077672E-11  1.31321175685933E-01
 cg2d: Sum(rhs),rhsMax =  -4.16501277911152E-11  1.31629889669141E-01
 cg2d: Sum(rhs),rhsMax =  -4.16138234982100E-11  1.31890680956076E-01
 cg2d: Sum(rhs),rhsMax =  -4.15859569002919E-11  1.32103459462541E-01
 cg2d: Sum(rhs),rhsMax =  -4.15530942987630E-11  1.32268160816796E-01
 cg2d: Sum(rhs),rhsMax =  -4.15110168461297E-11  1.32384746257346E-01
 cg2d: Sum(rhs),rhsMax =  -4.15013579058154E-11  1.32453202476149E-01
 cg2d: Sum(rhs),rhsMax =  -4.14188683350858E-11  1.32473541418091E-01
 cg2d: Sum(rhs),rhsMax =  -4.13835632429027E-11  1.32445800049767E-01
 cg2d: Sum(rhs),rhsMax =  -4.13783451946870E-11  1.32370040110514E-01
 cg2d: Sum(rhs),rhsMax =  -4.13995504544573E-11  1.32246347877490E-01
 cg2d: Sum(rhs),rhsMax =  -4.13974410307105E-11  1.32074833910918E-01
 cg2d: Sum(rhs),rhsMax =  -4.14204226473203E-11  1.31855632808577E-01
 cg2d: Sum(rhs),rhsMax =  -4.14770440215761E-11  1.31588902993130E-01
 cg2d: Sum(rhs),rhsMax =  -4.15579792800713E-11  1.31274826531157E-01
 cg2d: Sum(rhs),rhsMax =  -4.16607859321516E-11  1.30913608978321E-01
 cg2d: Sum(rhs),rhsMax =  -4.17597068036457E-11  1.30505479246265E-01
 cg2d: Sum(rhs),rhsMax =  -4.18745038643920E-11  1.30050689470403E-01
 cg2d: Sum(rhs),rhsMax =  -4.20059542705076E-11  1.29549514877185E-01
 cg2d: Sum(rhs),rhsMax =  -4.21453982824005E-11  1.29002253638911E-01
 cg2d: Sum(rhs),rhsMax =  -4.23193702303593E-11  1.28409226707360E-01
 cg2d: Sum(rhs),rhsMax =  -4.24612567329063E-11  1.27770777600796E-01
 cg2d: Sum(rhs),rhsMax =  -4.26571000744502E-11  1.27087272177679E-01
 cg2d: Sum(rhs),rhsMax =  -4.28576063526975E-11  1.26359098374675E-01
 cg2d: Sum(rhs),rhsMax =  -4.30733226863822E-11  1.25586665897740E-01
 cg2d: Sum(rhs),rhsMax =  -4.32741620315369E-11  1.24770405876290E-01
 cg2d: Sum(rhs),rhsMax =  -4.35089742012451E-11  1.23910770494158E-01
 cg2d: Sum(rhs),rhsMax =  -4.37959668531107E-11  1.23008232612125E-01
 cg2d: Sum(rhs),rhsMax =  -4.41136016604560E-11  1.22063285374224E-01
 cg2d: Sum(rhs),rhsMax =  -4.44209113936722E-11  1.21076441873049E-01
 cg2d: Sum(rhs),rhsMax =  -4.46882530980020E-11  1.20048234833532E-01
 cg2d: Sum(rhs),rhsMax =  -4.50698367515656E-11  1.18979216323957E-01
 cg2d: Sum(rhs),rhsMax =  -4.54438708885618E-11  1.17869957497944E-01
 cg2d: Sum(rhs),rhsMax =  -4.58515447832042E-11  1.16721048322845E-01
 cg2d: Sum(rhs),rhsMax =  -4.62258009648053E-11  1.15533097337475E-01
 cg2d: Sum(rhs),rhsMax =  -4.66833238732534E-11  1.14306731408275E-01
 cg2d: Sum(rhs),rhsMax =  -4.71584993277929E-11  1.13042595475146E-01
 cg2d: Sum(rhs),rhsMax =  -4.76216843736665E-11  1.11741352258596E-01
 cg2d: Sum(rhs),rhsMax =  -4.81489292880610E-11  1.10403681902424E-01
 cg2d: Sum(rhs),rhsMax =  -4.87107021385214E-11  1.09030281532677E-01
 cg2d: Sum(rhs),rhsMax =  -4.92662577400438E-11  1.07621864722002E-01
 cg2d: Sum(rhs),rhsMax =  -4.98592278574961E-11  1.06179160857334E-01
 cg2d: Sum(rhs),rhsMax =  -5.05041564125008E-11  1.04702914424860E-01
 cg2d: Sum(rhs),rhsMax =  -5.11631847999183E-11  1.03193884202546E-01
 cg2d: Sum(rhs),rhsMax =  -5.18556309003770E-11  1.01652842405685E-01
 cg2d: Sum(rhs),rhsMax =  -5.25898213865617E-11  1.00080573812389E-01
 cg2d: Sum(rhs),rhsMax =  -5.33844080052859E-11  9.84778748970768E-02
 cg2d: Sum(rhs),rhsMax =  -5.41461320224812E-11  9.68455530024476E-02
 cg2d: Sum(rhs),rhsMax =  -5.50028911305844E-11  9.51844255810036E-02
 cg2d: Sum(rhs),rhsMax =  -5.59231549956962E-11  9.34953195336162E-02
 cg2d: Sum(rhs),rhsMax =  -5.68723956817507E-11  9.17790706658276E-02
 cg2d: Sum(rhs),rhsMax =  -5.78417314045510E-11  9.00365232739423E-02
 cg2d: Sum(rhs),rhsMax =  -5.89023274599754E-11  8.82685298308126E-02
 cg2d: Sum(rhs),rhsMax =  -6.00003380313296E-11  8.64759508470233E-02
 cg2d: Sum(rhs),rhsMax =  -6.11801720395988E-11  8.46596548130860E-02
 cg2d: Sum(rhs),rhsMax =  -6.24044149688530E-11  8.28205181979971E-02
 cg2d: Sum(rhs),rhsMax =  -6.37067065767383E-11  8.09594254719439E-02
 cg2d: Sum(rhs),rhsMax =  -6.51755316383174E-11  7.90772691175134E-02
 cg2d: Sum(rhs),rhsMax =  -6.67431665490881E-11  7.71749495949884E-02
 cg2d: Sum(rhs),rhsMax =  -6.84112766435874E-11  7.52533752258262E-02
 cg2d: Sum(rhs),rhsMax =  -7.01843028139137E-11  7.33134619609168E-02
 cg2d: Sum(rhs),rhsMax =  -7.20639103946041E-11  7.13561330023241E-02
 cg2d: Sum(rhs),rhsMax =  -7.40395522669246E-11  6.93823182648540E-02
 cg2d: Sum(rhs),rhsMax =  -7.61646301583596E-11  6.73929536837763E-02
 cg2d: Sum(rhs),rhsMax =  -7.84285969501752E-11  6.53889803596379E-02
 cg2d: Sum(rhs),rhsMax =  -8.08560995935181E-11  6.33713435738893E-02
 cg2d: Sum(rhs),rhsMax =  -8.34411428840554E-11  6.13409917083171E-02
 cg2d: Sum(rhs),rhsMax =  -8.62543370061530E-11  5.92988751034090E-02
 cg2d: Sum(rhs),rhsMax =  -8.92723672762941E-11  5.72459448968329E-02
 cg2d: Sum(rhs),rhsMax =  -9.25838850029947E-11  5.51831518817647E-02
 cg2d: Sum(rhs),rhsMax =  -9.61270507637835E-11  5.31114454340796E-02
 cg2d: Sum(rhs),rhsMax =  -9.99637594922831E-11  5.10317725268637E-02
 cg2d: Sum(rhs),rhsMax =  -1.04148412116700E-10  4.89450768719976E-02
 cg2d: Sum(rhs),rhsMax =  -1.08780984220402E-10  4.68522982171199E-02
 cg2d: Sum(rhs),rhsMax =  -1.13788700684125E-10  4.47543718047622E-02
 cg2d: Sum(rhs),rhsMax =  -1.19370513473882E-10  4.26522279909899E-02
 cg2d: Sum(rhs),rhsMax =  -1.25439048037634E-10  4.05467920132937E-02
 cg2d: Sum(rhs),rhsMax =  -1.32270194797002E-10  3.84389838910837E-02
 cg2d: Sum(rhs),rhsMax =  -1.39889377859248E-10  3.63297184368728E-02
 cg2d: Sum(rhs),rhsMax =  -1.48473289218742E-10  3.42199053521266E-02
 cg2d: Sum(rhs),rhsMax =  -1.50023549139178E-10  3.38658551655766E-02
 cg2d: Sum(rhs),rhsMax =  -1.48454332160597E-10  3.42131832420570E-02
 cg2d: Sum(rhs),rhsMax =  -1.46919088006570E-10  3.45588630289318E-02
 cg2d: Sum(rhs),rhsMax =  -1.45434102261088E-10  3.49029007084637E-02
 cg2d: Sum(rhs),rhsMax =  -1.43945855235472E-10  3.52452676716994E-02
 cg2d: Sum(rhs),rhsMax =  -1.42506992317770E-10  3.55859110389732E-02
 cg2d: Sum(rhs),rhsMax =  -1.41094982919476E-10  3.59250712191904E-02
 cg2d: Sum(rhs),rhsMax =  -1.39748851379906E-10  3.62628235515804E-02
 cg2d: Sum(rhs),rhsMax =  -1.38447558972743E-10  3.65987875424745E-02
 cg2d: Sum(rhs),rhsMax =  -1.37160921509505E-10  3.69327772821415E-02
 cg2d: Sum(rhs),rhsMax =  -1.35870648065861E-10  3.72648490387548E-02
 cg2d: Sum(rhs),rhsMax =  -1.34654121186628E-10  3.75945829367808E-02
 cg2d: Sum(rhs),rhsMax =  -1.33456745654570E-10  3.79217818388829E-02
 cg2d: Sum(rhs),rhsMax =  -1.32307942379839E-10  3.82464194554192E-02
 cg2d: Sum(rhs),rhsMax =  -1.31083810472887E-10  3.85685278753945E-02
 cg2d: Sum(rhs),rhsMax =  -1.29941113424792E-10  3.88881642032460E-02
 cg2d: Sum(rhs),rhsMax =  -1.28774768626272E-10  3.92053553650487E-02
 cg2d: Sum(rhs),rhsMax =  -1.27628685397951E-10  3.95199895574806E-02
 cg2d: Sum(rhs),rhsMax =  -1.26542665235263E-10  3.98316629289500E-02
 cg2d: Sum(rhs),rhsMax =  -1.25458976540926E-10  4.01400016969017E-02
 cg2d: Sum(rhs),rhsMax =  -1.24385168831509E-10  4.04449214677138E-02
 cg2d: Sum(rhs),rhsMax =  -1.23368426585557E-10  4.07466358326279E-02
 cg2d: Sum(rhs),rhsMax =  -1.22346466291390E-10  4.10452710213708E-02
 cg2d: Sum(rhs),rhsMax =  -1.21359589044800E-10  4.13407659859928E-02
 cg2d: Sum(rhs),rhsMax =  -1.20424004101949E-10  4.16330274665763E-02
 cg2d: Sum(rhs),rhsMax =  -1.19525167541212E-10  4.19219281070205E-02
 cg2d: Sum(rhs),rhsMax =  -1.18631993117901E-10  4.22073807962422E-02
 cg2d: Sum(rhs),rhsMax =  -1.17748033545695E-10  4.24890653770144E-02
 cg2d: Sum(rhs),rhsMax =  -1.16881837541882E-10  4.27667729671604E-02
 cg2d: Sum(rhs),rhsMax =  -1.16033183061859E-10  4.30403927094870E-02
 cg2d: Sum(rhs),rhsMax =  -1.15230491815055E-10  4.33100012548830E-02
 cg2d: Sum(rhs),rhsMax =  -1.11515019440844E-10  4.47119947418919E-02
 cg2d: Sum(rhs),rhsMax =  -1.07963193940463E-10  4.61454314478574E-02
 cg2d: Sum(rhs),rhsMax =  -1.04696584735109E-10  4.75551541637010E-02
 cg2d: Sum(rhs),rhsMax =  -1.01649799688630E-10  4.89405504337949E-02
 cg2d: Sum(rhs),rhsMax =  -9.88323867190388E-11  5.03010197492554E-02
 cg2d: Sum(rhs),rhsMax =  -9.62120383363185E-11  5.16359730784463E-02
 cg2d: Sum(rhs),rhsMax =  -9.37803168454820E-11  5.29448324951151E-02
 cg2d: Sum(rhs),rhsMax =  -9.14971431953404E-11  5.42270309270549E-02
 cg2d: Sum(rhs),rhsMax =  -8.93822793557320E-11  5.54820120150076E-02
 cg2d: Sum(rhs),rhsMax =  -8.74139649553740E-11  5.67092300462520E-02
 cg2d: Sum(rhs),rhsMax =  -8.55354675977082E-11  5.79081499197573E-02
 cg2d: Sum(rhs),rhsMax =  -8.37745428583503E-11  5.90782471060797E-02
 cg2d: Sum(rhs),rhsMax =  -8.21503975956261E-11  6.02190075862542E-02
 cg2d: Sum(rhs),rhsMax =  -8.06167355094090E-11  6.13299277739009E-02
 cg2d: Sum(rhs),rhsMax =  -7.91606780126131E-11  6.24105144335255E-02
 cg2d: Sum(rhs),rhsMax =  -7.78243025578718E-11  6.34602846079243E-02
 cg2d: Sum(rhs),rhsMax =  -7.65604246666385E-11  6.44787655669178E-02
 cg2d: Sum(rhs),rhsMax =  -7.53347384474523E-11  6.54654947924490E-02
 cg2d: Sum(rhs),rhsMax =  -7.42184091961917E-11  6.64200200200680E-02
 cg2d: Sum(rhs),rhsMax =  -7.31744664861367E-11  6.73418993606724E-02
 cg2d: Sum(rhs),rhsMax =  -7.21882553733622E-11  6.82307015276192E-02
 cg2d: Sum(rhs),rhsMax =  -7.12786496492868E-11  6.90860061926173E-02
 cg2d: Sum(rhs),rhsMax =  -7.03762603748714E-11  6.99074044897265E-02
 cg2d: Sum(rhs),rhsMax =  -6.95635771208458E-11  7.06944996810595E-02
 cg2d: Sum(rhs),rhsMax =  -6.87621071193689E-11  7.14469079906036E-02
 cg2d: Sum(rhs),rhsMax =  -6.80429046440167E-11  7.21642596038540E-02
 cg2d: Sum(rhs),rhsMax =  -6.73363587111453E-11  7.28461998164353E-02
 cg2d: Sum(rhs),rhsMax =  -6.66963151374489E-11  7.34923902939144E-02
 cg2d: Sum(rhs),rhsMax =  -6.60973498156636E-11  7.41025103751914E-02
 cg2d: Sum(rhs),rhsMax =  -6.55394627457895E-11  7.46762583170208E-02
 cg2d: Sum(rhs),rhsMax =  -6.50010045788463E-11  7.52133523534186E-02
 cg2d: Sum(rhs),rhsMax =  -6.45544728783420E-11  7.57135314470530E-02
 cg2d: Sum(rhs),rhsMax =  -6.41069419771156E-11  7.61765556455456E-02
 cg2d: Sum(rhs),rhsMax =  -6.37214725429658E-11  7.66022060192141E-02
 cg2d: Sum(rhs),rhsMax =  -6.33327834620445E-11  7.69902842330928E-02
 cg2d: Sum(rhs),rhsMax =  -6.29692964437822E-11  7.73406118750910E-02
 cg2d: Sum(rhs),rhsMax =  -6.26643181789177E-11  7.76530297037056E-02
 cg2d: Sum(rhs),rhsMax =  -6.23918694486747E-11  7.79273969834895E-02
 cg2d: Sum(rhs),rhsMax =  -6.21959150848284E-11  7.81635910478468E-02
 cg2d: Sum(rhs),rhsMax =  -6.19915230259949E-11  7.83615071682406E-02
 cg2d: Sum(rhs),rhsMax =  -6.18229911708568E-11  7.85210587327835E-02
 cg2d: Sum(rhs),rhsMax =  -6.16218187587947E-11  7.86421776663747E-02
 cg2d: Sum(rhs),rhsMax =  -6.15175688167824E-11  7.87248149806071E-02
 cg2d: Sum(rhs),rhsMax =  -6.15244521995351E-11  7.87689413342809E-02
 cg2d: Sum(rhs),rhsMax =  -6.14713835389580E-11  7.87745475133331E-02
 cg2d: Sum(rhs),rhsMax =  -6.14379658259168E-11  7.87416447609597E-02
 cg2d: Sum(rhs),rhsMax =  -6.15150153038257E-11  7.86702649312533E-02
 cg2d: Sum(rhs),rhsMax =  -6.15906214918027E-11  7.85604605019583E-02
 cg2d: Sum(rhs),rhsMax =  -6.16454665092192E-11  7.84123044072085E-02
 cg2d: Sum(rhs),rhsMax =  -6.17647044620639E-11  7.82258898590430E-02
 cg2d: Sum(rhs),rhsMax =  -6.20509199578123E-11  7.80013301049637E-02
 cg2d: Sum(rhs),rhsMax =  -6.23783247277743E-11  7.77387580857633E-02
 cg2d: Sum(rhs),rhsMax =  -6.26911855761136E-11  7.74383260597331E-02
 cg2d: Sum(rhs),rhsMax =  -6.30276941748775E-11  7.71002053056065E-02
 cg2d: Sum(rhs),rhsMax =  -6.34050589809476E-11  7.67245859917645E-02
 cg2d: Sum(rhs),rhsMax =  -6.38413766296253E-11  7.63116772335384E-02
 cg2d: Sum(rhs),rhsMax =  -6.42600417322114E-11  7.58617072965780E-02
 cg2d: Sum(rhs),rhsMax =  -6.47414344356889E-11  7.53749238690901E-02
 cg2d: Sum(rhs),rhsMax =  -6.52845555393355E-11  7.48515943225376E-02
 cg2d: Sum(rhs),rhsMax =  -6.58729737423869E-11  7.42920058968503E-02
 cg2d: Sum(rhs),rhsMax =  -6.65182353642990E-11  7.36964657667112E-02
 cg2d: Sum(rhs),rhsMax =  -6.71667166329826E-11  7.30653009610360E-02
 cg2d: Sum(rhs),rhsMax =  -6.78049838498396E-11  7.23988581181650E-02
 cg2d: Sum(rhs),rhsMax =  -6.85335121985986E-11  7.16975030686702E-02
 cg2d: Sum(rhs),rhsMax =  -6.93107793381387E-11  7.09616202503891E-02
 cg2d: Sum(rhs),rhsMax =  -7.01111391165909E-11  7.01916119784748E-02
 cg2d: Sum(rhs),rhsMax =  -7.09864389492054E-11  6.93878976143583E-02
 cg2d: Sum(rhs),rhsMax =  -7.19417858618954E-11  6.85509127052048E-02
 cg2d: Sum(rhs),rhsMax =  -7.29588611747545E-11  6.76811081264257E-02
 cg2d: Sum(rhs),rhsMax =  -7.39721617293299E-11  6.67789492696117E-02
 cg2d: Sum(rhs),rhsMax =  -7.51245732288908E-11  6.58449153131674E-02
 cg2d: Sum(rhs),rhsMax =  -7.63064056386042E-11  6.48794985554713E-02
 cg2d: Sum(rhs),rhsMax =  -7.75567388089371E-11  6.38832037746724E-02
 cg2d: Sum(rhs),rhsMax =  -7.89474041695826E-11  6.28565475827814E-02
 cg2d: Sum(rhs),rhsMax =  -8.03825894735155E-11  6.18000577628479E-02
 cg2d: Sum(rhs),rhsMax =  -8.18319856321637E-11  6.07142726087540E-02
 cg2d: Sum(rhs),rhsMax =  -8.34318170106485E-11  5.95997403143520E-02
 cg2d: Sum(rhs),rhsMax =  -8.51442250038303E-11  5.84570184673768E-02
 cg2d: Sum(rhs),rhsMax =  -8.69029292971391E-11  5.72866736879411E-02
 cg2d: Sum(rhs),rhsMax =  -8.88114026764697E-11  5.60892814219773E-02
 cg2d: Sum(rhs),rhsMax =  -9.08538799748726E-11  5.48654258771193E-02
 cg2d: Sum(rhs),rhsMax =  -9.30231447426877E-11  5.36157000868149E-02
 cg2d: Sum(rhs),rhsMax =  -9.53578327411719E-11  5.23407061036606E-02
 cg2d: Sum(rhs),rhsMax =  -9.78033209975138E-11  5.10410553363775E-02
 cg2d: Sum(rhs),rhsMax =  -1.00470631814176E-10  4.97173690389655E-02
 cg2d: Sum(rhs),rhsMax =  -1.03316355470895E-10  4.83702789328829E-02
 cg2d: Sum(rhs),rhsMax =  -1.06356701223831E-10  4.70004279072013E-02
 cg2d: Sum(rhs),rhsMax =  -1.09653952584665E-10  4.56084707168968E-02
(PID.TID 0000.0001)      cg2d_init_res =   1.89057592419492E-01
(PID.TID 0000.0001)      cg2d_iters(min,last) =      -1      39
(PID.TID 0000.0001)      cg2d_last_res =   8.36722147568226E-14
(PID.TID 0000.0001) // =======================================================
(PID.TID 0000.0001) // Begin MONITOR dynamic field statistics
(PID.TID 0000.0001) // =======================================================
(PID.TID 0000.0001) %MON time_tsnumber                =                  3840
(PID.TID 0000.0001) %MON time_secondsf                =   5.7600000000000E+04
(PID.TID 0000.0001) %MON dynstat_eta_max              =   9.6859043548664E-03
(PID.TID 0000.0001) %MON dynstat_eta_min              =  -1.4037135674150E-02
(PID.TID 0000.0001) %MON dynstat_eta_mean             =   1.1037981307561E-14
(PID.TID 0000.0001) %MON dynstat_eta_sd               =   7.3189848971451E-03
(PID.TID 0000.0001) %MON dynstat_eta_del2             =   3.2396562270308E-05
(PID.TID 0000.0001) %MON dynstat_uvel_max             =   1.0711708815804E+00
(PID.TID 0000.0001) %MON dynstat_uvel_min             =  -1.9523572107900E-01
(PID.TID 0000.0001) %MON dynstat_uvel_mean            =   4.5122725521795E-01
(PID.TID 0000.0001) %MON dynstat_uvel_sd              =   1.0723478436863E-01
(PID.TID 0000.0001) %MON dynstat_uvel_del2            =   4.3322747093633E-04
(PID.TID 0000.0001) %MON dynstat_vvel_max             =   0.0000000000000E+00
(PID.TID 0000.0001) %MON dynstat_vvel_min             =   0.0000000000000E+00
(PID.TID 0000.0001) %MON dynstat_vvel_mean            =   0.0000000000000E+00
(PID.TID 0000.0001) %MON dynstat_vvel_sd              =   0.0000000000000E+00
(PID.TID 0000.0001) %MON dynstat_vvel_del2            =   0.0000000000000E+00
(PID.TID 0000.0001) %MON dynstat_wvel_max             =   2.6634750144632E-02
(PID.TID 0000.0001) %MON dynstat_wvel_min             =  -1.8552449059329E-02
(PID.TID 0000.0001) %MON dynstat_wvel_mean            =   3.3349219656193E-21
(PID.TID 0000.0001) %MON dynstat_wvel_sd              =   2.1892854305923E-03
(PID.TID 0000.0001) %MON dynstat_wvel_del2            =   4.6199107897772E-05
(PID.TID 0000.0001) %MON dynstat_theta_max            =   1.5000000000012E+01
(PID.TID 0000.0001) %MON dynstat_theta_min            =   9.9999999999966E+00
(PID.TID 0000.0001) %MON dynstat_theta_mean           =   1.4017433286226E+01
(PID.TID 0000.0001) %MON dynstat_theta_sd             =   1.8573219097786E+00
(PID.TID 0000.0001) %MON dynstat_theta_del2           =   7.5278759647774E-04
(PID.TID 0000.0001) %MON dynstat_salt_max             =   3.5000000000000E+01
(PID.TID 0000.0001) %MON dynstat_salt_min             =   3.5000000000000E+01
(PID.TID 0000.0001) %MON dynstat_salt_mean            =   3.5000000000000E+01
(PID.TID 0000.0001) %MON dynstat_salt_sd              =   3.0553337637684E-13
(PID.TID 0000.0001) %MON dynstat_salt_del2            =   0.0000000000000E+00
(PID.TID 0000.0001) %MON dynstat_sst_max              =   1.5000000000001E+01
(PID.TID 0000.0001) %MON dynstat_sst_min              =   1.4999999999999E+01
(PID.TID 0000.0001) %MON dynstat_sst_mean             =   1.5000000000000E+01
(PID.TID 0000.0001) %MON dynstat_sst_sd               =   3.5066027436236E-13
(PID.TID 0000.0001) %MON dynstat_sst_del2             =   5.0332749056740E-15
(PID.TID 0000.0001) %MON dynstat_sss_max              =   3.5000000000000E+01
(PID.TID 0000.0001) %MON dynstat_sss_min              =   3.5000000000000E+01
(PID.TID 0000.0001) %MON dynstat_sss_mean             =   3.5000000000000E+01
(PID.TID 0000.0001) %MON dynstat_sss_sd               =   2.8421709430404E-14
(PID.TID 0000.0001) %MON dynstat_sss_del2             =   0.0000000000000E+00
(PID.TID 0000.0001) %MON forcing_qnet_max             =   0.0000000000000E+00
(PID.TID 0000.0001) %MON forcing_qnet_min             =   0.0000000000000E+00
(PID.TID 0000.0001) %MON forcing_qnet_mean            =   0.0000000000000E+00
(PID.TID 0000.0001) %MON forcing_qnet_sd              =   0.0000000000000E+00
(PID.TID 0000.0001) %MON forcing_qnet_del2            =   0.0000000000000E+00
(PID.TID 0000.0001) %MON forcing_qsw_max              =   0.0000000000000E+00
(PID.TID 0000.0001) %MON forcing_qsw_min              =   0.0000000000000E+00
(PID.TID 0000.0001) %MON forcing_qsw_mean             =   0.0000000000000E+00
(PID.TID 0000.0001) %MON forcing_qsw_sd               =   0.0000000000000E+00
(PID.TID 0000.0001) %MON forcing_qsw_del2             =   0.0000000000000E+00
(PID.TID 0000.0001) %MON forcing_empmr_max            =   0.0000000000000E+00
(PID.TID 0000.0001) %MON forcing_empmr_min            =   0.0000000000000E+00
(PID.TID 0000.0001) %MON forcing_empmr_mean           =   0.0000000000000E+00
(PID.TID 0000.0001) %MON forcing_empmr_sd             =   0.0000000000000E+00
(PID.TID 0000.0001) %MON forcing_empmr_del2           =   0.0000000000000E+00
(PID.TID 0000.0001) %MON forcing_fu_max               =   0.0000000000000E+00
(PID.TID 0000.0001) %MON forcing_fu_min               =   0.0000000000000E+00
(PID.TID 0000.0001) %MON forcing_fu_mean              =   0.0000000000000E+00
(PID.TID 0000.0001) %MON forcing_fu_sd                =   0.0000000000000E+00
(PID.TID 0000.0001) %MON forcing_fu_del2              =   0.0000000000000E+00
(PID.TID 0000.0001) %MON forcing_fv_max               =   0.0000000000000E+00
(PID.TID 0000.0001) %MON forcing_fv_min               =   0.0000000000000E+00
(PID.TID 0000.0001) %MON forcing_fv_mean              =   0.0000000000000E+00
(PID.TID 0000.0001) %MON forcing_fv_sd                =   0.0000000000000E+00
(PID.TID 0000.0001) %MON forcing_fv_del2              =   0.0000000000000E+00
(PID.TID 0000.0001) %MON advcfl_uvel_max              =   7.5266745136298E-02
(PID.TID 0000.0001) %MON advcfl_vvel_max              =   0.0000000000000E+00
(PID.TID 0000.0001) %MON advcfl_wvel_max              =   1.4901702658471E-01
(PID.TID 0000.0001) %MON advcfl_W_hf_max              =   1.5063824304758E-01
(PID.TID 0000.0001) %MON pe_b_mean                    =   1.3276543069880E-06
(PID.TID 0000.0001) %MON ke_max                       =   4.8650578026501E-01
(PID.TID 0000.0001) %MON ke_mean                      =   1.0760313312746E-01
(PID.TID 0000.0001) %MON ke_vol                       =   9.6656965507697E+10
(PID.TID 0000.0001) %MON vort_r_min                   =   0.0000000000000E+00
(PID.TID 0000.0001) %MON vort_r_max                   =   0.0000000000000E+00
(PID.TID 0000.0001) %MON vort_a_mean                  =   0.0000000000000E+00
(PID.TID 0000.0001) %MON vort_a_sd                    =   0.0000000000000E+00
(PID.TID 0000.0001) %MON vort_p_mean                  =   0.0000000000000E+00
(PID.TID 0000.0001) %MON vort_p_sd                    =   0.0000000000000E+00
(PID.TID 0000.0001) %MON surfExpan_theta_mean         =   1.0386334393389E-18
(PID.TID 0000.0001) %MON surfExpan_salt_mean          =  -2.8770751479669E-19
(PID.TID 0000.0001) // =======================================================
(PID.TID 0000.0001) // End MONITOR dynamic field statistics
(PID.TID 0000.0001) // =======================================================
(PID.TID 0000.0001) // =======================================================
(PID.TID 0000.0001) // Begin OBCS MONITOR field statistics
(PID.TID 0000.0001) // =======================================================
(PID.TID 0000.0001) %MON obc_E_uVel_max               =   4.4822851314926E-01
(PID.TID 0000.0001) %MON obc_E_uVel_min               =   4.4822851314926E-01
(PID.TID 0000.0001) %MON obc_E_uVel_mean              =   4.4822851314926E-01
(PID.TID 0000.0001) %MON obc_E_uVel_sd                =   0.0000000000000E+00
(PID.TID 0000.0001) %MON obc_E_uVel_Int               =   4.4822851314926E+05
(PID.TID 0000.0001) %MON obc_W_uVel_max               =   4.4822851314926E-01
(PID.TID 0000.0001) %MON obc_W_uVel_min               =   4.4822851314926E-01
(PID.TID 0000.0001) %MON obc_W_uVel_mean              =   4.4822851314926E-01
(PID.TID 0000.0001) %MON obc_W_uVel_sd                =   0.0000000000000E+00
(PID.TID 0000.0001) %MON obc_W_uVel_Int               =   4.4822851314926E+05
(PID.TID 0000.0001) // =======================================================
(PID.TID 0000.0001) // End OBCS MONITOR field statistics
(PID.TID 0000.0001) // =======================================================
 cg2d: Sum(rhs),rhsMax =  -1.13273501689548E-10  4.41950745976500E-02
 cg2d: Sum(rhs),rhsMax =  -1.17134524302287E-10  4.27609197358402E-02
 cg2d: Sum(rhs),rhsMax =  -1.21319732038216E-10  4.13066995618825E-02
 cg2d: Sum(rhs),rhsMax =  -1.23445809130374E-10  4.06150000824216E-02
 cg2d: Sum(rhs),rhsMax =  -1.24557808511838E-10  4.02702723502103E-02
 cg2d: Sum(rhs),rhsMax =  -1.25724097799207E-10  3.99224187905394E-02
 cg2d: Sum(rhs),rhsMax =  -1.26959887047917E-10  3.95712380606492E-02
 cg2d: Sum(rhs),rhsMax =  -1.28169808100154E-10  3.92171810203787E-02
 cg2d: Sum(rhs),rhsMax =  -1.29436572571251E-10  3.88606054851228E-02
 cg2d: Sum(rhs),rhsMax =  -1.30709554291286E-10  3.85018274202941E-02
 cg2d: Sum(rhs),rhsMax =  -1.32017730081202E-10  3.81413075349473E-02
 cg2d: Sum(rhs),rhsMax =  -1.33400068769163E-10  3.77790411985226E-02
 cg2d: Sum(rhs),rhsMax =  -1.34820266062263E-10  3.74151313684243E-02
 cg2d: Sum(rhs),rhsMax =  -1.36226918634463E-10  3.70495692796598E-02
 cg2d: Sum(rhs),rhsMax =  -1.37529987398466E-10  3.67231841744401E-02
 cg2d: Sum(rhs),rhsMax =  -1.38088096512945E-10  3.66007039352263E-02
 cg2d: Sum(rhs),rhsMax =  -1.38687394901638E-10  3.64746157823804E-02
 cg2d: Sum(rhs),rhsMax =  -1.39239619834086E-10  3.63449461679660E-02
 cg2d: Sum(rhs),rhsMax =  -1.39885159011754E-10  3.62120257818960E-02
 cg2d: Sum(rhs),rhsMax =  -1.40452482977338E-10  3.60761806537057E-02
 cg2d: Sum(rhs),rhsMax =  -1.41051281765670E-10  3.59376260148300E-02
 cg2d: Sum(rhs),rhsMax =  -1.41634592942808E-10  3.57965191951457E-02
 cg2d: Sum(rhs),rhsMax =  -1.42269362957137E-10  3.56532185500802E-02
 cg2d: Sum(rhs),rhsMax =  -1.42887202070341E-10  3.55077390465196E-02
 cg2d: Sum(rhs),rhsMax =  -1.43530465290809E-10  3.53602205710358E-02
 cg2d: Sum(rhs),rhsMax =  -1.44182818462291E-10  3.52107887615419E-02
 cg2d: Sum(rhs),rhsMax =  -1.44808082191972E-10  3.50595782016527E-02
 cg2d: Sum(rhs),rhsMax =  -1.45499376436042E-10  3.49068171752542E-02
 cg2d: Sum(rhs),rhsMax =  -1.46202196182887E-10  3.47527398513032E-02
 cg2d: Sum(rhs),rhsMax =  -1.46933729072707E-10  3.45971246446277E-02
 cg2d: Sum(rhs),rhsMax =  -1.47670431438485E-10  3.44400618859199E-02
 cg2d: Sum(rhs),rhsMax =  -1.48390910670315E-10  3.42815200550959E-02
 cg2d: Sum(rhs),rhsMax =  -1.49116247127878E-10  3.41215442850580E-02
 cg2d: Sum(rhs),rhsMax =  -1.49870560406384E-10  3.39602729216254E-02
 cg2d: Sum(rhs),rhsMax =  -1.50635615092654E-10  3.37978778099782E-02
 cg2d: Sum(rhs),rhsMax =  -1.46561984770699E-10  3.47519124995407E-02
 cg2d: Sum(rhs),rhsMax =  -1.38354661061157E-10  3.68121417773729E-02
 cg2d: Sum(rhs),rhsMax =  -1.31093025323992E-10  3.88687369271669E-02
 cg2d: Sum(rhs),rhsMax =  -1.24592947070568E-10  4.09206903082495E-02
 cg2d: Sum(rhs),rhsMax =  -1.18755894007450E-10  4.29669999555856E-02
 cg2d: Sum(rhs),rhsMax =  -1.13464848627842E-10  4.50066706784551E-02
 cg2d: Sum(rhs),rhsMax =  -1.08672126852838E-10  4.70387150293641E-02
 cg2d: Sum(rhs),rhsMax =  -1.04259600952616E-10  4.90621541361018E-02
 cg2d: Sum(rhs),rhsMax =  -1.00211616782531E-10  5.10760184171687E-02
 cg2d: Sum(rhs),rhsMax =  -9.65167945565781E-11  5.30793481893497E-02
 cg2d: Sum(rhs),rhsMax =  -9.31096311163060E-11  5.50711941767223E-02
 cg2d: Sum(rhs),rhsMax =  -8.99563756817656E-11  5.70506179329735E-02
 cg2d: Sum(rhs),rhsMax =  -8.70271632535946E-11  5.90166921889787E-02
 cg2d: Sum(rhs),rhsMax =  -8.43095593339172E-11  6.09685011363321E-02
 cg2d: Sum(rhs),rhsMax =  -8.17700351873896E-11  6.29051406573486E-02
 cg2d: Sum(rhs),rhsMax =  -7.94065924125675E-11  6.48257185113336E-02
 cg2d: Sum(rhs),rhsMax =  -7.71861463633172E-11  6.67293544852841E-02
 cg2d: Sum(rhs),rhsMax =  -7.50987050324170E-11  6.86151805149943E-02
 cg2d: Sum(rhs),rhsMax =  -7.31817939580992E-11  7.04823407802338E-02
 cg2d: Sum(rhs),rhsMax =  -7.13740178071021E-11  7.23299917756902E-02
 cg2d: Sum(rhs),rhsMax =  -6.96371849073785E-11  7.41573023572250E-02
 cg2d: Sum(rhs),rhsMax =  -6.80203671166169E-11  7.59634537646793E-02
 cg2d: Sum(rhs),rhsMax =  -6.65012489520223E-11  7.77476396192685E-02
 cg2d: Sum(rhs),rhsMax =  -6.51193543532713E-11  7.95090658944880E-02
 cg2d: Sum(rhs),rhsMax =  -6.38310515554963E-11  8.12469508607566E-02
 cg2d: Sum(rhs),rhsMax =  -6.26368956702095E-11  8.29605250053036E-02
 cg2d: Sum(rhs),rhsMax =  -6.14601702864093E-11  8.46490309306231E-02
 cg2d: Sum(rhs),rhsMax =  -6.03834759971278E-11  8.63117232367184E-02
 cg2d: Sum(rhs),rhsMax =  -5.93227689194009E-11  8.79478683935625E-02
 cg2d: Sum(rhs),rhsMax =  -5.83632031592174E-11  8.95567446146708E-02
 cg2d: Sum(rhs),rhsMax =  -5.74507108552780E-11  9.11376417432800E-02
 cg2d: Sum(rhs),rhsMax =  -5.65564262089424E-11  9.26898611647915E-02
 cg2d: Sum(rhs),rhsMax =  -5.57470736239907E-11  9.42127157596214E-02
 cg2d: Sum(rhs),rhsMax =  -5.49449374886990E-11  9.57055299104215E-02
 cg2d: Sum(rhs),rhsMax =  -5.42038636197617E-11  9.71676395766095E-02
 cg2d: Sum(rhs),rhsMax =  -5.34864375012489E-11  9.85983924472983E-02
 cg2d: Sum(rhs),rhsMax =  -5.27832222374514E-11  9.99971481811157E-02
 cg2d: Sum(rhs),rhsMax =  -5.21627185889884E-11  1.01363278737610E-01
 cg2d: Sum(rhs),rhsMax =  -5.15464337880189E-11  1.02696168800450E-01
 cg2d: Sum(rhs),rhsMax =  -5.09388087266416E-11  1.03995216287994E-01
 cg2d: Sum(rhs),rhsMax =  -5.04034591841673E-11  1.05259832941045E-01
 cg2d: Sum(rhs),rhsMax =  -4.98706631546497E-11  1.06489444978694E-01
 cg2d: Sum(rhs),rhsMax =  -4.93738383511300E-11  1.07683493803608E-01
 cg2d: Sum(rhs),rhsMax =  -4.88958873390288E-11  1.08841436736668E-01
 cg2d: Sum(rhs),rhsMax =  -4.84486895047098E-11  1.09962747760464E-01
 cg2d: Sum(rhs),rhsMax =  -4.80430140115118E-11  1.11046918250565E-01
 cg2d: Sum(rhs),rhsMax =  -4.76344519384497E-11  1.12093457673796E-01
 cg2d: Sum(rhs),rhsMax =  -4.72156758135611E-11  1.13101894234022E-01
 cg2d: Sum(rhs),rhsMax =  -4.69223548904552E-11  1.14071775448673E-01
 cg2d: Sum(rhs),rhsMax =  -4.66318095249108E-11  1.15002668648232E-01
 cg2d: Sum(rhs),rhsMax =  -4.63603599953899E-11  1.15894161374055E-01
 cg2d: Sum(rhs),rhsMax =  -4.60713689420800E-11  1.16745861680568E-01
 cg2d: Sum(rhs),rhsMax =  -4.58594273666790E-11  1.17557398341136E-01
 cg2d: Sum(rhs),rhsMax =  -4.56330528919580E-11  1.18328420960819E-01
 cg2d: Sum(rhs),rhsMax =  -4.54032367258606E-11  1.19058600002849E-01
 cg2d: Sum(rhs),rhsMax =  -4.52212711721245E-11  1.19747626738980E-01
 cg2d: Sum(rhs),rhsMax =  -4.50164350240811E-11  1.20395213136279E-01
 cg2d: Sum(rhs),rhsMax =  -4.48485693027578E-11  1.21001091694161E-01
 cg2d: Sum(rhs),rhsMax =  -4.46634951245528E-11  1.21565015245665E-01
 cg2d: Sum(rhs),rhsMax =  -4.45354864098135E-11  1.22086756736263E-01
 cg2d: Sum(rhs),rhsMax =  -4.44116965425678E-11  1.22566108991712E-01
 cg2d: Sum(rhs),rhsMax =  -4.43066694444383E-11  1.23002884488454E-01
 cg2d: Sum(rhs),rhsMax =  -4.42393899291460E-11  1.23396915121073E-01
 cg2d: Sum(rhs),rhsMax =  -4.41887637592231E-11  1.23748051975960E-01
 cg2d: Sum(rhs),rhsMax =  -4.41537917339474E-11  1.24056165115120E-01
 cg2d: Sum(rhs),rhsMax =  -4.41052749877713E-11  1.24321143357095E-01
 cg2d: Sum(rhs),rhsMax =  -4.40832925718837E-11  1.24542894096709E-01
 cg2d: Sum(rhs),rhsMax =  -4.40586456207370E-11  1.24721343125170E-01
 cg2d: Sum(rhs),rhsMax =  -4.40449898775341E-11  1.24856434453412E-01
 cg2d: Sum(rhs),rhsMax =  -4.40087966069314E-11  1.24948130145022E-01
 cg2d: Sum(rhs),rhsMax =  -4.39533964780026E-11  1.24996410168196E-01
 cg2d: Sum(rhs),rhsMax =  -4.39485114966942E-11  1.25001272278074E-01
 cg2d: Sum(rhs),rhsMax =  -4.39374092664480E-11  1.24962731946849E-01
 cg2d: Sum(rhs),rhsMax =  -4.39078773339929E-11  1.24880822359156E-01
 cg2d: Sum(rhs),rhsMax =  -4.39059899548511E-11  1.24755594446359E-01
 cg2d: Sum(rhs),rhsMax =  -4.39533964780026E-11  1.24587117014917E-01
 cg2d: Sum(rhs),rhsMax =  -4.39586145262183E-11  1.24375476977582E-01
 cg2d: Sum(rhs),rhsMax =  -4.39909220162349E-11  1.24120779690256E-01
 cg2d: Sum(rhs),rhsMax =  -4.40333325357756E-11  1.23823149392297E-01
 cg2d: Sum(rhs),rhsMax =  -4.41072733892156E-11  1.23482729743740E-01
 cg2d: Sum(rhs),rhsMax =  -4.41900960268526E-11  1.23099684433133E-01
 cg2d: Sum(rhs),rhsMax =  -4.43135528271910E-11  1.22674197846340E-01
 cg2d: Sum(rhs),rhsMax =  -4.44118075648703E-11  1.22206475765903E-01
 cg2d: Sum(rhs),rhsMax =  -4.45818937322429E-11  1.21696746064175E-01
 cg2d: Sum(rhs),rhsMax =  -4.47362147326658E-11  1.21145259350760E-01
 cg2d: Sum(rhs),rhsMax =  -4.48944215136748E-11  1.20552289529177E-01
 cg2d: Sum(rhs),rhsMax =  -4.50655068817696E-11  1.19918134217398E-01
 cg2d: Sum(rhs),rhsMax =  -4.52049508936625E-11  1.19243115041721E-01
 cg2d: Sum(rhs),rhsMax =  -4.54370985281116E-11  1.18527577738315E-01
 cg2d: Sum(rhs),rhsMax =  -4.56710225194001E-11  1.17771892048927E-01
 cg2d: Sum(rhs),rhsMax =  -4.58710847084376E-11  1.16976451399412E-01
 cg2d: Sum(rhs),rhsMax =  -4.60873561536346E-11  1.16141672388459E-01
 cg2d: Sum(rhs),rhsMax =  -4.63475924306067E-11  1.15267994118234E-01
 cg2d: Sum(rhs),rhsMax =  -4.66191529824300E-11  1.14355877364888E-01
 cg2d: Sum(rhs),rhsMax =  -4.69204675113133E-11  1.13405803628930E-01
 cg2d: Sum(rhs),rhsMax =  -4.72336614265600E-11  1.12418274111519E-01
 cg2d: Sum(rhs),rhsMax =  -4.75417483158935E-11  1.11393808678771E-01
 cg2d: Sum(rhs),rhsMax =  -4.79701833810964E-11  1.10332944821318E-01
 cg2d: Sum(rhs),rhsMax =  -4.83766360304116E-11  1.09236236659317E-01
 cg2d: Sum(rhs),rhsMax =  -4.88460383252232E-11  1.08104254034711E-01
 cg2d: Sum(rhs),rhsMax =  -4.92990093192702E-11  1.06937581722682E-01
 cg2d: Sum(rhs),rhsMax =  -4.98250329883376E-11  1.05736818773648E-01
 cg2d: Sum(rhs),rhsMax =  -5.03287411746101E-11  1.04502577984753E-01
 cg2d: Sum(rhs),rhsMax =  -5.08690867206951E-11  1.03235485493367E-01
 cg2d: Sum(rhs),rhsMax =  -5.14758236036528E-11  1.01936180484454E-01
 cg2d: Sum(rhs),rhsMax =  -5.20967713413256E-11  1.00605314982270E-01
 cg2d: Sum(rhs),rhsMax =  -5.27381471826516E-11  9.92435537119644E-02
 cg2d: Sum(rhs),rhsMax =  -5.34016164621676E-11  9.78515740156173E-02
 cg2d: Sum(rhs),rhsMax =  -5.41106048856932E-11  9.64300657962221E-02
 cg2d: Sum(rhs),rhsMax =  -5.48769918395919E-11  9.49797314652928E-02
 cg2d: Sum(rhs),rhsMax =  -5.56316104294297E-11  9.35012858749254E-02
 cg2d: Sum(rhs),rhsMax =  -5.64763791288669E-11  9.19954562211824E-02
 cg2d: Sum(rhs),rhsMax =  -5.73614489240981E-11  9.04629819113055E-02
 cg2d: Sum(rhs),rhsMax =  -5.82525139236623E-11  8.89046143923186E-02
 cg2d: Sum(rhs),rhsMax =  -5.92091931039818E-11  8.73211169428067E-02
 cg2d: Sum(rhs),rhsMax =  -6.02932148652258E-11  8.57132644334537E-02
 cg2d: Sum(rhs),rhsMax =  -6.13725736897663E-11  8.40818430552862E-02
 cg2d: Sum(rhs),rhsMax =  -6.24934548554279E-11  8.24276500258072E-02
 cg2d: Sum(rhs),rhsMax =  -6.36806163356596E-11  8.07514933182382E-02
 cg2d: Sum(rhs),rhsMax =  -6.50107745414630E-11  7.90541913713575E-02
 cg2d: Sum(rhs),rhsMax =  -6.63620269847343E-11  7.73365727862223E-02
 cg2d: Sum(rhs),rhsMax =  -6.78544997967379E-11  7.55994760251003E-02
 cg2d: Sum(rhs),rhsMax =  -6.94007074031333E-11  7.38437491009476E-02
 cg2d: Sum(rhs),rhsMax =  -7.09839964585512E-11  7.20702492516172E-02
 cg2d: Sum(rhs),rhsMax =  -7.27347071460827E-11  7.02798425884609E-02
 cg2d: Sum(rhs),rhsMax =  -7.46014361396874E-11  6.84734037056170E-02
 cg2d: Sum(rhs),rhsMax =  -7.66040564315063E-11  6.66518152417209E-02
 cg2d: Sum(rhs),rhsMax =  -7.86974929667394E-11  6.48159673566047E-02
 cg2d: Sum(rhs),rhsMax =  -8.09683431413077E-11  6.29667571227990E-02
 cg2d: Sum(rhs),rhsMax =  -8.33641489172976E-11  6.11050878194076E-02
 cg2d: Sum(rhs),rhsMax =  -8.59080584447725E-11  5.92318681181163E-02
 cg2d: Sum(rhs),rhsMax =  -8.86514750497724E-11  5.73480111564021E-02
 cg2d: Sum(rhs),rhsMax =  -9.16131615014137E-11  5.54544335017512E-02
 cg2d: Sum(rhs),rhsMax =  -9.47839584597432E-11  5.35520540103318E-02
 cg2d: Sum(rhs),rhsMax =  -9.82156578288595E-11  5.16417925954163E-02
 cg2d: Sum(rhs),rhsMax =  -1.01947450481532E-10  4.97245689339006E-02
 cg2d: Sum(rhs),rhsMax =  -1.05950803686028E-10  4.78013011192912E-02
 cg2d: Sum(rhs),rhsMax =  -1.10275566456153E-10  4.58729043095196E-02
 cg2d: Sum(rhs),rhsMax =  -1.15070675210660E-10  4.39402894090623E-02
 cg2d: Sum(rhs),rhsMax =  -1.20288057292584E-10  4.20043618145687E-02
 cg2d: Sum(rhs),rhsMax =  -1.26002042133422E-10  4.00660202574520E-02
 cg2d: Sum(rhs),rhsMax =  -1.32400368446639E-10  3.81261557715303E-02
 cg2d: Sum(rhs),rhsMax =  -1.39454392478200E-10  3.61856508088334E-02
 cg2d: Sum(rhs),rhsMax =  -1.42365563782221E-10  3.54326745250619E-02
 cg2d: Sum(rhs),rhsMax =  -1.40990802366403E-10  3.57732187669272E-02
 cg2d: Sum(rhs),rhsMax =  -1.39625366823992E-10  3.61129015107075E-02
 cg2d: Sum(rhs),rhsMax =  -1.38296638030333E-10  3.64516609761582E-02
 cg2d: Sum(rhs),rhsMax =  -1.36989558585654E-10  3.67894398395550E-02
 cg2d: Sum(rhs),rhsMax =  -1.35766578535090E-10  3.71261763885960E-02
 cg2d: Sum(rhs),rhsMax =  -1.34502631254918E-10  3.74615137117978E-02
 cg2d: Sum(rhs),rhsMax =  -1.33267424873296E-10  3.77950529912794E-02
 cg2d: Sum(rhs),rhsMax =  -1.32087007997939E-10  3.81269715065385E-02
 cg2d: Sum(rhs),rhsMax =  -1.30930682962216E-10  3.84572765807756E-02
 cg2d: Sum(rhs),rhsMax =  -1.29715571617339E-10  3.87858899827883E-02
 cg2d: Sum(rhs),rhsMax =  -1.28566768342608E-10  3.91126859869784E-02
 cg2d: Sum(rhs),rhsMax =  -1.27480137557257E-10  3.94375433900998E-02
 cg2d: Sum(rhs),rhsMax =  -1.26349597451281E-10  3.97604141595764E-02
 cg2d: Sum(rhs),rhsMax =  -1.25304044917840E-10  4.00811416472586E-02
 cg2d: Sum(rhs),rhsMax =  -1.24209476037862E-10  4.03997846058834E-02
 cg2d: Sum(rhs),rhsMax =  -1.23137111618377E-10  4.07158759637401E-02
 cg2d: Sum(rhs),rhsMax =  -1.22123422485743E-10  4.10291522659289E-02
 cg2d: Sum(rhs),rhsMax =  -1.21106347172883E-10  4.13395303981158E-02
 cg2d: Sum(rhs),rhsMax =  -1.20099152844944E-10  4.16472196155940E-02
 cg2d: Sum(rhs),rhsMax =  -1.19138809928643E-10  4.19521765397269E-02
 cg2d: Sum(rhs),rhsMax =  -1.18207665877890E-10  4.22545789168072E-02
 cg2d: Sum(rhs),rhsMax =  -1.17311493852412E-10  4.25543878144132E-02
 cg2d: Sum(rhs),rhsMax =  -1.16388010340529E-10  4.28513718594500E-02
 cg2d: Sum(rhs),rhsMax =  -1.15549347867727E-10  4.31453291055014E-02
 cg2d: Sum(rhs),rhsMax =  -1.14696030451000E-10  4.34359283903090E-02
 cg2d: Sum(rhs),rhsMax =  -1.13884346397697E-10  4.37229784325384E-02
 cg2d: Sum(rhs),rhsMax =  -1.13077214258794E-10  4.40063579531327E-02
 cg2d: Sum(rhs),rhsMax =  -1.12272746655151E-10  4.42861088235216E-02
 cg2d: Sum(rhs),rhsMax =  -1.11516573753079E-10  4.45621850750750E-02
 cg2d: Sum(rhs),rhsMax =  -1.10753184401347E-10  4.48343765454832E-02
 cg2d: Sum(rhs),rhsMax =  -1.10027764677056E-10  4.51025244259469E-02
 cg2d: Sum(rhs),rhsMax =  -1.09362074951491E-10  4.53666877883876E-02
 cg2d: Sum(rhs),rhsMax =  -1.08701159184932E-10  4.56265994539476E-02
 cg2d: Sum(rhs),rhsMax =  -1.08069109217013E-10  4.58820261471228E-02
 cg2d: Sum(rhs),rhsMax =  -1.07393427484226E-10  4.61326327562910E-02
 cg2d: Sum(rhs),rhsMax =  -1.04750874641013E-10  4.72779618596767E-02
 cg2d: Sum(rhs),rhsMax =  -1.02036046278897E-10  4.84999010240654E-02
 cg2d: Sum(rhs),rhsMax =  -9.95669102721308E-11  4.96975416503197E-02
 cg2d: Sum(rhs),rhsMax =  -9.71871472188468E-11  5.08702994164180E-02
 cg2d: Sum(rhs),rhsMax =  -9.49877954070644E-11  5.20176029394352E-02
 cg2d: Sum(rhs),rhsMax =  -9.29335497446004E-11  5.31388947680156E-02
 cg2d: Sum(rhs),rhsMax =  -9.10133080012088E-11  5.42336321468551E-02
 cg2d: Sum(rhs),rhsMax =  -8.92145246567111E-11  5.53012875534311E-02
 cg2d: Sum(rhs),rhsMax =  -8.75437500269527E-11  5.63413490397443E-02
 cg2d: Sum(rhs),rhsMax =  -8.59624593729791E-11  5.73533204403832E-02
 cg2d: Sum(rhs),rhsMax =  -8.44015968226586E-11  5.83367215215518E-02
 cg2d: Sum(rhs),rhsMax =  -8.30323587663884E-11  5.92910881359425E-02
 cg2d: Sum(rhs),rhsMax =  -8.16872125497525E-11  6.02159724183502E-02
 cg2d: Sum(rhs),rhsMax =  -8.04120103836681E-11  6.11109430204587E-02
 cg2d: Sum(rhs),rhsMax =  -7.92355070444728E-11  6.19755853584764E-02
 cg2d: Sum(rhs),rhsMax =  -7.80875364370104E-11  6.28095018411598E-02
 cg2d: Sum(rhs),rhsMax =  -7.70393748794618E-11  6.36123120369579E-02
 cg2d: Sum(rhs),rhsMax =  -7.60466134508420E-11  6.43836527272929E-02
 cg2d: Sum(rhs),rhsMax =  -7.51151363331815E-11  6.51231777979631E-02
 cg2d: Sum(rhs),rhsMax =  -7.42443884149679E-11  6.58305579544791E-02
 cg2d: Sum(rhs),rhsMax =  -7.34531324653176E-11  6.65054802969507E-02
 cg2d: Sum(rhs),rhsMax =  -7.27158333546640E-11  6.71476478300818E-02
 cg2d: Sum(rhs),rhsMax =  -7.19942994109601E-11  6.77567789975487E-02
 cg2d: Sum(rhs),rhsMax =  -7.13520353912145E-11  6.83326073191207E-02
 cg2d: Sum(rhs),rhsMax =  -7.06830149965754E-11  6.88748811870584E-02
 cg2d: Sum(rhs),rhsMax =  -7.01411151382558E-11  6.93833638583223E-02
 cg2d: Sum(rhs),rhsMax =  -6.95875579381777E-11  6.98578336626705E-02
 cg2d: Sum(rhs),rhsMax =  -6.90226764632484E-11  7.02980844273890E-02
 cg2d: Sum(rhs),rhsMax =  -6.86074530520386E-11  7.07039260924176E-02
 cg2d: Sum(rhs),rhsMax =  -6.81622536191639E-11  7.10751854356718E-02
 cg2d: Sum(rhs),rhsMax =  -6.77573552820832E-11  7.14117068172221E-02
 cg2d: Sum(rhs),rhsMax =  -6.73807676321303E-11  7.17133528567442E-02
 cg2d: Sum(rhs),rhsMax =  -6.70965505378263E-11  7.19800049721051E-02
 cg2d: Sum(rhs),rhsMax =  -6.68004540571587E-11  7.22115638016937E-02
 cg2d: Sum(rhs),rhsMax =  -6.65809629651903E-11  7.24079495191296E-02
 cg2d: Sum(rhs),rhsMax =  -6.63988863891518E-11  7.25691020376972E-02
 cg2d: Sum(rhs),rhsMax =  -6.62362387160442E-11  7.26949810557730E-02
 cg2d: Sum(rhs),rhsMax =  -6.61009025293424E-11  7.27855659986153E-02
 cg2d: Sum(rhs),rhsMax =  -6.60358434600994E-11  7.28408559602979E-02
 cg2d: Sum(rhs),rhsMax =  -6.60116405981626E-11  7.28608697267123E-02
 cg2d: Sum(rhs),rhsMax =  -6.60420607090373E-11  7.28456458984458E-02
 cg2d: Sum(rhs),rhsMax =  -6.60796972695721E-11  7.27952430415446E-02
 cg2d: Sum(rhs),rhsMax =  -6.60878018976518E-11  7.27097397725003E-02
 cg2d: Sum(rhs),rhsMax =  -6.61571908366909E-11  7.25892346927571E-02
 cg2d: Sum(rhs),rhsMax =  -6.62405685858403E-11  7.24338461093992E-02
 cg2d: Sum(rhs),rhsMax =  -6.64479582468402E-11  7.22437115155072E-02
 cg2d: Sum(rhs),rhsMax =  -6.66525723502787E-11  7.20189868415978E-02
 cg2d: Sum(rhs),rhsMax =  -6.69183597423739E-11  7.17598455184174E-02
 cg2d: Sum(rhs),rhsMax =  -6.72252253863803E-11  7.14664774153529E-02
 cg2d: Sum(rhs),rhsMax =  -6.75668410110575E-11  7.11390877423600E-02
 cg2d: Sum(rhs),rhsMax =  -6.79436507056153E-11  7.07778960200869E-02
 cg2d: Sum(rhs),rhsMax =  -6.83829659564594E-11  7.03831352189977E-02
 cg2d: Sum(rhs),rhsMax =  -6.88680223959182E-11  6.99550511364474E-02
 cg2d: Sum(rhs),rhsMax =  -6.93567425713582E-11  6.94939020292857E-02
 cg2d: Sum(rhs),rhsMax =  -6.99050817232205E-11  6.89999584688361E-02
 cg2d: Sum(rhs),rhsMax =  -7.04584168786937E-11  6.84735033567358E-02
 cg2d: Sum(rhs),rhsMax =  -7.10557168659420E-11  6.79148320361599E-02
 cg2d: Sum(rhs),rhsMax =  -7.17119696957980E-11  6.73242524399838E-02
 cg2d: Sum(rhs),rhsMax =  -7.24181825617620E-11  6.67020852273821E-02
 cg2d: Sum(rhs),rhsMax =  -7.31534832709713E-11  6.60486638827282E-02
 cg2d: Sum(rhs),rhsMax =  -7.39726058185397E-11  6.53643347635420E-02
 cg2d: Sum(rhs),rhsMax =  -7.48169304287671E-11  6.46494570929256E-02
 cg2d: Sum(rhs),rhsMax =  -7.57313101118484E-11  6.39044029054071E-02
 cg2d: Sum(rhs),rhsMax =  -7.66853247569088E-11  6.31295569212584E-02
 cg2d: Sum(rhs),rhsMax =  -7.77402586749076E-11  6.23253163126061E-02
 cg2d: Sum(rhs),rhsMax =  -7.88858978140183E-11  6.14920903633847E-02
 cg2d: Sum(rhs),rhsMax =  -8.00963739777671E-11  6.06303000098794E-02
 cg2d: Sum(rhs),rhsMax =  -8.13611400474201E-11  5.97403772813612E-02
 cg2d: Sum(rhs),rhsMax =  -8.27011792381427E-11  5.88227646912820E-02
 cg2d: Sum(rhs),rhsMax =  -8.41193781297989E-11  5.78779146435006E-02
 cg2d: Sum(rhs),rhsMax =  -8.56662518700091E-11  5.69062889097152E-02
 cg2d: Sum(rhs),rhsMax =  -8.72735217427589E-11  5.59083582102569E-02
 cg2d: Sum(rhs),rhsMax =  -8.90020279697978E-11  5.48846019049169E-02
 cg2d: Sum(rhs),rhsMax =  -9.08352282280589E-11  5.38355077851368E-02
 cg2d: Sum(rhs),rhsMax =  -9.27901089298189E-11  5.27615719535566E-02
 cg2d: Sum(rhs),rhsMax =  -9.48729983463181E-11  5.16632987835879E-02
 cg2d: Sum(rhs),rhsMax =  -9.70822311430197E-11  5.05412009626037E-02
 cg2d: Sum(rhs),rhsMax =  -9.93596316334333E-11  4.93957996207180E-02
 cg2d: Sum(rhs),rhsMax =  -1.01833652621508E-10  4.82276245275873E-02
 cg2d: Sum(rhs),rhsMax =  -1.04488084851084E-10  4.70372143168629E-02
 cg2d: Sum(rhs),rhsMax =  -1.07279407579597E-10  4.58251166917914E-02
 cg2d: Sum(rhs),rhsMax =  -1.10324083202329E-10  4.45918885816727E-02
 cg2d: Sum(rhs),rhsMax =  -1.13580256311252E-10  4.33380962453635E-02
 cg2d: Sum(rhs),rhsMax =  -1.16141207762155E-10  4.24007248234292E-02
 cg2d: Sum(rhs),rhsMax =  -1.17148291067792E-10  4.20651357578774E-02
 cg2d: Sum(rhs),rhsMax =  -1.18167031715188E-10  4.17260969955772E-02
 cg2d: Sum(rhs),rhsMax =  -1.19237064666322E-10  4.13837868310411E-02
 cg2d: Sum(rhs),rhsMax =  -1.20285781335383E-10  4.10383377843494E-02
 cg2d: Sum(rhs),rhsMax =  -1.21390342222583E-10  4.06898932438256E-02
 cg2d: Sum(rhs),rhsMax =  -1.22504562050096E-10  4.03385866354239E-02
 cg2d: Sum(rhs),rhsMax =  -1.23689503084279E-10  3.99845083461189E-02
 cg2d: Sum(rhs),rhsMax =  -1.24894206088300E-10  3.96279488040421E-02
 cg2d: Sum(rhs),rhsMax =  -1.26003985023715E-10  3.92939969939666E-02
 cg2d: Sum(rhs),rhsMax =  -1.26504695607821E-10  3.91667776265877E-02
 cg2d: Sum(rhs),rhsMax =  -1.26979315950848E-10  3.90354202126538E-02
 cg2d: Sum(rhs),rhsMax =  -1.27477473021997E-10  3.89001322130296E-02
 cg2d: Sum(rhs),rhsMax =  -1.28044352898371E-10  3.87610439321209E-02
 cg2d: Sum(rhs),rhsMax =  -1.28589361381160E-10  3.86182280317944E-02
 cg2d: Sum(rhs),rhsMax =  -1.29151023209317E-10  3.84719021297195E-02
 cg2d: Sum(rhs),rhsMax =  -1.29754096356294E-10  3.83223235119415E-02
 cg2d: Sum(rhs),rhsMax =  -1.30398802866694E-10  3.81695177689357E-02
 cg2d: Sum(rhs),rhsMax =  -1.31020194693576E-10  3.80136416525564E-02
 cg2d: Sum(rhs),rhsMax =  -1.31681054948984E-10  3.78548433400798E-02
 cg2d: Sum(rhs),rhsMax =  -1.32338973113377E-10  3.76933105360960E-02
 cg2d: Sum(rhs),rhsMax =  -1.32986788248246E-10  3.75293785924928E-02
 cg2d: Sum(rhs),rhsMax =  -1.33696775872494E-10  3.73629692006633E-02
 cg2d: Sum(rhs),rhsMax =  -1.34406263896381E-10  3.71941482578327E-02
 cg2d: Sum(rhs),rhsMax =  -1.35064015527320E-10  3.70231899791827E-02
 cg2d: Sum(rhs),rhsMax =  -1.35807504131336E-10  3.68499996750480E-02
 cg2d: Sum(rhs),rhsMax =  -1.36568950592775E-10  3.66746330949269E-02
 cg2d: Sum(rhs),rhsMax =  -1.37330286031911E-10  3.64972577777865E-02
 cg2d: Sum(rhs),rhsMax =  -1.38083860318217E-10  3.63182659500726E-02
 cg2d: Sum(rhs),rhsMax =  -1.38891564915866E-10  3.61379457807513E-02
 cg2d: Sum(rhs),rhsMax =  -1.39681634314659E-10  3.59565548296182E-02
 cg2d: Sum(rhs),rhsMax =  -1.40500916456787E-10  3.57742716520077E-02
 cg2d: Sum(rhs),rhsMax =  -1.41342521020604E-10  3.55910469170548E-02
 cg2d: Sum(rhs),rhsMax =  -1.42174688688712E-10  3.54068171583863E-02
 cg2d: Sum(rhs),rhsMax =  -1.42944323044958E-10  3.52217097319230E-02
 cg2d: Sum(rhs),rhsMax =  -1.43686396114617E-10  3.50357404258831E-02
 cg2d: Sum(rhs),rhsMax =  -1.39976530366681E-10  3.59751262357366E-02
 cg2d: Sum(rhs),rhsMax =  -1.33043298600199E-10  3.78553684593428E-02
 cg2d: Sum(rhs),rhsMax =  -1.26819166279546E-10  3.97324295721137E-02
 cg2d: Sum(rhs),rhsMax =  -1.21189558388579E-10  4.16054634886502E-02
 cg2d: Sum(rhs),rhsMax =  -1.16049669873775E-10  4.34736204330472E-02
 cg2d: Sum(rhs),rhsMax =  -1.11321729612257E-10  4.53360475217094E-02
 cg2d: Sum(rhs),rhsMax =  -1.07023057083211E-10  4.71918894745690E-02
 cg2d: Sum(rhs),rhsMax =  -1.03054509370537E-10  4.90402894565623E-02
 cg2d: Sum(rhs),rhsMax =  -9.93995996623198E-11  5.08803900280190E-02
 cg2d: Sum(rhs),rhsMax =  -9.60060919652506E-11  5.27113342005443E-02
 cg2d: Sum(rhs),rhsMax =  -9.28453425252940E-11  5.45322665754798E-02
 cg2d: Sum(rhs),rhsMax =  -8.99333385540046E-11  5.63423345351873E-02
 cg2d: Sum(rhs),rhsMax =  -8.72031336029977E-11  5.81406894517813E-02
 cg2d: Sum(rhs),rhsMax =  -8.47094616673871E-11  5.99264878771629E-02
 cg2d: Sum(rhs),rhsMax =  -8.22905077413338E-11  6.16988926737701E-02
 cg2d: Sum(rhs),rhsMax =  -8.00427502056777E-11  6.34570740456959E-02
 cg2d: Sum(rhs),rhsMax =  -7.79663000827213E-11  6.52002104363156E-02
 cg2d: Sum(rhs),rhsMax =  -7.59977636377585E-11  6.69274892608456E-02
 cg2d: Sum(rhs),rhsMax =  -7.41360306477645E-11  6.86381074518436E-02
 cg2d: Sum(rhs),rhsMax =  -7.23991977480409E-11  7.03312718053500E-02
 cg2d: Sum(rhs),rhsMax =  -7.07499614449603E-11  7.20061991263730E-02
 cg2d: Sum(rhs),rhsMax =  -6.92481627595498E-11  7.36621161841401E-02
 cg2d: Sum(rhs),rhsMax =  -6.77674583116072E-11  7.52982594990615E-02
 cg2d: Sum(rhs),rhsMax =  -6.64803767591593E-11  7.69138749937462E-02
 cg2d: Sum(rhs),rhsMax =  -6.51392273454121E-11  7.85082175487198E-02
 cg2d: Sum(rhs),rhsMax =  -6.39595043594454E-11  8.00805505089672E-02
 cg2d: Sum(rhs),rhsMax =  -6.28271878966302E-11  8.16301451899870E-02
 cg2d: Sum(rhs),rhsMax =  -6.17343953734917E-11  8.31562804318477E-02
 cg2d: Sum(rhs),rhsMax =  -6.07194294843794E-11  8.46582422444741E-02
 cg2d: Sum(rhs),rhsMax =  -5.97851768091573E-11  8.61353235813669E-02
 cg2d: Sum(rhs),rhsMax =  -5.88652460109529E-11  8.75868242701830E-02
 cg2d: Sum(rhs),rhsMax =  -5.80160364194171E-11  8.90120511201118E-02
 cg2d: Sum(rhs),rhsMax =  -5.71801495041768E-11  9.04103182155030E-02
 cg2d: Sum(rhs),rhsMax =  -5.63840085732181E-11  9.17809473947395E-02
 cg2d: Sum(rhs),rhsMax =  -5.56293899833804E-11  9.31232689039136E-02
 cg2d: Sum(rhs),rhsMax =  -5.49440493102793E-11  9.44366222070297E-02
 cg2d: Sum(rhs),rhsMax =  -5.42755840271525E-11  9.57203569284650E-02
 cg2d: Sum(rhs),rhsMax =  -5.36380939664127E-11  9.69738338991326E-02
 cg2d: Sum(rhs),rhsMax =  -5.30437915813309E-11  9.81964262755808E-02
 cg2d: Sum(rhs),rhsMax =  -5.24434939919161E-11  9.93875206996407E-02
 cg2d: Sum(rhs),rhsMax =  -5.19084775163492E-11  1.00546518468043E-01
 cg2d: Sum(rhs),rhsMax =  -5.13722397954552E-11  1.01672836683848E-01
 cg2d: Sum(rhs),rhsMax =  -5.08839637092251E-11  1.02765909359293E-01
 cg2d: Sum(rhs),rhsMax =  -5.04183361726973E-11  1.03825188446657E-01
 cg2d: Sum(rhs),rhsMax =  -4.99926766650560E-11  1.04850144778232E-01
 cg2d: Sum(rhs),rhsMax =  -4.95491425667183E-11  1.05840268901031E-01
 cg2d: Sum(rhs),rhsMax =  -4.91788831880058E-11  1.06795071796498E-01
 cg2d: Sum(rhs),rhsMax =  -4.87710982710610E-11  1.07714085480294E-01
 cg2d: Sum(rhs),rhsMax =  -4.84161599700883E-11  1.08596863484801E-01
 cg2d: Sum(rhs),rhsMax =  -4.81347184333458E-11  1.09442981222855E-01
 cg2d: Sum(rhs),rhsMax =  -4.77708983481762E-11  1.10252036245058E-01
 cg2d: Sum(rhs),rhsMax =  -4.75341987993261E-11  1.11023648406542E-01
 cg2d: Sum(rhs),rhsMax =  -4.72325512035354E-11  1.11757459959955E-01
 cg2d: Sum(rhs),rhsMax =  -4.69880800935130E-11  1.12453135593525E-01
 cg2d: Sum(rhs),rhsMax =  -4.67863525699386E-11  1.13110362434281E-01
 cg2d: Sum(rhs),rhsMax =  -4.65936178528636E-11  1.13728850036576E-01
 cg2d: Sum(rhs),rhsMax =  -4.63823424112775E-11  1.14308330374876E-01
 cg2d: Sum(rhs),rhsMax =  -4.62564431202850E-11  1.14848557857461E-01
 cg2d: Sum(rhs),rhsMax =  -4.60781413025302E-11  1.15349309374245E-01
 cg2d: Sum(rhs),rhsMax =  -4.59265958596689E-11  1.15810384387515E-01
 cg2d: Sum(rhs),rhsMax =  -4.58109106205029E-11  1.16231605069285E-01
 cg2d: Sum(rhs),rhsMax =  -4.56982229835035E-11  1.16612816487352E-01
 cg2d: Sum(rhs),rhsMax =  -4.55681048450174E-11  1.16953886826365E-01
 cg2d: Sum(rhs),rhsMax =  -4.55051551995211E-11  1.17254707627753E-01
 cg2d: Sum(rhs),rhsMax =  -4.54128956661748E-11  1.17515194051750E-01
 cg2d: Sum(rhs),rhsMax =  -4.54150050899216E-11  1.17735285152388E-01
 cg2d: Sum(rhs),rhsMax =  -4.53842519121395E-11  1.17914944126495E-01
 cg2d: Sum(rhs),rhsMax =  -4.53546089573820E-11  1.18054158519434E-01
 cg2d: Sum(rhs),rhsMax =  -4.53458381954874E-11  1.18152940371623E-01
 cg2d: Sum(rhs),rhsMax =  -4.53423965041111E-11  1.18211326291079E-01
 cg2d: Sum(rhs),rhsMax =  -4.53334036976116E-11  1.18229377438556E-01
 cg2d: Sum(rhs),rhsMax =  -4.53190818205940E-11  1.18207179430807E-01
 cg2d: Sum(rhs),rhsMax =  -4.52918813564906E-11  1.18144842105053E-01
 cg2d: Sum(rhs),rhsMax =  -4.53345139206363E-11  1.18042499169823E-01
 cg2d: Sum(rhs),rhsMax =  -4.53364012997781E-11  1.17900307744387E-01
 cg2d: Sum(rhs),rhsMax =  -4.53654891430233E-11  1.17718447783382E-01
 cg2d: Sum(rhs),rhsMax =  -4.54112303316379E-11  1.17497121385343E-01
 cg2d: Sum(rhs),rhsMax =  -4.54187798482053E-11  1.17236551990246E-01
 cg2d: Sum(rhs),rhsMax =  -4.55098181362246E-11  1.16936983470199E-01
 cg2d: Sum(rhs),rhsMax =  -4.55424586931485E-11  1.16598679124216E-01
 cg2d: Sum(rhs),rhsMax =  -4.56206183940822E-11  1.16221920600604E-01
 cg2d: Sum(rhs),rhsMax =  -4.58024729255158E-11  1.15807006765487E-01
 cg2d: Sum(rhs),rhsMax =  -4.59107196704167E-11  1.15354252538661E-01
 cg2d: Sum(rhs),rhsMax =  -4.60560478643401E-11  1.14863987720551E-01
 cg2d: Sum(rhs),rhsMax =  -4.62077043295039E-11  1.14336555835997E-01
 cg2d: Sum(rhs),rhsMax =  -4.63873384148883E-11  1.13772313021129E-01
 cg2d: Sum(rhs),rhsMax =  -4.65735228161179E-11  1.13171626961939E-01
 cg2d: Sum(rhs),rhsMax =  -4.67870187037533E-11  1.12534875956647E-01
 cg2d: Sum(rhs),rhsMax =  -4.69864147589760E-11  1.11862448076127E-01
 cg2d: Sum(rhs),rhsMax =  -4.72408778762201E-11  1.11154740431459E-01
 cg2d: Sum(rhs),rhsMax =  -4.74723593768545E-11  1.10412158603833E-01
 cg2d: Sum(rhs),rhsMax =  -4.77015094091371E-11  1.09635116199198E-01
 cg2d: Sum(rhs),rhsMax =  -4.79917217077741E-11  1.08824034531558E-01
 cg2d: Sum(rhs),rhsMax =  -4.82999196194100E-11  1.07979342434405E-01
 cg2d: Sum(rhs),rhsMax =  -4.85804729777328E-11  1.07101476195460E-01
 cg2d: Sum(rhs),rhsMax =  -4.89582818730128E-11  1.06190879603309E-01
 cg2d: Sum(rhs),rhsMax =  -4.93891594288698E-11  1.05248004093519E-01
 cg2d: Sum(rhs),rhsMax =  -4.98132646242766E-11  1.04273309000196E-01
 cg2d: Sum(rhs),rhsMax =  -5.02259345225298E-11  1.03267261834684E-01
 cg2d: Sum(rhs),rhsMax =  -5.06866770777492E-11  1.02230338625696E-01
 cg2d: Sum(rhs),rhsMax =  -5.11503062128327E-11  1.01163024304151E-01
 cg2d: Sum(rhs),rhsMax =  -5.16782172610419E-11  1.00065813121109E-01
 cg2d: Sum(rhs),rhsMax =  -5.22151211157507E-11  9.89392090812491E-02
 cg2d: Sum(rhs),rhsMax =  -5.27510257697372E-11  9.77837263643478E-02
 cg2d: Sum(rhs),rhsMax =  -5.33364463706221E-11  9.65998897182397E-02
 cg2d: Sum(rhs),rhsMax =  -5.39609468219737E-11  9.53882348177450E-02
 cg2d: Sum(rhs),rhsMax =  -5.46033218640218E-11  9.41493085731454E-02
 cg2d: Sum(rhs),rhsMax =  -5.52717871471486E-11  9.28836693735014E-02
 cg2d: Sum(rhs),rhsMax =  -5.59737811656191E-11  9.15918872536038E-02
 cg2d: Sum(rhs),rhsMax =  -5.67067504064767E-11  9.02745439778046E-02
 cg2d: Sum(rhs),rhsMax =  -5.74832403898995E-11  8.89322330381865E-02
 cg2d: Sum(rhs),rhsMax =  -5.82754955402720E-11  8.75655595688970E-02
 cg2d: Sum(rhs),rhsMax =  -5.91604543132007E-11  8.61751401826346E-02
 cg2d: Sum(rhs),rhsMax =  -6.00699490149736E-11  8.47616027388795E-02
 cg2d: Sum(rhs),rhsMax =  -6.10290706859473E-11  8.33255860562316E-02
 cg2d: Sum(rhs),rhsMax =  -6.20042905907781E-11  8.18677395829668E-02
 cg2d: Sum(rhs),rhsMax =  -6.30403507173583E-11  8.03887230380439E-02
 cg2d: Sum(rhs),rhsMax =  -6.41459108052800E-11  7.88892060244209E-02
 cg2d: Sum(rhs),rhsMax =  -6.53015419516123E-11  7.73698676373796E-02
 cg2d: Sum(rhs),rhsMax =  -6.65256738585640E-11  7.58313961013921E-02
 cg2d: Sum(rhs),rhsMax =  -6.78046507829322E-11  7.42744883910238E-02
 cg2d: Sum(rhs),rhsMax =  -6.91460222412843E-11  7.26998498373902E-02
 cg2d: Sum(rhs),rhsMax =  -7.05719926941129E-11  7.11081937196795E-02
 cg2d: Sum(rhs),rhsMax =  -7.20540294096850E-11  6.95002408382733E-02
 cg2d: Sum(rhs),rhsMax =  -7.36409822010842E-11  6.78767190671850E-02
 cg2d: Sum(rhs),rhsMax =  -7.53329065794617E-11  6.62383628689628E-02
 cg2d: Sum(rhs),rhsMax =  -7.72077402011462E-11  6.45859127688754E-02
 cg2d: Sum(rhs),rhsMax =  -7.91694487745076E-11  6.29201147951866E-02
 cg2d: Sum(rhs),rhsMax =  -8.13034639612908E-11  6.12417198928323E-02
 cg2d: Sum(rhs),rhsMax =  -8.35518876307617E-11  5.95514833221488E-02
 cg2d: Sum(rhs),rhsMax =  -8.59200488534384E-11  5.78501640602351E-02
 cg2d: Sum(rhs),rhsMax =  -8.84763373676378E-11  5.61385242274105E-02
 cg2d: Sum(rhs),rhsMax =  -9.12382391859978E-11  5.44173285637630E-02
 cg2d: Sum(rhs),rhsMax =  -9.41848266045042E-11  5.26873439802315E-02
 cg2d: Sum(rhs),rhsMax =  -9.73142677551664E-11  5.09493392050528E-02
 cg2d: Sum(rhs),rhsMax =  -1.00732810981441E-10  4.92040845395616E-02
 cg2d: Sum(rhs),rhsMax =  -1.04352859686685E-10  4.74523517325155E-02
 cg2d: Sum(rhs),rhsMax =  -1.08278663812911E-10  4.56949139564376E-02
 cg2d: Sum(rhs),rhsMax =  -1.12554521258801E-10  4.39325458733057E-02
 cg2d: Sum(rhs),rhsMax =  -1.17179099756726E-10  4.21660237712261E-02
 cg2d: Sum(rhs),rhsMax =  -1.22218180020894E-10  4.03961257324124E-02
 cg2d: Sum(rhs),rhsMax =  -1.27698712715230E-10  3.86236317868629E-02
 cg2d: Sum(rhs),rhsMax =  -1.33863087281583E-10  3.68493240050618E-02
 cg2d: Sum(rhs),rhsMax =  -1.35486150076858E-10  3.63764512176478E-02
 cg2d: Sum(rhs),rhsMax =  -1.34091682202353E-10  3.67324286699237E-02
 cg2d: Sum(rhs),rhsMax =  -1.32738098290730E-10  3.70870616219913E-02
 cg2d: Sum(rhs),rhsMax =  -1.31433447458917E-10  3.74402990405719E-02
(PID.TID 0000.0001)      cg2d_init_res =   2.51413386955028E-01
(PID.TID 0000.0001)      cg2d_iters(min,last) =      -1      39
(PID.TID 0000.0001)      cg2d_last_res =   8.67353392896038E-14
(PID.TID 0000.0001) // =======================================================
(PID.TID 0000.0001) // Begin MONITOR dynamic field statistics
(PID.TID 0000.0001) // =======================================================
(PID.TID 0000.0001) %MON time_tsnumber                =                  4320
(PID.TID 0000.0001) %MON time_secondsf                =   6.4800000000000E+04
(PID.TID 0000.0001) %MON dynstat_eta_max              =   5.1549155924502E-03
(PID.TID 0000.0001) %MON dynstat_eta_min              =  -1.1934623901298E-02
(PID.TID 0000.0001) %MON dynstat_eta_mean             =   1.0845800658271E-14
(PID.TID 0000.0001) %MON dynstat_eta_sd               =   5.5726366509963E-03
(PID.TID 0000.0001) %MON dynstat_eta_del2             =   3.3581061225503E-05
(PID.TID 0000.0001) %MON dynstat_uvel_max             =   1.0803300746265E+00
(PID.TID 0000.0001) %MON dynstat_uvel_min             =  -1.7958156173487E-01
(PID.TID 0000.0001) %MON dynstat_uvel_mean            =   4.5518784688269E-01
(PID.TID 0000.0001) %MON dynstat_uvel_sd              =   1.1368691161460E-01
(PID.TID 0000.0001) %MON dynstat_uvel_del2            =   4.4228904233669E-04
(PID.TID 0000.0001) %MON dynstat_vvel_max             =   0.0000000000000E+00
(PID.TID 0000.0001) %MON dynstat_vvel_min             =   0.0000000000000E+00
(PID.TID 0000.0001) %MON dynstat_vvel_mean            =   0.0000000000000E+00
(PID.TID 0000.0001) %MON dynstat_vvel_sd              =   0.0000000000000E+00
(PID.TID 0000.0001) %MON dynstat_vvel_del2            =   0.0000000000000E+00
(PID.TID 0000.0001) %MON dynstat_wvel_max             =   2.3823104791941E-02
(PID.TID 0000.0001) %MON dynstat_wvel_min             =  -1.8339520540125E-02
(PID.TID 0000.0001) %MON dynstat_wvel_mean            =   4.1759618368965E-20
(PID.TID 0000.0001) %MON dynstat_wvel_sd              =   2.1983035010057E-03
(PID.TID 0000.0001) %MON dynstat_wvel_del2            =   4.5082586795877E-05
(PID.TID 0000.0001) %MON dynstat_theta_max            =   1.5000000000013E+01
(PID.TID 0000.0001) %MON dynstat_theta_min            =   9.9999999999970E+00
(PID.TID 0000.0001) %MON dynstat_theta_mean           =   1.4009346176807E+01
(PID.TID 0000.0001) %MON dynstat_theta_sd             =   1.8542431419885E+00
(PID.TID 0000.0001) %MON dynstat_theta_del2           =   7.0257877455079E-04
(PID.TID 0000.0001) %MON dynstat_salt_max             =   3.5000000000000E+01
(PID.TID 0000.0001) %MON dynstat_salt_min             =   3.5000000000000E+01
(PID.TID 0000.0001) %MON dynstat_salt_mean            =   3.5000000000000E+01
(PID.TID 0000.0001) %MON dynstat_salt_sd              =   3.0553337637684E-13
(PID.TID 0000.0001) %MON dynstat_salt_del2            =   0.0000000000000E+00
(PID.TID 0000.0001) %MON dynstat_sst_max              =   1.5000000000000E+01
(PID.TID 0000.0001) %MON dynstat_sst_min              =   1.4999999999999E+01
(PID.TID 0000.0001) %MON dynstat_sst_mean             =   1.5000000000000E+01
(PID.TID 0000.0001) %MON dynstat_sst_sd               =   3.4704308557480E-13
(PID.TID 0000.0001) %MON dynstat_sst_del2             =   4.9187221012696E-15
(PID.TID 0000.0001) %MON dynstat_sss_max              =   3.5000000000000E+01
(PID.TID 0000.0001) %MON dynstat_sss_min              =   3.5000000000000E+01
(PID.TID 0000.0001) %MON dynstat_sss_mean             =   3.5000000000000E+01
(PID.TID 0000.0001) %MON dynstat_sss_sd               =   2.8421709430404E-14
(PID.TID 0000.0001) %MON dynstat_sss_del2             =   0.0000000000000E+00
(PID.TID 0000.0001) %MON forcing_qnet_max             =   0.0000000000000E+00
(PID.TID 0000.0001) %MON forcing_qnet_min             =   0.0000000000000E+00
(PID.TID 0000.0001) %MON forcing_qnet_mean            =   0.0000000000000E+00
(PID.TID 0000.0001) %MON forcing_qnet_sd              =   0.0000000000000E+00
(PID.TID 0000.0001) %MON forcing_qnet_del2            =   0.0000000000000E+00
(PID.TID 0000.0001) %MON forcing_qsw_max              =   0.0000000000000E+00
(PID.TID 0000.0001) %MON forcing_qsw_min              =   0.0000000000000E+00
(PID.TID 0000.0001) %MON forcing_qsw_mean             =   0.0000000000000E+00
(PID.TID 0000.0001) %MON forcing_qsw_sd               =   0.0000000000000E+00
(PID.TID 0000.0001) %MON forcing_qsw_del2             =   0.0000000000000E+00
(PID.TID 0000.0001) %MON forcing_empmr_max            =   0.0000000000000E+00
(PID.TID 0000.0001) %MON forcing_empmr_min            =   0.0000000000000E+00
(PID.TID 0000.0001) %MON forcing_empmr_mean           =   0.0000000000000E+00
(PID.TID 0000.0001) %MON forcing_empmr_sd             =   0.0000000000000E+00
(PID.TID 0000.0001) %MON forcing_empmr_del2           =   0.0000000000000E+00
(PID.TID 0000.0001) %MON forcing_fu_max               =   0.0000000000000E+00
(PID.TID 0000.0001) %MON forcing_fu_min               =   0.0000000000000E+00
(PID.TID 0000.0001) %MON forcing_fu_mean              =   0.0000000000000E+00
(PID.TID 0000.0001) %MON forcing_fu_sd                =   0.0000000000000E+00
(PID.TID 0000.0001) %MON forcing_fu_del2              =   0.0000000000000E+00
(PID.TID 0000.0001) %MON forcing_fv_max               =   0.0000000000000E+00
(PID.TID 0000.0001) %MON forcing_fv_min               =   0.0000000000000E+00
(PID.TID 0000.0001) %MON forcing_fv_mean              =   0.0000000000000E+00
(PID.TID 0000.0001) %MON forcing_fv_sd                =   0.0000000000000E+00
(PID.TID 0000.0001) %MON forcing_fv_del2              =   0.0000000000000E+00
(PID.TID 0000.0001) %MON advcfl_uvel_max              =   7.5192018158229E-02
(PID.TID 0000.0001) %MON advcfl_vvel_max              =   0.0000000000000E+00
(PID.TID 0000.0001) %MON advcfl_wvel_max              =   1.4117745120888E-01
(PID.TID 0000.0001) %MON advcfl_W_hf_max              =   1.4271337776259E-01
(PID.TID 0000.0001) %MON pe_b_mean                    =   7.6967035721158E-07
(PID.TID 0000.0001) %MON ke_max                       =   4.8978446244807E-01
(PID.TID 0000.0001) %MON ke_mean                      =   1.1013980434051E-01
(PID.TID 0000.0001) %MON ke_vol                       =   9.6656965507697E+10
(PID.TID 0000.0001) %MON vort_r_min                   =   0.0000000000000E+00
(PID.TID 0000.0001) %MON vort_r_max                   =   0.0000000000000E+00
(PID.TID 0000.0001) %MON vort_a_mean                  =   0.0000000000000E+00
(PID.TID 0000.0001) %MON vort_a_sd                    =   0.0000000000000E+00
(PID.TID 0000.0001) %MON vort_p_mean                  =   0.0000000000000E+00
(PID.TID 0000.0001) %MON vort_p_sd                    =   0.0000000000000E+00
(PID.TID 0000.0001) %MON surfExpan_theta_mean         =  -3.9385203481877E-19
(PID.TID 0000.0001) %MON surfExpan_salt_mean          =   2.4683256366538E-18
(PID.TID 0000.0001) // =======================================================
(PID.TID 0000.0001) // End MONITOR dynamic field statistics
(PID.TID 0000.0001) // =======================================================
(PID.TID 0000.0001) // =======================================================
(PID.TID 0000.0001) // Begin OBCS MONITOR field statistics
(PID.TID 0000.0001) // =======================================================
(PID.TID 0000.0001) %MON obc_E_uVel_max               =   4.4822851314926E-01
(PID.TID 0000.0001) %MON obc_E_uVel_min               =   4.4822851314926E-01
(PID.TID 0000.0001) %MON obc_E_uVel_mean              =   4.4822851314926E-01
(PID.TID 0000.0001) %MON obc_E_uVel_sd                =   0.0000000000000E+00
(PID.TID 0000.0001) %MON obc_E_uVel_Int               =   4.4822851314926E+05
(PID.TID 0000.0001) %MON obc_W_uVel_max               =   4.4822851314926E-01
(PID.TID 0000.0001) %MON obc_W_uVel_min               =   4.4822851314926E-01
(PID.TID 0000.0001) %MON obc_W_uVel_mean              =   4.4822851314926E-01
(PID.TID 0000.0001) %MON obc_W_uVel_sd                =   0.0000000000000E+00
(PID.TID 0000.0001) %MON obc_W_uVel_Int               =   4.4822851314926E+05
(PID.TID 0000.0001) // =======================================================
(PID.TID 0000.0001) // End OBCS MONITOR field statistics
(PID.TID 0000.0001) // =======================================================
(PID.TID 0000.0001) %CHECKPOINT      4320 0000004320
 cg2d: Sum(rhs),rhsMax =  -1.30139429180970E-10  3.77920151482476E-02
 cg2d: Sum(rhs),rhsMax =  -1.28889877937244E-10  3.81417839997726E-02
 cg2d: Sum(rhs),rhsMax =  -1.27656274440113E-10  3.84896589558393E-02
 cg2d: Sum(rhs),rhsMax =  -1.26412963430411E-10  3.88357008038354E-02
 cg2d: Sum(rhs),rhsMax =  -1.25251337079746E-10  3.91797972497634E-02
 cg2d: Sum(rhs),rhsMax =  -1.24143473279048E-10  3.95218670505838E-02
 cg2d: Sum(rhs),rhsMax =  -1.23021148823454E-10  3.98617145385834E-02
 cg2d: Sum(rhs),rhsMax =  -1.21885945780775E-10  4.01992430495016E-02
 cg2d: Sum(rhs),rhsMax =  -1.20829790617449E-10  4.05344255625765E-02
 cg2d: Sum(rhs),rhsMax =  -1.19751764060538E-10  4.08671419998860E-02
 cg2d: Sum(rhs),rhsMax =  -1.18737353282938E-10  4.11972492699258E-02
 cg2d: Sum(rhs),rhsMax =  -1.17706400182271E-10  4.15243580895750E-02
 cg2d: Sum(rhs),rhsMax =  -1.16705367592118E-10  4.18483005926094E-02
 cg2d: Sum(rhs),rhsMax =  -1.15711884518532E-10  4.21690216043794E-02
 cg2d: Sum(rhs),rhsMax =  -1.14760423386429E-10  4.24866116816544E-02
 cg2d: Sum(rhs),rhsMax =  -1.13834275339286E-10  4.28011710268111E-02
 cg2d: Sum(rhs),rhsMax =  -1.12936215934667E-10  4.31128264622498E-02
 cg2d: Sum(rhs),rhsMax =  -1.12039599819980E-10  4.34215370335151E-02
 cg2d: Sum(rhs),rhsMax =  -1.11203934949344E-10  4.37271084083285E-02
 cg2d: Sum(rhs),rhsMax =  -1.10374820394554E-10  4.40294213100983E-02
 cg2d: Sum(rhs),rhsMax =  -1.09578013329781E-10  4.43283825425505E-02
 cg2d: Sum(rhs),rhsMax =  -1.08771991413903E-10  4.46236989705843E-02
 cg2d: Sum(rhs),rhsMax =  -1.07993280984431E-10  4.49152297477578E-02
 cg2d: Sum(rhs),rhsMax =  -1.07246322933463E-10  4.52027806269609E-02
 cg2d: Sum(rhs),rhsMax =  -1.06473718730626E-10  4.54863555249667E-02
 cg2d: Sum(rhs),rhsMax =  -1.05731534638664E-10  4.57659096399581E-02
 cg2d: Sum(rhs),rhsMax =  -1.05054853705155E-10  4.60412573198450E-02
 cg2d: Sum(rhs),rhsMax =  -1.04374175968758E-10  4.63124233684916E-02
 cg2d: Sum(rhs),rhsMax =  -1.03729136391451E-10  4.65794056299821E-02
 cg2d: Sum(rhs),rhsMax =  -1.03053898747874E-10  4.68419635208858E-02
 cg2d: Sum(rhs),rhsMax =  -1.02435837590065E-10  4.70996997191104E-02
 cg2d: Sum(rhs),rhsMax =  -1.01865405000012E-10  4.73523271620218E-02
 cg2d: Sum(rhs),rhsMax =  -1.01287866982602E-10  4.75997017444847E-02
 cg2d: Sum(rhs),rhsMax =  -1.00725094931420E-10  4.78417638979712E-02
 cg2d: Sum(rhs),rhsMax =  -1.00161878791027E-10  4.80782966190445E-02
 cg2d: Sum(rhs),rhsMax =  -9.96398519248487E-11  4.83092670791450E-02
 cg2d: Sum(rhs),rhsMax =  -9.88573667370929E-11  4.86240173118222E-02
 cg2d: Sum(rhs),rhsMax =  -9.67516067262864E-11  4.96510132800226E-02
 cg2d: Sum(rhs),rhsMax =  -9.47225631264814E-11  5.06533554155003E-02
 cg2d: Sum(rhs),rhsMax =  -9.28352950069211E-11  5.16305560288702E-02
 cg2d: Sum(rhs),rhsMax =  -9.10576058998913E-11  5.25821372303816E-02
 cg2d: Sum(rhs),rhsMax =  -8.93259910483835E-11  5.35076313664667E-02
 cg2d: Sum(rhs),rhsMax =  -8.77619088512915E-11  5.44065816499612E-02
 cg2d: Sum(rhs),rhsMax =  -8.62850901839352E-11  5.52785430084552E-02
 cg2d: Sum(rhs),rhsMax =  -8.48985326484808E-11  5.61230831538516E-02
 cg2d: Sum(rhs),rhsMax =  -8.35820301858803E-11  5.69397838377799E-02
 cg2d: Sum(rhs),rhsMax =  -8.23759949142300E-11  5.77282422092803E-02
 cg2d: Sum(rhs),rhsMax =  -8.11938294376091E-11  5.84880721462462E-02
 cg2d: Sum(rhs),rhsMax =  -8.01489985491344E-11  5.92189054060726E-02
 cg2d: Sum(rhs),rhsMax =  -7.91278154110842E-11  5.99203924470371E-02
 cg2d: Sum(rhs),rhsMax =  -7.81643638703144E-11  6.05922028162328E-02
 cg2d: Sum(rhs),rhsMax =  -7.73044961377423E-11  6.12340250775091E-02
 cg2d: Sum(rhs),rhsMax =  -7.64693863786192E-11  6.18455663477666E-02
 cg2d: Sum(rhs),rhsMax =  -7.56522622324951E-11  6.24265515978623E-02
 cg2d: Sum(rhs),rhsMax =  -7.49587059090118E-11  6.29767229298971E-02
 cg2d: Sum(rhs),rhsMax =  -7.43117789525627E-11  6.34958390475887E-02
 cg2d: Sum(rhs),rhsMax =  -7.36114502686291E-11  6.39836750865768E-02
 cg2d: Sum(rhs),rhsMax =  -7.30692173434022E-11  6.44400228791591E-02
 cg2d: Sum(rhs),rhsMax =  -7.25193238793054E-11  6.48646916178598E-02
 cg2d: Sum(rhs),rhsMax =  -7.20313808599826E-11  6.52575087649852E-02
 cg2d: Sum(rhs),rhsMax =  -7.15424386399377E-11  6.56183210432564E-02
 cg2d: Sum(rhs),rhsMax =  -7.11639636108430E-11  6.59469953077776E-02
 cg2d: Sum(rhs),rhsMax =  -7.07803815558350E-11  6.62434191014697E-02
 cg2d: Sum(rhs),rhsMax =  -7.04547531427124E-11  6.65075007664615E-02
 cg2d: Sum(rhs),rhsMax =  -7.01618763088163E-11  6.67391690942183E-02
 cg2d: Sum(rhs),rhsMax =  -6.99034163886836E-11  6.69383726014656E-02
 cg2d: Sum(rhs),rhsMax =  -6.97034652219486E-11  6.71050785875568E-02
 cg2d: Sum(rhs),rhsMax =  -6.95533630690193E-11  6.72392721534748E-02
 cg2d: Sum(rhs),rhsMax =  -6.93870516599304E-11  6.73409553422058E-02
 cg2d: Sum(rhs),rhsMax =  -6.92954582603988E-11  6.74101464669552E-02
 cg2d: Sum(rhs),rhsMax =  -6.92609303243330E-11  6.74468796783552E-02
 cg2d: Sum(rhs),rhsMax =  -6.92513824063212E-11  6.74512047156365E-02
 cg2d: Sum(rhs),rhsMax =  -6.93111124050461E-11  6.74231867277848E-02
 cg2d: Sum(rhs),rhsMax =  -6.93558543929385E-11  6.73629060240261E-02
 cg2d: Sum(rhs),rhsMax =  -6.94307944471007E-11  6.72704576305576E-02
 cg2d: Sum(rhs),rhsMax =  -6.95385971027918E-11  6.71459505900001E-02
 cg2d: Sum(rhs),rhsMax =  -6.97079061140471E-11  6.69895070273563E-02
 cg2d: Sum(rhs),rhsMax =  -6.99529323355819E-11  6.68012610956352E-02
 cg2d: Sum(rhs),rhsMax =  -7.00871582992590E-11  6.65813579764336E-02
 cg2d: Sum(rhs),rhsMax =  -7.04201141843441E-11  6.63299531241303E-02
 cg2d: Sum(rhs),rhsMax =  -7.07567338054105E-11  6.60472119018412E-02
 cg2d: Sum(rhs),rhsMax =  -7.11549708043435E-11  6.57333096755875E-02
 cg2d: Sum(rhs),rhsMax =  -7.15617565205662E-11  6.53884323360847E-02
 cg2d: Sum(rhs),rhsMax =  -7.20700166212396E-11  6.50127771348494E-02
 cg2d: Sum(rhs),rhsMax =  -7.25614013319387E-11  6.46065536741754E-02
 cg2d: Sum(rhs),rhsMax =  -7.30858706887716E-11  6.41699848823269E-02
 cg2d: Sum(rhs),rhsMax =  -7.37043759357903E-11  6.37033078420178E-02
 cg2d: Sum(rhs),rhsMax =  -7.42994554769894E-11  6.32067743772383E-02
 cg2d: Sum(rhs),rhsMax =  -7.50399742344143E-11  6.26806513603140E-02
 cg2d: Sum(rhs),rhsMax =  -7.57039986254426E-11  6.21252207536087E-02
 cg2d: Sum(rhs),rhsMax =  -7.65701946292552E-11  6.15407794325472E-02
 cg2d: Sum(rhs),rhsMax =  -7.74179609308590E-11  6.09276388549141E-02
 cg2d: Sum(rhs),rhsMax =  -7.82822695555296E-11  6.02861246447028E-02
 cg2d: Sum(rhs),rhsMax =  -7.92103049818138E-11  5.96165761435318E-02
 cg2d: Sum(rhs),rhsMax =  -8.02314881198640E-11  5.89193459606260E-02
 cg2d: Sum(rhs),rhsMax =  -8.12871991939801E-11  5.81947995495059E-02
 cg2d: Sum(rhs),rhsMax =  -8.24578183511449E-11  5.74433147703080E-02
 cg2d: Sum(rhs),rhsMax =  -8.36668512249616E-11  5.66652814611420E-02
 cg2d: Sum(rhs),rhsMax =  -8.48904280204010E-11  5.58611010174497E-02
 cg2d: Sum(rhs),rhsMax =  -8.62898641429410E-11  5.50311859699591E-02
 cg2d: Sum(rhs),rhsMax =  -8.77365957663301E-11  5.41759595595946E-02
 cg2d: Sum(rhs),rhsMax =  -8.92182994149948E-11  5.32958553191168E-02
 cg2d: Sum(rhs),rhsMax =  -9.08108033215171E-11  5.23913166795670E-02
 cg2d: Sum(rhs),rhsMax =  -9.25797216666524E-11  5.14627966200927E-02
 cg2d: Sum(rhs),rhsMax =  -9.44166966831972E-11  5.05107573725433E-02
 cg2d: Sum(rhs),rhsMax =  -9.64039958972762E-11  4.95356701809649E-02
 cg2d: Sum(rhs),rhsMax =  -9.85108661311074E-11  4.85380151075893E-02
 cg2d: Sum(rhs),rhsMax =  -1.00702335359415E-10  4.75182808719234E-02
 cg2d: Sum(rhs),rhsMax =  -1.03081876368094E-10  4.64769647068476E-02
 cg2d: Sum(rhs),rhsMax =  -1.05608632949838E-10  4.54324804038142E-02
 cg2d: Sum(rhs),rhsMax =  -1.06369135721707E-10  4.51283923872349E-02
 cg2d: Sum(rhs),rhsMax =  -1.07150177619530E-10  4.48192718613074E-02
 cg2d: Sum(rhs),rhsMax =  -1.07962971895859E-10  4.45057121429112E-02
 cg2d: Sum(rhs),rhsMax =  -1.08802966636290E-10  4.41881773005423E-02
 cg2d: Sum(rhs),rhsMax =  -1.09657283253739E-10  4.38670931199311E-02
 cg2d: Sum(rhs),rhsMax =  -1.10529585484187E-10  4.35425272967428E-02
 cg2d: Sum(rhs),rhsMax =  -1.11423426041313E-10  4.32148351948788E-02
 cg2d: Sum(rhs),rhsMax =  -1.12335474256042E-10  4.28841038814239E-02
 cg2d: Sum(rhs),rhsMax =  -1.13320131056582E-10  4.25504292454247E-02
 cg2d: Sum(rhs),rhsMax =  -1.14249165683589E-10  4.22138463852850E-02
 cg2d: Sum(rhs),rhsMax =  -1.15255027743899E-10  4.18744313024734E-02
 cg2d: Sum(rhs),rhsMax =  -1.16257670157438E-10  4.15323422319228E-02
 cg2d: Sum(rhs),rhsMax =  -1.17263976306958E-10  4.11876656082195E-02
 cg2d: Sum(rhs),rhsMax =  -1.18364429368967E-10  4.08406848150611E-02
 cg2d: Sum(rhs),rhsMax =  -1.19464216297160E-10  4.04914443572667E-02
 cg2d: Sum(rhs),rhsMax =  -1.20556897797996E-10  4.01402094382798E-02
 cg2d: Sum(rhs),rhsMax =  -1.21723520152273E-10  3.97871964556819E-02
 cg2d: Sum(rhs),rhsMax =  -1.22913346167763E-10  3.94326567169040E-02
 cg2d: Sum(rhs),rhsMax =  -1.24115162591920E-10  3.90792326564707E-02
 cg2d: Sum(rhs),rhsMax =  -1.24622867581081E-10  3.89309079713839E-02
 cg2d: Sum(rhs),rhsMax =  -1.25197074929417E-10  3.87790812375753E-02
 cg2d: Sum(rhs),rhsMax =  -1.25789878513416E-10  3.86240719963163E-02
 cg2d: Sum(rhs),rhsMax =  -1.26392063481973E-10  3.84661167762075E-02
 cg2d: Sum(rhs),rhsMax =  -1.26992916182900E-10  3.83055242194137E-02
 cg2d: Sum(rhs),rhsMax =  -1.27647781233975E-10  3.81424593689529E-02
 cg2d: Sum(rhs),rhsMax =  -1.28249577624473E-10  3.79771425784247E-02
 cg2d: Sum(rhs),rhsMax =  -1.28916266550760E-10  3.78097405828106E-02
 cg2d: Sum(rhs),rhsMax =  -1.29572796936372E-10  3.76403678500329E-02
 cg2d: Sum(rhs),rhsMax =  -1.30260968678186E-10  3.74690345339669E-02
 cg2d: Sum(rhs),rhsMax =  -1.30943728082755E-10  3.72957308316111E-02
 cg2d: Sum(rhs),rhsMax =  -1.31664790181674E-10  3.71205033307196E-02
 cg2d: Sum(rhs),rhsMax =  -1.32374680661407E-10  3.69431739093302E-02
 cg2d: Sum(rhs),rhsMax =  -1.33087221798611E-10  3.67637026642412E-02
 cg2d: Sum(rhs),rhsMax =  -1.33828850779061E-10  3.65821851880638E-02
 cg2d: Sum(rhs),rhsMax =  -1.34572665511090E-10  3.63986523255569E-02
 cg2d: Sum(rhs),rhsMax =  -1.35366710896090E-10  3.62132793917413E-02
 cg2d: Sum(rhs),rhsMax =  -1.36187061627879E-10  3.60263315582249E-02
 cg2d: Sum(rhs),rhsMax =  -1.37000633060325E-10  3.58379593331013E-02
 cg2d: Sum(rhs),rhsMax =  -1.37858308102423E-10  3.56483610528813E-02
 cg2d: Sum(rhs),rhsMax =  -1.38675071426064E-10  3.54578136651549E-02
 cg2d: Sum(rhs),rhsMax =  -1.36831879160582E-10  3.59645513017193E-02
 cg2d: Sum(rhs),rhsMax =  -1.30581490065396E-10  3.77132684622595E-02
 cg2d: Sum(rhs),rhsMax =  -1.24863452910517E-10  3.94589047358738E-02
 cg2d: Sum(rhs),rhsMax =  -1.19671772491614E-10  4.12006499572627E-02
 cg2d: Sum(rhs),rhsMax =  -1.14908305093309E-10  4.29376951583713E-02
 cg2d: Sum(rhs),rhsMax =  -1.10512599071910E-10  4.46692331287297E-02
 cg2d: Sum(rhs),rhsMax =  -1.06487485496132E-10  4.63944589887690E-02
 cg2d: Sum(rhs),rhsMax =  -1.02748587416102E-10  4.81125707704482E-02
 cg2d: Sum(rhs),rhsMax =  -9.93260473869384E-11  4.98227699977612E-02
 cg2d: Sum(rhs),rhsMax =  -9.61138946209417E-11  5.15242622601711E-02
 cg2d: Sum(rhs),rhsMax =  -9.30879817673258E-11  5.32162577603812E-02
 cg2d: Sum(rhs),rhsMax =  -9.02825592064005E-11  5.48979718272107E-02
 cg2d: Sum(rhs),rhsMax =  -8.76760886114880E-11  5.65686253830843E-02
 cg2d: Sum(rhs),rhsMax =  -8.52180548349679E-11  5.82274453482293E-02
 cg2d: Sum(rhs),rhsMax =  -8.29393775880760E-11  5.98736649640484E-02
 cg2d: Sum(rhs),rhsMax =  -8.07909295019726E-11  6.15065240196517E-02
 cg2d: Sum(rhs),rhsMax =  -7.87497844711993E-11  6.31252689677168E-02
 cg2d: Sum(rhs),rhsMax =  -7.68434760267667E-11  6.47291529177126E-02
 cg2d: Sum(rhs),rhsMax =  -7.50363104984331E-11  6.63174355002538E-02
 cg2d: Sum(rhs),rhsMax =  -7.33367810923369E-11  6.78893826045850E-02
 cg2d: Sum(rhs),rhsMax =  -7.17513826131722E-11  6.94442660016486E-02
 cg2d: Sum(rhs),rhsMax =  -7.03205271790353E-11  7.09813628777181E-02
 cg2d: Sum(rhs),rhsMax =  -6.89662771335975E-11  7.24999553178598E-02
 cg2d: Sum(rhs),rhsMax =  -6.76809719379889E-11  7.39993297935913E-02
 cg2d: Sum(rhs),rhsMax =  -6.64328592137053E-11  7.54787767236832E-02
 cg2d: Sum(rhs),rhsMax =  -6.52563558745101E-11  7.69375901887424E-02
 cg2d: Sum(rhs),rhsMax =  -6.41432462700209E-11  7.83750678886562E-02
 cg2d: Sum(rhs),rhsMax =  -6.30833163484112E-11  7.97905114308255E-02
 cg2d: Sum(rhs),rhsMax =  -6.21122042687716E-11  8.11832270290768E-02
 cg2d: Sum(rhs),rhsMax =  -6.11479755718847E-11  8.25525266753710E-02
 cg2d: Sum(rhs),rhsMax =  -6.02773386759736E-11  8.38977298184060E-02
 cg2d: Sum(rhs),rhsMax =  -5.93937121706745E-11  8.52181655467190E-02
 cg2d: Sum(rhs),rhsMax =  -5.86048987116783E-11  8.65131752299453E-02
 cg2d: Sum(rhs),rhsMax =  -5.78013192864546E-11  8.77821155261154E-02
 cg2d: Sum(rhs),rhsMax =  -5.70768987628867E-11  8.90243616195969E-02
 cg2d: Sum(rhs),rhsMax =  -5.63551427745779E-11  9.02393105164182E-02
 cg2d: Sum(rhs),rhsMax =  -5.56938939411111E-11  9.14263841970920E-02
 cg2d: Sum(rhs),rhsMax =  -5.50568479695812E-11  9.25850324159715E-02
 cg2d: Sum(rhs),rhsMax =  -5.44635447852215E-11  9.37147349434836E-02
 cg2d: Sum(rhs),rhsMax =  -5.38828981433426E-11  9.48150030736864E-02
 cg2d: Sum(rhs),rhsMax =  -5.33243449396537E-11  9.58853802644565E-02
 cg2d: Sum(rhs),rhsMax =  -5.28349586303989E-11  9.69254418398120E-02
 cg2d: Sum(rhs),rhsMax =  -5.23361354254348E-11  9.79347937457992E-02
 cg2d: Sum(rhs),rhsMax =  -5.18438625363160E-11  9.89130704271492E-02
 cg2d: Sum(rhs),rhsMax =  -5.14170928056501E-11  9.98599319601657E-02
 cg2d: Sum(rhs),rhsMax =  -5.09865483167005E-11  1.00775060635015E-01
 cg2d: Sum(rhs),rhsMax =  -5.05887554069773E-11  1.01658157222186E-01
 cg2d: Sum(rhs),rhsMax =  -5.02310415484430E-11  1.02508937181611E-01
 cg2d: Sum(rhs),rhsMax =  -4.98731056453039E-11  1.03327127065898E-01
 cg2d: Sum(rhs),rhsMax =  -4.95776752984511E-11  1.04112461350578E-01
 cg2d: Sum(rhs),rhsMax =  -4.93223240027874E-11  1.04864679890466E-01
 cg2d: Sum(rhs),rhsMax =  -4.90018026155781E-11  1.05583526136213E-01
 cg2d: Sum(rhs),rhsMax =  -4.87538898141793E-11  1.06268746182851E-01
 cg2d: Sum(rhs),rhsMax =  -4.85242956926868E-11  1.06920088655111E-01
 cg2d: Sum(rhs),rhsMax =  -4.82978101956633E-11  1.07537305371043E-01
 cg2d: Sum(rhs),rhsMax =  -4.80825379511884E-11  1.08120152671282E-01
 cg2d: Sum(rhs),rhsMax =  -4.78852513197126E-11  1.08668393260596E-01
 cg2d: Sum(rhs),rhsMax =  -4.77007322530199E-11  1.09181798383606E-01
 cg2d: Sum(rhs),rhsMax =  -4.75126604726483E-11  1.09660150148647E-01
 cg2d: Sum(rhs),rhsMax =  -4.73331374095665E-11  1.10103243821880E-01
 cg2d: Sum(rhs),rhsMax =  -4.72807348828042E-11  1.10510889935719E-01
 cg2d: Sum(rhs),rhsMax =  -4.71235273025172E-11  1.10882916087990E-01
 cg2d: Sum(rhs),rhsMax =  -4.70025129928331E-11  1.11219168348742E-01
 cg2d: Sum(rhs),rhsMax =  -4.69213556897330E-11  1.11519512215863E-01
 cg2d: Sum(rhs),rhsMax =  -4.68806105047292E-11  1.11783833149331E-01
 cg2d: Sum(rhs),rhsMax =  -4.68025618260981E-11  1.12012036689261E-01
 cg2d: Sum(rhs),rhsMax =  -4.67628158418165E-11  1.12204048216405E-01
 cg2d: Sum(rhs),rhsMax =  -4.67206273668808E-11  1.12359812432487E-01
 cg2d: Sum(rhs),rhsMax =  -4.67476057863792E-11  1.12479292648978E-01
 cg2d: Sum(rhs),rhsMax =  -4.68169947254182E-11  1.12562469973088E-01
 cg2d: Sum(rhs),rhsMax =  -4.68136640563444E-11  1.12609342482087E-01
 cg2d: Sum(rhs),rhsMax =  -4.67688110461495E-11  1.12619924435538E-01
 cg2d: Sum(rhs),rhsMax =  -4.67516025892678E-11  1.12594245575434E-01
 cg2d: Sum(rhs),rhsMax =  -4.67196281661586E-11  1.12532350571079E-01
 cg2d: Sum(rhs),rhsMax =  -4.67159644301773E-11  1.12434298625809E-01
 cg2d: Sum(rhs),rhsMax =  -4.67458294295398E-11  1.12300163243109E-01
 cg2d: Sum(rhs),rhsMax =  -4.67903493728272E-11  1.12130032138817E-01
 cg2d: Sum(rhs),rhsMax =  -4.67796912317908E-11  1.11924007280259E-01
 cg2d: Sum(rhs),rhsMax =  -4.68273197995472E-11  1.11682205011040E-01
 cg2d: Sum(rhs),rhsMax =  -4.68939331810247E-11  1.11404756242419E-01
 cg2d: Sum(rhs),rhsMax =  -4.69780880862913E-11  1.11091806679600E-01
 cg2d: Sum(rhs),rhsMax =  -4.70659067275392E-11  1.10743517053725E-01
 cg2d: Sum(rhs),rhsMax =  -4.72071270962715E-11  1.10360063335699E-01
 cg2d: Sum(rhs),rhsMax =  -4.73577843607131E-11  1.09941636915049E-01
 cg2d: Sum(rhs),rhsMax =  -4.74764672020456E-11  1.09488444734692E-01
 cg2d: Sum(rhs),rhsMax =  -4.76386707859433E-11  1.09000709379665E-01
 cg2d: Sum(rhs),rhsMax =  -4.78118655777848E-11  1.08478669124021E-01
 cg2d: Sum(rhs),rhsMax =  -4.79829509458796E-11  1.07922577943538E-01
 cg2d: Sum(rhs),rhsMax =  -4.81851225586638E-11  1.07332705479184E-01
 cg2d: Sum(rhs),rhsMax =  -4.83999507139288E-11  1.06709337053250E-01
 cg2d: Sum(rhs),rhsMax =  -4.86455320469759E-11  1.06052773677227E-01
 cg2d: Sum(rhs),rhsMax =  -4.88785678598447E-11  1.05363332062561E-01
 cg2d: Sum(rhs),rhsMax =  -4.91457985418720E-11  1.04641344645272E-01
 cg2d: Sum(rhs),rhsMax =  -4.94215779411888E-11  1.03887159634785E-01
 cg2d: Sum(rhs),rhsMax =  -4.96869212440743E-11  1.03101141087537E-01
 cg2d: Sum(rhs),rhsMax =  -4.99865704384206E-11  1.02283668995628E-01
 cg2d: Sum(rhs),rhsMax =  -5.03113106731234E-11  1.01435139375483E-01
 cg2d: Sum(rhs),rhsMax =  -5.06412689560420E-11  1.00555964336885E-01
 cg2d: Sum(rhs),rhsMax =  -5.09898789857743E-11  9.96465721133542E-02
 cg2d: Sum(rhs),rhsMax =  -5.13532549817342E-11  9.87074070390932E-02
 cg2d: Sum(rhs),rhsMax =  -5.18166620722127E-11  9.77389294083832E-02
 cg2d: Sum(rhs),rhsMax =  -5.23147081210595E-11  9.67416152326029E-02
 cg2d: Sum(rhs),rhsMax =  -5.28252996900846E-11  9.57159558861544E-02
 cg2d: Sum(rhs),rhsMax =  -5.33597610541392E-11  9.46624576307031E-02
 cg2d: Sum(rhs),rhsMax =  -5.39009947786440E-11  9.35816410244778E-02
 cg2d: Sum(rhs),rhsMax =  -5.44950751191209E-11  9.24740402220555E-02
 cg2d: Sum(rhs),rhsMax =  -5.50880452365732E-11  9.13402021815928E-02
 cg2d: Sum(rhs),rhsMax =  -5.57474066908981E-11  9.01806858075289E-02
 cg2d: Sum(rhs),rhsMax =  -5.64033264538466E-11  8.89960610652187E-02
 cg2d: Sum(rhs),rhsMax =  -5.71407365868026E-11  8.77869081083852E-02
 cg2d: Sum(rhs),rhsMax =  -5.78924685967763E-11  8.65538164608848E-02
 cg2d: Sum(rhs),rhsMax =  -5.86890536169449E-11  8.52973842915759E-02
 cg2d: Sum(rhs),rhsMax =  -5.95069549191862E-11  8.40182178153059E-02
 cg2d: Sum(rhs),rhsMax =  -6.03724847891840E-11  8.27169308449292E-02
 cg2d: Sum(rhs),rhsMax =  -6.12750961082043E-11  8.13941445073657E-02
 cg2d: Sum(rhs),rhsMax =  -6.22124574078953E-11  8.00504871252545E-02
 cg2d: Sum(rhs),rhsMax =  -6.32085495055890E-11  7.86865942542706E-02
 cg2d: Sum(rhs),rhsMax =  -6.42386144278362E-11  7.73031088529256E-02
 cg2d: Sum(rhs),rhsMax =  -6.53680443107874E-11  7.59006815612288E-02
 cg2d: Sum(rhs),rhsMax =  -6.65033583757690E-11  7.44799710275132E-02
 cg2d: Sum(rhs),rhsMax =  -6.77202183219094E-11  7.30416442728192E-02
 cg2d: Sum(rhs),rhsMax =  -6.90062451624840E-11  7.15863770466975E-02
 cg2d: Sum(rhs),rhsMax =  -7.04157843145481E-11  7.01148541174200E-02
 cg2d: Sum(rhs),rhsMax =  -7.17995107812897E-11  6.86277694704774E-02
 cg2d: Sum(rhs),rhsMax =  -7.33093585836286E-11  6.71258264022620E-02
 cg2d: Sum(rhs),rhsMax =  -7.48888728807628E-11  6.56097374879881E-02
 cg2d: Sum(rhs),rhsMax =  -7.66187668865825E-11  6.40802244260194E-02
 cg2d: Sum(rhs),rhsMax =  -7.83519915614761E-11  6.25380177669296E-02
 cg2d: Sum(rhs),rhsMax =  -8.02983790570977E-11  6.09838565335543E-02
 cg2d: Sum(rhs),rhsMax =  -8.23638379721103E-11  5.94184877408843E-02
 cg2d: Sum(rhs),rhsMax =  -8.45323255838082E-11  5.78426658252860E-02
 cg2d: Sum(rhs),rhsMax =  -8.68482508131763E-11  5.62571519908727E-02
 cg2d: Sum(rhs),rhsMax =  -8.93048968109156E-11  5.46627134774167E-02
 cg2d: Sum(rhs),rhsMax =  -9.19427867174250E-11  5.30601227498555E-02
 cg2d: Sum(rhs),rhsMax =  -9.47675826701300E-11  5.14501566053123E-02
 cg2d: Sum(rhs),rhsMax =  -9.77386505063293E-11  4.98335951908983E-02
 cg2d: Sum(rhs),rhsMax =  -1.00976893513405E-10  4.82112209252822E-02
 cg2d: Sum(rhs),rhsMax =  -1.04421360447304E-10  4.65838173190700E-02
 cg2d: Sum(rhs),rhsMax =  -1.08125564057815E-10  4.49521676984848E-02
 cg2d: Sum(rhs),rhsMax =  -1.12107378935633E-10  4.33170538275914E-02
 cg2d: Sum(rhs),rhsMax =  -1.16424536678039E-10  4.16792544528309E-02
 cg2d: Sum(rhs),rhsMax =  -1.21104987149678E-10  4.00395438018944E-02
 cg2d: Sum(rhs),rhsMax =  -1.26165355940344E-10  3.83986900684931E-02
 cg2d: Sum(rhs),rhsMax =  -1.31718386198187E-10  3.67574539224777E-02
 cg2d: Sum(rhs),rhsMax =  -1.34119312877878E-10  3.60813999148798E-02
 cg2d: Sum(rhs),rhsMax =  -1.32600472269040E-10  3.64705214928085E-02
 cg2d: Sum(rhs),rhsMax =  -1.31115306112317E-10  3.68582384023559E-02
 cg2d: Sum(rhs),rhsMax =  -1.29686504807616E-10  3.72440254345381E-02
 cg2d: Sum(rhs),rhsMax =  -1.28237455376823E-10  3.76276407443083E-02
 cg2d: Sum(rhs),rhsMax =  -1.26863936023014E-10  3.80089976292094E-02
 cg2d: Sum(rhs),rhsMax =  -1.25510310478028E-10  3.83880861130220E-02
 cg2d: Sum(rhs),rhsMax =  -1.24204008189466E-10  3.87647759912321E-02
 cg2d: Sum(rhs),rhsMax =  -1.22939242119813E-10  3.91389502160718E-02
 cg2d: Sum(rhs),rhsMax =  -1.21677279363297E-10  3.95104891594254E-02
 cg2d: Sum(rhs),rhsMax =  -1.20464443975621E-10  3.98793351510794E-02
 cg2d: Sum(rhs),rhsMax =  -1.19312393298543E-10  4.02454815314320E-02
 cg2d: Sum(rhs),rhsMax =  -1.18191734177486E-10  4.06088254714140E-02
 cg2d: Sum(rhs),rhsMax =  -1.17062692872594E-10  4.09693335299044E-02
 cg2d: Sum(rhs),rhsMax =  -1.16001652727959E-10  4.13268440512000E-02
 cg2d: Sum(rhs),rhsMax =  -1.14925180483283E-10  4.16810432328289E-02
 cg2d: Sum(rhs),rhsMax =  -1.13879683460993E-10  4.20317258400148E-02
 cg2d: Sum(rhs),rhsMax =  -1.12856723966104E-10  4.23789755626539E-02
 cg2d: Sum(rhs),rhsMax =  -1.11856746087824E-10  4.27227442171057E-02
 cg2d: Sum(rhs),rhsMax =  -1.10919495810435E-10  4.30629060314686E-02
 cg2d: Sum(rhs),rhsMax =  -1.10041531442562E-10  4.33993195048433E-02
 cg2d: Sum(rhs),rhsMax =  -1.09126374603363E-10  4.37318674360926E-02
 cg2d: Sum(rhs),rhsMax =  -1.08235087559194E-10  4.40604510641600E-02
 cg2d: Sum(rhs),rhsMax =  -1.07397979398627E-10  4.43850574693665E-02
 cg2d: Sum(rhs),rhsMax =  -1.06531450327907E-10  4.47055789142302E-02
 cg2d: Sum(rhs),rhsMax =  -1.05754294210669E-10  4.50217786590841E-02
 cg2d: Sum(rhs),rhsMax =  -1.04969144487654E-10  4.53334434354120E-02
 cg2d: Sum(rhs),rhsMax =  -1.04176223203467E-10  4.56405604608923E-02
 cg2d: Sum(rhs),rhsMax =  -1.03420494390605E-10  4.59430912465750E-02
 cg2d: Sum(rhs),rhsMax =  -1.02703401338999E-10  4.62411080017621E-02
 cg2d: Sum(rhs),rhsMax =  -1.01975428101753E-10  4.65346962611373E-02
 cg2d: Sum(rhs),rhsMax =  -1.01299746368966E-10  4.68239288878903E-02
 cg2d: Sum(rhs),rhsMax =  -1.00623287480062E-10  4.71088234120498E-02
 cg2d: Sum(rhs),rhsMax =  -9.99420546321517E-11  4.73893202879324E-02
 cg2d: Sum(rhs),rhsMax =  -9.93035653706897E-11  4.76653035830454E-02
 cg2d: Sum(rhs),rhsMax =  -9.87164794352680E-11  4.79365587927482E-02
 cg2d: Sum(rhs),rhsMax =  -9.80991954335764E-11  4.82028383533974E-02
 cg2d: Sum(rhs),rhsMax =  -9.75418634752145E-11  4.84640225042654E-02
 cg2d: Sum(rhs),rhsMax =  -9.70089564233945E-11  4.87199794431172E-02
 cg2d: Sum(rhs),rhsMax =  -9.63810142806665E-11  4.89706438749766E-02
 cg2d: Sum(rhs),rhsMax =  -9.58533252770621E-11  4.92159084514841E-02
 cg2d: Sum(rhs),rhsMax =  -9.52610212934246E-11  4.94556608088142E-02
 cg2d: Sum(rhs),rhsMax =  -9.47816269913915E-11  4.96896014620526E-02
 cg2d: Sum(rhs),rhsMax =  -9.42416145122138E-11  4.99176453138030E-02
 cg2d: Sum(rhs),rhsMax =  -9.37498967346073E-11  5.01396684477453E-02
 cg2d: Sum(rhs),rhsMax =  -9.32348642734837E-11  5.03554393913501E-02
 cg2d: Sum(rhs),rhsMax =  -9.19406772936782E-11  5.10220766138626E-02
 cg2d: Sum(rhs),rhsMax =  -9.04846197968823E-11  5.18051165530388E-02
 cg2d: Sum(rhs),rhsMax =  -8.90850726520398E-11  5.25630856956199E-02
 cg2d: Sum(rhs),rhsMax =  -8.77805605981052E-11  5.32956623497781E-02
 cg2d: Sum(rhs),rhsMax =  -8.65477689515615E-11  5.40025274031202E-02
 cg2d: Sum(rhs),rhsMax =  -8.54355475254920E-11  5.46833659501841E-02
 cg2d: Sum(rhs),rhsMax =  -8.43601855038401E-11  5.53378704237800E-02
 cg2d: Sum(rhs),rhsMax =  -8.33597635363503E-11  5.59657446274832E-02
 cg2d: Sum(rhs),rhsMax =  -8.23705548214093E-11  5.65667079491678E-02
 cg2d: Sum(rhs),rhsMax =  -8.14935896542579E-11  5.71404990802843E-02
 cg2d: Sum(rhs),rhsMax =  -8.06820166232569E-11  5.76868787449040E-02
 cg2d: Sum(rhs),rhsMax =  -7.99263988326970E-11  5.82056311934142E-02
 cg2d: Sum(rhs),rhsMax =  -7.92075294242522E-11  5.86965644633890E-02
 cg2d: Sum(rhs),rhsMax =  -7.85175258144477E-11  5.91595095945701E-02
 cg2d: Sum(rhs),rhsMax =  -7.79047937271571E-11  5.95943190943160E-02
 cg2d: Sum(rhs),rhsMax =  -7.72661934433927E-11  6.00008649828843E-02
 cg2d: Sum(rhs),rhsMax =  -7.67512720045715E-11  6.03790367231981E-02
 cg2d: Sum(rhs),rhsMax =  -7.63109575530052E-11  6.07287392750578E-02
 cg2d: Sum(rhs),rhsMax =  -7.58115792365288E-11  6.10498914264513E-02
 cg2d: Sum(rhs),rhsMax =  -7.54012408066274E-11  6.13424244632453E-02
 cg2d: Sum(rhs),rhsMax =  -7.49854622839052E-11  6.16062811619233E-02
 cg2d: Sum(rhs),rhsMax =  -7.46697148557018E-11  6.18414150405646E-02
 cg2d: Sum(rhs),rhsMax =  -7.43852757167929E-11  6.20477897849739E-02
 cg2d: Sum(rhs),rhsMax =  -7.41270378412651E-11  6.22253787729328E-02
 cg2d: Sum(rhs),rhsMax =  -7.38897831809027E-11  6.23741646022912E-02
 cg2d: Sum(rhs),rhsMax =  -7.36847249882544E-11  6.24941386069991E-02
 cg2d: Sum(rhs),rhsMax =  -7.34722283013411E-11  6.25853003400945E-02
 cg2d: Sum(rhs),rhsMax =  -7.33140215203321E-11  6.26476570236099E-02
 cg2d: Sum(rhs),rhsMax =  -7.32467420050398E-11  6.26812229845868E-02
 cg2d: Sum(rhs),rhsMax =  -7.32696125993471E-11  6.26860191134980E-02
 cg2d: Sum(rhs),rhsMax =  -7.32319760388123E-11  6.26620723868146E-02
 cg2d: Sum(rhs),rhsMax =  -7.32329752395344E-11  6.26094155011473E-02
 cg2d: Sum(rhs),rhsMax =  -7.31622540328658E-11  6.25280866679075E-02
 cg2d: Sum(rhs),rhsMax =  -7.33081373383015E-11  6.24181296124275E-02
 cg2d: Sum(rhs),rhsMax =  -7.33829663701613E-11  6.22795938110253E-02
 cg2d: Sum(rhs),rhsMax =  -7.36170013837523E-11  6.21125349767989E-02
 cg2d: Sum(rhs),rhsMax =  -7.38289429591532E-11  6.19170157825960E-02
 cg2d: Sum(rhs),rhsMax =  -7.41720018737624E-11  6.16931067842861E-02
 cg2d: Sum(rhs),rhsMax =  -7.44587724810231E-11  6.14408874860184E-02
 cg2d: Sum(rhs),rhsMax =  -7.48583417475857E-11  6.11604474738955E-02
 cg2d: Sum(rhs),rhsMax =  -7.52510276313956E-11  6.08518875468901E-02
 cg2d: Sum(rhs),rhsMax =  -7.56726903361482E-11  6.05153207109418E-02
 cg2d: Sum(rhs),rhsMax =  -7.61805063476118E-11  6.01508730478230E-02
 cg2d: Sum(rhs),rhsMax =  -7.66937624518960E-11  5.97586843585826E-02
 cg2d: Sum(rhs),rhsMax =  -7.72610864174794E-11  5.93389085540755E-02
 cg2d: Sum(rhs),rhsMax =  -7.78991315897315E-11  5.88917138042025E-02
 cg2d: Sum(rhs),rhsMax =  -7.85339571152122E-11  5.84172824860014E-02
 cg2d: Sum(rhs),rhsMax =  -7.92370613567073E-11  5.79158109887993E-02
 cg2d: Sum(rhs),rhsMax =  -8.00188804106483E-11  5.73875094443839E-02
 cg2d: Sum(rhs),rhsMax =  -8.08085820480642E-11  5.68326014515808E-02
 cg2d: Sum(rhs),rhsMax =  -8.16751111187841E-11  5.62513238555375E-02
 cg2d: Sum(rhs),rhsMax =  -8.26307910983815E-11  5.56439266231258E-02
 cg2d: Sum(rhs),rhsMax =  -8.36259950176554E-11  5.50106728296077E-02
 cg2d: Sum(rhs),rhsMax =  -8.47094616673871E-11  5.43518387707099E-02
 cg2d: Sum(rhs),rhsMax =  -8.58293436323265E-11  5.36677141576591E-02
 cg2d: Sum(rhs),rhsMax =  -8.70555849630250E-11  5.29586023800736E-02
 cg2d: Sum(rhs),rhsMax =  -8.83328965528563E-11  5.22248208458714E-02
 cg2d: Sum(rhs),rhsMax =  -8.96754892565355E-11  5.14667013872354E-02
 cg2d: Sum(rhs),rhsMax =  -9.11387632029914E-11  5.06845907163984E-02
 cg2d: Sum(rhs),rhsMax =  -9.26517751409506E-11  4.98788509055268E-02
 cg2d: Sum(rhs),rhsMax =  -9.36970501186352E-11  4.93821769799473E-02
 cg2d: Sum(rhs),rhsMax =  -9.42413924676089E-11  4.91456597553552E-02
 cg2d: Sum(rhs),rhsMax =  -9.47898426417737E-11  4.89035902132618E-02
 cg2d: Sum(rhs),rhsMax =  -9.53742640419364E-11  4.86560253935282E-02
 cg2d: Sum(rhs),rhsMax =  -9.59747836759561E-11  4.84030247115602E-02
 cg2d: Sum(rhs),rhsMax =  -9.66062785323629E-11  4.81446663079916E-02
 cg2d: Sum(rhs),rhsMax =  -9.72238956009619E-11  4.78809623479269E-02
 cg2d: Sum(rhs),rhsMax =  -9.78588321487450E-11  4.76118944511013E-02
 cg2d: Sum(rhs),rhsMax =  -9.85026504807252E-11  4.73374610521696E-02
 cg2d: Sum(rhs),rhsMax =  -9.92110837927385E-11  4.70577491181859E-02
 cg2d: Sum(rhs),rhsMax =  -9.99532678847004E-11  4.67728576626451E-02
 cg2d: Sum(rhs),rhsMax =  -1.00633390509586E-10  4.64828850368567E-02
 cg2d: Sum(rhs),rhsMax =  -1.01318953227292E-10  4.61880054491239E-02
 cg2d: Sum(rhs),rhsMax =  -1.02034491966663E-10  4.58883578695949E-02
 cg2d: Sum(rhs),rhsMax =  -1.02752695241293E-10  4.55840344421406E-02
 cg2d: Sum(rhs),rhsMax =  -1.03527186823271E-10  4.52752417365890E-02
 cg2d: Sum(rhs),rhsMax =  -1.04292352531843E-10  4.49622169968042E-02
 cg2d: Sum(rhs),rhsMax =  -1.05102371250609E-10  4.46451016722473E-02
 cg2d: Sum(rhs),rhsMax =  -1.05907282943463E-10  4.43239990796194E-02
 cg2d: Sum(rhs),rhsMax =  -1.06714304060063E-10  4.39990453145630E-02
 cg2d: Sum(rhs),rhsMax =  -1.07557074358056E-10  4.36703072711278E-02
 cg2d: Sum(rhs),rhsMax =  -1.08448139357620E-10  4.33380132079908E-02
 cg2d: Sum(rhs),rhsMax =  -1.09346420806844E-10  4.30026751124567E-02
 cg2d: Sum(rhs),rhsMax =  -1.10296438649016E-10  4.26644543117953E-02
 cg2d: Sum(rhs),rhsMax =  -1.11230025190423E-10  4.23236419709305E-02
 cg2d: Sum(rhs),rhsMax =  -1.12190812195934E-10  4.19804603820931E-02
 cg2d: Sum(rhs),rhsMax =  -1.13171028104375E-10  4.16350085294235E-02
 cg2d: Sum(rhs),rhsMax =  -1.14225906511223E-10  4.12873654251258E-02
 cg2d: Sum(rhs),rhsMax =  -1.15215281759617E-10  4.09377636586891E-02
 cg2d: Sum(rhs),rhsMax =  -1.16284815110390E-10  4.05864344289004E-02
 cg2d: Sum(rhs),rhsMax =  -1.17375553720933E-10  4.02336103739774E-02
 cg2d: Sum(rhs),rhsMax =  -1.18468623799828E-10  3.98793371767351E-02
 cg2d: Sum(rhs),rhsMax =  -1.19619536498305E-10  3.95238352665557E-02
 cg2d: Sum(rhs),rhsMax =  -1.20824350524629E-10  3.91673122769635E-02
 cg2d: Sum(rhs),rhsMax =  -1.21994914170642E-10  3.88099349838874E-02
 cg2d: Sum(rhs),rhsMax =  -1.23195204038140E-10  3.84518211074172E-02
 cg2d: Sum(rhs),rhsMax =  -1.24448479299488E-10  3.80931815970499E-02
 cg2d: Sum(rhs),rhsMax =  -1.25689181285082E-10  3.77341368470389E-02
 cg2d: Sum(rhs),rhsMax =  -1.27003185745878E-10  3.73747696753568E-02
 cg2d: Sum(rhs),rhsMax =  -1.28275293165281E-10  3.70150075684831E-02
 cg2d: Sum(rhs),rhsMax =  -1.29644489588188E-10  3.66551714211647E-02
 cg2d: Sum(rhs),rhsMax =  -1.31011534953984E-10  3.62952911715620E-02
 cg2d: Sum(rhs),rhsMax =  -1.32415616449152E-10  3.59354896183657E-02
 cg2d: Sum(rhs),rhsMax =  -1.33844726968313E-10  3.55759126027324E-02
 cg2d: Sum(rhs),rhsMax =  -1.35295996628315E-10  3.52166870902358E-02
 cg2d: Sum(rhs),rhsMax =  -1.36566175035213E-10  3.49126241317372E-02
 cg2d: Sum(rhs),rhsMax =  -1.37335753880308E-10  3.47372220550761E-02
 cg2d: Sum(rhs),rhsMax =  -1.35381428290060E-10  3.52557938917682E-02
 cg2d: Sum(rhs),rhsMax =  -1.29512262025955E-10  3.68618531080602E-02
 cg2d: Sum(rhs),rhsMax =  -1.24219523556235E-10  3.84654316526402E-02
 cg2d: Sum(rhs),rhsMax =  -1.19328602554702E-10  4.00658055977731E-02
 cg2d: Sum(rhs),rhsMax =  -1.14815434937299E-10  4.16622527088726E-02
 cg2d: Sum(rhs),rhsMax =  -1.10663256336352E-10  4.32540524408907E-02
 cg2d: Sum(rhs),rhsMax =  -1.06801678612101E-10  4.48404859039263E-02
 cg2d: Sum(rhs),rhsMax =  -1.03207886681389E-10  4.64208358153615E-02
 cg2d: Sum(rhs),rhsMax =  -9.98993665568548E-11  4.79943864627437E-02
 cg2d: Sum(rhs),rhsMax =  -9.67732560752665E-11  4.95604237016731E-02
 cg2d: Sum(rhs),rhsMax =  -9.38759070479023E-11  5.11182350107633E-02
 cg2d: Sum(rhs),rhsMax =  -9.11842268358498E-11  5.26671096222068E-02
 cg2d: Sum(rhs),rhsMax =  -8.86520856724360E-11  5.42063387420837E-02
 cg2d: Sum(rhs),rhsMax =  -8.62726001749081E-11  5.57352158595365E-02
 cg2d: Sum(rhs),rhsMax =  -8.40307268212825E-11  5.72530371540593E-02
 cg2d: Sum(rhs),rhsMax =  -8.19272427676765E-11  5.87591019946212E-02
 cg2d: Sum(rhs),rhsMax =  -7.99313948363078E-11  6.02527135186310E-02
 cg2d: Sum(rhs),rhsMax =  -7.80475684081239E-11  6.17331792744569E-02
 cg2d: Sum(rhs),rhsMax =  -7.62884755367566E-11  6.31998119091745E-02
 cg2d: Sum(rhs),rhsMax =  -7.46289696706981E-11  6.46519298828617E-02
 cg2d: Sum(rhs),rhsMax =  -7.31360527694846E-11  6.60888581892886E-02
 cg2d: Sum(rhs),rhsMax =  -7.16507408959899E-11  6.75099290645485E-02
 cg2d: Sum(rhs),rhsMax =  -7.02841118638275E-11  6.89144826680403E-02
 cg2d: Sum(rhs),rhsMax =  -6.89806545217664E-11  7.03018677235468E-02
 cg2d: Sum(rhs),rhsMax =  -6.77784495195510E-11  7.16714421113448E-02
 cg2d: Sum(rhs),rhsMax =  -6.66414701200324E-11  7.30225734065247E-02
 cg2d: Sum(rhs),rhsMax =  -6.55132614824083E-11  7.43546393609796E-02
 cg2d: Sum(rhs),rhsMax =  -6.44511111147494E-11  7.56670283294327E-02
 cg2d: Sum(rhs),rhsMax =  -6.34570174185001E-11  7.69591396428531E-02
 cg2d: Sum(rhs),rhsMax =  -6.24976737029215E-11  7.82303839345845E-02
 cg2d: Sum(rhs),rhsMax =  -6.15985040752776E-11  7.94801834258281E-02
 cg2d: Sum(rhs),rhsMax =  -6.07309758038355E-11  8.07079721778740E-02
 cg2d: Sum(rhs),rhsMax =  -5.99152949476434E-11  8.19131963187553E-02
(PID.TID 0000.0001)      cg2d_init_res =   7.48506509189516E-02
(PID.TID 0000.0001)      cg2d_iters(min,last) =      -1      38
(PID.TID 0000.0001)      cg2d_last_res =   7.57735130794217E-14
(PID.TID 0000.0001) // =======================================================
(PID.TID 0000.0001) // Begin MONITOR dynamic field statistics
(PID.TID 0000.0001) // =======================================================
(PID.TID 0000.0001) %MON time_tsnumber                =                  4800
(PID.TID 0000.0001) %MON time_secondsf                =   7.2000000000000E+04
(PID.TID 0000.0001) %MON dynstat_eta_max              =   1.4377431931582E-02
(PID.TID 0000.0001) %MON dynstat_eta_min              =  -1.1941100186445E-02
(PID.TID 0000.0001) %MON dynstat_eta_mean             =   1.0836059799729E-14
(PID.TID 0000.0001) %MON dynstat_eta_sd               =   9.8378575636736E-03
(PID.TID 0000.0001) %MON dynstat_eta_del2             =   3.4494941692859E-05
(PID.TID 0000.0001) %MON dynstat_uvel_max             =   1.1322725204804E+00
(PID.TID 0000.0001) %MON dynstat_uvel_min             =  -1.5852341089555E-01
(PID.TID 0000.0001) %MON dynstat_uvel_mean            =   4.5179374726916E-01
(PID.TID 0000.0001) %MON dynstat_uvel_sd              =   1.1956887421744E-01
(PID.TID 0000.0001) %MON dynstat_uvel_del2            =   4.7860366075290E-04
(PID.TID 0000.0001) %MON dynstat_vvel_max             =   0.0000000000000E+00
(PID.TID 0000.0001) %MON dynstat_vvel_min             =   0.0000000000000E+00
(PID.TID 0000.0001) %MON dynstat_vvel_mean            =   0.0000000000000E+00
(PID.TID 0000.0001) %MON dynstat_vvel_sd              =   0.0000000000000E+00
(PID.TID 0000.0001) %MON dynstat_vvel_del2            =   0.0000000000000E+00
(PID.TID 0000.0001) %MON dynstat_wvel_max             =   2.2215799255420E-02
(PID.TID 0000.0001) %MON dynstat_wvel_min             =  -1.9967838190797E-02
(PID.TID 0000.0001) %MON dynstat_wvel_mean            =  -3.9756660840155E-20
(PID.TID 0000.0001) %MON dynstat_wvel_sd              =   2.1807330148952E-03
(PID.TID 0000.0001) %MON dynstat_wvel_del2            =   4.2405727297005E-05
(PID.TID 0000.0001) %MON dynstat_theta_max            =   1.5000000000014E+01
(PID.TID 0000.0001) %MON dynstat_theta_min            =   9.9999999999977E+00
(PID.TID 0000.0001) %MON dynstat_theta_mean           =   1.4001031445255E+01
(PID.TID 0000.0001) %MON dynstat_theta_sd             =   1.8524911728016E+00
(PID.TID 0000.0001) %MON dynstat_theta_del2           =   7.7772217641121E-04
(PID.TID 0000.0001) %MON dynstat_salt_max             =   3.5000000000000E+01
(PID.TID 0000.0001) %MON dynstat_salt_min             =   3.5000000000000E+01
(PID.TID 0000.0001) %MON dynstat_salt_mean            =   3.5000000000000E+01
(PID.TID 0000.0001) %MON dynstat_salt_sd              =   3.0553337637684E-13
(PID.TID 0000.0001) %MON dynstat_salt_del2            =   0.0000000000000E+00
(PID.TID 0000.0001) %MON dynstat_sst_max              =   1.5000000000000E+01
(PID.TID 0000.0001) %MON dynstat_sst_min              =   1.4999999999999E+01
(PID.TID 0000.0001) %MON dynstat_sst_mean             =   1.5000000000000E+01
(PID.TID 0000.0001) %MON dynstat_sst_sd               =   3.8509361492726E-13
(PID.TID 0000.0001) %MON dynstat_sst_del2             =   5.4175822449808E-15
(PID.TID 0000.0001) %MON dynstat_sss_max              =   3.5000000000000E+01
(PID.TID 0000.0001) %MON dynstat_sss_min              =   3.5000000000000E+01
(PID.TID 0000.0001) %MON dynstat_sss_mean             =   3.5000000000000E+01
(PID.TID 0000.0001) %MON dynstat_sss_sd               =   2.8421709430404E-14
(PID.TID 0000.0001) %MON dynstat_sss_del2             =   0.0000000000000E+00
(PID.TID 0000.0001) %MON forcing_qnet_max             =   0.0000000000000E+00
(PID.TID 0000.0001) %MON forcing_qnet_min             =   0.0000000000000E+00
(PID.TID 0000.0001) %MON forcing_qnet_mean            =   0.0000000000000E+00
(PID.TID 0000.0001) %MON forcing_qnet_sd              =   0.0000000000000E+00
(PID.TID 0000.0001) %MON forcing_qnet_del2            =   0.0000000000000E+00
(PID.TID 0000.0001) %MON forcing_qsw_max              =   0.0000000000000E+00
(PID.TID 0000.0001) %MON forcing_qsw_min              =   0.0000000000000E+00
(PID.TID 0000.0001) %MON forcing_qsw_mean             =   0.0000000000000E+00
(PID.TID 0000.0001) %MON forcing_qsw_sd               =   0.0000000000000E+00
(PID.TID 0000.0001) %MON forcing_qsw_del2             =   0.0000000000000E+00
(PID.TID 0000.0001) %MON forcing_empmr_max            =   0.0000000000000E+00
(PID.TID 0000.0001) %MON forcing_empmr_min            =   0.0000000000000E+00
(PID.TID 0000.0001) %MON forcing_empmr_mean           =   0.0000000000000E+00
(PID.TID 0000.0001) %MON forcing_empmr_sd             =   0.0000000000000E+00
(PID.TID 0000.0001) %MON forcing_empmr_del2           =   0.0000000000000E+00
(PID.TID 0000.0001) %MON forcing_fu_max               =   0.0000000000000E+00
(PID.TID 0000.0001) %MON forcing_fu_min               =   0.0000000000000E+00
(PID.TID 0000.0001) %MON forcing_fu_mean              =   0.0000000000000E+00
(PID.TID 0000.0001) %MON forcing_fu_sd                =   0.0000000000000E+00
(PID.TID 0000.0001) %MON forcing_fu_del2              =   0.0000000000000E+00
(PID.TID 0000.0001) %MON forcing_fv_max               =   0.0000000000000E+00
(PID.TID 0000.0001) %MON forcing_fv_min               =   0.0000000000000E+00
(PID.TID 0000.0001) %MON forcing_fv_mean              =   0.0000000000000E+00
(PID.TID 0000.0001) %MON forcing_fv_sd                =   0.0000000000000E+00
(PID.TID 0000.0001) %MON forcing_fv_del2              =   0.0000000000000E+00
(PID.TID 0000.0001) %MON advcfl_uvel_max              =   7.6343785647875E-02
(PID.TID 0000.0001) %MON advcfl_vvel_max              =   0.0000000000000E+00
(PID.TID 0000.0001) %MON advcfl_wvel_max              =   1.3370946358942E-01
(PID.TID 0000.0001) %MON advcfl_W_hf_max              =   1.3516414288736E-01
(PID.TID 0000.0001) %MON pe_b_mean                    =   2.3987465740982E-06
(PID.TID 0000.0001) %MON ke_max                       =   4.5450172589836E-01
(PID.TID 0000.0001) %MON ke_mean                      =   1.0927674771677E-01
(PID.TID 0000.0001) %MON ke_vol                       =   9.6656965507697E+10
(PID.TID 0000.0001) %MON vort_r_min                   =   0.0000000000000E+00
(PID.TID 0000.0001) %MON vort_r_max                   =   0.0000000000000E+00
(PID.TID 0000.0001) %MON vort_a_mean                  =   0.0000000000000E+00
(PID.TID 0000.0001) %MON vort_a_sd                    =   0.0000000000000E+00
(PID.TID 0000.0001) %MON vort_p_mean                  =   0.0000000000000E+00
(PID.TID 0000.0001) %MON vort_p_sd                    =   0.0000000000000E+00
(PID.TID 0000.0001) %MON surfExpan_theta_mean         =  -9.4040320370439E-20
(PID.TID 0000.0001) %MON surfExpan_salt_mean          =  -3.0744667115167E-18
(PID.TID 0000.0001) // =======================================================
(PID.TID 0000.0001) // End MONITOR dynamic field statistics
(PID.TID 0000.0001) // =======================================================
(PID.TID 0000.0001) // =======================================================
(PID.TID 0000.0001) // Begin OBCS MONITOR field statistics
(PID.TID 0000.0001) // =======================================================
(PID.TID 0000.0001) %MON obc_E_uVel_max               =   4.4822851314926E-01
(PID.TID 0000.0001) %MON obc_E_uVel_min               =   4.4822851314926E-01
(PID.TID 0000.0001) %MON obc_E_uVel_mean              =   4.4822851314926E-01
(PID.TID 0000.0001) %MON obc_E_uVel_sd                =   0.0000000000000E+00
(PID.TID 0000.0001) %MON obc_E_uVel_Int               =   4.4822851314926E+05
(PID.TID 0000.0001) %MON obc_W_uVel_max               =   4.4822851314926E-01
(PID.TID 0000.0001) %MON obc_W_uVel_min               =   4.4822851314926E-01
(PID.TID 0000.0001) %MON obc_W_uVel_mean              =   4.4822851314926E-01
(PID.TID 0000.0001) %MON obc_W_uVel_sd                =   0.0000000000000E+00
(PID.TID 0000.0001) %MON obc_W_uVel_Int               =   4.4822851314926E+05
(PID.TID 0000.0001) // =======================================================
(PID.TID 0000.0001) // End OBCS MONITOR field statistics
(PID.TID 0000.0001) // =======================================================
 cg2d: Sum(rhs),rhsMax =  -5.91140469907714E-11  8.30953142519376E-02
 cg2d: Sum(rhs),rhsMax =  -5.84006176751473E-11  8.42537968543312E-02
 cg2d: Sum(rhs),rhsMax =  -5.76776404415114E-11  8.53881276706170E-02
 cg2d: Sum(rhs),rhsMax =  -5.70259395260564E-11  8.64978031084843E-02
 cg2d: Sum(rhs),rhsMax =  -5.63775692796753E-11  8.75823326398415E-02
 cg2d: Sum(rhs),rhsMax =  -5.57877077866920E-11  8.86412390114945E-02
 cg2d: Sum(rhs),rhsMax =  -5.51919621116781E-11  8.96740584664232E-02
 cg2d: Sum(rhs),rhsMax =  -5.46452882943527E-11  9.06803409733617E-02
 cg2d: Sum(rhs),rhsMax =  -5.41157119116065E-11  9.16596504655975E-02
 cg2d: Sum(rhs),rhsMax =  -5.36015676289026E-11  9.26115650784193E-02
 cg2d: Sum(rhs),rhsMax =  -5.31409360959856E-11  9.35356773772881E-02
 cg2d: Sum(rhs),rhsMax =  -5.26669818867731E-11  9.44315945673371E-02
 cg2d: Sum(rhs),rhsMax =  -5.22351051301939E-11  9.52989386734938E-02
 cg2d: Sum(rhs),rhsMax =  -5.18299847485082E-11  9.61373466800620E-02
 cg2d: Sum(rhs),rhsMax =  -5.14656095518262E-11  9.69464706203862E-02
 cg2d: Sum(rhs),rhsMax =  -5.11518605250671E-11  9.77259776062431E-02
 cg2d: Sum(rhs),rhsMax =  -5.08058040082915E-11  9.84755497855665E-02
 cg2d: Sum(rhs),rhsMax =  -5.05001596096122E-11  9.91948842334529E-02
 cg2d: Sum(rhs),rhsMax =  -5.02224928311534E-11  9.98836927800009E-02
 cg2d: Sum(rhs),rhsMax =  -4.99711383383783E-11  1.00541701780258E-01
 cg2d: Sum(rhs),rhsMax =  -4.97338836780159E-11  1.01168651839179E-01
 cg2d: Sum(rhs),rhsMax =  -4.95153917867697E-11  1.01764297509233E-01
 cg2d: Sum(rhs),rhsMax =  -4.93047824789983E-11  1.02328406981938E-01
 cg2d: Sum(rhs),rhsMax =  -4.90785190265797E-11  1.02860761796653E-01
 cg2d: Sum(rhs),rhsMax =  -4.89103202383490E-11  1.03361156590476E-01
 cg2d: Sum(rhs),rhsMax =  -4.87255791270513E-11  1.03829398911954E-01
 cg2d: Sum(rhs),rhsMax =  -4.85965712115899E-11  1.04265309118704E-01
 cg2d: Sum(rhs),rhsMax =  -4.84534634637157E-11  1.04668720374950E-01
 cg2d: Sum(rhs),rhsMax =  -4.82812678725963E-11  1.05039478759666E-01
 cg2d: Sum(rhs),rhsMax =  -4.82224260522912E-11  1.05377443483408E-01
 cg2d: Sum(rhs),rhsMax =  -4.81314987865744E-11  1.05682487224727E-01
 cg2d: Sum(rhs),rhsMax =  -4.80733231000841E-11  1.05954496579929E-01
 cg2d: Sum(rhs),rhsMax =  -4.80222528409513E-11  1.06193372586589E-01
 cg2d: Sum(rhs),rhsMax =  -4.79749573401023E-11  1.06399031308278E-01
 cg2d: Sum(rhs),rhsMax =  -4.78902473233234E-11  1.06571404453262E-01
 cg2d: Sum(rhs),rhsMax =  -4.78712625096023E-11  1.06710439995171E-01
 cg2d: Sum(rhs),rhsMax =  -4.78798112268919E-11  1.06816102760512E-01
 cg2d: Sum(rhs),rhsMax =  -4.78341810605798E-11  1.06888374961620E-01
 cg2d: Sum(rhs),rhsMax =  -4.77810013777002E-11  1.06927256592355E-01
 cg2d: Sum(rhs),rhsMax =  -4.77491379768935E-11  1.06932765696316E-01
 cg2d: Sum(rhs),rhsMax =  -4.77210493343705E-11  1.06904938480923E-01
 cg2d: Sum(rhs),rhsMax =  -4.77137218624080E-11  1.06843829257900E-01
 cg2d: Sum(rhs),rhsMax =  -4.76942929594770E-11  1.06749510202272E-01
 cg2d: Sum(rhs),rhsMax =  -4.77090589257045E-11  1.06622070932006E-01
 cg2d: Sum(rhs),rhsMax =  -4.77540229582019E-11  1.06461617923708E-01
 cg2d: Sum(rhs),rhsMax =  -4.77756723071820E-11  1.06268273784444E-01
 cg2d: Sum(rhs),rhsMax =  -4.78813655391264E-11  1.06042176422715E-01
 cg2d: Sum(rhs),rhsMax =  -4.79760675631269E-11  1.05783478158853E-01
 cg2d: Sum(rhs),rhsMax =  -4.80893103116387E-11  1.05492344818246E-01
 cg2d: Sum(rhs),rhsMax =  -4.81781281536087E-11  1.05168954851283E-01
 cg2d: Sum(rhs),rhsMax =  -4.83352247115931E-11  1.04813498521554E-01
 cg2d: Sum(rhs),rhsMax =  -4.84785545040722E-11  1.04426177198593E-01
 cg2d: Sum(rhs),rhsMax =  -4.86463092030931E-11  1.04007202783806E-01
 cg2d: Sum(rhs),rhsMax =  -4.88282747568292E-11  1.03556797289087E-01
 cg2d: Sum(rhs),rhsMax =  -4.90282259235642E-11  1.03075192568800E-01
 cg2d: Sum(rhs),rhsMax =  -4.91801044333329E-11  1.02562630227257E-01
 cg2d: Sum(rhs),rhsMax =  -4.94255747440775E-11  1.02019361690918E-01
 cg2d: Sum(rhs),rhsMax =  -4.96344076950095E-11  1.01445648407450E-01
 cg2d: Sum(rhs),rhsMax =  -4.99041918899934E-11  1.00841762193232E-01
 cg2d: Sum(rhs),rhsMax =  -5.01556574050710E-11  1.00207985682855E-01
 cg2d: Sum(rhs),rhsMax =  -5.04796204836566E-11  9.95446128665687E-02
 cg2d: Sum(rhs),rhsMax =  -5.07497377455479E-11  9.88519497000880E-02
 cg2d: Sum(rhs),rhsMax =  -5.10964603961384E-11  9.81303147703120E-02
 cg2d: Sum(rhs),rhsMax =  -5.14457365596854E-11  9.73800400004814E-02
 cg2d: Sum(rhs),rhsMax =  -5.17524911813894E-11  9.66014713731485E-02
 cg2d: Sum(rhs),rhsMax =  -5.21238607831265E-11  9.57949696498990E-02
 cg2d: Sum(rhs),rhsMax =  -5.25068877266222E-11  9.49609110624249E-02
 cg2d: Sum(rhs),rhsMax =  -5.29228882939492E-11  9.40996879477947E-02
 cg2d: Sum(rhs),rhsMax =  -5.33895150311992E-11  9.32117093114314E-02
 cg2d: Sum(rhs),rhsMax =  -5.38613598166648E-11  9.22974012247655E-02
 cg2d: Sum(rhs),rhsMax =  -5.43849409950781E-11  9.13572070667048E-02
 cg2d: Sum(rhs),rhsMax =  -5.48999734562017E-11  9.03915875856931E-02
 cg2d: Sum(rhs),rhsMax =  -5.54493118087862E-11  8.94010207471032E-02
 cg2d: Sum(rhs),rhsMax =  -5.60228530233076E-11  8.83860013392971E-02
 cg2d: Sum(rhs),rhsMax =  -5.66279245717283E-11  8.73470403255755E-02
 cg2d: Sum(rhs),rhsMax =  -5.72699665468690E-11  8.62846639453454E-02
 cg2d: Sum(rhs),rhsMax =  -5.79105652320777E-11  8.51994125834531E-02
 cg2d: Sum(rhs),rhsMax =  -5.85942405706419E-11  8.40918394408799E-02
 cg2d: Sum(rhs),rhsMax =  -5.93051163733094E-11  8.29625090523532E-02
 cg2d: Sum(rhs),rhsMax =  -6.00638427883382E-11  8.18119957064139E-02
 cg2d: Sum(rhs),rhsMax =  -6.08673111912594E-11  8.06408818274373E-02
 cg2d: Sum(rhs),rhsMax =  -6.16930950769756E-11  7.94497563835346E-02
 cg2d: Sum(rhs),rhsMax =  -6.25852702995644E-11  7.82392133812330E-02
 cg2d: Sum(rhs),rhsMax =  -6.34935992671615E-11  7.70098504991065E-02
 cg2d: Sum(rhs),rhsMax =  -6.44618802780883E-11  7.57622679115857E-02
 cg2d: Sum(rhs),rhsMax =  -6.55137610827694E-11  7.44970673251105E-02
 cg2d: Sum(rhs),rhsMax =  -6.65722477144470E-11  7.32148512440783E-02
 cg2d: Sum(rhs),rhsMax =  -6.76796951815106E-11  7.19162224687029E-02
 cg2d: Sum(rhs),rhsMax =  -6.88520906955148E-11  7.06017838093349E-02
 cg2d: Sum(rhs),rhsMax =  -7.01271263281456E-11  6.92721379983935E-02
 cg2d: Sum(rhs),rhsMax =  -7.13921144424035E-11  6.79278877972866E-02
 cg2d: Sum(rhs),rhsMax =  -7.27612414763712E-11  6.65696362322589E-02
 cg2d: Sum(rhs),rhsMax =  -7.42347849858049E-11  6.51979869059740E-02
 cg2d: Sum(rhs),rhsMax =  -7.57397478068356E-11  6.38135443652028E-02
 cg2d: Sum(rhs),rhsMax =  -7.73232033957072E-11  6.24169144920886E-02
 cg2d: Sum(rhs),rhsMax =  -7.90345011658644E-11  6.10087048898063E-02
 cg2d: Sum(rhs),rhsMax =  -8.08456634970867E-11  5.95895252381495E-02
 cg2d: Sum(rhs),rhsMax =  -8.27080626208954E-11  5.81599876007280E-02
 cg2d: Sum(rhs),rhsMax =  -8.47281134142008E-11  5.67207066719998E-02
 cg2d: Sum(rhs),rhsMax =  -8.68714544743909E-11  5.52722999585412E-02
 cg2d: Sum(rhs),rhsMax =  -8.91594575946897E-11  5.38153878941728E-02
 cg2d: Sum(rhs),rhsMax =  -9.15765796527523E-11  5.23505938926424E-02
 cg2d: Sum(rhs),rhsMax =  -9.41602351645088E-11  5.08785443444833E-02
 cg2d: Sum(rhs),rhsMax =  -9.69377356163648E-11  4.93998685666052E-02
 cg2d: Sum(rhs),rhsMax =  -9.98804927654362E-11  4.79151987143713E-02
 cg2d: Sum(rhs),rhsMax =  -1.03037745002865E-10  4.64251696666010E-02
 cg2d: Sum(rhs),rhsMax =  -1.06387315623735E-10  4.49304188937727E-02
 cg2d: Sum(rhs),rhsMax =  -1.09982745133408E-10  4.34315863197711E-02
 cg2d: Sum(rhs),rhsMax =  -1.13820564084932E-10  4.19293141911581E-02
 cg2d: Sum(rhs),rhsMax =  -1.17972298596669E-10  4.04242469442491E-02
 cg2d: Sum(rhs),rhsMax =  -1.22447774142387E-10  3.89170310954421E-02
 cg2d: Sum(rhs),rhsMax =  -1.25971247322276E-10  3.78118714963999E-02
 cg2d: Sum(rhs),rhsMax =  -1.25298729725110E-10  3.79889997921604E-02
 cg2d: Sum(rhs),rhsMax =  -1.24686108660121E-10  3.81655685057753E-02
 cg2d: Sum(rhs),rhsMax =  -1.24048445127034E-10  3.83417429646761E-02
 cg2d: Sum(rhs),rhsMax =  -1.23405490687345E-10  3.85174488970420E-02
 cg2d: Sum(rhs),rhsMax =  -1.22753356091021E-10  3.86926160204868E-02
 cg2d: Sum(rhs),rhsMax =  -1.22125004553553E-10  3.88671667474546E-02
 cg2d: Sum(rhs),rhsMax =  -1.21490956184189E-10  3.90410100220285E-02
 cg2d: Sum(rhs),rhsMax =  -1.20864623864847E-10  3.92139642898992E-02
 cg2d: Sum(rhs),rhsMax =  -1.20258691893582E-10  3.93859489148721E-02
 cg2d: Sum(rhs),rhsMax =  -1.19663390307778E-10  3.95568777155097E-02
 cg2d: Sum(rhs),rhsMax =  -1.19081133842514E-10  3.97269845781801E-02
 cg2d: Sum(rhs),rhsMax =  -1.18498821866098E-10  3.98960243816794E-02
 cg2d: Sum(rhs),rhsMax =  -1.17933718346563E-10  4.00638795793539E-02
 cg2d: Sum(rhs),rhsMax =  -1.17383658349013E-10  4.02304278522401E-02
 cg2d: Sum(rhs),rhsMax =  -1.16846032849338E-10  4.03955156558886E-02
 cg2d: Sum(rhs),rhsMax =  -1.16270659766826E-10  4.05590118331191E-02
 cg2d: Sum(rhs),rhsMax =  -1.15744802631212E-10  4.07208641439339E-02
 cg2d: Sum(rhs),rhsMax =  -1.15027487535002E-10  4.09448674599325E-02
 cg2d: Sum(rhs),rhsMax =  -1.13924092381978E-10  4.13220975369051E-02
 cg2d: Sum(rhs),rhsMax =  -1.12845621735858E-10  4.16951407080367E-02
 cg2d: Sum(rhs),rhsMax =  -1.11767706201249E-10  4.20639293083010E-02
 cg2d: Sum(rhs),rhsMax =  -1.10753406445951E-10  4.24284300034665E-02
 cg2d: Sum(rhs),rhsMax =  -1.09758535593585E-10  4.27886599987975E-02
 cg2d: Sum(rhs),rhsMax =  -1.08754893979324E-10  4.31446557771002E-02
 cg2d: Sum(rhs),rhsMax =  -1.07796882531375E-10  4.34962742196767E-02
 cg2d: Sum(rhs),rhsMax =  -1.06881614669874E-10  4.38430558035021E-02
 cg2d: Sum(rhs),rhsMax =  -1.05983999354464E-10  4.41847906541512E-02
 cg2d: Sum(rhs),rhsMax =  -1.05118691529071E-10  4.45214207236852E-02
 cg2d: Sum(rhs),rhsMax =  -1.04286246305207E-10  4.48529234213112E-02
 cg2d: Sum(rhs),rhsMax =  -1.03453690059041E-10  4.51792118306954E-02
 cg2d: Sum(rhs),rhsMax =  -1.02666986023792E-10  4.55002984749026E-02
 cg2d: Sum(rhs),rhsMax =  -1.01899932936078E-10  4.58159765614915E-02
 cg2d: Sum(rhs),rhsMax =  -1.01177399791652E-10  4.61262625500318E-02
 cg2d: Sum(rhs),rhsMax =  -1.00440544770208E-10  4.64311539232712E-02
 cg2d: Sum(rhs),rhsMax =  -9.97483207143546E-11  4.67305745119094E-02
 cg2d: Sum(rhs),rhsMax =  -9.90794113420179E-11  4.70244906480175E-02
 cg2d: Sum(rhs),rhsMax =  -9.84240466905817E-11  4.73128271928557E-02
 cg2d: Sum(rhs),rhsMax =  -9.77233849397408E-11  4.75952147268580E-02
 cg2d: Sum(rhs),rhsMax =  -9.70885594142601E-11  4.78715643451494E-02
 cg2d: Sum(rhs),rhsMax =  -9.64889279586600E-11  4.81419120892119E-02
 cg2d: Sum(rhs),rhsMax =  -9.58535473216671E-11  4.84063368800055E-02
 cg2d: Sum(rhs),rhsMax =  -9.52904422035772E-11  4.86648475583365E-02
 cg2d: Sum(rhs),rhsMax =  -9.47232292602962E-11  4.89174191471905E-02
 cg2d: Sum(rhs),rhsMax =  -9.41289268752143E-11  4.91640426420222E-02
 cg2d: Sum(rhs),rhsMax =  -9.36413169227990E-11  4.94046746535589E-02
 cg2d: Sum(rhs),rhsMax =  -9.30777677154992E-11  4.96392954446624E-02
 cg2d: Sum(rhs),rhsMax =  -9.25475251989383E-11  4.98679295645424E-02
 cg2d: Sum(rhs),rhsMax =  -9.20709064544667E-11  5.00903971267084E-02
 cg2d: Sum(rhs),rhsMax =  -9.15939546430877E-11  5.03064432946430E-02
 cg2d: Sum(rhs),rhsMax =  -9.10835851186675E-11  5.05160345393873E-02
 cg2d: Sum(rhs),rhsMax =  -9.06471564476874E-11  5.07191146218183E-02
 cg2d: Sum(rhs),rhsMax =  -8.97752983064493E-11  5.11713952432946E-02
 cg2d: Sum(rhs),rhsMax =  -8.86276607658942E-11  5.17654552258283E-02
 cg2d: Sum(rhs),rhsMax =  -8.76122507875721E-11  5.23351863173078E-02
 cg2d: Sum(rhs),rhsMax =  -8.66369198604389E-11  5.28804024951400E-02
 cg2d: Sum(rhs),rhsMax =  -8.56829052153785E-11  5.34009337195659E-02
 cg2d: Sum(rhs),rhsMax =  -8.48132675201896E-11  5.38966239407964E-02
 cg2d: Sum(rhs),rhsMax =  -8.40316705108535E-11  5.43673287068772E-02
 cg2d: Sum(rhs),rhsMax =  -8.32803825900896E-11  5.48129125885016E-02
 cg2d: Sum(rhs),rhsMax =  -8.26184676228081E-11  5.52332466360502E-02
 cg2d: Sum(rhs),rhsMax =  -8.19038170618569E-11  5.56282060574592E-02
 cg2d: Sum(rhs),rhsMax =  -8.12975242681091E-11  5.59976682690726E-02
 cg2d: Sum(rhs),rhsMax =  -8.07286459902912E-11  5.63415114388546E-02
 cg2d: Sum(rhs),rhsMax =  -8.02309330083517E-11  5.66596136143975E-02
 cg2d: Sum(rhs),rhsMax =  -7.97377719408132E-11  5.69518524974239E-02
 cg2d: Sum(rhs),rhsMax =  -7.92957921547099E-11  5.72181058830270E-02
 cg2d: Sum(rhs),rhsMax =  -7.88881182600676E-11  5.74582527280545E-02
 cg2d: Sum(rhs),rhsMax =  -7.85358444943540E-11  5.76721747631872E-02
 cg2d: Sum(rhs),rhsMax =  -7.82016673639419E-11  5.78597584839948E-02
 cg2d: Sum(rhs),rhsMax =  -7.80033815317438E-11  5.80208973976657E-02
 cg2d: Sum(rhs),rhsMax =  -7.77904407556207E-11  5.81554943805207E-02
 cg2d: Sum(rhs),rhsMax =  -7.76274600156057E-11  5.82634640234739E-02
 cg2d: Sum(rhs),rhsMax =  -7.74702524353188E-11  5.83447348643463E-02
 cg2d: Sum(rhs),rhsMax =  -7.74049713214708E-11  5.83992514205961E-02
 cg2d: Sum(rhs),rhsMax =  -7.73774377904601E-11  5.84269759455769E-02
 cg2d: Sum(rhs),rhsMax =  -7.73110464535876E-11  5.84278898405702E-02
 cg2d: Sum(rhs),rhsMax =  -7.73117125874023E-11  5.84019946664531E-02
 cg2d: Sum(rhs),rhsMax =  -7.73210384608092E-11  5.83493127138941E-02
 cg2d: Sum(rhs),rhsMax =  -7.73519026608938E-11  5.82698871140339E-02
 cg2d: Sum(rhs),rhsMax =  -7.74798003533306E-11  5.81637815000039E-02
 cg2d: Sum(rhs),rhsMax =  -7.76345654429633E-11  5.80310792563064E-02
 cg2d: Sum(rhs),rhsMax =  -7.79952769036640E-11  5.78718824130040E-02
 cg2d: Sum(rhs),rhsMax =  -7.82799380871779E-11  5.76863102543886E-02
 cg2d: Sum(rhs),rhsMax =  -7.85709275419322E-11  5.74744977204316E-02
 cg2d: Sum(rhs),rhsMax =  -7.89849297078149E-11  5.72365936877550E-02
 cg2d: Sum(rhs),rhsMax =  -7.93798360376741E-11  5.69727592271464E-02
 cg2d: Sum(rhs),rhsMax =  -7.98224819575921E-11  5.66831659457363E-02
 cg2d: Sum(rhs),rhsMax =  -8.03298538798458E-11  5.63679945294059E-02
 cg2d: Sum(rhs),rhsMax =  -8.08811906338747E-11  5.60274336020464E-02
 cg2d: Sum(rhs),rhsMax =  -8.14008860317017E-11  5.56616789995136E-02
 cg2d: Sum(rhs),rhsMax =  -8.21053225408264E-11  5.52709335100684E-02
 cg2d: Sum(rhs),rhsMax =  -8.27838908534773E-11  5.48554070699626E-02
 cg2d: Sum(rhs),rhsMax =  -8.35488345174440E-11  5.44153173398728E-02
 cg2d: Sum(rhs),rhsMax =  -8.43073388878679E-11  5.39508905346096E-02
 cg2d: Sum(rhs),rhsMax =  -8.51324566397693E-11  5.34623623367806E-02
 cg2d: Sum(rhs),rhsMax =  -8.59858850787987E-11  5.29499786984692E-02
 cg2d: Sum(rhs),rhsMax =  -8.64510685261166E-11  5.26834234127871E-02
 cg2d: Sum(rhs),rhsMax =  -8.67185212527488E-11  5.25617039660100E-02
 cg2d: Sum(rhs),rhsMax =  -8.69897487376647E-11  5.24334872821772E-02
 cg2d: Sum(rhs),rhsMax =  -8.72621974679078E-11  5.22986954525938E-02
 cg2d: Sum(rhs),rhsMax =  -8.75397532240640E-11  5.21572691567547E-02
 cg2d: Sum(rhs),rhsMax =  -8.78388473068981E-11  5.20092257443821E-02
 cg2d: Sum(rhs),rhsMax =  -8.81922312956362E-11  5.18545469533185E-02
 cg2d: Sum(rhs),rhsMax =  -8.85339579426159E-11  5.16933193101881E-02
 cg2d: Sum(rhs),rhsMax =  -8.88933371356870E-11  5.15257207343948E-02
 cg2d: Sum(rhs),rhsMax =  -8.92715901201768E-11  5.13518587608204E-02
 cg2d: Sum(rhs),rhsMax =  -8.96560603536045E-11  5.11717007119260E-02
 cg2d: Sum(rhs),rhsMax =  -9.00927110691896E-11  5.09851281231326E-02
 cg2d: Sum(rhs),rhsMax =  -9.05666652784021E-11  5.07921763388132E-02
 cg2d: Sum(rhs),rhsMax =  -9.09889941169695E-11  5.05930053189283E-02
 cg2d: Sum(rhs),rhsMax =  -9.14074371749507E-11  5.03878186865305E-02
 cg2d: Sum(rhs),rhsMax =  -9.18034537278345E-11  5.01767245217837E-02
 cg2d: Sum(rhs),rhsMax =  -9.22365517297408E-11  4.99598396169813E-02
 cg2d: Sum(rhs),rhsMax =  -9.27263821282054E-11  4.97372828146878E-02
 cg2d: Sum(rhs),rhsMax =  -9.32590671354205E-11  4.95091566769837E-02
 cg2d: Sum(rhs),rhsMax =  -9.37891986296790E-11  4.92754621184448E-02
 cg2d: Sum(rhs),rhsMax =  -9.43798372787796E-11  4.90363817670706E-02
 cg2d: Sum(rhs),rhsMax =  -9.49630374336152E-11  4.87919593530591E-02
 cg2d: Sum(rhs),rhsMax =  -9.55356904697169E-11  4.85424162205721E-02
 cg2d: Sum(rhs),rhsMax =  -9.61414281519524E-11  4.82880269501344E-02
 cg2d: Sum(rhs),rhsMax =  -9.67946833796418E-11  4.80289666082832E-02
 cg2d: Sum(rhs),rhsMax =  -9.73295888329062E-11  4.77652957977450E-02
 cg2d: Sum(rhs),rhsMax =  -9.78989111999340E-11  4.74972276389735E-02
 cg2d: Sum(rhs),rhsMax =  -9.85227455174709E-11  4.72249013166273E-02
 cg2d: Sum(rhs),rhsMax =  -9.91408066752797E-11  4.69484527935459E-02
 cg2d: Sum(rhs),rhsMax =  -9.97736337993160E-11  4.66680170651786E-02
 cg2d: Sum(rhs),rhsMax =  -1.00460750829257E-10  4.63835628394488E-02
 cg2d: Sum(rhs),rhsMax =  -1.01133323937574E-10  4.60951476203854E-02
 cg2d: Sum(rhs),rhsMax =  -1.01808450558849E-10  4.58030289376458E-02
 cg2d: Sum(rhs),rhsMax =  -1.02525321565849E-10  4.55076139220637E-02
 cg2d: Sum(rhs),rhsMax =  -1.03220931801928E-10  4.52090683489729E-02
 cg2d: Sum(rhs),rhsMax =  -1.03979880261562E-10  4.49075219626053E-02
 cg2d: Sum(rhs),rhsMax =  -1.04749653395686E-10  4.46031060223244E-02
 cg2d: Sum(rhs),rhsMax =  -1.05530861826963E-10  4.42958951836533E-02
 cg2d: Sum(rhs),rhsMax =  -1.06328001958644E-10  4.39859317713778E-02
 cg2d: Sum(rhs),rhsMax =  -1.07115483150011E-10  4.36733578624989E-02
 cg2d: Sum(rhs),rhsMax =  -1.07941433569181E-10  4.33582564466220E-02
 cg2d: Sum(rhs),rhsMax =  -1.08776820884060E-10  4.30406940716998E-02
 cg2d: Sum(rhs),rhsMax =  -1.09652897872792E-10  4.27207543809947E-02
 cg2d: Sum(rhs),rhsMax =  -1.10563724842194E-10  4.23983322999171E-02
 cg2d: Sum(rhs),rhsMax =  -1.11490594534303E-10  4.20730958495299E-02
 cg2d: Sum(rhs),rhsMax =  -1.12411330244200E-10  4.17450121067628E-02
 cg2d: Sum(rhs),rhsMax =  -1.13374559740365E-10  4.14141613147191E-02
 cg2d: Sum(rhs),rhsMax =  -1.14324189004478E-10  4.10807111729813E-02
 cg2d: Sum(rhs),rhsMax =  -1.15317866367093E-10  4.07448690663965E-02
 cg2d: Sum(rhs),rhsMax =  -1.16353732204644E-10  4.04066298653546E-02
 cg2d: Sum(rhs),rhsMax =  -1.17417381373386E-10  4.00659738537136E-02
 cg2d: Sum(rhs),rhsMax =  -1.18530747716949E-10  3.97229926274371E-02
 cg2d: Sum(rhs),rhsMax =  -1.19629604833360E-10  3.93778650464746E-02
 cg2d: Sum(rhs),rhsMax =  -1.20762675900887E-10  3.90308649072800E-02
 cg2d: Sum(rhs),rhsMax =  -1.21923020290904E-10  3.86821277237571E-02
 cg2d: Sum(rhs),rhsMax =  -1.23110785454905E-10  3.83319347829325E-02
 cg2d: Sum(rhs),rhsMax =  -1.24334972873008E-10  3.79805455099648E-02
 cg2d: Sum(rhs),rhsMax =  -1.25597504618824E-10  3.76282670185553E-02
 cg2d: Sum(rhs),rhsMax =  -1.25637972248072E-10  3.76489413443705E-02
 cg2d: Sum(rhs),rhsMax =  -1.20947030168850E-10  3.91332064209073E-02
 cg2d: Sum(rhs),rhsMax =  -1.16606696520805E-10  4.06145976909839E-02
 cg2d: Sum(rhs),rhsMax =  -1.12562181797671E-10  4.20923789681794E-02
 cg2d: Sum(rhs),rhsMax =  -1.08843822843596E-10  4.35658114392382E-02
 cg2d: Sum(rhs),rhsMax =  -1.05333908262395E-10  4.50341550384255E-02
 cg2d: Sum(rhs),rhsMax =  -1.02097219567554E-10  4.64966700669098E-02
 cg2d: Sum(rhs),rhsMax =  -9.90565407477106E-11  4.79526190040159E-02
 cg2d: Sum(rhs),rhsMax =  -9.62032120632728E-11  4.94012684466689E-02
 cg2d: Sum(rhs),rhsMax =  -9.35221899922567E-11  5.08418910962944E-02
 cg2d: Sum(rhs),rhsMax =  -9.10165831591314E-11  5.22737676998173E-02
 cg2d: Sum(rhs),rhsMax =  -8.86236084518544E-11  5.36961888452272E-02
 cg2d: Sum(rhs),rhsMax =  -8.64097682296006E-11  5.51084565150512E-02
 cg2d: Sum(rhs),rhsMax =  -8.42981240367635E-11  5.65098853117305E-02
 cg2d: Sum(rhs),rhsMax =  -8.23430212903986E-11  5.78998032842344E-02
 cg2d: Sum(rhs),rhsMax =  -8.04726285608126E-11  5.92775523254141E-02
 cg2d: Sum(rhs),rhsMax =  -7.87079290631709E-11  6.06424881357166E-02
 cg2d: Sum(rhs),rhsMax =  -7.70214447776141E-11  6.19939797847957E-02
 cg2d: Sum(rhs),rhsMax =  -7.54287743376381E-11  6.33314089378388E-02
 cg2d: Sum(rhs),rhsMax =  -7.39834304930298E-11  6.46541688436207E-02
 cg2d: Sum(rhs),rhsMax =  -7.25431381631836E-11  6.59616632052534E-02
 cg2d: Sum(rhs),rhsMax =  -7.12337966390919E-11  6.72533050639274E-02
 cg2d: Sum(rhs),rhsMax =  -6.99829083572467E-11  6.85285158243258E-02
 cg2d: Sum(rhs),rhsMax =  -6.88262224990410E-11  6.97867245374580E-02
 cg2d: Sum(rhs),rhsMax =  -6.76391720411118E-11  7.10273675298919E-02
 cg2d: Sum(rhs),rhsMax =  -6.65992816450967E-11  7.22498884345943E-02
 cg2d: Sum(rhs),rhsMax =  -6.55973053653724E-11  7.34537386380240E-02
 cg2d: Sum(rhs),rhsMax =  -6.46228071055077E-11  7.46383781157316E-02
 cg2d: Sum(rhs),rhsMax =  -6.36484198679454E-11  7.58032765887746E-02
 cg2d: Sum(rhs),rhsMax =  -6.27837226652161E-11  7.69479148997105E-02
 cg2d: Sum(rhs),rhsMax =  -6.19246875999124E-11  7.80717864829163E-02
 cg2d: Sum(rhs),rhsMax =  -6.11475314826748E-11  7.91743987917006E-02
 cg2d: Sum(rhs),rhsMax =  -6.04090111266942E-11  8.02552745451582E-02
 cg2d: Sum(rhs),rhsMax =  -5.96900306959469E-11  8.13139526708498E-02
 cg2d: Sum(rhs),rhsMax =  -5.90111293163886E-11  8.23499888439570E-02
 cg2d: Sum(rhs),rhsMax =  -5.83256776209851E-11  8.33629555572910E-02
 cg2d: Sum(rhs),rhsMax =  -5.76804159990729E-11  8.43524416966078E-02
 cg2d: Sum(rhs),rhsMax =  -5.71026559370580E-11  8.53180516383050E-02
 cg2d: Sum(rhs),rhsMax =  -5.65290037002342E-11  8.62594039275588E-02
 cg2d: Sum(rhs),rhsMax =  -5.59901014440811E-11  8.71761296354303E-02
 cg2d: Sum(rhs),rhsMax =  -5.54553070131192E-11  8.80678705223802E-02
 cg2d: Sum(rhs),rhsMax =  -5.49867928967274E-11  8.89342771539852E-02
 cg2d: Sum(rhs),rhsMax =  -5.45066214385770E-11  8.97750071259200E-02
 cg2d: Sum(rhs),rhsMax =  -5.40519851099930E-11  9.05897235521634E-02
 cg2d: Sum(rhs),rhsMax =  -5.36252153793271E-11  9.13780939551177E-02
 cg2d: Sum(rhs),rhsMax =  -5.32311972278876E-11  9.21397896719190E-02
 cg2d: Sum(rhs),rhsMax =  -5.28765919938223E-11  9.28744858497458E-02
 cg2d: Sum(rhs),rhsMax =  -5.25390841943363E-11  9.35818620643111E-02
 cg2d: Sum(rhs),rhsMax =  -5.21499510242052E-11  9.42616035545871E-02
 cg2d: Sum(rhs),rhsMax =  -5.18559639672844E-11  9.49134030162906E-02
 cg2d: Sum(rhs),rhsMax =  -5.15989473370837E-11  9.55369628567958E-02
 cg2d: Sum(rhs),rhsMax =  -5.13342701680131E-11  9.61319977736662E-02
 cg2d: Sum(rhs),rhsMax =  -5.11125586299954E-11  9.66982374960641E-02
 cg2d: Sum(rhs),rhsMax =  -5.08968422963108E-11  9.72354295143831E-02
 cg2d: Sum(rhs),rhsMax =  -5.06880093453788E-11  9.77433416223506E-02
 cg2d: Sum(rhs),rhsMax =  -5.04611907814478E-11  9.82217641078166E-02
 cg2d: Sum(rhs),rhsMax =  -5.02929919932171E-11  9.86705114526893E-02
 cg2d: Sum(rhs),rhsMax =  -5.01150232423697E-11  9.90894234370095E-02
 cg2d: Sum(rhs),rhsMax =  -4.99345009785657E-11  9.94783655840472E-02
 cg2d: Sum(rhs),rhsMax =  -4.97973884350245E-11  9.98372289265951E-02
 cg2d: Sum(rhs),rhsMax =  -4.96901408908457E-11  1.00165929120620E-01
 cg2d: Sum(rhs),rhsMax =  -4.96130914129367E-11  1.00464404997192E-01
 cg2d: Sum(rhs),rhsMax =  -4.95442575854099E-11  1.00732616635520E-01
 cg2d: Sum(rhs),rhsMax =  -4.94966290176535E-11  1.00970543091713E-01
 cg2d: Sum(rhs),rhsMax =  -4.94568830333719E-11  1.01178179916788E-01
 cg2d: Sum(rhs),rhsMax =  -4.94061458411466E-11  1.01355536622085E-01
 cg2d: Sum(rhs),rhsMax =  -4.93434182402552E-11  1.01502634230492E-01
 cg2d: Sum(rhs),rhsMax =  -4.93246554711391E-11  1.01619503047739E-01
 cg2d: Sum(rhs),rhsMax =  -4.92801355278516E-11  1.01706180709198E-01
 cg2d: Sum(rhs),rhsMax =  -4.92564877774271E-11  1.01762710599862E-01
 cg2d: Sum(rhs),rhsMax =  -4.92250684658302E-11  1.01789140687594E-01
 cg2d: Sum(rhs),rhsMax =  -4.90990581525352E-11  1.01785522777538E-01
 cg2d: Sum(rhs),rhsMax =  -4.90979479295106E-11  1.01751912169670E-01
 cg2d: Sum(rhs),rhsMax =  -4.90906204575481E-11  1.01688367682058E-01
 cg2d: Sum(rhs),rhsMax =  -4.90997242863500E-11  1.01594951988389E-01
 cg2d: Sum(rhs),rhsMax =  -4.90947282827392E-11  1.01471732200193E-01
 cg2d: Sum(rhs),rhsMax =  -4.91412466274710E-11  1.01318780632370E-01
 cg2d: Sum(rhs),rhsMax =  -4.91424678727981E-11  1.01136175685965E-01
 cg2d: Sum(rhs),rhsMax =  -4.92317298039779E-11  1.00924002783224E-01
 cg2d: Sum(rhs),rhsMax =  -4.93142193747076E-11  1.00682355296673E-01
 cg2d: Sum(rhs),rhsMax =  -4.94141394469239E-11  1.00411335423382E-01
 cg2d: Sum(rhs),rhsMax =  -4.95471441652739E-11  1.00111054966458E-01
 cg2d: Sum(rhs),rhsMax =  -4.96319652043553E-11  9.97816359973045E-02
 cg2d: Sum(rhs),rhsMax =  -4.97724084169704E-11  9.94232113836054E-02
 cg2d: Sum(rhs),rhsMax =  -4.99169594547766E-11  9.90359251711557E-02
 cg2d: Sum(rhs),rhsMax =  -5.00931518487846E-11  9.86199328425003E-02
 cg2d: Sum(rhs),rhsMax =  -5.02475838715100E-11  9.81754014682016E-02
 cg2d: Sum(rhs),rhsMax =  -5.04535302425779E-11  9.77025097555101E-02
 cg2d: Sum(rhs),rhsMax =  -5.06790165388793E-11  9.72014480246389E-02
 cg2d: Sum(rhs),rhsMax =  -5.08725284120715E-11  9.66724181449508E-02
 cg2d: Sum(rhs),rhsMax =  -5.11030107119836E-11  9.61156334551275E-02
 cg2d: Sum(rhs),rhsMax =  -5.13520337364071E-11  9.55313187302356E-02
 cg2d: Sum(rhs),rhsMax =  -5.16114928572620E-11  9.49197101888522E-02
 cg2d: Sum(rhs),rhsMax =  -5.18607379262903E-11  9.42810555600571E-02
 cg2d: Sum(rhs),rhsMax =  -5.21661602803647E-11  9.36156142235215E-02
 cg2d: Sum(rhs),rhsMax =  -5.24604804041928E-11  9.29236574280336E-02
 cg2d: Sum(rhs),rhsMax =  -5.27767829439085E-11  9.22054685851804E-02
 cg2d: Sum(rhs),rhsMax =  -5.31114041635306E-11  9.14613436302694E-02
 cg2d: Sum(rhs),rhsMax =  -5.35285149538822E-11  9.06915914248221E-02
 cg2d: Sum(rhs),rhsMax =  -5.39541744615235E-11  8.98965341846139E-02
 cg2d: Sum(rhs),rhsMax =  -5.43913802886209E-11  8.90765079160947E-02
 cg2d: Sum(rhs),rhsMax =  -5.48625589402718E-11  8.82318628503835E-02
 cg2d: Sum(rhs),rhsMax =  -5.53486145804527E-11  8.73629638149268E-02
 cg2d: Sum(rhs),rhsMax =  -5.58599833055951E-11  8.64701905397582E-02
 cg2d: Sum(rhs),rhsMax =  -5.63886715099216E-11  8.55539379021550E-02
 cg2d: Sum(rhs),rhsMax =  -5.69557734309001E-11  8.46146160946753E-02
 cg2d: Sum(rhs),rhsMax =  -5.75668401836538E-11  8.36526507043859E-02
 cg2d: Sum(rhs),rhsMax =  -5.82031089990664E-11  8.26684826950769E-02
 cg2d: Sum(rhs),rhsMax =  -5.88508686227840E-11  8.16625682891728E-02
 cg2d: Sum(rhs),rhsMax =  -5.95462013031067E-11  8.06353787476883E-02
 cg2d: Sum(rhs),rhsMax =  -6.02489169665432E-11  7.95874000511566E-02
 cg2d: Sum(rhs),rhsMax =  -6.10606010198467E-11  7.85191324861816E-02
 cg2d: Sum(rhs),rhsMax =  -6.18506357241699E-11  7.74310901418721E-02
 cg2d: Sum(rhs),rhsMax =  -6.26531049263690E-11  7.63238003255655E-02
 cg2d: Sum(rhs),rhsMax =  -6.35059227427348E-11  7.51978029079493E-02
 cg2d: Sum(rhs),rhsMax =  -6.44131414873073E-11  7.40536496055517E-02
 cg2d: Sum(rhs),rhsMax =  -6.53495035862761E-11  7.28919032166521E-02
 cg2d: Sum(rhs),rhsMax =  -6.63306076731374E-11  7.17131368291813E-02
 cg2d: Sum(rhs),rhsMax =  -6.74719169424520E-11  7.05179330203483E-02
 cg2d: Sum(rhs),rhsMax =  -6.85421719381907E-11  6.93068830679270E-02
 cg2d: Sum(rhs),rhsMax =  -6.96734336891325E-11  6.80805861906628E-02
 cg2d: Sum(rhs),rhsMax =  -7.08814673622271E-11  6.68396488344010E-02
 cg2d: Sum(rhs),rhsMax =  -7.21999127151207E-11  6.55846840040998E-02
 cg2d: Sum(rhs),rhsMax =  -7.35255745176744E-11  6.43163106875072E-02
 cg2d: Sum(rhs),rhsMax =  -7.49731388083319E-11  6.30351533407163E-02
 cg2d: Sum(rhs),rhsMax =  -7.64937557740097E-11  6.17418414358512E-02
 cg2d: Sum(rhs),rhsMax =  -7.80857045690198E-11  6.04370090672351E-02
 cg2d: Sum(rhs),rhsMax =  -7.97960031384548E-11  5.91212946080392E-02
 cg2d: Sum(rhs),rhsMax =  -8.15666978404295E-11  5.77953404051277E-02
 cg2d: Sum(rhs),rhsMax =  -8.34196600685289E-11  5.64597924970534E-02
 cg2d: Sum(rhs),rhsMax =  -8.53923043386828E-11  5.51153003393816E-02
 cg2d: Sum(rhs),rhsMax =  -8.74967320818598E-11  5.37625165224802E-02
 cg2d: Sum(rhs),rhsMax =  -8.97192875548569E-11  5.24020964690810E-02
 cg2d: Sum(rhs),rhsMax =  -9.20401532766846E-11  5.10346981016741E-02
 cg2d: Sum(rhs),rhsMax =  -9.45478140224054E-11  4.96609814726805E-02
 cg2d: Sum(rhs),rhsMax =  -9.72085467676465E-11  4.82816083530448E-02
 cg2d: Sum(rhs),rhsMax =  -1.00008307191146E-10  4.68972417772056E-02
 cg2d: Sum(rhs),rhsMax =  -1.02982650185268E-10  4.55085455443047E-02
 cg2d: Sum(rhs),rhsMax =  -1.06172237668289E-10  4.41161836768817E-02
 cg2d: Sum(rhs),rhsMax =  -1.09530662317781E-10  4.27208198390266E-02
 cg2d: Sum(rhs),rhsMax =  -1.13168696636023E-10  4.13231167166731E-02
 cg2d: Sum(rhs),rhsMax =  -1.15768908348635E-10  4.03742180997795E-02
 cg2d: Sum(rhs),rhsMax =  -1.15007850465254E-10  4.06231107692970E-02
 cg2d: Sum(rhs),rhsMax =  -1.14232831527339E-10  4.08705090987380E-02
 cg2d: Sum(rhs),rhsMax =  -1.13457611361500E-10  4.11164126946824E-02
 cg2d: Sum(rhs),rhsMax =  -1.12730404872030E-10  4.13607762049927E-02
 cg2d: Sum(rhs),rhsMax =  -1.12004464730697E-10  4.16035863950877E-02
 cg2d: Sum(rhs),rhsMax =  -1.11314200912371E-10  4.18447949222356E-02
 cg2d: Sum(rhs),rhsMax =  -1.10626632854327E-10  4.20842775668070E-02
 cg2d: Sum(rhs),rhsMax =  -1.09928330327413E-10  4.23218643970578E-02
 cg2d: Sum(rhs),rhsMax =  -1.09261627523338E-10  4.25573780788687E-02
 cg2d: Sum(rhs),rhsMax =  -1.08625441974652E-10  4.27906936576009E-02
 cg2d: Sum(rhs),rhsMax =  -1.07974434948588E-10  4.30215969043117E-02
 cg2d: Sum(rhs),rhsMax =  -1.07361342038814E-10  4.32498402125301E-02
 cg2d: Sum(rhs),rhsMax =  -1.06708808456091E-10  4.34751265736114E-02
 cg2d: Sum(rhs),rhsMax =  -1.06110897846179E-10  4.36973010990694E-02
 cg2d: Sum(rhs),rhsMax =  -1.05515651771526E-10  4.39163058552586E-02
 cg2d: Sum(rhs),rhsMax =  -1.04953212787251E-10  4.41320642019666E-02
 cg2d: Sum(rhs),rhsMax =  -1.04397157585367E-10  4.43444969841889E-02
 cg2d: Sum(rhs),rhsMax =  -1.03846209409397E-10  4.45533140090162E-02
 cg2d: Sum(rhs),rhsMax =  -1.03331843082088E-10  4.47583510789882E-02
 cg2d: Sum(rhs),rhsMax =  -1.02824027070625E-10  4.49592899944420E-02
 cg2d: Sum(rhs),rhsMax =  -1.02333863605253E-10  4.51560811187437E-02
 cg2d: Sum(rhs),rhsMax =  -1.01843589117578E-10  4.53487139829676E-02
 cg2d: Sum(rhs),rhsMax =  -1.01390007500868E-10  4.55370902754067E-02
 cg2d: Sum(rhs),rhsMax =  -1.00906172306736E-10  4.57210812038243E-02
 cg2d: Sum(rhs),rhsMax =  -1.00475627817787E-10  4.59006277391657E-02
 cg2d: Sum(rhs),rhsMax =  -1.00042085726670E-10  4.60756412878760E-02
 cg2d: Sum(rhs),rhsMax =  -9.96092097693690E-11  4.62460568620675E-02
 cg2d: Sum(rhs),rhsMax =  -9.92441684388723E-11  4.64117580316597E-02
 cg2d: Sum(rhs),rhsMax =  -9.88384929456743E-11  4.65727145474127E-02
 cg2d: Sum(rhs),rhsMax =  -9.84332615416861E-11  4.67289432677126E-02
 cg2d: Sum(rhs),rhsMax =  -9.80647785198130E-11  4.68803786874439E-02
 cg2d: Sum(rhs),rhsMax =  -9.77196101814570E-11  4.70269463923912E-02
 cg2d: Sum(rhs),rhsMax =  -9.73724434416567E-11  4.71687499160093E-02
 cg2d: Sum(rhs),rhsMax =  -9.70211688766653E-11  4.73056042864160E-02
 cg2d: Sum(rhs),rhsMax =  -9.67141922103565E-11  4.74376694833507E-02
 cg2d: Sum(rhs),rhsMax =  -9.63976676260359E-11  4.75650824175739E-02
 cg2d: Sum(rhs),rhsMax =  -9.61022372791831E-11  4.76878634105884E-02
 cg2d: Sum(rhs),rhsMax =  -9.57915968768930E-11  4.78059490372286E-02
 cg2d: Sum(rhs),rhsMax =  -9.55504564359444E-11  4.79193387500997E-02
 cg2d: Sum(rhs),rhsMax =  -9.52611323157271E-11  4.80279487409727E-02
 cg2d: Sum(rhs),rhsMax =  -9.49409439954252E-11  4.81316399614111E-02
 cg2d: Sum(rhs),rhsMax =  -9.46966949300077E-11  4.82301784354972E-02
 cg2d: Sum(rhs),rhsMax =  -9.44003764047352E-11  4.83237181533805E-02
 cg2d: Sum(rhs),rhsMax =  -9.41158262435238E-11  4.84122175873871E-02
 cg2d: Sum(rhs),rhsMax =  -9.39399669164231E-11  4.84956342383416E-02
 cg2d: Sum(rhs),rhsMax =  -9.37016020330361E-11  4.85739266811568E-02
 cg2d: Sum(rhs),rhsMax =  -9.34591293244580E-11  4.86471254438443E-02
 cg2d: Sum(rhs),rhsMax =  -9.32304233813852E-11  4.87152519939755E-02
 cg2d: Sum(rhs),rhsMax =  -9.30931998155415E-11  4.87782077528964E-02
 cg2d: Sum(rhs),rhsMax =  -9.29152310646941E-11  4.88357821595523E-02
 cg2d: Sum(rhs),rhsMax =  -9.27727894506347E-11  4.88880842485420E-02
 cg2d: Sum(rhs),rhsMax =  -9.26420051783339E-11  4.89350164159520E-02
 cg2d: Sum(rhs),rhsMax =  -9.25561849385304E-11  4.89764547116528E-02
 cg2d: Sum(rhs),rhsMax =  -9.24561538440116E-11  4.90123923696303E-02
 cg2d: Sum(rhs),rhsMax =  -9.23963128229843E-11  4.90428714489667E-02
 cg2d: Sum(rhs),rhsMax =  -9.14951447938961E-11  4.94942547087527E-02
 cg2d: Sum(rhs),rhsMax =  -9.05470143308662E-11  4.99967363485363E-02
 cg2d: Sum(rhs),rhsMax =  -8.96648311154991E-11  5.04760808184870E-02
 cg2d: Sum(rhs),rhsMax =  -8.87949713757052E-11  5.09320773540309E-02
 cg2d: Sum(rhs),rhsMax =  -8.79835093670067E-11  5.13645286679176E-02
 cg2d: Sum(rhs),rhsMax =  -8.72415473196497E-11  5.17732516741451E-02
 cg2d: Sum(rhs),rhsMax =  -8.65705285235663E-11  5.21580781000346E-02
 cg2d: Sum(rhs),rhsMax =  -8.59083915116798E-11  5.25188549029424E-02
 cg2d: Sum(rhs),rhsMax =  -8.53541681777870E-11  5.28554444196849E-02
 cg2d: Sum(rhs),rhsMax =  -8.48100478734182E-11  5.31677242019960E-02
 cg2d: Sum(rhs),rhsMax =  -8.43436431807731E-11  5.34555865307071E-02
 cg2d: Sum(rhs),rhsMax =  -8.38956681903369E-11  5.37189376543292E-02
 cg2d: Sum(rhs),rhsMax =  -8.35076452432304E-11  5.39576968412898E-02
 cg2d: Sum(rhs),rhsMax =  -8.31370527976105E-11  5.41717953555160E-02
 cg2d: Sum(rhs),rhsMax =  -8.28207502578948E-11  5.43611755059557E-02
 cg2d: Sum(rhs),rhsMax =  -8.25212120858509E-11  5.45257898796655E-02
 cg2d: Sum(rhs),rhsMax =  -8.22543144707311E-11  5.46656008289594E-02
(PID.TID 0000.0001)      cg2d_init_res =   2.91167077651101E-02
(PID.TID 0000.0001)      cg2d_iters(min,last) =      -1      37
(PID.TID 0000.0001)      cg2d_last_res =   7.91551703464105E-14
(PID.TID 0000.0001) // =======================================================
(PID.TID 0000.0001) // Begin MONITOR dynamic field statistics
(PID.TID 0000.0001) // =======================================================
(PID.TID 0000.0001) %MON time_tsnumber                =                  5280
(PID.TID 0000.0001) %MON time_secondsf                =   7.9200000000000E+04
(PID.TID 0000.0001) %MON dynstat_eta_max              =   1.1861907536957E-02
(PID.TID 0000.0001) %MON dynstat_eta_min              =  -1.6156189565900E-02
(PID.TID 0000.0001) %MON dynstat_eta_mean             =   9.9078208780895E-15
(PID.TID 0000.0001) %MON dynstat_eta_sd               =   8.9203778443753E-03
(PID.TID 0000.0001) %MON dynstat_eta_del2             =   3.6030389006214E-05
(PID.TID 0000.0001) %MON dynstat_uvel_max             =   1.0563969908014E+00
(PID.TID 0000.0001) %MON dynstat_uvel_min             =  -9.9025411529834E-02
(PID.TID 0000.0001) %MON dynstat_uvel_mean            =   4.5329119269546E-01
(PID.TID 0000.0001) %MON dynstat_uvel_sd              =   1.2419130639291E-01
(PID.TID 0000.0001) %MON dynstat_uvel_del2            =   5.0718395451739E-04
(PID.TID 0000.0001) %MON dynstat_vvel_max             =   0.0000000000000E+00
(PID.TID 0000.0001) %MON dynstat_vvel_min             =   0.0000000000000E+00
(PID.TID 0000.0001) %MON dynstat_vvel_mean            =   0.0000000000000E+00
(PID.TID 0000.0001) %MON dynstat_vvel_sd              =   0.0000000000000E+00
(PID.TID 0000.0001) %MON dynstat_vvel_del2            =   0.0000000000000E+00
(PID.TID 0000.0001) %MON dynstat_wvel_max             =   2.2144577570126E-02
(PID.TID 0000.0001) %MON dynstat_wvel_min             =  -2.1848628112648E-02
(PID.TID 0000.0001) %MON dynstat_wvel_mean            =   1.8346903346118E-21
(PID.TID 0000.0001) %MON dynstat_wvel_sd              =   2.2587817495534E-03
(PID.TID 0000.0001) %MON dynstat_wvel_del2            =   4.5644314121828E-05
(PID.TID 0000.0001) %MON dynstat_theta_max            =   1.5000000000015E+01
(PID.TID 0000.0001) %MON dynstat_theta_min            =   9.9999999999980E+00
(PID.TID 0000.0001) %MON dynstat_theta_mean           =   1.3992729578172E+01
(PID.TID 0000.0001) %MON dynstat_theta_sd             =   1.8483508506533E+00
(PID.TID 0000.0001) %MON dynstat_theta_del2           =   7.8042000564216E-04
(PID.TID 0000.0001) %MON dynstat_salt_max             =   3.5000000000000E+01
(PID.TID 0000.0001) %MON dynstat_salt_min             =   3.5000000000000E+01
(PID.TID 0000.0001) %MON dynstat_salt_mean            =   3.5000000000000E+01
(PID.TID 0000.0001) %MON dynstat_salt_sd              =   3.0553337637684E-13
(PID.TID 0000.0001) %MON dynstat_salt_del2            =   0.0000000000000E+00
(PID.TID 0000.0001) %MON dynstat_sst_max              =   1.5000000000000E+01
(PID.TID 0000.0001) %MON dynstat_sst_min              =   1.4999999999998E+01
(PID.TID 0000.0001) %MON dynstat_sst_mean             =   1.4999999999999E+01
(PID.TID 0000.0001) %MON dynstat_sst_sd               =   4.6740604654423E-13
(PID.TID 0000.0001) %MON dynstat_sst_del2             =   5.1376228332285E-15
(PID.TID 0000.0001) %MON dynstat_sss_max              =   3.5000000000000E+01
(PID.TID 0000.0001) %MON dynstat_sss_min              =   3.5000000000000E+01
(PID.TID 0000.0001) %MON dynstat_sss_mean             =   3.5000000000000E+01
(PID.TID 0000.0001) %MON dynstat_sss_sd               =   2.8421709430404E-14
(PID.TID 0000.0001) %MON dynstat_sss_del2             =   0.0000000000000E+00
(PID.TID 0000.0001) %MON forcing_qnet_max             =   0.0000000000000E+00
(PID.TID 0000.0001) %MON forcing_qnet_min             =   0.0000000000000E+00
(PID.TID 0000.0001) %MON forcing_qnet_mean            =   0.0000000000000E+00
(PID.TID 0000.0001) %MON forcing_qnet_sd              =   0.0000000000000E+00
(PID.TID 0000.0001) %MON forcing_qnet_del2            =   0.0000000000000E+00
(PID.TID 0000.0001) %MON forcing_qsw_max              =   0.0000000000000E+00
(PID.TID 0000.0001) %MON forcing_qsw_min              =   0.0000000000000E+00
(PID.TID 0000.0001) %MON forcing_qsw_mean             =   0.0000000000000E+00
(PID.TID 0000.0001) %MON forcing_qsw_sd               =   0.0000000000000E+00
(PID.TID 0000.0001) %MON forcing_qsw_del2             =   0.0000000000000E+00
(PID.TID 0000.0001) %MON forcing_empmr_max            =   0.0000000000000E+00
(PID.TID 0000.0001) %MON forcing_empmr_min            =   0.0000000000000E+00
(PID.TID 0000.0001) %MON forcing_empmr_mean           =   0.0000000000000E+00
(PID.TID 0000.0001) %MON forcing_empmr_sd             =   0.0000000000000E+00
(PID.TID 0000.0001) %MON forcing_empmr_del2           =   0.0000000000000E+00
(PID.TID 0000.0001) %MON forcing_fu_max               =   0.0000000000000E+00
(PID.TID 0000.0001) %MON forcing_fu_min               =   0.0000000000000E+00
(PID.TID 0000.0001) %MON forcing_fu_mean              =   0.0000000000000E+00
(PID.TID 0000.0001) %MON forcing_fu_sd                =   0.0000000000000E+00
(PID.TID 0000.0001) %MON forcing_fu_del2              =   0.0000000000000E+00
(PID.TID 0000.0001) %MON forcing_fv_max               =   0.0000000000000E+00
(PID.TID 0000.0001) %MON forcing_fv_min               =   0.0000000000000E+00
(PID.TID 0000.0001) %MON forcing_fv_mean              =   0.0000000000000E+00
(PID.TID 0000.0001) %MON forcing_fv_sd                =   0.0000000000000E+00
(PID.TID 0000.0001) %MON forcing_fv_del2              =   0.0000000000000E+00
(PID.TID 0000.0001) %MON advcfl_uvel_max              =   7.9229774310108E-02
(PID.TID 0000.0001) %MON advcfl_vvel_max              =   0.0000000000000E+00
(PID.TID 0000.0001) %MON advcfl_wvel_max              =   1.3132625253044E-01
(PID.TID 0000.0001) %MON advcfl_W_hf_max              =   1.3275500391200E-01
(PID.TID 0000.0001) %MON pe_b_mean                    =   1.9721947912309E-06
(PID.TID 0000.0001) %MON ke_max                       =   4.5284114782170E-01
(PID.TID 0000.0001) %MON ke_mean                      =   1.1053213670045E-01
(PID.TID 0000.0001) %MON ke_vol                       =   9.6656965507697E+10
(PID.TID 0000.0001) %MON vort_r_min                   =   0.0000000000000E+00
(PID.TID 0000.0001) %MON vort_r_max                   =   0.0000000000000E+00
(PID.TID 0000.0001) %MON vort_a_mean                  =   0.0000000000000E+00
(PID.TID 0000.0001) %MON vort_a_sd                    =   0.0000000000000E+00
(PID.TID 0000.0001) %MON vort_p_mean                  =   0.0000000000000E+00
(PID.TID 0000.0001) %MON vort_p_sd                    =   0.0000000000000E+00
(PID.TID 0000.0001) %MON surfExpan_theta_mean         =  -6.6741858559936E-19
(PID.TID 0000.0001) %MON surfExpan_salt_mean          =  -1.1192893081714E-18
(PID.TID 0000.0001) // =======================================================
(PID.TID 0000.0001) // End MONITOR dynamic field statistics
(PID.TID 0000.0001) // =======================================================
(PID.TID 0000.0001) // =======================================================
(PID.TID 0000.0001) // Begin OBCS MONITOR field statistics
(PID.TID 0000.0001) // =======================================================
(PID.TID 0000.0001) %MON obc_E_uVel_max               =   4.4822851314926E-01
(PID.TID 0000.0001) %MON obc_E_uVel_min               =   4.4822851314926E-01
(PID.TID 0000.0001) %MON obc_E_uVel_mean              =   4.4822851314926E-01
(PID.TID 0000.0001) %MON obc_E_uVel_sd                =   0.0000000000000E+00
(PID.TID 0000.0001) %MON obc_E_uVel_Int               =   4.4822851314926E+05
(PID.TID 0000.0001) %MON obc_W_uVel_max               =   4.4822851314926E-01
(PID.TID 0000.0001) %MON obc_W_uVel_min               =   4.4822851314926E-01
(PID.TID 0000.0001) %MON obc_W_uVel_mean              =   4.4822851314926E-01
(PID.TID 0000.0001) %MON obc_W_uVel_sd                =   0.0000000000000E+00
(PID.TID 0000.0001) %MON obc_W_uVel_Int               =   4.4822851314926E+05
(PID.TID 0000.0001) // =======================================================
(PID.TID 0000.0001) // End OBCS MONITOR field statistics
(PID.TID 0000.0001) // =======================================================
 cg2d: Sum(rhs),rhsMax =  -8.20091772268938E-11  5.47805802369792E-02
 cg2d: Sum(rhs),rhsMax =  -8.18723977502600E-11  5.48707095430220E-02
 cg2d: Sum(rhs),rhsMax =  -8.16948730886224E-11  5.49359799752269E-02
 cg2d: Sum(rhs),rhsMax =  -8.16503531453350E-11  5.49763929200064E-02
 cg2d: Sum(rhs),rhsMax =  -8.15731926451235E-11  5.49919603517148E-02
 cg2d: Sum(rhs),rhsMax =  -8.16032796890909E-11  5.49827052504955E-02
 cg2d: Sum(rhs),rhsMax =  -8.16611223086738E-11  5.49486619503966E-02
 cg2d: Sum(rhs),rhsMax =  -8.17448331247306E-11  5.48898763783224E-02
 cg2d: Sum(rhs),rhsMax =  -8.18678458358590E-11  5.48064061630622E-02
 cg2d: Sum(rhs),rhsMax =  -8.20545853486010E-11  5.46983206094444E-02
 cg2d: Sum(rhs),rhsMax =  -8.23014989492776E-11  5.45657005444486E-02
 cg2d: Sum(rhs),rhsMax =  -8.25459700593001E-11  5.44086380502166E-02
 cg2d: Sum(rhs),rhsMax =  -8.28866975055575E-11  5.42272361044792E-02
 cg2d: Sum(rhs),rhsMax =  -8.31943403056812E-11  5.40216081527846E-02
 cg2d: Sum(rhs),rhsMax =  -8.35277402799761E-11  5.37918776390788E-02
 cg2d: Sum(rhs),rhsMax =  -8.39348590631062E-11  5.35381775209776E-02
 cg2d: Sum(rhs),rhsMax =  -8.43990433097019E-11  5.32606497929065E-02
 cg2d: Sum(rhs),rhsMax =  -8.48965342470365E-11  5.29594450343783E-02
 cg2d: Sum(rhs),rhsMax =  -8.54284420981344E-11  5.26347219930735E-02
 cg2d: Sum(rhs),rhsMax =  -8.59681215104047E-11  5.23285972747456E-02
 cg2d: Sum(rhs),rhsMax =  -8.60539417502082E-11  5.22854701352603E-02
 cg2d: Sum(rhs),rhsMax =  -8.61641868965535E-11  5.22359966831066E-02
 cg2d: Sum(rhs),rhsMax =  -8.63007443285824E-11  5.21804106785207E-02
 cg2d: Sum(rhs),rhsMax =  -8.64267546418773E-11  5.21186422246892E-02
 cg2d: Sum(rhs),rhsMax =  -8.65763016832943E-11  5.20506698739997E-02
 cg2d: Sum(rhs),rhsMax =  -8.67438343377103E-11  5.19764676041238E-02
 cg2d: Sum(rhs),rhsMax =  -8.69285754490079E-11  5.18961622409055E-02
 cg2d: Sum(rhs),rhsMax =  -8.71199778984533E-11  5.18098553020700E-02
 cg2d: Sum(rhs),rhsMax =  -8.73541239343467E-11  5.17176858248023E-02
 cg2d: Sum(rhs),rhsMax =  -8.75853833903761E-11  5.16197287476091E-02
 cg2d: Sum(rhs),rhsMax =  -8.78339623255897E-11  5.15161594261619E-02
 cg2d: Sum(rhs),rhsMax =  -8.80934214464446E-11  5.14069893942760E-02
 cg2d: Sum(rhs),rhsMax =  -8.83463302514542E-11  5.12920435678964E-02
 cg2d: Sum(rhs),rhsMax =  -8.86259954313573E-11  5.11713207758971E-02
 cg2d: Sum(rhs),rhsMax =  -8.89401885473262E-11  5.10449086038816E-02
 cg2d: Sum(rhs),rhsMax =  -8.92526053064557E-11  5.09131000883559E-02
 cg2d: Sum(rhs),rhsMax =  -8.95543639245489E-11  5.07760955552938E-02
 cg2d: Sum(rhs),rhsMax =  -8.98656704606537E-11  5.06339828862861E-02
 cg2d: Sum(rhs),rhsMax =  -9.02236063637929E-11  5.04867748310960E-02
 cg2d: Sum(rhs),rhsMax =  -9.06038577497270E-11  5.03344924497239E-02
 cg2d: Sum(rhs),rhsMax =  -9.09478048427559E-11  5.01769321575635E-02
 cg2d: Sum(rhs),rhsMax =  -9.13518150014170E-11  5.00140396654487E-02
 cg2d: Sum(rhs),rhsMax =  -9.17672604572317E-11  4.98459387042573E-02
 cg2d: Sum(rhs),rhsMax =  -9.21609455417638E-11  4.96727162447477E-02
 cg2d: Sum(rhs),rhsMax =  -9.26025922609597E-11  4.94944172175339E-02
 cg2d: Sum(rhs),rhsMax =  -9.30685528643949E-11  4.93111794906485E-02
 cg2d: Sum(rhs),rhsMax =  -9.35053146022824E-11  4.91232243328340E-02
 cg2d: Sum(rhs),rhsMax =  -9.39842648151057E-11  4.89305676660925E-02
 cg2d: Sum(rhs),rhsMax =  -9.44733180574531E-11  4.87333725896585E-02
 cg2d: Sum(rhs),rhsMax =  -9.49755829537935E-11  4.85316482733353E-02
 cg2d: Sum(rhs),rhsMax =  -9.55180379236253E-11  4.83254252456976E-02
 cg2d: Sum(rhs),rhsMax =  -9.60843626884866E-11  4.81146840618432E-02
 cg2d: Sum(rhs),rhsMax =  -9.66415836245460E-11  4.78994751209713E-02
 cg2d: Sum(rhs),rhsMax =  -9.72202318649806E-11  4.76800173562257E-02
 cg2d: Sum(rhs),rhsMax =  -9.78049863320507E-11  4.74565711022176E-02
 cg2d: Sum(rhs),rhsMax =  -9.83156889233783E-11  4.72292800092333E-02
 cg2d: Sum(rhs),rhsMax =  -9.89085480185281E-11  4.69982602540792E-02
 cg2d: Sum(rhs),rhsMax =  -9.95428184324965E-11  4.67636047069656E-02
 cg2d: Sum(rhs),rhsMax =  -1.00112806933339E-10  4.65252982411760E-02
 cg2d: Sum(rhs),rhsMax =  -1.00705277450430E-10  4.62832890932155E-02
 cg2d: Sum(rhs),rhsMax =  -1.01287422893392E-10  4.60376561727485E-02
 cg2d: Sum(rhs),rhsMax =  -1.01898600668449E-10  4.57885475016119E-02
 cg2d: Sum(rhs),rhsMax =  -1.02509667421202E-10  4.55360864885560E-02
 cg2d: Sum(rhs),rhsMax =  -1.03121844396981E-10  4.52804097337815E-02
 cg2d: Sum(rhs),rhsMax =  -1.03783648341960E-10  4.50216439210550E-02
 cg2d: Sum(rhs),rhsMax =  -1.04437791748069E-10  4.47599642547825E-02
 cg2d: Sum(rhs),rhsMax =  -1.05094100089076E-10  4.44955082539254E-02
 cg2d: Sum(rhs),rhsMax =  -1.05806807759734E-10  4.42283665160096E-02
 cg2d: Sum(rhs),rhsMax =  -1.06535613664249E-10  4.39585834054348E-02
 cg2d: Sum(rhs),rhsMax =  -1.07241049374096E-10  4.36862501938975E-02
 cg2d: Sum(rhs),rhsMax =  -1.07977682350935E-10  4.34114634900478E-02
 cg2d: Sum(rhs),rhsMax =  -1.08785924712862E-10  4.31342245737323E-02
 cg2d: Sum(rhs),rhsMax =  -1.09573544682107E-10  4.28545513015850E-02
 cg2d: Sum(rhs),rhsMax =  -1.10360193206205E-10  4.25726053298997E-02
 cg2d: Sum(rhs),rhsMax =  -1.11135878277935E-10  4.22884705651658E-02
 cg2d: Sum(rhs),rhsMax =  -1.11941622638057E-10  4.20022626374542E-02
 cg2d: Sum(rhs),rhsMax =  -1.12781423089459E-10  4.17143106338574E-02
 cg2d: Sum(rhs),rhsMax =  -1.13634913978533E-10  4.14249080764815E-02
 cg2d: Sum(rhs),rhsMax =  -1.14481694957203E-10  4.11342155155859E-02
 cg2d: Sum(rhs),rhsMax =  -1.15350498250399E-10  4.08422858722125E-02
 cg2d: Sum(rhs),rhsMax =  -1.16196559318826E-10  4.05491447553093E-02
 cg2d: Sum(rhs),rhsMax =  -1.17108760189222E-10  4.02547438195866E-02
 cg2d: Sum(rhs),rhsMax =  -1.18003273819056E-10  3.99591671902948E-02
 cg2d: Sum(rhs),rhsMax =  -1.18986626107542E-10  3.96625846484776E-02
 cg2d: Sum(rhs),rhsMax =  -1.19932563880099E-10  3.93653213274441E-02
 cg2d: Sum(rhs),rhsMax =  -1.17838100388568E-10  4.00965281981737E-02
 cg2d: Sum(rhs),rhsMax =  -1.14065118461681E-10  4.14435418432931E-02
 cg2d: Sum(rhs),rhsMax =  -1.10544573495019E-10  4.27867903467014E-02
 cg2d: Sum(rhs),rhsMax =  -1.07238107283081E-10  4.41256916892645E-02
 cg2d: Sum(rhs),rhsMax =  -1.04169894932227E-10  4.54596665655199E-02
 cg2d: Sum(rhs),rhsMax =  -1.01260833051953E-10  4.67881387104670E-02
 cg2d: Sum(rhs),rhsMax =  -9.85522774499259E-11  4.81105351884302E-02
 cg2d: Sum(rhs),rhsMax =  -9.60071466771240E-11  4.94262866467269E-02
 cg2d: Sum(rhs),rhsMax =  -9.35625465992018E-11  5.07348275393345E-02
 cg2d: Sum(rhs),rhsMax =  -9.12785957929430E-11  5.20355963267088E-02
 cg2d: Sum(rhs),rhsMax =  -8.91025031535264E-11  5.33280356573669E-02
 cg2d: Sum(rhs),rhsMax =  -8.70613026116018E-11  5.46115925353689E-02
 cg2d: Sum(rhs),rhsMax =  -8.51709813787238E-11  5.58857184758659E-02
 cg2d: Sum(rhs),rhsMax =  -8.34131097526836E-11  5.71498696507390E-02
 cg2d: Sum(rhs),rhsMax =  -8.17190759505593E-11  5.84035070171613E-02
 cg2d: Sum(rhs),rhsMax =  -8.01049782062080E-11  5.96460964291462E-02
 cg2d: Sum(rhs),rhsMax =  -7.85844167516814E-11  6.08771087299696E-02
 cg2d: Sum(rhs),rhsMax =  -7.71323560577741E-11  6.20960198205727E-02
 cg2d: Sum(rhs),rhsMax =  -7.57595652878251E-11  6.33023106999026E-02
 cg2d: Sum(rhs),rhsMax =  -7.44462824719960E-11  6.44954674762926E-02
 cg2d: Sum(rhs),rhsMax =  -7.32210403420197E-11  6.56749813497932E-02
 cg2d: Sum(rhs),rhsMax =  -7.20264958786743E-11  6.68403485696066E-02
 cg2d: Sum(rhs),rhsMax =  -7.09041714230807E-11  6.79910703729959E-02
 cg2d: Sum(rhs),rhsMax =  -6.98404667431873E-11  6.91266529127348E-02
 cg2d: Sum(rhs),rhsMax =  -6.87976342561569E-11  7.02466071812936E-02
 cg2d: Sum(rhs),rhsMax =  -6.77995437570189E-11  7.13504489403135E-02
 cg2d: Sum(rhs),rhsMax =  -6.68513022716866E-11  7.24376986632212E-02
 cg2d: Sum(rhs),rhsMax =  -6.59223786669827E-11  7.35078814971972E-02
 cg2d: Sum(rhs),rhsMax =  -6.50950404690320E-11  7.45605272485576E-02
 cg2d: Sum(rhs),rhsMax =  -6.42772501890931E-11  7.55951703933914E-02
 cg2d: Sum(rhs),rhsMax =  -6.34873265070723E-11  7.66113501134475E-02
 cg2d: Sum(rhs),rhsMax =  -6.27330409841420E-11  7.76086103560480E-02
 cg2d: Sum(rhs),rhsMax =  -6.20125062411603E-11  7.85864999163924E-02
 cg2d: Sum(rhs),rhsMax =  -6.13212813860287E-11  7.95445725409519E-02
 cg2d: Sum(rhs),rhsMax =  -6.06751870968480E-11  8.04823870517785E-02
 cg2d: Sum(rhs),rhsMax =  -6.00389737925866E-11  8.13995074934127E-02
 cg2d: Sum(rhs),rhsMax =  -5.94704285816761E-11  8.22955033047626E-02
 cg2d: Sum(rhs),rhsMax =  -5.88786241983996E-11  8.31699495226959E-02
 cg2d: Sum(rhs),rhsMax =  -5.83364467843239E-11  8.40224270229854E-02
 cg2d: Sum(rhs),rhsMax =  -5.78256331706939E-11  8.48525228042507E-02
 cg2d: Sum(rhs),rhsMax =  -5.73755487565109E-11  8.56598303216770E-02
 cg2d: Sum(rhs),rhsMax =  -5.69359004387593E-11  8.64439498771357E-02
 cg2d: Sum(rhs),rhsMax =  -5.64814861547802E-11  8.72044890703257E-02
 cg2d: Sum(rhs),rhsMax =  -5.61137802890244E-11  8.79410633128608E-02
 cg2d: Sum(rhs),rhsMax =  -5.57608403894960E-11  8.86532964075210E-02
 cg2d: Sum(rhs),rhsMax =  -5.53976864381411E-11  8.93408211802930E-02
 cg2d: Sum(rhs),rhsMax =  -5.50551826350443E-11  9.00032801665003E-02
 cg2d: Sum(rhs),rhsMax =  -5.47406564521680E-11  9.06403263439319E-02
 cg2d: Sum(rhs),rhsMax =  -5.44586598039132E-11  9.12516239031858E-02
 cg2d: Sum(rhs),rhsMax =  -5.41702238621156E-11  9.18368490480424E-02
 cg2d: Sum(rhs),rhsMax =  -5.38882272138608E-11  9.23956908134492E-02
 cg2d: Sum(rhs),rhsMax =  -5.36460875721900E-11  9.29278518909031E-02
 cg2d: Sum(rhs),rhsMax =  -5.33988409046060E-11  9.34330494510473E-02
 cg2d: Sum(rhs),rhsMax =  -5.31791277680327E-11  9.39110159527540E-02
 cg2d: Sum(rhs),rhsMax =  -5.29466470666762E-11  9.43614999268704E-02
 cg2d: Sum(rhs),rhsMax =  -5.27633492453106E-11  9.47842667212307E-02
 cg2d: Sum(rhs),rhsMax =  -5.25736121304021E-11  9.51790991917563E-02
 cg2d: Sum(rhs),rhsMax =  -5.24466026163850E-11  9.55457983205997E-02
 cg2d: Sum(rhs),rhsMax =  -5.22608623043652E-11  9.58841837415718E-02
 cg2d: Sum(rhs),rhsMax =  -5.21033216571709E-11  9.61940941735400E-02
 cg2d: Sum(rhs),rhsMax =  -5.20141707482935E-11  9.64753877242403E-02
 cg2d: Sum(rhs),rhsMax =  -5.19110310293058E-11  9.67279420505121E-02
 cg2d: Sum(rhs),rhsMax =  -5.18732834464686E-11  9.69516543654582E-02
 cg2d: Sum(rhs),rhsMax =  -5.18237674995703E-11  9.71464412920995E-02
 cg2d: Sum(rhs),rhsMax =  -5.17824672030542E-11  9.73122385606737E-02
 cg2d: Sum(rhs),rhsMax =  -5.17704767943883E-11  9.74490005663297E-02
 cg2d: Sum(rhs),rhsMax =  -5.17194065352555E-11  9.75566997839757E-02
 cg2d: Sum(rhs),rhsMax =  -5.17463849547539E-11  9.76353260927519E-02
 cg2d: Sum(rhs),rhsMax =  -5.17497156238278E-11  9.76848860417894E-02
 cg2d: Sum(rhs),rhsMax =  -5.17119680409905E-11  9.77054020938048E-02
 cg2d: Sum(rhs),rhsMax =  -5.16802156624863E-11  9.76969118862133E-02
 cg2d: Sum(rhs),rhsMax =  -5.16870990452389E-11  9.76594675502951E-02
 cg2d: Sum(rhs),rhsMax =  -5.16812148632084E-11  9.75931351296785E-02
 cg2d: Sum(rhs),rhsMax =  -5.16801046401838E-11  9.74979941218025E-02
 cg2d: Sum(rhs),rhsMax =  -5.17202947136752E-11  9.73741371731102E-02
 cg2d: Sum(rhs),rhsMax =  -5.17564879842780E-11  9.72216699409198E-02
 cg2d: Sum(rhs),rhsMax =  -5.17882403627823E-11  9.70407111214041E-02
 cg2d: Sum(rhs),rhsMax =  -5.18095566448551E-11  9.68313926310427E-02
 cg2d: Sum(rhs),rhsMax =  -5.18523002313032E-11  9.65938599179142E-02
 cg2d: Sum(rhs),rhsMax =  -5.19565501733155E-11  9.63282723696947E-02
 cg2d: Sum(rhs),rhsMax =  -5.20556930894145E-11  9.60348037777945E-02
 cg2d: Sum(rhs),rhsMax =  -5.22235588107378E-11  9.57136428084883E-02
 cg2d: Sum(rhs),rhsMax =  -5.23566745513904E-11  9.53649934355563E-02
 cg2d: Sum(rhs),rhsMax =  -5.25043342136655E-11  9.49890753092778E-02
 cg2d: Sum(rhs),rhsMax =  -5.26838572767474E-11  9.45861239955344E-02
 cg2d: Sum(rhs),rhsMax =  -5.28592725146382E-11  9.41563910542763E-02
 cg2d: Sum(rhs),rhsMax =  -5.30464561165900E-11  9.37001439369403E-02
 cg2d: Sum(rhs),rhsMax =  -5.32459631941151E-11  9.32176656929493E-02
 cg2d: Sum(rhs),rhsMax =  -5.34833288767800E-11  9.27092544858884E-02
 cg2d: Sum(rhs),rhsMax =  -5.37091482399887E-11  9.21752229239466E-02
 cg2d: Sum(rhs),rhsMax =  -5.40324451847596E-11  9.16158972339259E-02
 cg2d: Sum(rhs),rhsMax =  -5.42796918523436E-11  9.10316163144679E-02
 cg2d: Sum(rhs),rhsMax =  -5.45740119761717E-11  9.04227306867211E-02
 cg2d: Sum(rhs),rhsMax =  -5.49279510764222E-11  8.97896013823716E-02
 cg2d: Sum(rhs),rhsMax =  -5.52619061622295E-11  8.91325988139330E-02
 cg2d: Sum(rhs),rhsMax =  -5.56262813589115E-11  8.84521016539760E-02
 cg2d: Sum(rhs),rhsMax =  -5.60141932837155E-11  8.77484957690986E-02
 cg2d: Sum(rhs),rhsMax =  -5.64541191572232E-11  8.70221732376516E-02
 cg2d: Sum(rhs),rhsMax =  -5.68841085346605E-11  8.62735314710505E-02
 cg2d: Sum(rhs),rhsMax =  -5.73406877535376E-11  8.55029724522834E-02
 cg2d: Sum(rhs),rhsMax =  -5.78183612098826E-11  8.47109021002765E-02
 cg2d: Sum(rhs),rhsMax =  -5.83418313659934E-11  8.38977297790851E-02
 cg2d: Sum(rhs),rhsMax =  -5.88745718843597E-11  8.30638679002522E-02
 cg2d: Sum(rhs),rhsMax =  -5.94317928204191E-11  8.22097316493686E-02
 cg2d: Sum(rhs),rhsMax =  -6.00113847504247E-11  8.13357388321298E-02
 cg2d: Sum(rhs),rhsMax =  -6.06311667539217E-11  8.04423098216971E-02
 cg2d: Sum(rhs),rhsMax =  -6.12524475585019E-11  7.95298675907489E-02
 cg2d: Sum(rhs),rhsMax =  -6.19143625257834E-11  7.85988378121072E-02
 cg2d: Sum(rhs),rhsMax =  -6.26048102247978E-11  7.76496490133861E-02
 cg2d: Sum(rhs),rhsMax =  -6.33280095030386E-11  7.66827327703643E-02
 cg2d: Sum(rhs),rhsMax =  -6.40911768101660E-11  7.56985239316931E-02
 cg2d: Sum(rhs),rhsMax =  -6.48903153432911E-11  7.46974608589478E-02
 cg2d: Sum(rhs),rhsMax =  -6.57370269330215E-11  7.36799856685450E-02
 cg2d: Sum(rhs),rhsMax =  -6.65708044245150E-11  7.26465444648795E-02
 cg2d: Sum(rhs),rhsMax =  -6.74784672582973E-11  7.15975875547982E-02
 cg2d: Sum(rhs),rhsMax =  -6.84158840691396E-11  7.05335696339554E-02
 cg2d: Sum(rhs),rhsMax =  -6.94039825610560E-11  6.94549499375983E-02
 cg2d: Sum(rhs),rhsMax =  -7.04077351976196E-11  6.83621923488227E-02
 cg2d: Sum(rhs),rhsMax =  -7.14628911602233E-11  6.72557654598996E-02
 cg2d: Sum(rhs),rhsMax =  -7.26211313306635E-11  6.61361425852697E-02
 cg2d: Sum(rhs),rhsMax =  -7.37599981093240E-11  6.50038017136939E-02
 cg2d: Sum(rhs),rhsMax =  -7.49900141983062E-11  6.38592254114870E-02
 cg2d: Sum(rhs),rhsMax =  -7.62688245892207E-11  6.27029006662643E-02
 cg2d: Sum(rhs),rhsMax =  -7.76163577853595E-11  6.15353187145171E-02
 cg2d: Sum(rhs),rhsMax =  -7.90417731266757E-11  6.03569748286383E-02
 cg2d: Sum(rhs),rhsMax =  -8.05471800369162E-11  5.91683680674194E-02
 cg2d: Sum(rhs),rhsMax =  -8.20782330990255E-11  5.79700010025807E-02
 cg2d: Sum(rhs),rhsMax =  -8.37085956106876E-11  5.67623794351895E-02
 cg2d: Sum(rhs),rhsMax =  -8.54841752939706E-11  5.55460121152184E-02
 cg2d: Sum(rhs),rhsMax =  -8.72713568078609E-11  5.43214104761621E-02
 cg2d: Sum(rhs),rhsMax =  -8.92324547585588E-11  5.30890883953131E-02
 cg2d: Sum(rhs),rhsMax =  -9.13149555969994E-11  5.18495619889732E-02
 cg2d: Sum(rhs),rhsMax =  -9.34968491517196E-11  5.06033494503256E-02
 cg2d: Sum(rhs),rhsMax =  -9.58137458262343E-11  4.93509709356265E-02
 cg2d: Sum(rhs),rhsMax =  -9.82777192959361E-11  4.80929485017080E-02
 cg2d: Sum(rhs),rhsMax =  -1.00862457275142E-10  4.68298060946505E-02
 cg2d: Sum(rhs),rhsMax =  -1.03616670799056E-10  4.55620695861162E-02
 cg2d: Sum(rhs),rhsMax =  -1.06517239473192E-10  4.42902668506075E-02
 cg2d: Sum(rhs),rhsMax =  -1.09619396893024E-10  4.30149278741209E-02
 cg2d: Sum(rhs),rhsMax =  -1.12907669325146E-10  4.17365848823300E-02
 cg2d: Sum(rhs),rhsMax =  -1.16459744625708E-10  4.04557724753033E-02
 cg2d: Sum(rhs),rhsMax =  -1.15652820653622E-10  4.07076612302496E-02
 cg2d: Sum(rhs),rhsMax =  -1.14671220435847E-10  4.10391408240811E-02
 cg2d: Sum(rhs),rhsMax =  -1.13693775531318E-10  4.13697734950158E-02
 cg2d: Sum(rhs),rhsMax =  -1.12728722190258E-10  4.16995000693141E-02
 cg2d: Sum(rhs),rhsMax =  -1.11793255208603E-10  4.20281747901576E-02
 cg2d: Sum(rhs),rhsMax =  -1.10871117842137E-10  4.23555064393305E-02
 cg2d: Sum(rhs),rhsMax =  -1.09971115547225E-10  4.26814534787469E-02
 cg2d: Sum(rhs),rhsMax =  -1.09083742039218E-10  4.30058760162230E-02
 cg2d: Sum(rhs),rhsMax =  -1.08185516101145E-10  4.33286967779624E-02
 cg2d: Sum(rhs),rhsMax =  -1.07335695886945E-10  4.36498108549102E-02
 cg2d: Sum(rhs),rhsMax =  -1.06490122275815E-10  4.39689972178044E-02
 cg2d: Sum(rhs),rhsMax =  -1.05667891103778E-10  4.42860452511101E-02
 cg2d: Sum(rhs),rhsMax =  -1.04889291696608E-10  4.46008785419012E-02
 cg2d: Sum(rhs),rhsMax =  -1.04097230835265E-10  4.49132566073213E-02
 cg2d: Sum(rhs),rhsMax =  -1.03317576716222E-10  4.52228543426116E-02
 cg2d: Sum(rhs),rhsMax =  -1.02569674975683E-10  4.55292820554258E-02
 cg2d: Sum(rhs),rhsMax =  -1.01811670205620E-10  4.58323864543611E-02
 cg2d: Sum(rhs),rhsMax =  -1.01098185378845E-10  4.61320407626420E-02
 cg2d: Sum(rhs),rhsMax =  -1.00392250068637E-10  4.64281620358402E-02
 cg2d: Sum(rhs),rhsMax =  -9.97303906125069E-11  4.67207409988385E-02
 cg2d: Sum(rhs),rhsMax =  -9.90781345855396E-11  4.70096879830275E-02
 cg2d: Sum(rhs),rhsMax =  -9.84246573132452E-11  4.72949410421452E-02
 cg2d: Sum(rhs),rhsMax =  -9.77912195665454E-11  4.75763578348058E-02
 cg2d: Sum(rhs),rhsMax =  -9.72084635009196E-11  4.78538668559719E-02
 cg2d: Sum(rhs),rhsMax =  -9.66129953816619E-11  4.81271568348127E-02
 cg2d: Sum(rhs),rhsMax =  -9.60405088790139E-11  4.83958157928005E-02
 cg2d: Sum(rhs),rhsMax =  -9.54515355644503E-11  4.86596146267344E-02
 cg2d: Sum(rhs),rhsMax =  -9.49259559845927E-11  4.89183436823126E-02
 cg2d: Sum(rhs),rhsMax =  -9.43870537284397E-11  4.91719663559566E-02
 cg2d: Sum(rhs),rhsMax =  -9.38522592974778E-11  4.94204601971460E-02
 cg2d: Sum(rhs),rhsMax =  -9.33486621335078E-11  4.96637598254735E-02
 cg2d: Sum(rhs),rhsMax =  -9.28398469213221E-11  4.99018675946314E-02
 cg2d: Sum(rhs),rhsMax =  -9.23665588459244E-11  5.01346245212515E-02
 cg2d: Sum(rhs),rhsMax =  -9.19243570152162E-11  5.03618944389259E-02
 cg2d: Sum(rhs),rhsMax =  -9.14954778608035E-11  5.05835740898045E-02
 cg2d: Sum(rhs),rhsMax =  -9.10924669028645E-11  5.07995949109979E-02
 cg2d: Sum(rhs),rhsMax =  -9.06182906490471E-11  5.10098248094314E-02
 cg2d: Sum(rhs),rhsMax =  -9.01780872197833E-11  5.12141075413504E-02
 cg2d: Sum(rhs),rhsMax =  -8.97355523221677E-11  5.14123360506678E-02
 cg2d: Sum(rhs),rhsMax =  -8.93397578138888E-11  5.16045167998821E-02
 cg2d: Sum(rhs),rhsMax =  -8.89515128221774E-11  5.17906172674521E-02
 cg2d: Sum(rhs),rhsMax =  -8.85815865103723E-11  5.19705356086919E-02
 cg2d: Sum(rhs),rhsMax =  -8.81830164445319E-11  5.21442050333843E-02
 cg2d: Sum(rhs),rhsMax =  -8.78231931622508E-11  5.23115320138427E-02
 cg2d: Sum(rhs),rhsMax =  -8.74754713109382E-11  5.24724229319374E-02
 cg2d: Sum(rhs),rhsMax =  -8.71042127315036E-11  5.26267265855642E-02
 cg2d: Sum(rhs),rhsMax =  -8.67983462882194E-11  5.27743509763106E-02
 cg2d: Sum(rhs),rhsMax =  -8.64903704211883E-11  5.29151514403709E-02
 cg2d: Sum(rhs),rhsMax =  -8.61992699441316E-11  5.30490645429894E-02
 cg2d: Sum(rhs),rhsMax =  -8.59288196153329E-11  5.31760650642449E-02
 cg2d: Sum(rhs),rhsMax =  -8.56582582642318E-11  5.32960325120424E-02
 cg2d: Sum(rhs),rhsMax =  -8.54269988082024E-11  5.34088328136503E-02
 cg2d: Sum(rhs),rhsMax =  -8.51406722901515E-11  5.35143817704027E-02
 cg2d: Sum(rhs),rhsMax =  -8.49305070715900E-11  5.36125673555013E-02
 cg2d: Sum(rhs),rhsMax =  -8.47572012574460E-11  5.37034208152165E-02
 cg2d: Sum(rhs),rhsMax =  -8.45684633432597E-11  5.37870823175860E-02
 cg2d: Sum(rhs),rhsMax =  -8.43483061174766E-11  5.38636625103789E-02
 cg2d: Sum(rhs),rhsMax =  -8.41946512508684E-11  5.39330577916382E-02
 cg2d: Sum(rhs),rhsMax =  -8.40543190605558E-11  5.39952012575975E-02
 cg2d: Sum(rhs),rhsMax =  -8.39376346206677E-11  5.40498656356333E-02
 cg2d: Sum(rhs),rhsMax =  -8.38188407570328E-11  5.40970286184934E-02
 cg2d: Sum(rhs),rhsMax =  -8.36983815588610E-11  5.41367607120078E-02
 cg2d: Sum(rhs),rhsMax =  -8.35929103715216E-11  5.41691230060748E-02
 cg2d: Sum(rhs),rhsMax =  -8.35191915626865E-11  5.41941162246349E-02
 cg2d: Sum(rhs),rhsMax =  -8.34331492782781E-11  5.42117392231166E-02
 cg2d: Sum(rhs),rhsMax =  -8.33052515858412E-11  5.42218608223317E-02
 cg2d: Sum(rhs),rhsMax =  -8.32314217547037E-11  5.42243299677747E-02
 cg2d: Sum(rhs),rhsMax =  -8.31968938186378E-11  5.42191510268131E-02
 cg2d: Sum(rhs),rhsMax =  -8.31484880947642E-11  5.42063596871806E-02
 cg2d: Sum(rhs),rhsMax =  -8.31351654184687E-11  5.41859361091051E-02
 cg2d: Sum(rhs),rhsMax =  -8.31470448048321E-11  5.41578301444544E-02
 cg2d: Sum(rhs),rhsMax =  -8.31501534293011E-11  5.41220497420669E-02
 cg2d: Sum(rhs),rhsMax =  -8.32207636136673E-11  5.40785139495071E-02
 cg2d: Sum(rhs),rhsMax =  -8.32618418655784E-11  5.40271196173895E-02
 cg2d: Sum(rhs),rhsMax =  -8.33185742621367E-11  5.39678473165755E-02
 cg2d: Sum(rhs),rhsMax =  -8.33711988335040E-11  5.39006885698954E-02
 cg2d: Sum(rhs),rhsMax =  -8.34590174747518E-11  5.38257856029220E-02
 cg2d: Sum(rhs),rhsMax =  -8.35377322871977E-11  5.37432630331618E-02
 cg2d: Sum(rhs),rhsMax =  -8.36859470609852E-11  5.36530709424420E-02
 cg2d: Sum(rhs),rhsMax =  -8.37687696986222E-11  5.35550441929139E-02
 cg2d: Sum(rhs),rhsMax =  -8.38872304953497E-11  5.34492784662111E-02
 cg2d: Sum(rhs),rhsMax =  -8.40835179261035E-11  5.33358419381337E-02
 cg2d: Sum(rhs),rhsMax =  -8.43453085153101E-11  5.32147020863158E-02
 cg2d: Sum(rhs),rhsMax =  -8.45881142907956E-11  5.30858670421715E-02
 cg2d: Sum(rhs),rhsMax =  -8.48362491367993E-11  5.29494107126714E-02
 cg2d: Sum(rhs),rhsMax =  -8.51133608037458E-11  5.28054449211619E-02
 cg2d: Sum(rhs),rhsMax =  -8.53818127311001E-11  5.26541652229786E-02
 cg2d: Sum(rhs),rhsMax =  -8.56988924269331E-11  5.24955402734222E-02
 cg2d: Sum(rhs),rhsMax =  -8.59804449859780E-11  5.23299465758029E-02
 cg2d: Sum(rhs),rhsMax =  -8.63489280078511E-11  5.21575551465880E-02
 cg2d: Sum(rhs),rhsMax =  -8.66834382051707E-11  5.19784503241983E-02
 cg2d: Sum(rhs),rhsMax =  -8.70374883277236E-11  5.17926785462654E-02
 cg2d: Sum(rhs),rhsMax =  -8.73947580970480E-11  5.16002693536052E-02
 cg2d: Sum(rhs),rhsMax =  -8.78174200025228E-11  5.14012849803997E-02
 cg2d: Sum(rhs),rhsMax =  -8.81960060539200E-11  5.11959508744755E-02
 cg2d: Sum(rhs),rhsMax =  -8.85641560088857E-11  5.09845713796660E-02
 cg2d: Sum(rhs),rhsMax =  -8.89827100891694E-11  5.07670611647846E-02
 cg2d: Sum(rhs),rhsMax =  -8.93989327011013E-11  5.05436271564105E-02
 cg2d: Sum(rhs),rhsMax =  -8.98291441231436E-11  5.03144050747064E-02
 cg2d: Sum(rhs),rhsMax =  -9.02885544107335E-11  5.00795049600639E-02
 cg2d: Sum(rhs),rhsMax =  -9.07898201063517E-11  4.98389906124059E-02
 cg2d: Sum(rhs),rhsMax =  -9.13109587941108E-11  4.95930262032042E-02
 cg2d: Sum(rhs),rhsMax =  -9.18523035409180E-11  4.93416930001066E-02
 cg2d: Sum(rhs),rhsMax =  -9.23903176186514E-11  4.90850801403887E-02
 cg2d: Sum(rhs),rhsMax =  -9.29234467150764E-11  4.88233115442114E-02
 cg2d: Sum(rhs),rhsMax =  -9.35266308843552E-11  4.85563068507013E-02
 cg2d: Sum(rhs),rhsMax =  -9.41327016334981E-11  4.82843588444107E-02
 cg2d: Sum(rhs),rhsMax =  -9.47302236653513E-11  4.80075986069813E-02
 cg2d: Sum(rhs),rhsMax =  -9.53500611799996E-11  4.77260841237276E-02
 cg2d: Sum(rhs),rhsMax =  -9.57146584212865E-11  4.75852862673820E-02
 cg2d: Sum(rhs),rhsMax =  -9.60260759796938E-11  4.74805283838502E-02
 cg2d: Sum(rhs),rhsMax =  -9.63394919395455E-11  4.73696638239670E-02
 cg2d: Sum(rhs),rhsMax =  -9.66556834569587E-11  4.72526738549578E-02
 cg2d: Sum(rhs),rhsMax =  -9.69899716096734E-11  4.71296874934611E-02
 cg2d: Sum(rhs),rhsMax =  -9.73539027171455E-11  4.70009202187569E-02
 cg2d: Sum(rhs),rhsMax =  -9.77214975605989E-11  4.68666739278200E-02
 cg2d: Sum(rhs),rhsMax =  -9.80592274046899E-11  4.67270306041442E-02
 cg2d: Sum(rhs),rhsMax =  -9.84382575452969E-11  4.65821810493554E-02
 cg2d: Sum(rhs),rhsMax =  -9.88440440607974E-11  4.64323443999487E-02
 cg2d: Sum(rhs),rhsMax =  -9.92370630115147E-11  4.62776969426842E-02
 cg2d: Sum(rhs),rhsMax =  -9.97238958078128E-11  4.61184157068915E-02
 cg2d: Sum(rhs),rhsMax =  -1.00165098437799E-10  4.59547389793059E-02
 cg2d: Sum(rhs),rhsMax =  -1.00623509524667E-10  4.57868035828518E-02
 cg2d: Sum(rhs),rhsMax =  -1.01124775220285E-10  4.56147112154138E-02
 cg2d: Sum(rhs),rhsMax =  -1.01570085675462E-10  4.54385168280269E-02
 cg2d: Sum(rhs),rhsMax =  -1.02026609383188E-10  4.52584678766186E-02
 cg2d: Sum(rhs),rhsMax =  -1.02458486139767E-10  4.50745827255371E-02
 cg2d: Sum(rhs),rhsMax =  -1.02938879642522E-10  4.48870042526869E-02
 cg2d: Sum(rhs),rhsMax =  -1.03437924892091E-10  4.46958627911335E-02
 cg2d: Sum(rhs),rhsMax =  -1.03938968543105E-10  4.45014594154459E-02
 cg2d: Sum(rhs),rhsMax =  -1.04481090446029E-10  4.43040103365863E-02
 cg2d: Sum(rhs),rhsMax =  -1.04992348148869E-10  4.41036652048326E-02
 cg2d: Sum(rhs),rhsMax =  -1.05525421734143E-10  4.39005861434662E-02
 cg2d: Sum(rhs),rhsMax =  -1.06048336778741E-10  4.36949081011635E-02
 cg2d: Sum(rhs),rhsMax =  -1.06611608430285E-10  4.34866295242043E-02
 cg2d: Sum(rhs),rhsMax =  -1.07209185973289E-10  4.32757923689564E-02
 cg2d: Sum(rhs),rhsMax =  -1.07800601778507E-10  4.30624314360330E-02
 cg2d: Sum(rhs),rhsMax =  -1.08370090678989E-10  4.28466913911012E-02
 cg2d: Sum(rhs),rhsMax =  -1.08987541214134E-10  4.26287380227634E-02
 cg2d: Sum(rhs),rhsMax =  -1.09612929843905E-10  4.24087219690508E-02
 cg2d: Sum(rhs),rhsMax =  -1.10246090034849E-10  4.21868315150489E-02
 cg2d: Sum(rhs),rhsMax =  -1.10905229444569E-10  4.19633146935135E-02
 cg2d: Sum(rhs),rhsMax =  -1.11579578909726E-10  4.17382628926849E-02
 cg2d: Sum(rhs),rhsMax =  -1.12239634253442E-10  4.15118147274637E-02
 cg2d: Sum(rhs),rhsMax =  -1.12946318964191E-10  4.12840115480944E-02
 cg2d: Sum(rhs),rhsMax =  -1.13606429819058E-10  4.10550581312888E-02
 cg2d: Sum(rhs),rhsMax =  -1.14324466560234E-10  4.08251000128978E-02
 cg2d: Sum(rhs),rhsMax =  -1.15026183022948E-10  4.05943007547452E-02
 cg2d: Sum(rhs),rhsMax =  -1.15748688411799E-10  4.03627707756688E-02
 cg2d: Sum(rhs),rhsMax =  -1.16449766496274E-10  4.01307753531624E-02
 cg2d: Sum(rhs),rhsMax =  -1.17183894532413E-10  3.98983726446897E-02
 cg2d: Sum(rhs),rhsMax =  -1.17948213695929E-10  3.96657116738123E-02
 cg2d: Sum(rhs),rhsMax =  -1.18698878850965E-10  3.94329731902509E-02
 cg2d: Sum(rhs),rhsMax =  -1.19477188559314E-10  3.92003436891591E-02
 cg2d: Sum(rhs),rhsMax =  -1.20261758884688E-10  3.89678368448338E-02
 cg2d: Sum(rhs),rhsMax =  -1.21053986279485E-10  3.87352826972772E-02
 cg2d: Sum(rhs),rhsMax =  -1.19404139353740E-10  3.92900845735796E-02
 cg2d: Sum(rhs),rhsMax =  -1.15760706576040E-10  4.05497300189996E-02
 cg2d: Sum(rhs),rhsMax =  -1.12371750793372E-10  4.18068870919808E-02
 cg2d: Sum(rhs),rhsMax =  -1.09155406935457E-10  4.30608947409876E-02
 cg2d: Sum(rhs),rhsMax =  -1.06140485289785E-10  4.43110890800526E-02
 cg2d: Sum(rhs),rhsMax =  -1.03293568143314E-10  4.55568048928069E-02
 cg2d: Sum(rhs),rhsMax =  -1.00602692842955E-10  4.67973772332873E-02
 cg2d: Sum(rhs),rhsMax =  -9.80752146162445E-11  4.80321431021553E-02
 cg2d: Sum(rhs),rhsMax =  -9.56588697142990E-11  4.92604431912519E-02
 cg2d: Sum(rhs),rhsMax =  -9.33690902371609E-11  5.04816236637119E-02
 cg2d: Sum(rhs),rhsMax =  -9.12772635253134E-11  5.16950379431180E-02
 cg2d: Sum(rhs),rhsMax =  -8.93149998404397E-11  5.29000484816139E-02
 cg2d: Sum(rhs),rhsMax =  -8.74766370451141E-11  5.40960284723465E-02
 cg2d: Sum(rhs),rhsMax =  -8.57038329193927E-11  5.52823634670795E-02
 cg2d: Sum(rhs),rhsMax =  -8.40159053439038E-11  5.64584528563629E-02
 cg2d: Sum(rhs),rhsMax =  -8.24124657405889E-11  5.76237111681943E-02
 cg2d: Sum(rhs),rhsMax =  -8.08645927996565E-11  5.87775691424587E-02
 cg2d: Sum(rhs),rhsMax =  -7.94637133871845E-11  5.99194745435340E-02
 cg2d: Sum(rhs),rhsMax =  -7.80568942815307E-11  6.10488926736283E-02
 cg2d: Sum(rhs),rhsMax =  -7.67664820600089E-11  6.21653065719262E-02
 cg2d: Sum(rhs),rhsMax =  -7.55013274122973E-11  6.32682168900872E-02
 cg2d: Sum(rhs),rhsMax =  -7.43035077910292E-11  6.43571414493973E-02
 cg2d: Sum(rhs),rhsMax =  -7.31658067465446E-11  6.54316145004639E-02
 cg2d: Sum(rhs),rhsMax =  -7.20746795579430E-11  6.64911857217785E-02
 cg2d: Sum(rhs),rhsMax =  -7.10274616899653E-11  6.75354190072335E-02
 cg2d: Sum(rhs),rhsMax =  -7.00394187092002E-11  6.85638911036084E-02
 cg2d: Sum(rhs),rhsMax =  -6.90855705975935E-11  6.95761901676176E-02
 cg2d: Sum(rhs),rhsMax =  -6.81665834889600E-11  7.05719143139957E-02
 cg2d: Sum(rhs),rhsMax =  -6.73156530517360E-11  7.15506702253461E-02
 cg2d: Sum(rhs),rhsMax =  -6.64521215831826E-11  7.25120718897130E-02
 cg2d: Sum(rhs),rhsMax =  -6.56714127522662E-11  7.34557395230991E-02
 cg2d: Sum(rhs),rhsMax =  -6.49184594969654E-11  7.43812987219966E-02
 cg2d: Sum(rhs),rhsMax =  -6.42047526255851E-11  7.52883798765153E-02
 cg2d: Sum(rhs),rhsMax =  -6.35240748891874E-11  7.61766178589293E-02
 cg2d: Sum(rhs),rhsMax =  -6.28747609532354E-11  7.70456519871306E-02
 cg2d: Sum(rhs),rhsMax =  -6.22032980679421E-11  7.78951262477555E-02
 cg2d: Sum(rhs),rhsMax =  -6.16163786659740E-11  7.87246897508886E-02
 cg2d: Sum(rhs),rhsMax =  -6.10397843381350E-11  7.95339973770836E-02
 cg2d: Sum(rhs),rhsMax =  -6.04838956697051E-11  8.03227105743778E-02
 cg2d: Sum(rhs),rhsMax =  -5.99695848535475E-11  8.10904982528750E-02
 cg2d: Sum(rhs),rhsMax =  -5.94535531917018E-11  8.18370377257824E-02
 cg2d: Sum(rhs),rhsMax =  -5.89660542615889E-11  8.25620156477695E-02
 cg2d: Sum(rhs),rhsMax =  -5.85124726448782E-11  8.32651289054013E-02
 cg2d: Sum(rhs),rhsMax =  -5.81193426718585E-11  8.39460854226023E-02
 cg2d: Sum(rhs),rhsMax =  -5.77101144649816E-11  8.46046048432501E-02
 cg2d: Sum(rhs),rhsMax =  -5.73406322423864E-11  8.52404190700023E-02
 cg2d: Sum(rhs),rhsMax =  -5.70369862451514E-11  8.58532726476449E-02
 cg2d: Sum(rhs),rhsMax =  -5.67203506385283E-11  8.64429229864124E-02
 cg2d: Sum(rhs),rhsMax =  -5.64043811657200E-11  8.70091404298637E-02
 cg2d: Sum(rhs),rhsMax =  -5.61333757254090E-11  8.75517081800810E-02
 cg2d: Sum(rhs),rhsMax =  -5.58589285937217E-11  8.80704221030602E-02
 cg2d: Sum(rhs),rhsMax =  -5.56070189894342E-11  8.85650904410264E-02
 cg2d: Sum(rhs),rhsMax =  -5.53747603326826E-11  8.90355334633787E-02
 cg2d: Sum(rhs),rhsMax =  -5.51231282841513E-11  8.94815830912598E-02
 cg2d: Sum(rhs),rhsMax =  -5.49353340595360E-11  8.99030825307665E-02
 cg2d: Sum(rhs),rhsMax =  -5.47418776974951E-11  9.02998859473882E-02
 cg2d: Sum(rhs),rhsMax =  -5.45731793089033E-11  9.06718582037417E-02
 cg2d: Sum(rhs),rhsMax =  -5.43837197497510E-11  9.10188746957179E-02
 cg2d: Sum(rhs),rhsMax =  -5.42504929867960E-11  9.13408212967502E-02
 cg2d: Sum(rhs),rhsMax =  -5.41506839368822E-11  9.16375944064398E-02
 cg2d: Sum(rhs),rhsMax =  -5.40759659273249E-11  9.19091010997567E-02
 cg2d: Sum(rhs),rhsMax =  -5.39476241456782E-11  9.21552593639150E-02
 cg2d: Sum(rhs),rhsMax =  -5.38902256153051E-11  9.23759984012970E-02
 cg2d: Sum(rhs),rhsMax =  -5.38269429029015E-11  9.25712589781382E-02
 cg2d: Sum(rhs),rhsMax =  -5.37809796696820E-11  9.27409937650791E-02
 cg2d: Sum(rhs),rhsMax =  -5.37264677191729E-11  9.28851676338915E-02
 cg2d: Sum(rhs),rhsMax =  -5.36924948946194E-11  9.30037578888251E-02
 cg2d: Sum(rhs),rhsMax =  -5.36554134455969E-11  9.30967543987271E-02
 cg2d: Sum(rhs),rhsMax =  -5.37043742809828E-11  9.31641596008410E-02
 cg2d: Sum(rhs),rhsMax =  -5.36793942629288E-11  9.32059883563461E-02
 cg2d: Sum(rhs),rhsMax =  -5.36830579989100E-11  9.32222676491056E-02
 cg2d: Sum(rhs),rhsMax =  -5.36852784449593E-11  9.32130361334605E-02
 cg2d: Sum(rhs),rhsMax =  -5.37035971248656E-11  9.31783435385400E-02
 cg2d: Sum(rhs),rhsMax =  -5.37458966221038E-11  9.31182499612213E-02
 cg2d: Sum(rhs),rhsMax =  -5.37900834984839E-11  9.30328250807499E-02
 cg2d: Sum(rhs),rhsMax =  -5.38308286834877E-11  9.29221473326963E-02
 cg2d: Sum(rhs),rhsMax =  -5.38429301144561E-11  9.27863030829620E-02
 cg2d: Sum(rhs),rhsMax =  -5.39031042023908E-11  9.26253858420961E-02
 cg2d: Sum(rhs),rhsMax =  -5.39932543119903E-11  9.24394955571315E-02
 cg2d: Sum(rhs),rhsMax =  -5.40982258989686E-11  9.22287380125273E-02
 cg2d: Sum(rhs),rhsMax =  -5.42020872629223E-11  9.19932243557760E-02
 cg2d: Sum(rhs),rhsMax =  -5.43238787287237E-11  9.17330707859320E-02
 cg2d: Sum(rhs),rhsMax =  -5.44768674615170E-11  9.14483984010042E-02
 cg2d: Sum(rhs),rhsMax =  -5.46340750418040E-11  9.11393331962879E-02
 cg2d: Sum(rhs),rhsMax =  -5.47589751320743E-11  9.08060062105812E-02
 cg2d: Sum(rhs),rhsMax =  -5.49593703880191E-11  9.04485538134085E-02
 cg2d: Sum(rhs),rhsMax =  -5.51598211551152E-11  9.00671181232398E-02
 cg2d: Sum(rhs),rhsMax =  -5.53623258348068E-11  8.96618475450211E-02
 cg2d: Sum(rhs),rhsMax =  -5.55879231534107E-11  8.92328974143722E-02
 cg2d: Sum(rhs),rhsMax =  -5.58095791802771E-11  8.87804307360843E-02
 cg2d: Sum(rhs),rhsMax =  -5.60740898158940E-11  8.83046190056021E-02
 cg2d: Sum(rhs),rhsMax =  -5.63142310561204E-11  8.78056431015627E-02
 cg2d: Sum(rhs),rhsMax =  -5.65958946374678E-11  8.72836942309007E-02
 cg2d: Sum(rhs),rhsMax =  -5.68784463972349E-11  8.67389749183016E-02
 cg2d: Sum(rhs),rhsMax =  -5.71728775433655E-11  8.61717000156996E-02
 cg2d: Sum(rhs),rhsMax =  -5.74804093211867E-11  8.55820976984040E-02
 cg2d: Sum(rhs),rhsMax =  -5.78124215167009E-11  8.49704104134757E-02
 cg2d: Sum(rhs),rhsMax =  -5.81556469647637E-11  8.43368957412266E-02
(PID.TID 0000.0001)      cg2d_init_res =   4.32871946320030E-02
(PID.TID 0000.0001)      cg2d_iters(min,last) =      -1      38
(PID.TID 0000.0001)      cg2d_last_res =   5.61410130862640E-14
(PID.TID 0000.0001) // =======================================================
(PID.TID 0000.0001) // Begin MONITOR dynamic field statistics
(PID.TID 0000.0001) // =======================================================
(PID.TID 0000.0001) %MON time_tsnumber                =                  5760
(PID.TID 0000.0001) %MON time_secondsf                =   8.6400000000000E+04
(PID.TID 0000.0001) %MON dynstat_eta_max              =   1.4667650907477E-02
(PID.TID 0000.0001) %MON dynstat_eta_min              =  -1.1371673733078E-02
(PID.TID 0000.0001) %MON dynstat_eta_mean             =   1.0812609237491E-14
(PID.TID 0000.0001) %MON dynstat_eta_sd               =   9.3984023810986E-03
(PID.TID 0000.0001) %MON dynstat_eta_del2             =   3.6007682933153E-05
(PID.TID 0000.0001) %MON dynstat_uvel_max             =   1.0334180498452E+00
(PID.TID 0000.0001) %MON dynstat_uvel_min             =  -1.0607404099898E-01
(PID.TID 0000.0001) %MON dynstat_uvel_mean            =   4.5389436643841E-01
(PID.TID 0000.0001) %MON dynstat_uvel_sd              =   1.2928580930325E-01
(PID.TID 0000.0001) %MON dynstat_uvel_del2            =   5.2980801993910E-04
(PID.TID 0000.0001) %MON dynstat_vvel_max             =   0.0000000000000E+00
(PID.TID 0000.0001) %MON dynstat_vvel_min             =   0.0000000000000E+00
(PID.TID 0000.0001) %MON dynstat_vvel_mean            =   0.0000000000000E+00
(PID.TID 0000.0001) %MON dynstat_vvel_sd              =   0.0000000000000E+00
(PID.TID 0000.0001) %MON dynstat_vvel_del2            =   0.0000000000000E+00
(PID.TID 0000.0001) %MON dynstat_wvel_max             =   2.2119794101874E-02
(PID.TID 0000.0001) %MON dynstat_wvel_min             =  -1.7216163528746E-02
(PID.TID 0000.0001) %MON dynstat_wvel_mean            =   3.5702608918136E-20
(PID.TID 0000.0001) %MON dynstat_wvel_sd              =   2.2164226769413E-03
(PID.TID 0000.0001) %MON dynstat_wvel_del2            =   4.4809597876860E-05
(PID.TID 0000.0001) %MON dynstat_theta_max            =   1.5000000000015E+01
(PID.TID 0000.0001) %MON dynstat_theta_min            =   9.9999999999981E+00
(PID.TID 0000.0001) %MON dynstat_theta_mean           =   1.3984517027835E+01
(PID.TID 0000.0001) %MON dynstat_theta_sd             =   1.8467376298964E+00
(PID.TID 0000.0001) %MON dynstat_theta_del2           =   7.3021343532701E-04
(PID.TID 0000.0001) %MON dynstat_salt_max             =   3.5000000000000E+01
(PID.TID 0000.0001) %MON dynstat_salt_min             =   3.5000000000000E+01
(PID.TID 0000.0001) %MON dynstat_salt_mean            =   3.5000000000000E+01
(PID.TID 0000.0001) %MON dynstat_salt_sd              =   3.0553337637684E-13
(PID.TID 0000.0001) %MON dynstat_salt_del2            =   0.0000000000000E+00
(PID.TID 0000.0001) %MON dynstat_sst_max              =   1.5000000000000E+01
(PID.TID 0000.0001) %MON dynstat_sst_min              =   1.4999999999998E+01
(PID.TID 0000.0001) %MON dynstat_sst_mean             =   1.4999999999999E+01
(PID.TID 0000.0001) %MON dynstat_sst_sd               =   5.4382079037284E-13
(PID.TID 0000.0001) %MON dynstat_sst_del2             =   5.3802672299676E-15
(PID.TID 0000.0001) %MON dynstat_sss_max              =   3.5000000000000E+01
(PID.TID 0000.0001) %MON dynstat_sss_min              =   3.5000000000000E+01
(PID.TID 0000.0001) %MON dynstat_sss_mean             =   3.5000000000000E+01
(PID.TID 0000.0001) %MON dynstat_sss_sd               =   2.8421709430404E-14
(PID.TID 0000.0001) %MON dynstat_sss_del2             =   0.0000000000000E+00
(PID.TID 0000.0001) %MON forcing_qnet_max             =   0.0000000000000E+00
(PID.TID 0000.0001) %MON forcing_qnet_min             =   0.0000000000000E+00
(PID.TID 0000.0001) %MON forcing_qnet_mean            =   0.0000000000000E+00
(PID.TID 0000.0001) %MON forcing_qnet_sd              =   0.0000000000000E+00
(PID.TID 0000.0001) %MON forcing_qnet_del2            =   0.0000000000000E+00
(PID.TID 0000.0001) %MON forcing_qsw_max              =   0.0000000000000E+00
(PID.TID 0000.0001) %MON forcing_qsw_min              =   0.0000000000000E+00
(PID.TID 0000.0001) %MON forcing_qsw_mean             =   0.0000000000000E+00
(PID.TID 0000.0001) %MON forcing_qsw_sd               =   0.0000000000000E+00
(PID.TID 0000.0001) %MON forcing_qsw_del2             =   0.0000000000000E+00
(PID.TID 0000.0001) %MON forcing_empmr_max            =   0.0000000000000E+00
(PID.TID 0000.0001) %MON forcing_empmr_min            =   0.0000000000000E+00
(PID.TID 0000.0001) %MON forcing_empmr_mean           =   0.0000000000000E+00
(PID.TID 0000.0001) %MON forcing_empmr_sd             =   0.0000000000000E+00
(PID.TID 0000.0001) %MON forcing_empmr_del2           =   0.0000000000000E+00
(PID.TID 0000.0001) %MON forcing_fu_max               =   0.0000000000000E+00
(PID.TID 0000.0001) %MON forcing_fu_min               =   0.0000000000000E+00
(PID.TID 0000.0001) %MON forcing_fu_mean              =   0.0000000000000E+00
(PID.TID 0000.0001) %MON forcing_fu_sd                =   0.0000000000000E+00
(PID.TID 0000.0001) %MON forcing_fu_del2              =   0.0000000000000E+00
(PID.TID 0000.0001) %MON forcing_fv_max               =   0.0000000000000E+00
(PID.TID 0000.0001) %MON forcing_fv_min               =   0.0000000000000E+00
(PID.TID 0000.0001) %MON forcing_fv_mean              =   0.0000000000000E+00
(PID.TID 0000.0001) %MON forcing_fv_sd                =   0.0000000000000E+00
(PID.TID 0000.0001) %MON forcing_fv_del2              =   0.0000000000000E+00
(PID.TID 0000.0001) %MON advcfl_uvel_max              =   7.3510139207505E-02
(PID.TID 0000.0001) %MON advcfl_vvel_max              =   0.0000000000000E+00
(PID.TID 0000.0001) %MON advcfl_wvel_max              =   1.2539793489520E-01
(PID.TID 0000.0001) %MON advcfl_W_hf_max              =   1.2676218971306E-01
(PID.TID 0000.0001) %MON pe_b_mean                    =   2.1892299274815E-06
(PID.TID 0000.0001) %MON ke_max                       =   4.5786563554112E-01
(PID.TID 0000.0001) %MON ke_mean                      =   1.1146203043282E-01
(PID.TID 0000.0001) %MON ke_vol                       =   9.6656965507697E+10
(PID.TID 0000.0001) %MON vort_r_min                   =   0.0000000000000E+00
(PID.TID 0000.0001) %MON vort_r_max                   =   0.0000000000000E+00
(PID.TID 0000.0001) %MON vort_a_mean                  =   0.0000000000000E+00
(PID.TID 0000.0001) %MON vort_a_sd                    =   0.0000000000000E+00
(PID.TID 0000.0001) %MON vort_p_mean                  =   0.0000000000000E+00
(PID.TID 0000.0001) %MON vort_p_sd                    =   0.0000000000000E+00
(PID.TID 0000.0001) %MON surfExpan_theta_mean         =   1.1685208125238E-19
(PID.TID 0000.0001) %MON surfExpan_salt_mean          =   2.4636701752493E-18
(PID.TID 0000.0001) // =======================================================
(PID.TID 0000.0001) // End MONITOR dynamic field statistics
(PID.TID 0000.0001) // =======================================================
(PID.TID 0000.0001) // =======================================================
(PID.TID 0000.0001) // Begin OBCS MONITOR field statistics
(PID.TID 0000.0001) // =======================================================
(PID.TID 0000.0001) %MON obc_E_uVel_max               =   4.4822851314926E-01
(PID.TID 0000.0001) %MON obc_E_uVel_min               =   4.4822851314926E-01
(PID.TID 0000.0001) %MON obc_E_uVel_mean              =   4.4822851314926E-01
(PID.TID 0000.0001) %MON obc_E_uVel_sd                =   0.0000000000000E+00
(PID.TID 0000.0001) %MON obc_E_uVel_Int               =   4.4822851314926E+05
(PID.TID 0000.0001) %MON obc_W_uVel_max               =   4.4822851314926E-01
(PID.TID 0000.0001) %MON obc_W_uVel_min               =   4.4822851314926E-01
(PID.TID 0000.0001) %MON obc_W_uVel_mean              =   4.4822851314926E-01
(PID.TID 0000.0001) %MON obc_W_uVel_sd                =   0.0000000000000E+00
(PID.TID 0000.0001) %MON obc_W_uVel_Int               =   4.4822851314926E+05
(PID.TID 0000.0001) // =======================================================
(PID.TID 0000.0001) // End OBCS MONITOR field statistics
(PID.TID 0000.0001) // =======================================================
(PID.TID 0000.0001) %CHECKPOINT      5760 0000005760
 cg2d: Sum(rhs),rhsMax =  -5.86168336091930E-11  8.36818271274777E-02
 cg2d: Sum(rhs),rhsMax =  -5.90074655804074E-11  8.30054944431096E-02
 cg2d: Sum(rhs),rhsMax =  -5.94538307474579E-11  8.23082043293365E-02
 cg2d: Sum(rhs),rhsMax =  -5.99197913508931E-11  8.15902802928148E-02
 cg2d: Sum(rhs),rhsMax =  -6.04164496209592E-11  8.08520625240401E-02
 cg2d: Sum(rhs),rhsMax =  -6.09532979645167E-11  8.00939074239307E-02
 cg2d: Sum(rhs),rhsMax =  -6.15074102761071E-11  7.93161868583443E-02
 cg2d: Sum(rhs),rhsMax =  -6.20635765002930E-11  7.85192871045193E-02
 cg2d: Sum(rhs),rhsMax =  -6.26636520451029E-11  7.77036075696391E-02
 cg2d: Sum(rhs),rhsMax =  -6.32939256561826E-11  7.68695593281692E-02
 cg2d: Sum(rhs),rhsMax =  -6.39642783184513E-11  7.60175635386396E-02
 cg2d: Sum(rhs),rhsMax =  -6.46327991127293E-11  7.51480498044529E-02
 cg2d: Sum(rhs),rhsMax =  -6.53589959931367E-11  7.42614545476318E-02
 cg2d: Sum(rhs),rhsMax =  -6.60985155498395E-11  7.33582194680268E-02
 cg2d: Sum(rhs),rhsMax =  -6.68866073638696E-11  7.24387901554539E-02
 cg2d: Sum(rhs),rhsMax =  -6.77203848553631E-11  7.15036149127147E-02
 cg2d: Sum(rhs),rhsMax =  -6.85665968447324E-11  7.05531438334460E-02
 cg2d: Sum(rhs),rhsMax =  -6.94427293446154E-11  6.95878281624209E-02
 cg2d: Sum(rhs),rhsMax =  -7.03752611741493E-11  6.86081199497177E-02
 cg2d: Sum(rhs),rhsMax =  -7.13220038583984E-11  6.76144719929910E-02
 cg2d: Sum(rhs),rhsMax =  -7.23175408445798E-11  6.66073380514657E-02
 cg2d: Sum(rhs),rhsMax =  -7.33697547161682E-11  6.55871732931285E-02
 cg2d: Sum(rhs),rhsMax =  -7.44366790428330E-11  6.45544349324757E-02
 cg2d: Sum(rhs),rhsMax =  -7.55810414254654E-11  6.35095830128502E-02
 cg2d: Sum(rhs),rhsMax =  -7.67693131287217E-11  6.24530812767946E-02
 cg2d: Sum(rhs),rhsMax =  -7.79744047108011E-11  6.13853980669368E-02
 cg2d: Sum(rhs),rhsMax =  -7.92782506309209E-11  6.03070072023896E-02
 cg2d: Sum(rhs),rhsMax =  -8.06583688728324E-11  5.92183887675631E-02
 cg2d: Sum(rhs),rhsMax =  -8.20903345299939E-11  5.81200298048054E-02
 cg2d: Sum(rhs),rhsMax =  -8.35909674812285E-11  5.70124248465569E-02
 cg2d: Sum(rhs),rhsMax =  -8.51578252358820E-11  5.58960762569010E-02
 cg2d: Sum(rhs),rhsMax =  -8.67922400615839E-11  5.47714943678376E-02
 cg2d: Sum(rhs),rhsMax =  -8.85871653810710E-11  5.36391974052744E-02
 cg2d: Sum(rhs),rhsMax =  -9.04289976233486E-11  5.24997112076794E-02
 cg2d: Sum(rhs),rhsMax =  -9.23011944653496E-11  5.13535687474152E-02
 cg2d: Sum(rhs),rhsMax =  -9.43946587561584E-11  5.02013094712668E-02
 cg2d: Sum(rhs),rhsMax =  -9.65432456201398E-11  4.90434784823847E-02
 cg2d: Sum(rhs),rhsMax =  -9.87348258707499E-11  4.78806255904817E-02
 cg2d: Sum(rhs),rhsMax =  -1.01159247645199E-10  4.67133042602965E-02
 cg2d: Sum(rhs),rhsMax =  -1.03702241238679E-10  4.55420704900675E-02
 cg2d: Sum(rhs),rhsMax =  -1.06390105059084E-10  4.43674816520789E-02
 cg2d: Sum(rhs),rhsMax =  -1.09236966694404E-10  4.31900953265249E-02
 cg2d: Sum(rhs),rhsMax =  -1.12235054583465E-10  4.20104681582655E-02
 cg2d: Sum(rhs),rhsMax =  -1.15487619467558E-10  4.08291547638507E-02
 cg2d: Sum(rhs),rhsMax =  -1.18870146365024E-10  3.96467067120029E-02
 cg2d: Sum(rhs),rhsMax =  -1.22473957624852E-10  3.84636715991790E-02
 cg2d: Sum(rhs),rhsMax =  -1.22554997400437E-10  3.84206633107163E-02
 cg2d: Sum(rhs),rhsMax =  -1.21327517477177E-10  3.87932087793954E-02
 cg2d: Sum(rhs),rhsMax =  -1.20156051774956E-10  3.91644312031537E-02
 cg2d: Sum(rhs),rhsMax =  -1.19014006982887E-10  3.95342541652900E-02
 cg2d: Sum(rhs),rhsMax =  -1.17838544477777E-10  3.99025281809346E-02
 cg2d: Sum(rhs),rhsMax =  -1.16695875185258E-10  4.02689653209654E-02
 cg2d: Sum(rhs),rhsMax =  -1.15554232849036E-10  4.06333774327680E-02
 cg2d: Sum(rhs),rhsMax =  -1.14484449698082E-10  4.09958436891526E-02
 cg2d: Sum(rhs),rhsMax =  -1.13416165348212E-10  4.13562896740749E-02
 cg2d: Sum(rhs),rhsMax =  -1.12361203674638E-10  4.17146464146453E-02
 cg2d: Sum(rhs),rhsMax =  -1.11335607400065E-10  4.20707534047157E-02
 cg2d: Sum(rhs),rhsMax =  -1.10353559623633E-10  4.24244699052756E-02
 cg2d: Sum(rhs),rhsMax =  -1.09386111279974E-10  4.27757245588334E-02
 cg2d: Sum(rhs),rhsMax =  -1.08458797498656E-10  4.31243020378349E-02
 cg2d: Sum(rhs),rhsMax =  -1.07552300399050E-10  4.34701272996239E-02
 cg2d: Sum(rhs),rhsMax =  -1.06645525743687E-10  4.38131031944126E-02
 cg2d: Sum(rhs),rhsMax =  -1.05782105297436E-10  4.41531027138242E-02
 cg2d: Sum(rhs),rhsMax =  -1.04901698438908E-10  4.44898891859508E-02
 cg2d: Sum(rhs),rhsMax =  -1.04054043159607E-10  4.48232302442245E-02
 cg2d: Sum(rhs),rhsMax =  -1.03204889079223E-10  4.51530808767597E-02
 cg2d: Sum(rhs),rhsMax =  -1.02420516512325E-10  4.54793405009704E-02
 cg2d: Sum(rhs),rhsMax =  -1.01674391128626E-10  4.58019739347700E-02
 cg2d: Sum(rhs),rhsMax =  -1.00830899185667E-10  4.61209049481660E-02
 cg2d: Sum(rhs),rhsMax =  -1.00065955521700E-10  4.64360797084010E-02
 cg2d: Sum(rhs),rhsMax =  -9.93968241047583E-11  4.67475797446186E-02
 cg2d: Sum(rhs),rhsMax =  -9.86246639911315E-11  4.70553907903186E-02
 cg2d: Sum(rhs),rhsMax =  -9.78820358099597E-11  4.73594030788972E-02
 cg2d: Sum(rhs),rhsMax =  -9.71619451561878E-11  4.76594717750374E-02
 cg2d: Sum(rhs),rhsMax =  -9.64600621600198E-11  4.79553484794474E-02
 cg2d: Sum(rhs),rhsMax =  -9.57666168588389E-11  4.82468671505587E-02
 cg2d: Sum(rhs),rhsMax =  -9.51334566678952E-11  4.85339574543823E-02
 cg2d: Sum(rhs),rhsMax =  -9.45216127590243E-11  4.88165223819123E-02
 cg2d: Sum(rhs),rhsMax =  -9.39495148344349E-11  4.90944326498673E-02
 cg2d: Sum(rhs),rhsMax =  -9.33265686953177E-11  4.93675246456010E-02
 cg2d: Sum(rhs),rhsMax =  -9.27298238195817E-11  4.96356738328985E-02
 cg2d: Sum(rhs),rhsMax =  -9.21220877359019E-11  4.98988064003950E-02
 cg2d: Sum(rhs),rhsMax =  -9.16245967985674E-11  5.01568746420794E-02
 cg2d: Sum(rhs),rhsMax =  -9.10194142278442E-11  5.04097477855271E-02
 cg2d: Sum(rhs),rhsMax =  -9.05215902236023E-11  5.06574142472507E-02
 cg2d: Sum(rhs),rhsMax =  -8.99996743797260E-11  5.08998084432498E-02
 cg2d: Sum(rhs),rhsMax =  -8.95085117136318E-11  5.11368174757437E-02
 cg2d: Sum(rhs),rhsMax =  -8.89965878769772E-11  5.13683761802230E-02
 cg2d: Sum(rhs),rhsMax =  -8.85487239088434E-11  5.15943784592048E-02
 cg2d: Sum(rhs),rhsMax =  -8.81109629702337E-11  5.18147608197340E-02
 cg2d: Sum(rhs),rhsMax =  -8.76624328682851E-11  5.20294975162647E-02
 cg2d: Sum(rhs),rhsMax =  -8.72564243081797E-11  5.22385197836729E-02
 cg2d: Sum(rhs),rhsMax =  -8.68587424207590E-11  5.24417120317562E-02
 cg2d: Sum(rhs),rhsMax =  -8.64371907383088E-11  5.26389764603277E-02
 cg2d: Sum(rhs),rhsMax =  -8.60256310630803E-11  5.28300758897272E-02
 cg2d: Sum(rhs),rhsMax =  -8.57323101399743E-11  5.30148889561642E-02
 cg2d: Sum(rhs),rhsMax =  -8.53153103719251E-11  5.31934554187725E-02
 cg2d: Sum(rhs),rhsMax =  -8.49941228509010E-11  5.33657973797983E-02
 cg2d: Sum(rhs),rhsMax =  -8.46493986017549E-11  5.35319907440907E-02
 cg2d: Sum(rhs),rhsMax =  -8.43553005225317E-11  5.36919885874815E-02
 cg2d: Sum(rhs),rhsMax =  -8.40454372763588E-11  5.38457180976228E-02
 cg2d: Sum(rhs),rhsMax =  -8.37759861482823E-11  5.39931227882898E-02
 cg2d: Sum(rhs),rhsMax =  -8.35266300569515E-11  5.41341477008165E-02
 cg2d: Sum(rhs),rhsMax =  -8.32872659728423E-11  5.42688296945701E-02
 cg2d: Sum(rhs),rhsMax =  -8.30144841756919E-11  5.43970641941408E-02
 cg2d: Sum(rhs),rhsMax =  -8.27723445340212E-11  5.45186775459903E-02
 cg2d: Sum(rhs),rhsMax =  -8.25848278651620E-11  5.46335912783358E-02
 cg2d: Sum(rhs),rhsMax =  -8.23888735013156E-11  5.47417190284827E-02
 cg2d: Sum(rhs),rhsMax =  -8.22275580958376E-11  5.48431988087849E-02
 cg2d: Sum(rhs),rhsMax =  -8.20732370954147E-11  5.49380412489560E-02
 cg2d: Sum(rhs),rhsMax =  -8.19005974150855E-11  5.50261257363491E-02
 cg2d: Sum(rhs),rhsMax =  -8.17519385520882E-11  5.51072425462578E-02
 cg2d: Sum(rhs),rhsMax =  -8.15914003027274E-11  5.51813832356286E-02
 cg2d: Sum(rhs),rhsMax =  -8.14698308815309E-11  5.52485116594551E-02
 cg2d: Sum(rhs),rhsMax =  -8.13636935603768E-11  5.53085233049273E-02
 cg2d: Sum(rhs),rhsMax =  -8.12619971313211E-11  5.53613287544601E-02
 cg2d: Sum(rhs),rhsMax =  -8.12063749577874E-11  5.54068530397279E-02
 cg2d: Sum(rhs),rhsMax =  -8.11697375979747E-11  5.54449990843695E-02
 cg2d: Sum(rhs),rhsMax =  -8.11291034352735E-11  5.54757066502378E-02
 cg2d: Sum(rhs),rhsMax =  -8.10642664106354E-11  5.54989357081300E-02
 cg2d: Sum(rhs),rhsMax =  -8.10622680091910E-11  5.55146588020772E-02
 cg2d: Sum(rhs),rhsMax =  -8.10358447012050E-11  5.55227959530639E-02
 cg2d: Sum(rhs),rhsMax =  -8.10586042732098E-11  5.55233899843555E-02
 cg2d: Sum(rhs),rhsMax =  -8.10564948494630E-11  5.55164796111146E-02
 cg2d: Sum(rhs),rhsMax =  -8.09953215608061E-11  5.55020074996484E-02
 cg2d: Sum(rhs),rhsMax =  -8.09891043118682E-11  5.54799972607702E-02
 cg2d: Sum(rhs),rhsMax =  -8.10796985106776E-11  5.54503623075795E-02
 cg2d: Sum(rhs),rhsMax =  -8.11776201814496E-11  5.54130662628100E-02
 cg2d: Sum(rhs),rhsMax =  -8.12986344911337E-11  5.53680272605666E-02
 cg2d: Sum(rhs),rhsMax =  -8.14519562908345E-11  5.53150920261044E-02
 cg2d: Sum(rhs),rhsMax =  -8.15798539832713E-11  5.52541622081236E-02
 cg2d: Sum(rhs),rhsMax =  -8.17141909692509E-11  5.51852446905116E-02
 cg2d: Sum(rhs),rhsMax =  -8.18922707424008E-11  5.51083722018762E-02
 cg2d: Sum(rhs),rhsMax =  -8.20555845493232E-11  5.50235935896843E-02
 cg2d: Sum(rhs),rhsMax =  -8.22376611253617E-11  5.49309314182531E-02
 cg2d: Sum(rhs),rhsMax =  -8.24126322740426E-11  5.48304572034503E-02
 cg2d: Sum(rhs),rhsMax =  -8.26523294250592E-11  5.47223102658034E-02
 cg2d: Sum(rhs),rhsMax =  -8.28755952753113E-11  5.46065811778142E-02
 cg2d: Sum(rhs),rhsMax =  -8.30907564974837E-11  5.44834380198132E-02
 cg2d: Sum(rhs),rhsMax =  -8.33263458233091E-11  5.43529674532345E-02
 cg2d: Sum(rhs),rhsMax =  -8.35741476024054E-11  5.42152010621665E-02
 cg2d: Sum(rhs),rhsMax =  -8.38238367606436E-11  5.40701297120871E-02
 cg2d: Sum(rhs),rhsMax =  -8.40841840599182E-11  5.39177788381114E-02
 cg2d: Sum(rhs),rhsMax =  -8.44025960233807E-11  5.37582275779403E-02
 cg2d: Sum(rhs),rhsMax =  -8.46983594371409E-11  5.35915730683338E-02
 cg2d: Sum(rhs),rhsMax =  -8.50295389653866E-11  5.34179057340117E-02
 cg2d: Sum(rhs),rhsMax =  -8.53760395713721E-11  5.32373134353021E-02
 cg2d: Sum(rhs),rhsMax =  -8.57151016830926E-11  5.30499172076019E-02
 cg2d: Sum(rhs),rhsMax =  -8.60518323264614E-11  5.28559533086701E-02
 cg2d: Sum(rhs),rhsMax =  -8.64470717232280E-11  5.26556583215349E-02
 cg2d: Sum(rhs),rhsMax =  -8.68685123833757E-11  5.24491145441013E-02
 cg2d: Sum(rhs),rhsMax =  -8.72747429880860E-11  5.22362918950802E-02
 cg2d: Sum(rhs),rhsMax =  -8.76283490214291E-11  5.20173275093804E-02
 cg2d: Sum(rhs),rhsMax =  -8.81109629702337E-11  5.17924769088035E-02
 cg2d: Sum(rhs),rhsMax =  -8.85438389275350E-11  5.15618924256793E-02
 cg2d: Sum(rhs),rhsMax =  -8.90131302000441E-11  5.13257186990925E-02
 cg2d: Sum(rhs),rhsMax =  -8.94762042236152E-11  5.10839783428312E-02
 cg2d: Sum(rhs),rhsMax =  -8.99674779120119E-11  5.08367930863765E-02
 cg2d: Sum(rhs),rhsMax =  -9.04248897981574E-11  5.05843480916430E-02
 cg2d: Sum(rhs),rhsMax =  -9.09869957155252E-11  5.03266385178184E-02
 cg2d: Sum(rhs),rhsMax =  -9.14941455931739E-11  5.00637102776215E-02
 cg2d: Sum(rhs),rhsMax =  -9.20897802458853E-11  4.97955964490597E-02
 cg2d: Sum(rhs),rhsMax =  -9.26040355508917E-11  4.95223780629725E-02
 cg2d: Sum(rhs),rhsMax =  -9.32155463928552E-11  4.92441184421325E-02
 cg2d: Sum(rhs),rhsMax =  -9.37826483138338E-11  4.89609218338315E-02
 cg2d: Sum(rhs),rhsMax =  -9.43509714801394E-11  4.86729175729544E-02
 cg2d: Sum(rhs),rhsMax =  -9.49326173227405E-11  4.83802723183254E-02
 cg2d: Sum(rhs),rhsMax =  -9.55239221056559E-11  4.80831285308344E-02
 cg2d: Sum(rhs),rhsMax =  -9.61554169620626E-11  4.77815281271965E-02
 cg2d: Sum(rhs),rhsMax =  -9.68333191408988E-11  4.74756403001279E-02
 cg2d: Sum(rhs),rhsMax =  -9.74931246844335E-11  4.71655400308495E-02
 cg2d: Sum(rhs),rhsMax =  -9.82246506353590E-11  4.68514034220098E-02
 cg2d: Sum(rhs),rhsMax =  -9.88746862162770E-11  4.65333954642621E-02
 cg2d: Sum(rhs),rhsMax =  -9.96175364420537E-11  4.62116954820401E-02
 cg2d: Sum(rhs),rhsMax =  -1.00359165422503E-10  4.58864089196143E-02
 cg2d: Sum(rhs),rhsMax =  -1.01123220908050E-10  4.55576202804978E-02
 cg2d: Sum(rhs),rhsMax =  -1.01887831505110E-10  4.52253355268518E-02
 cg2d: Sum(rhs),rhsMax =  -1.02761132936280E-10  4.48895926920561E-02
 cg2d: Sum(rhs),rhsMax =  -1.03547115326563E-10  4.45505145788001E-02
 cg2d: Sum(rhs),rhsMax =  -1.04470654349598E-10  4.42082174692401E-02
 cg2d: Sum(rhs),rhsMax =  -1.05315312026732E-10  4.38630417154049E-02
 cg2d: Sum(rhs),rhsMax =  -1.06223696505481E-10  4.35151501774625E-02
 cg2d: Sum(rhs),rhsMax =  -1.07140907257275E-10  4.31647105199138E-02
 cg2d: Sum(rhs),rhsMax =  -1.08093700657008E-10  4.28122138625933E-02
 cg2d: Sum(rhs),rhsMax =  -1.09050823926538E-10  4.24580894748143E-02
 cg2d: Sum(rhs),rhsMax =  -1.10038977929605E-10  4.21026127861865E-02
 cg2d: Sum(rhs),rhsMax =  -1.11033265914884E-10  4.17459877948200E-02
 cg2d: Sum(rhs),rhsMax =  -1.12033576860071E-10  4.13883758951036E-02
 cg2d: Sum(rhs),rhsMax =  -1.13073245211481E-10  4.10300540877507E-02
 cg2d: Sum(rhs),rhsMax =  -1.14113440918828E-10  4.06712135692006E-02
 cg2d: Sum(rhs),rhsMax =  -1.15185166960075E-10  4.03120535824791E-02
 cg2d: Sum(rhs),rhsMax =  -1.16278681128179E-10  3.99528159941049E-02
 cg2d: Sum(rhs),rhsMax =  -1.17426388057673E-10  3.95935303321084E-02
 cg2d: Sum(rhs),rhsMax =  -1.18584211894479E-10  3.92343145516207E-02
 cg2d: Sum(rhs),rhsMax =  -1.19727949776660E-10  3.88752446446624E-02
 cg2d: Sum(rhs),rhsMax =  -1.20896716249153E-10  3.85165677600357E-02
 cg2d: Sum(rhs),rhsMax =  -1.22089387211144E-10  3.81584194130947E-02
 cg2d: Sum(rhs),rhsMax =  -1.23274451410693E-10  3.78008930904326E-02
 cg2d: Sum(rhs),rhsMax =  -1.21633009220190E-10  3.83319329241365E-02
 cg2d: Sum(rhs),rhsMax =  -1.18189756592724E-10  3.94791354748351E-02
 cg2d: Sum(rhs),rhsMax =  -1.14921877569785E-10  4.06248776341112E-02
 cg2d: Sum(rhs),rhsMax =  -1.11819345449682E-10  4.17686435314137E-02
 cg2d: Sum(rhs),rhsMax =  -1.08913114638121E-10  4.29099160566503E-02
 cg2d: Sum(rhs),rhsMax =  -1.06122888254845E-10  4.40481768698808E-02
 cg2d: Sum(rhs),rhsMax =  -1.03512809435102E-10  4.51829065031538E-02
 cg2d: Sum(rhs),rhsMax =  -1.01135544383624E-10  4.63135845499119E-02
 cg2d: Sum(rhs),rhsMax =  -9.87503134819434E-11  4.74396899311620E-02
 cg2d: Sum(rhs),rhsMax =  -9.65127699981139E-11  4.85607012233344E-02
 cg2d: Sum(rhs),rhsMax =  -9.44466171937108E-11  4.96760970276656E-02
 cg2d: Sum(rhs),rhsMax =  -9.23992549139996E-11  5.07853563769843E-02
 cg2d: Sum(rhs),rhsMax =  -9.05406583040502E-11  5.18879591614440E-02
 cg2d: Sum(rhs),rhsMax =  -8.86600792782133E-11  5.29833865676001E-02
 cg2d: Sum(rhs),rhsMax =  -8.69567196026821E-11  5.40711215315529E-02
 cg2d: Sum(rhs),rhsMax =  -8.53952464296981E-11  5.51506492103462E-02
 cg2d: Sum(rhs),rhsMax =  -8.38249469836683E-11  5.62214574762838E-02
 cg2d: Sum(rhs),rhsMax =  -8.23965340401855E-11  5.72830374372857E-02
 cg2d: Sum(rhs),rhsMax =  -8.09895484010781E-11  5.83348839805062E-02
 cg2d: Sum(rhs),rhsMax =  -7.96336885322546E-11  5.93764963301661E-02
 cg2d: Sum(rhs),rhsMax =  -7.83760834011105E-11  6.04073786034160E-02
 cg2d: Sum(rhs),rhsMax =  -7.71508967822854E-11  6.14270403427068E-02
 cg2d: Sum(rhs),rhsMax =  -7.59906582104009E-11  6.24349969941850E-02
 cg2d: Sum(rhs),rhsMax =  -7.48620054835669E-11  6.34307703049574E-02
 cg2d: Sum(rhs),rhsMax =  -7.38153982382528E-11  6.44138886162591E-02
 cg2d: Sum(rhs),rhsMax =  -7.27624627216983E-11  6.53838870340286E-02
 cg2d: Sum(rhs),rhsMax =  -7.17999548704995E-11  6.63403074695227E-02
 cg2d: Sum(rhs),rhsMax =  -7.08494929391179E-11  6.72826985565413E-02
 cg2d: Sum(rhs),rhsMax =  -6.99580393614951E-11  6.82106154667479E-02
 cg2d: Sum(rhs),rhsMax =  -6.91128265728480E-11  6.91236196584310E-02
 cg2d: Sum(rhs),rhsMax =  -6.83119671940347E-11  7.00212786049192E-02
 cg2d: Sum(rhs),rhsMax =  -6.75234868019459E-11  7.09031655556772E-02
 cg2d: Sum(rhs),rhsMax =  -6.67534916232171E-11  7.17688593847290E-02
 cg2d: Sum(rhs),rhsMax =  -6.60454468892624E-11  7.26179445757119E-02
 cg2d: Sum(rhs),rhsMax =  -6.53562759467263E-11  7.34500113834924E-02
 cg2d: Sum(rhs),rhsMax =  -6.46915299107320E-11  7.42646561979043E-02
 cg2d: Sum(rhs),rhsMax =  -6.40671404816828E-11  7.50614821178971E-02
 cg2d: Sum(rhs),rhsMax =  -6.34698960055857E-11  7.58400997257024E-02
 cg2d: Sum(rhs),rhsMax =  -6.28627150334182E-11  7.66001280316050E-02
 cg2d: Sum(rhs),rhsMax =  -6.23266993571292E-11  7.73411955472708E-02
 cg2d: Sum(rhs),rhsMax =  -6.17887963016983E-11  7.80629414294343E-02
 cg2d: Sum(rhs),rhsMax =  -6.12899730967342E-11  7.87650166302947E-02
 cg2d: Sum(rhs),rhsMax =  -6.08733063955924E-11  7.94470849903548E-02
 cg2d: Sum(rhs),rhsMax =  -6.04198913123355E-11  8.01088242135175E-02
 cg2d: Sum(rhs),rhsMax =  -6.00038352338572E-11  8.07499266750765E-02
 cg2d: Sum(rhs),rhsMax =  -5.96570570721155E-11  8.13701000192186E-02
 cg2d: Sum(rhs),rhsMax =  -5.92794702214405E-11  8.19690675247804E-02
 cg2d: Sum(rhs),rhsMax =  -5.89585047450214E-11  8.25465682349087E-02
 cg2d: Sum(rhs),rhsMax =  -5.86413695380372E-11  8.31023568600760E-02
 cg2d: Sum(rhs),rhsMax =  -5.83588177782701E-11  8.36362034785970E-02
 cg2d: Sum(rhs),rhsMax =  -5.80743231282099E-11  8.41478930711777E-02
 cg2d: Sum(rhs),rhsMax =  -5.78035397325039E-11  8.46372249343664E-02
 cg2d: Sum(rhs),rhsMax =  -5.75535730185095E-11  8.51040120234187E-02
 cg2d: Sum(rhs),rhsMax =  -5.72972780332748E-11  8.55480802780176E-02
 cg2d: Sum(rhs),rhsMax =  -5.71082625633323E-11  8.59692679792050E-02
 cg2d: Sum(rhs),rhsMax =  -5.68992630789467E-11  8.63674251824394E-02
 cg2d: Sum(rhs),rhsMax =  -5.66874880369994E-11  8.67424132581473E-02
 cg2d: Sum(rhs),rhsMax =  -5.65127944440746E-11  8.70941045828454E-02
 cg2d: Sum(rhs),rhsMax =  -5.63299407119189E-11  8.74223823920971E-02
 cg2d: Sum(rhs),rhsMax =  -5.61704016632802E-11  8.77271407962734E-02
 cg2d: Sum(rhs),rhsMax =  -5.60228530233076E-11  8.80082849566968E-02
 cg2d: Sum(rhs),rhsMax =  -5.59030599589505E-11  8.82657314096358E-02
 cg2d: Sum(rhs),rhsMax =  -5.57749957330600E-11  8.84994085180383E-02
 cg2d: Sum(rhs),rhsMax =  -5.56699686349305E-11  8.87092570223829E-02
 cg2d: Sum(rhs),rhsMax =  -5.55929191570215E-11  8.88952306293154E-02
 cg2d: Sum(rhs),rhsMax =  -5.55376855615464E-11  8.90572966168026E-02
 cg2d: Sum(rhs),rhsMax =  -5.55209767050258E-11  8.91954364091044E-02
 cg2d: Sum(rhs),rhsMax =  -5.54810086761393E-11  8.93096460673087E-02
 cg2d: Sum(rhs),rhsMax =  -5.54604140390325E-11  8.93999366483384E-02
 cg2d: Sum(rhs),rhsMax =  -5.54332135749291E-11  8.94663343936723E-02
 cg2d: Sum(rhs),rhsMax =  -5.53653789481245E-11  8.95088807134578E-02
 cg2d: Sum(rhs),rhsMax =  -5.53257994972967E-11  8.95276319441954E-02
 cg2d: Sum(rhs),rhsMax =  -5.52730639036270E-11  8.95226588616985E-02
 cg2d: Sum(rhs),rhsMax =  -5.53067591724243E-11  8.94940459570347E-02
 cg2d: Sum(rhs),rhsMax =  -5.53119772206401E-11  8.94418904927793E-02
 cg2d: Sum(rhs),rhsMax =  -5.53667112157541E-11  8.93663013681347E-02
 cg2d: Sum(rhs),rhsMax =  -5.53864176744412E-11  8.92673978354076E-02
 cg2d: Sum(rhs),rhsMax =  -5.54729040480595E-11  8.91453081204545E-02
 cg2d: Sum(rhs),rhsMax =  -5.55204215935134E-11  8.90001680077114E-02
 cg2d: Sum(rhs),rhsMax =  -5.56215073999056E-11  8.88321194475282E-02
 cg2d: Sum(rhs),rhsMax =  -5.56807933094206E-11  8.86413092633050E-02
 cg2d: Sum(rhs),rhsMax =  -5.57851542737353E-11  8.84278880161590E-02
 cg2d: Sum(rhs),rhsMax =  -5.59057244942096E-11  8.81920090666167E-02
 cg2d: Sum(rhs),rhsMax =  -5.60220758671903E-11  8.79338278751743E-02
 cg2d: Sum(rhs),rhsMax =  -5.61576340984971E-11  8.76535015701213E-02
 cg2d: Sum(rhs),rhsMax =  -5.63196711489411E-11  8.73511887951189E-02
 cg2d: Sum(rhs),rhsMax =  -5.64887026044403E-11  8.70270498324103E-02
 cg2d: Sum(rhs),rhsMax =  -5.66829916337497E-11  8.66812469821528E-02
 cg2d: Sum(rhs),rhsMax =  -5.68564084701961E-11  8.63139451642853E-02
 cg2d: Sum(rhs),rhsMax =  -5.70675728894798E-11  8.59253126990638E-02
 cg2d: Sum(rhs),rhsMax =  -5.72801805986956E-11  8.55155222156631E-02
 cg2d: Sum(rhs),rhsMax =  -5.75150482795550E-11  8.50847516373436E-02
 cg2d: Sum(rhs),rhsMax =  -5.77620729025341E-11  8.46331851769592E-02
 cg2d: Sum(rhs),rhsMax =  -5.80470671529554E-11  8.41610143021380E-02
 cg2d: Sum(rhs),rhsMax =  -5.83112447216649E-11  8.36684386228194E-02
 cg2d: Sum(rhs),rhsMax =  -5.86050652451320E-11  8.31556666537708E-02
 cg2d: Sum(rhs),rhsMax =  -5.89451265575747E-11  8.26229164468324E-02
 cg2d: Sum(rhs),rhsMax =  -5.92826343570607E-11  8.20704160605405E-02
 cg2d: Sum(rhs),rhsMax =  -5.96663274343712E-11  8.14984038598800E-02
 cg2d: Sum(rhs),rhsMax =  -6.00450245080708E-11  8.09071286542239E-02
 cg2d: Sum(rhs),rhsMax =  -6.04273853177517E-11  8.02968496887754E-02
 cg2d: Sum(rhs),rhsMax =  -6.08297301418759E-11  7.96678365128625E-02
 cg2d: Sum(rhs),rhsMax =  -6.12269679400868E-11  7.90203687527134E-02
 cg2d: Sum(rhs),rhsMax =  -6.17156326043755E-11  7.83547358180903E-02
 cg2d: Sum(rhs),rhsMax =  -6.22325524446410E-11  7.76712365716525E-02
 cg2d: Sum(rhs),rhsMax =  -6.27461416158326E-11  7.69701789871033E-02
 cg2d: Sum(rhs),rhsMax =  -6.32836560932049E-11  7.62518798177360E-02
 cg2d: Sum(rhs),rhsMax =  -6.38317176893111E-11  7.55166643073827E-02
 cg2d: Sum(rhs),rhsMax =  -6.44476694233731E-11  7.47648659113315E-02
 cg2d: Sum(rhs),rhsMax =  -6.50744458319252E-11  7.39968260556192E-02
 cg2d: Sum(rhs),rhsMax =  -6.57184862085103E-11  7.32128939356682E-02
 cg2d: Sum(rhs),rhsMax =  -6.63879506923593E-11  7.24134263408741E-02
 cg2d: Sum(rhs),rhsMax =  -6.71098732141218E-11  7.15987874878598E-02
 cg2d: Sum(rhs),rhsMax =  -6.78338496484798E-11  7.07693488446031E-02
 cg2d: Sum(rhs),rhsMax =  -6.85654311105566E-11  6.99254889294533E-02
 cg2d: Sum(rhs),rhsMax =  -6.93796686768167E-11  6.90675930722336E-02
 cg2d: Sum(rhs),rhsMax =  -7.01725899610040E-11  6.81960531286976E-02
 cg2d: Sum(rhs),rhsMax =  -7.10479453047697E-11  6.73112671453864E-02
 cg2d: Sum(rhs),rhsMax =  -7.19726500619799E-11  6.64136389757521E-02
 cg2d: Sum(rhs),rhsMax =  -7.28865856558514E-11  6.55035778472810E-02
 cg2d: Sum(rhs),rhsMax =  -7.38520911092166E-11  6.45814978975389E-02
 cg2d: Sum(rhs),rhsMax =  -7.48618389501132E-11  6.36478176927627E-02
 cg2d: Sum(rhs),rhsMax =  -7.59278750983583E-11  6.27029597447507E-02
 cg2d: Sum(rhs),rhsMax =  -7.70408736805450E-11  6.17473500427129E-02
 cg2d: Sum(rhs),rhsMax =  -7.82094389251142E-11  6.07814176169277E-02
 cg2d: Sum(rhs),rhsMax =  -7.94052046337868E-11  5.98055941479098E-02
 cg2d: Sum(rhs),rhsMax =  -8.06339439662906E-11  5.88203136334028E-02
 cg2d: Sum(rhs),rhsMax =  -8.20030154891072E-11  5.78260121218765E-02
 cg2d: Sum(rhs),rhsMax =  -8.33289548474170E-11  5.68231275125457E-02
 cg2d: Sum(rhs),rhsMax =  -8.48055514701684E-11  5.58120994246024E-02
 cg2d: Sum(rhs),rhsMax =  -8.63560889463599E-11  5.47933691451867E-02
 cg2d: Sum(rhs),rhsMax =  -8.79629424854755E-11  5.37673796244908E-02
 cg2d: Sum(rhs),rhsMax =  -8.96737128996961E-11  5.27345755072557E-02
 cg2d: Sum(rhs),rhsMax =  -9.14282816122380E-11  5.16954031881163E-02
 cg2d: Sum(rhs),rhsMax =  -9.32728894120771E-11  5.06503108765450E-02
 cg2d: Sum(rhs),rhsMax =  -9.51978496033234E-11  4.95997486561383E-02
 cg2d: Sum(rhs),rhsMax =  -9.72335822968518E-11  4.85441685237177E-02
 cg2d: Sum(rhs),rhsMax =  -9.93343740596231E-11  4.74840243963686E-02
 cg2d: Sum(rhs),rhsMax =  -1.01568559118803E-10  4.64197720787431E-02
 cg2d: Sum(rhs),rhsMax =  -1.03933084361074E-10  4.53518691880305E-02
 cg2d: Sum(rhs),rhsMax =  -1.06379835496107E-10  4.42807750392337E-02
 cg2d: Sum(rhs),rhsMax =  -1.08937338316739E-10  4.32069504981060E-02
 cg2d: Sum(rhs),rhsMax =  -1.11662012969305E-10  4.21308578127970E-02
 cg2d: Sum(rhs),rhsMax =  -1.12424528020405E-10  4.18298260426730E-02
 cg2d: Sum(rhs),rhsMax =  -1.11626844920276E-10  4.21018475772013E-02
 cg2d: Sum(rhs),rhsMax =  -1.10850262996509E-10  4.23718427078342E-02
 cg2d: Sum(rhs),rhsMax =  -1.10102718609006E-10  4.26397467041765E-02
 cg2d: Sum(rhs),rhsMax =  -1.09395381642230E-10  4.29054811556922E-02
 cg2d: Sum(rhs),rhsMax =  -1.08684325428321E-10  4.31689194061491E-02
 cg2d: Sum(rhs),rhsMax =  -1.07969674867370E-10  4.34299593595734E-02
 cg2d: Sum(rhs),rhsMax =  -1.07289760409301E-10  4.36883747972501E-02
 cg2d: Sum(rhs),rhsMax =  -1.06556069523478E-10  4.39439847510316E-02
 cg2d: Sum(rhs),rhsMax =  -1.05890657353669E-10  4.41966750838218E-02
 cg2d: Sum(rhs),rhsMax =  -1.05184472243280E-10  4.44463512646298E-02
 cg2d: Sum(rhs),rhsMax =  -1.04481562290815E-10  4.46928954749978E-02
 cg2d: Sum(rhs),rhsMax =  -1.03784564275955E-10  4.49361422164378E-02
 cg2d: Sum(rhs),rhsMax =  -1.03161146292052E-10  4.51760258933200E-02
 cg2d: Sum(rhs),rhsMax =  -1.02499120302468E-10  4.54124821129762E-02
 cg2d: Sum(rhs),rhsMax =  -1.01876396207956E-10  4.56453821623131E-02
 cg2d: Sum(rhs),rhsMax =  -1.01265051899446E-10  4.58745223393979E-02
 cg2d: Sum(rhs),rhsMax =  -1.00676078584883E-10  4.60998349176226E-02
 cg2d: Sum(rhs),rhsMax =  -1.00092600874291E-10  4.63212485188654E-02
 cg2d: Sum(rhs),rhsMax =  -9.95168947248715E-11  4.65386774886325E-02
 cg2d: Sum(rhs),rhsMax =  -9.89825443831194E-11  4.67520693674448E-02
 cg2d: Sum(rhs),rhsMax =  -9.84106685031350E-11  4.69613367556215E-02
 cg2d: Sum(rhs),rhsMax =  -9.78701009124450E-11  4.71663553958181E-02
 cg2d: Sum(rhs),rhsMax =  -9.73045533037009E-11  4.73669805960115E-02
 cg2d: Sum(rhs),rhsMax =  -9.67909641325093E-11  4.75631854960944E-02
 cg2d: Sum(rhs),rhsMax =  -9.63084056948560E-11  4.77549204892777E-02
 cg2d: Sum(rhs),rhsMax =  -9.58564339015311E-11  4.79421033969820E-02
 cg2d: Sum(rhs),rhsMax =  -9.53697121275354E-11  4.81246490204501E-02
 cg2d: Sum(rhs),rhsMax =  -9.48678913204049E-11  4.83024263226264E-02
 cg2d: Sum(rhs),rhsMax =  -9.44435640803931E-11  4.84753292679538E-02
 cg2d: Sum(rhs),rhsMax =  -9.40315603159547E-11  4.86431296284529E-02
 cg2d: Sum(rhs),rhsMax =  -9.36385413652374E-11  4.88057171070446E-02
 cg2d: Sum(rhs),rhsMax =  -9.32289800914532E-11  4.89631392459692E-02
 cg2d: Sum(rhs),rhsMax =  -9.28618293372097E-11  4.91153640708581E-02
 cg2d: Sum(rhs),rhsMax =  -9.25004517426942E-11  4.92623114859354E-02
 cg2d: Sum(rhs),rhsMax =  -9.21218656912970E-11  4.94038946036139E-02
 cg2d: Sum(rhs),rhsMax =  -9.18056741738837E-11  4.95400222467979E-02
 cg2d: Sum(rhs),rhsMax =  -9.14496256498865E-11  4.96706200107404E-02
 cg2d: Sum(rhs),rhsMax =  -9.11807296333222E-11  4.97956800441766E-02
 cg2d: Sum(rhs),rhsMax =  -9.08961794721108E-11  4.99151444825632E-02
 cg2d: Sum(rhs),rhsMax =  -9.05837627129813E-11  5.00287911587905E-02
 cg2d: Sum(rhs),rhsMax =  -9.03730423829074E-11  5.01367063304308E-02
 cg2d: Sum(rhs),rhsMax =  -9.01423380383903E-11  5.02389167926778E-02
 cg2d: Sum(rhs),rhsMax =  -8.98809915383936E-11  5.03355103480848E-02
 cg2d: Sum(rhs),rhsMax =  -8.96493990154568E-11  5.04265952261900E-02
 cg2d: Sum(rhs),rhsMax =  -8.94406770868272E-11  5.05124240590563E-02
 cg2d: Sum(rhs),rhsMax =  -8.92181883926924E-11  5.05933112810348E-02
 cg2d: Sum(rhs),rhsMax =  -8.90374440842834E-11  5.06692720193013E-02
 cg2d: Sum(rhs),rhsMax =  -8.88431550549740E-11  5.07402269243257E-02
 cg2d: Sum(rhs),rhsMax =  -8.86964945934210E-11  5.08062465261315E-02
 cg2d: Sum(rhs),rhsMax =  -8.85487239088434E-11  5.08673069719843E-02
 cg2d: Sum(rhs),rhsMax =  -8.83882966817851E-11  5.09235143680192E-02
 cg2d: Sum(rhs),rhsMax =  -8.82259820755849E-11  5.09748346956170E-02
 cg2d: Sum(rhs),rhsMax =  -8.80558959082123E-11  5.10211832096760E-02
 cg2d: Sum(rhs),rhsMax =  -8.79868400360806E-11  5.10624561143440E-02
 cg2d: Sum(rhs),rhsMax =  -8.78481731803049E-11  5.10986158426374E-02
 cg2d: Sum(rhs),rhsMax =  -8.77612427174768E-11  5.11296172358311E-02
 cg2d: Sum(rhs),rhsMax =  -8.76739791877412E-11  5.11553751153919E-02
 cg2d: Sum(rhs),rhsMax =  -8.75556294133162E-11  5.11758014586520E-02
 cg2d: Sum(rhs),rhsMax =  -8.74278427431818E-11  5.11907389272937E-02
 cg2d: Sum(rhs),rhsMax =  -8.73351391206256E-11  5.12002509918900E-02
 cg2d: Sum(rhs),rhsMax =  -8.72228955728360E-11  5.12042678336476E-02
 cg2d: Sum(rhs),rhsMax =  -8.71096528243243E-11  5.12027525846167E-02
 cg2d: Sum(rhs),rhsMax =  -8.70438165989640E-11  5.11956693316687E-02
 cg2d: Sum(rhs),rhsMax =  -8.70020722132381E-11  5.11830798220121E-02
 cg2d: Sum(rhs),rhsMax =  -8.69545546677841E-11  5.11649891643031E-02
 cg2d: Sum(rhs),rhsMax =  -8.69146976612001E-11  5.11413393097356E-02
 cg2d: Sum(rhs),rhsMax =  -8.68898286654485E-11  5.11121248150558E-02
 cg2d: Sum(rhs),rhsMax =  -8.68333183134951E-11  5.11116649396938E-02
 cg2d: Sum(rhs),rhsMax =  -8.65931770732686E-11  5.12457369811368E-02
 cg2d: Sum(rhs),rhsMax =  -8.63151772279025E-11  5.13724149926277E-02
 cg2d: Sum(rhs),rhsMax =  -8.60729265639293E-11  5.14916728549528E-02
 cg2d: Sum(rhs),rhsMax =  -8.58216830934566E-11  5.16035479997524E-02
 cg2d: Sum(rhs),rhsMax =  -8.55095994012345E-11  5.17080410577909E-02
 cg2d: Sum(rhs),rhsMax =  -8.52033998910429E-11  5.18051420197565E-02
 cg2d: Sum(rhs),rhsMax =  -8.50290948761767E-11  5.18948562944995E-02
 cg2d: Sum(rhs),rhsMax =  -8.48268122410900E-11  5.19771710176852E-02
 cg2d: Sum(rhs),rhsMax =  -8.46172021340408E-11  5.20521515945591E-02
 cg2d: Sum(rhs),rhsMax =  -8.44689873602533E-11  5.21198662815204E-02
 cg2d: Sum(rhs),rhsMax =  -8.43612957268647E-11  5.21801522356236E-02
 cg2d: Sum(rhs),rhsMax =  -8.42237390941136E-11  5.22330439378189E-02
 cg2d: Sum(rhs),rhsMax =  -8.40671976476415E-11  5.22785641204729E-02
 cg2d: Sum(rhs),rhsMax =  -8.40276737079648E-11  5.23168460318072E-02
 cg2d: Sum(rhs),rhsMax =  -8.40407743396554E-11  5.23480137680005E-02
 cg2d: Sum(rhs),rhsMax =  -8.40405522950505E-11  5.23720330756672E-02
 cg2d: Sum(rhs),rhsMax =  -8.40176817007432E-11  5.23889432906097E-02
 cg2d: Sum(rhs),rhsMax =  -8.40196801021875E-11  5.23987780075834E-02
 cg2d: Sum(rhs),rhsMax =  -8.40136848978545E-11  5.24015559768517E-02
 cg2d: Sum(rhs),rhsMax =  -8.40593150641666E-11  5.23973216503792E-02
 cg2d: Sum(rhs),rhsMax =  -8.41020586506147E-11  5.23860983822617E-02
 cg2d: Sum(rhs),rhsMax =  -8.41563485565189E-11  5.23680084394789E-02
 cg2d: Sum(rhs),rhsMax =  -8.42044212134851E-11  5.23429256679789E-02
 cg2d: Sum(rhs),rhsMax =  -8.43239922332373E-11  5.23107763197151E-02
 cg2d: Sum(rhs),rhsMax =  -8.44229131047314E-11  5.22715780885864E-02
 cg2d: Sum(rhs),rhsMax =  -8.46044345692576E-11  5.22253726212609E-02
 cg2d: Sum(rhs),rhsMax =  -8.47545367221869E-11  5.21722007884286E-02
 cg2d: Sum(rhs),rhsMax =  -8.48791037455499E-11  5.21122255887068E-02
 cg2d: Sum(rhs),rhsMax =  -8.50073345048941E-11  5.20455963455929E-02
 cg2d: Sum(rhs),rhsMax =  -8.51938519730311E-11  5.19725082345027E-02
 cg2d: Sum(rhs),rhsMax =  -8.53396242561644E-11  5.18932038276107E-02
 cg2d: Sum(rhs),rhsMax =  -8.55266968358137E-11  5.18077463024249E-02
 cg2d: Sum(rhs),rhsMax =  -8.57360848982580E-11  5.17161813558077E-02
 cg2d: Sum(rhs),rhsMax =  -8.59071702663528E-11  5.16185606651957E-02
 cg2d: Sum(rhs),rhsMax =  -8.61500870641407E-11  5.15149762533479E-02
 cg2d: Sum(rhs),rhsMax =  -8.63900062597622E-11  5.14054053414175E-02
 cg2d: Sum(rhs),rhsMax =  -8.66532401389009E-11  5.12898837474601E-02
 cg2d: Sum(rhs),rhsMax =  -8.68924932007076E-11  5.11685250876745E-02
 cg2d: Sum(rhs),rhsMax =  -8.71687166892343E-11  5.10413208559003E-02
 cg2d: Sum(rhs),rhsMax =  -8.74713634857471E-11  5.09083568266253E-02
 cg2d: Sum(rhs),rhsMax =  -8.77318218073242E-11  5.07697391742287E-02
 cg2d: Sum(rhs),rhsMax =  -8.80424622096143E-11  5.06255312200928E-02
 cg2d: Sum(rhs),rhsMax =  -8.83888517932974E-11  5.04757507613768E-02
 cg2d: Sum(rhs),rhsMax =  -8.87221407452898E-11  5.03204890802783E-02
 cg2d: Sum(rhs),rhsMax =  -8.90298945677159E-11  5.01600761181663E-02
 cg2d: Sum(rhs),rhsMax =  -8.94496698933267E-11  4.99947095010310E-02
 cg2d: Sum(rhs),rhsMax =  -8.97913965403063E-11  4.98244752485188E-02
 cg2d: Sum(rhs),rhsMax =  -9.01811958442522E-11  4.96494849942003E-02
 cg2d: Sum(rhs),rhsMax =  -9.05695518582661E-11  4.94697166880660E-02
 cg2d: Sum(rhs),rhsMax =  -9.09949893213025E-11  4.92852159930327E-02
 cg2d: Sum(rhs),rhsMax =  -9.14454068023929E-11  4.90960968485092E-02
 cg2d: Sum(rhs),rhsMax =  -9.18708442654292E-11  4.89025108698255E-02
 cg2d: Sum(rhs),rhsMax =  -9.23036092004281E-11  4.87046073532690E-02
 cg2d: Sum(rhs),rhsMax =  -9.27452559196240E-11  4.85025210294217E-02
 cg2d: Sum(rhs),rhsMax =  -9.32554033994393E-11  4.82963162676550E-02
 cg2d: Sum(rhs),rhsMax =  -9.37803168454820E-11  4.80860989643159E-02
 cg2d: Sum(rhs),rhsMax =  -9.42834699202422E-11  4.78721682741457E-02
 cg2d: Sum(rhs),rhsMax =  -9.47807388129718E-11  4.76546881971536E-02
 cg2d: Sum(rhs),rhsMax =  -9.52785073060625E-11  4.74338640296281E-02
 cg2d: Sum(rhs),rhsMax =  -9.57842694049305E-11  4.72098266198955E-02
 cg2d: Sum(rhs),rhsMax =  -9.63100710293929E-11  4.69826391784329E-02
 cg2d: Sum(rhs),rhsMax =  -9.68399804790465E-11  4.67523017575427E-02
 cg2d: Sum(rhs),rhsMax =  -9.74654246199691E-11  4.65188931065635E-02
 cg2d: Sum(rhs),rhsMax =  -9.80779346626548E-11  4.62825400867693E-02
 cg2d: Sum(rhs),rhsMax =  -9.86960513316149E-11  4.60433690801310E-02
 cg2d: Sum(rhs),rhsMax =  -9.93221616063522E-11  4.58014730152023E-02
 cg2d: Sum(rhs),rhsMax =  -9.99757499009490E-11  4.55569289289407E-02
 cg2d: Sum(rhs),rhsMax =  -1.00621289078617E-10  4.53099487371158E-02
 cg2d: Sum(rhs),rhsMax =  -1.01219865822344E-10  4.50607142029915E-02
 cg2d: Sum(rhs),rhsMax =  -1.01822716924715E-10  4.48093295899678E-02
(PID.TID 0000.0001)      cg2d_init_res =   1.19941917832008E-01
(PID.TID 0000.0001)      cg2d_iters(min,last) =      -1      39
(PID.TID 0000.0001)      cg2d_last_res =   4.49279495107810E-14
(PID.TID 0000.0001) // =======================================================
(PID.TID 0000.0001) // Begin MONITOR dynamic field statistics
(PID.TID 0000.0001) // =======================================================
(PID.TID 0000.0001) %MON time_tsnumber                =                  6240
(PID.TID 0000.0001) %MON time_secondsf                =   9.3600000000000E+04
(PID.TID 0000.0001) %MON dynstat_eta_max              =   5.2237378351150E-03
(PID.TID 0000.0001) %MON dynstat_eta_min              =  -1.1753068156676E-02
(PID.TID 0000.0001) %MON dynstat_eta_mean             =   1.0064891310595E-14
(PID.TID 0000.0001) %MON dynstat_eta_sd               =   6.2803149068509E-03
(PID.TID 0000.0001) %MON dynstat_eta_del2             =   3.7276749604221E-05
(PID.TID 0000.0001) %MON dynstat_uvel_max             =   1.0714543408211E+00
(PID.TID 0000.0001) %MON dynstat_uvel_min             =  -2.2116247331283E-01
(PID.TID 0000.0001) %MON dynstat_uvel_mean            =   4.5194552800501E-01
(PID.TID 0000.0001) %MON dynstat_uvel_sd              =   1.3406435434137E-01
(PID.TID 0000.0001) %MON dynstat_uvel_del2            =   5.3092525728926E-04
(PID.TID 0000.0001) %MON dynstat_vvel_max             =   0.0000000000000E+00
(PID.TID 0000.0001) %MON dynstat_vvel_min             =   0.0000000000000E+00
(PID.TID 0000.0001) %MON dynstat_vvel_mean            =   0.0000000000000E+00
(PID.TID 0000.0001) %MON dynstat_vvel_sd              =   0.0000000000000E+00
(PID.TID 0000.0001) %MON dynstat_vvel_del2            =   0.0000000000000E+00
(PID.TID 0000.0001) %MON dynstat_wvel_max             =   1.8702359089309E-02
(PID.TID 0000.0001) %MON dynstat_wvel_min             =  -2.7716468246743E-02
(PID.TID 0000.0001) %MON dynstat_wvel_mean            =  -2.1109975311629E-21
(PID.TID 0000.0001) %MON dynstat_wvel_sd              =   2.3721711211907E-03
(PID.TID 0000.0001) %MON dynstat_wvel_del2            =   5.0034281852015E-05
(PID.TID 0000.0001) %MON dynstat_theta_max            =   1.5000000000012E+01
(PID.TID 0000.0001) %MON dynstat_theta_min            =   9.9999999999981E+00
(PID.TID 0000.0001) %MON dynstat_theta_mean           =   1.3975119194638E+01
(PID.TID 0000.0001) %MON dynstat_theta_sd             =   1.8480557565014E+00
(PID.TID 0000.0001) %MON dynstat_theta_del2           =   7.7347448401997E-04
(PID.TID 0000.0001) %MON dynstat_salt_max             =   3.5000000000000E+01
(PID.TID 0000.0001) %MON dynstat_salt_min             =   3.5000000000000E+01
(PID.TID 0000.0001) %MON dynstat_salt_mean            =   3.5000000000000E+01
(PID.TID 0000.0001) %MON dynstat_salt_sd              =   3.0553337637684E-13
(PID.TID 0000.0001) %MON dynstat_salt_del2            =   0.0000000000000E+00
(PID.TID 0000.0001) %MON dynstat_sst_max              =   1.5000000000000E+01
(PID.TID 0000.0001) %MON dynstat_sst_min              =   1.4999999999998E+01
(PID.TID 0000.0001) %MON dynstat_sst_mean             =   1.4999999999999E+01
(PID.TID 0000.0001) %MON dynstat_sst_sd               =   5.9866584431071E-13
(PID.TID 0000.0001) %MON dynstat_sst_del2             =   5.4762901148154E-15
(PID.TID 0000.0001) %MON dynstat_sss_max              =   3.5000000000000E+01
(PID.TID 0000.0001) %MON dynstat_sss_min              =   3.5000000000000E+01
(PID.TID 0000.0001) %MON dynstat_sss_mean             =   3.5000000000000E+01
(PID.TID 0000.0001) %MON dynstat_sss_sd               =   2.8421709430404E-14
(PID.TID 0000.0001) %MON dynstat_sss_del2             =   0.0000000000000E+00
(PID.TID 0000.0001) %MON forcing_qnet_max             =   0.0000000000000E+00
(PID.TID 0000.0001) %MON forcing_qnet_min             =   0.0000000000000E+00
(PID.TID 0000.0001) %MON forcing_qnet_mean            =   0.0000000000000E+00
(PID.TID 0000.0001) %MON forcing_qnet_sd              =   0.0000000000000E+00
(PID.TID 0000.0001) %MON forcing_qnet_del2            =   0.0000000000000E+00
(PID.TID 0000.0001) %MON forcing_qsw_max              =   0.0000000000000E+00
(PID.TID 0000.0001) %MON forcing_qsw_min              =   0.0000000000000E+00
(PID.TID 0000.0001) %MON forcing_qsw_mean             =   0.0000000000000E+00
(PID.TID 0000.0001) %MON forcing_qsw_sd               =   0.0000000000000E+00
(PID.TID 0000.0001) %MON forcing_qsw_del2             =   0.0000000000000E+00
(PID.TID 0000.0001) %MON forcing_empmr_max            =   0.0000000000000E+00
(PID.TID 0000.0001) %MON forcing_empmr_min            =   0.0000000000000E+00
(PID.TID 0000.0001) %MON forcing_empmr_mean           =   0.0000000000000E+00
(PID.TID 0000.0001) %MON forcing_empmr_sd             =   0.0000000000000E+00
(PID.TID 0000.0001) %MON forcing_empmr_del2           =   0.0000000000000E+00
(PID.TID 0000.0001) %MON forcing_fu_max               =   0.0000000000000E+00
(PID.TID 0000.0001) %MON forcing_fu_min               =   0.0000000000000E+00
(PID.TID 0000.0001) %MON forcing_fu_mean              =   0.0000000000000E+00
(PID.TID 0000.0001) %MON forcing_fu_sd                =   0.0000000000000E+00
(PID.TID 0000.0001) %MON forcing_fu_del2              =   0.0000000000000E+00
(PID.TID 0000.0001) %MON forcing_fv_max               =   0.0000000000000E+00
(PID.TID 0000.0001) %MON forcing_fv_min               =   0.0000000000000E+00
(PID.TID 0000.0001) %MON forcing_fv_mean              =   0.0000000000000E+00
(PID.TID 0000.0001) %MON forcing_fv_sd                =   0.0000000000000E+00
(PID.TID 0000.0001) %MON forcing_fv_del2              =   0.0000000000000E+00
(PID.TID 0000.0001) %MON advcfl_uvel_max              =   8.0359075561586E-02
(PID.TID 0000.0001) %MON advcfl_vvel_max              =   0.0000000000000E+00
(PID.TID 0000.0001) %MON advcfl_wvel_max              =   1.3980570804571E-01
(PID.TID 0000.0001) %MON advcfl_W_hf_max              =   1.4132671085110E-01
(PID.TID 0000.0001) %MON pe_b_mean                    =   9.7756613434654E-07
(PID.TID 0000.0001) %MON ke_max                       =   4.8384726199749E-01
(PID.TID 0000.0001) %MON ke_mean                      =   1.1120564752866E-01
(PID.TID 0000.0001) %MON ke_vol                       =   9.6656965507697E+10
(PID.TID 0000.0001) %MON vort_r_min                   =   0.0000000000000E+00
(PID.TID 0000.0001) %MON vort_r_max                   =   0.0000000000000E+00
(PID.TID 0000.0001) %MON vort_a_mean                  =   0.0000000000000E+00
(PID.TID 0000.0001) %MON vort_a_sd                    =   0.0000000000000E+00
(PID.TID 0000.0001) %MON vort_p_mean                  =   0.0000000000000E+00
(PID.TID 0000.0001) %MON vort_p_sd                    =   0.0000000000000E+00
(PID.TID 0000.0001) %MON surfExpan_theta_mean         =   1.0453838583753E-18
(PID.TID 0000.0001) %MON surfExpan_salt_mean          =  -1.4841610957473E-18
(PID.TID 0000.0001) // =======================================================
(PID.TID 0000.0001) // End MONITOR dynamic field statistics
(PID.TID 0000.0001) // =======================================================
(PID.TID 0000.0001) // =======================================================
(PID.TID 0000.0001) // Begin OBCS MONITOR field statistics
(PID.TID 0000.0001) // =======================================================
(PID.TID 0000.0001) %MON obc_E_uVel_max               =   4.4822851314926E-01
(PID.TID 0000.0001) %MON obc_E_uVel_min               =   4.4822851314926E-01
(PID.TID 0000.0001) %MON obc_E_uVel_mean              =   4.4822851314926E-01
(PID.TID 0000.0001) %MON obc_E_uVel_sd                =   0.0000000000000E+00
(PID.TID 0000.0001) %MON obc_E_uVel_Int               =   4.4822851314926E+05
(PID.TID 0000.0001) %MON obc_W_uVel_max               =   4.4822851314926E-01
(PID.TID 0000.0001) %MON obc_W_uVel_min               =   4.4822851314926E-01
(PID.TID 0000.0001) %MON obc_W_uVel_mean              =   4.4822851314926E-01
(PID.TID 0000.0001) %MON obc_W_uVel_sd                =   0.0000000000000E+00
(PID.TID 0000.0001) %MON obc_W_uVel_Int               =   4.4822851314926E+05
(PID.TID 0000.0001) // =======================================================
(PID.TID 0000.0001) // End OBCS MONITOR field statistics
(PID.TID 0000.0001) // =======================================================
 cg2d: Sum(rhs),rhsMax =  -1.02429398296522E-10  4.45558991252733E-02
 cg2d: Sum(rhs),rhsMax =  -1.03050901145707E-10  4.43004182652497E-02
 cg2d: Sum(rhs),rhsMax =  -1.03683561736290E-10  4.40429365272107E-02
 cg2d: Sum(rhs),rhsMax =  -1.04333819361813E-10  4.37835152061026E-02
 cg2d: Sum(rhs),rhsMax =  -1.04966757508151E-10  4.35222395636274E-02
 cg2d: Sum(rhs),rhsMax =  -1.05669445416012E-10  4.32592575794852E-02
 cg2d: Sum(rhs),rhsMax =  -1.06366276897418E-10  4.29947111739227E-02
 cg2d: Sum(rhs),rhsMax =  -1.07078595990018E-10  4.27287327662367E-02
 cg2d: Sum(rhs),rhsMax =  -1.07783559855079E-10  4.24614661084861E-02
 cg2d: Sum(rhs),rhsMax =  -1.08504344398241E-10  4.21931098750089E-02
 cg2d: Sum(rhs),rhsMax =  -1.09231415579281E-10  4.19238412381832E-02
 cg2d: Sum(rhs),rhsMax =  -1.09983924745372E-10  4.16537451041100E-02
 cg2d: Sum(rhs),rhsMax =  -1.10730216662525E-10  4.13828119587306E-02
 cg2d: Sum(rhs),rhsMax =  -1.11521923640279E-10  4.11111121205440E-02
 cg2d: Sum(rhs),rhsMax =  -1.12321551365424E-10  4.08387520060947E-02
 cg2d: Sum(rhs),rhsMax =  -1.13152504727099E-10  4.05657468983010E-02
 cg2d: Sum(rhs),rhsMax =  -1.13977331045456E-10  4.02921388313558E-02
 cg2d: Sum(rhs),rhsMax =  -1.12638391669417E-10  4.07801786283015E-02
 cg2d: Sum(rhs),rhsMax =  -1.09824239979961E-10  4.18369290031205E-02
 cg2d: Sum(rhs),rhsMax =  -1.07167164031807E-10  4.28919508910456E-02
 cg2d: Sum(rhs),rhsMax =  -1.04630498709568E-10  4.39447376470382E-02
 cg2d: Sum(rhs),rhsMax =  -1.02202565854803E-10  4.49947799823849E-02
 cg2d: Sum(rhs),rhsMax =  -9.99015314917528E-11  4.60415661172478E-02
 cg2d: Sum(rhs),rhsMax =  -9.77553316072743E-11  4.70845819630264E-02
 cg2d: Sum(rhs),rhsMax =  -9.56823786868455E-11  4.81233113614576E-02
 cg2d: Sum(rhs),rhsMax =  -9.37775967990717E-11  4.91572363956507E-02
 cg2d: Sum(rhs),rhsMax =  -9.18690401530142E-11  5.01858377976040E-02
 cg2d: Sum(rhs),rhsMax =  -9.00847452189879E-11  5.12085954753441E-02
 cg2d: Sum(rhs),rhsMax =  -8.84152751012834E-11  5.22249891770164E-02
 cg2d: Sum(rhs),rhsMax =  -8.68261296194106E-11  5.32344993141481E-02
 cg2d: Sum(rhs),rhsMax =  -8.52496961911697E-11  5.42366079412571E-02
 cg2d: Sum(rhs),rhsMax =  -8.37666325192998E-11  5.52307998866781E-02
 cg2d: Sum(rhs),rhsMax =  -8.23218160306283E-11  5.62165640182926E-02
 cg2d: Sum(rhs),rhsMax =  -8.09889932895658E-11  5.71933946156966E-02
 cg2d: Sum(rhs),rhsMax =  -7.97563126653245E-11  5.81607928080125E-02
 cg2d: Sum(rhs),rhsMax =  -7.85754239451819E-11  5.91182680256960E-02
 cg2d: Sum(rhs),rhsMax =  -7.74221242672013E-11  6.00653394066717E-02
 cg2d: Sum(rhs),rhsMax =  -7.63042407037062E-11  6.10015370931900E-02
 cg2d: Sum(rhs),rhsMax =  -7.52369277989828E-11  6.19264033567288E-02
 cg2d: Sum(rhs),rhsMax =  -7.42095274119947E-11  6.28394934944505E-02
 cg2d: Sum(rhs),rhsMax =  -7.32308103046364E-11  6.37403764530979E-02
 cg2d: Sum(rhs),rhsMax =  -7.23168191996137E-11  6.46286351479551E-02
 cg2d: Sum(rhs),rhsMax =  -7.14083792097142E-11  6.55038664670442E-02
 cg2d: Sum(rhs),rhsMax =  -7.05555613933484E-11  6.63656809719216E-02
 cg2d: Sum(rhs),rhsMax =  -6.97308877306568E-11  6.72137023237628E-02
 cg2d: Sum(rhs),rhsMax =  -6.89212020787977E-11  6.80475664810799E-02
 cg2d: Sum(rhs),rhsMax =  -6.81709133587560E-11  6.88669207294017E-02
 cg2d: Sum(rhs),rhsMax =  -6.74398870081916E-11  6.96714226126601E-02
 cg2d: Sum(rhs),rhsMax =  -6.67416122368536E-11  7.04607388388747E-02
 cg2d: Sum(rhs),rhsMax =  -6.60825838494361E-11  7.12345442300514E-02
 cg2d: Sum(rhs),rhsMax =  -6.54229448393551E-11  7.19925207782802E-02
 cg2d: Sum(rhs),rhsMax =  -6.48284759208195E-11  7.27343568577595E-02
 cg2d: Sum(rhs),rhsMax =  -6.42239594839111E-11  7.34597466283944E-02
 cg2d: Sum(rhs),rhsMax =  -6.36261598963017E-11  7.41683896489169E-02
 cg2d: Sum(rhs),rhsMax =  -6.31212304647022E-11  7.48599907039028E-02
 cg2d: Sum(rhs),rhsMax =  -6.25917095931072E-11  7.55342598332405E-02
 cg2d: Sum(rhs),rhsMax =  -6.21246942777987E-11  7.61909125410213E-02
 cg2d: Sum(rhs),rhsMax =  -6.16818263132757E-11  7.68296701539334E-02
 cg2d: Sum(rhs),rhsMax =  -6.12234707375592E-11  7.74502602949492E-02
 cg2d: Sum(rhs),rhsMax =  -6.08266215174069E-11  7.80524174363395E-02
 cg2d: Sum(rhs),rhsMax =  -6.04392091929640E-11  7.86358834917063E-02
 cg2d: Sum(rhs),rhsMax =  -6.00579586063077E-11  7.92004084201537E-02
 cg2d: Sum(rhs),rhsMax =  -5.96971916344557E-11  7.97457508152832E-02
 cg2d: Sum(rhs),rhsMax =  -5.93822768735208E-11  8.02716784573866E-02
 cg2d: Sum(rhs),rhsMax =  -5.90367754682575E-11  8.07779688132312E-02
 cg2d: Sum(rhs),rhsMax =  -5.87740967006312E-11  8.12644094735863E-02
 cg2d: Sum(rhs),rhsMax =  -5.84426951277806E-11  8.17307985236447E-02
 cg2d: Sum(rhs),rhsMax =  -5.81862891202434E-11  8.21769448454435E-02
 cg2d: Sum(rhs),rhsMax =  -5.79456482796559E-11  8.26026683536058E-02
 cg2d: Sum(rhs),rhsMax =  -5.77137226898117E-11  8.30078001703283E-02
 cg2d: Sum(rhs),rhsMax =  -5.75284264670017E-11  8.33921827357996E-02
 cg2d: Sum(rhs),rhsMax =  -5.73245895196806E-11  8.37556698792882E-02
 cg2d: Sum(rhs),rhsMax =  -5.71210301281155E-11  8.40981268428261E-02
 cg2d: Sum(rhs),rhsMax =  -5.69458369348297E-11  8.44194302620340E-02
 cg2d: Sum(rhs),rhsMax =  -5.67981772725545E-11  8.47194681118176E-02
 cg2d: Sum(rhs),rhsMax =  -5.66345303987248E-11  8.49981396247023E-02
 cg2d: Sum(rhs),rhsMax =  -5.64973623440324E-11  8.52553551954993E-02
 cg2d: Sum(rhs),rhsMax =  -5.63769031458605E-11  8.54910362630506E-02
 cg2d: Sum(rhs),rhsMax =  -5.62358493105819E-11  8.57051151789164E-02
 cg2d: Sum(rhs),rhsMax =  -5.61615753902345E-11  8.58975350761508E-02
 cg2d: Sum(rhs),rhsMax =  -5.61038993041052E-11  8.60682497398557E-02
 cg2d: Sum(rhs),rhsMax =  -5.60539947791483E-11  8.62172234794186E-02
 cg2d: Sum(rhs),rhsMax =  -5.60017032746885E-11  8.63444310010380E-02
 cg2d: Sum(rhs),rhsMax =  -5.59929880239451E-11  8.64498572802536E-02
 cg2d: Sum(rhs),rhsMax =  -5.59526314170000E-11  8.65334974261658E-02
 cg2d: Sum(rhs),rhsMax =  -5.59381985176799E-11  8.65953565377445E-02
 cg2d: Sum(rhs),rhsMax =  -5.59614021788946E-11  8.66354495451904E-02
 cg2d: Sum(rhs),rhsMax =  -5.59870483307634E-11  8.66538010382122E-02
 cg2d: Sum(rhs),rhsMax =  -5.59612911565921E-11  8.66504450803574E-02
 cg2d: Sum(rhs),rhsMax =  -5.59671198274714E-11  8.66254250098683E-02
 cg2d: Sum(rhs),rhsMax =  -5.59754465001561E-11  8.65787932316012E-02
 cg2d: Sum(rhs),rhsMax =  -5.60029245200155E-11  8.65106110063752E-02
 cg2d: Sum(rhs),rhsMax =  -5.60434476604144E-11  8.64209482452742E-02
 cg2d: Sum(rhs),rhsMax =  -5.61027335699293E-11  8.63098833207464E-02
 cg2d: Sum(rhs),rhsMax =  -5.61546364963306E-11  8.61775029204074E-02
 cg2d: Sum(rhs),rhsMax =  -5.62195290321199E-11  8.60239019347211E-02
 cg2d: Sum(rhs),rhsMax =  -5.63439850331804E-11  8.58491833870165E-02
 cg2d: Sum(rhs),rhsMax =  -5.64805424652093E-11  8.56534584107225E-02
 cg2d: Sum(rhs),rhsMax =  -5.65730240431606E-11  8.54368462739991E-02
 cg2d: Sum(rhs),rhsMax =  -5.67172975252106E-11  8.51994744458623E-02
 cg2d: Sum(rhs),rhsMax =  -5.68777247522689E-11  8.49414786933796E-02
 cg2d: Sum(rhs),rhsMax =  -5.70495872764809E-11  8.46630031952783E-02
 cg2d: Sum(rhs),rhsMax =  -5.72321634528805E-11  8.43642006543965E-02
 cg2d: Sum(rhs),rhsMax =  -5.73940339698709E-11  8.40452323908308E-02
 cg2d: Sum(rhs),rhsMax =  -5.75843817074428E-11  8.37062683965287E-02
 cg2d: Sum(rhs),rhsMax =  -5.77783376698449E-11  8.33474873309943E-02
 cg2d: Sum(rhs),rhsMax =  -5.79998271632576E-11  8.29690764507354E-02
 cg2d: Sum(rhs),rhsMax =  -5.82574544161218E-11  8.25712314607657E-02
 cg2d: Sum(rhs),rhsMax =  -5.84872705822193E-11  8.21541562808221E-02
 cg2d: Sum(rhs),rhsMax =  -5.87205284396930E-11  8.17180627246312E-02
 cg2d: Sum(rhs),rhsMax =  -5.90408277822974E-11  8.12631700963958E-02
 cg2d: Sum(rhs),rhsMax =  -5.93259330550211E-11  8.07897047133346E-02
 cg2d: Sum(rhs),rhsMax =  -5.96219740245374E-11  8.02978993677967E-02
 cg2d: Sum(rhs),rhsMax =  -5.99669203182884E-11  7.97879927424465E-02
 cg2d: Sum(rhs),rhsMax =  -6.02670691129958E-11  7.92602288204036E-02
 cg2d: Sum(rhs),rhsMax =  -6.06373840028596E-11  7.87148562936889E-02
 cg2d: Sum(rhs),rhsMax =  -6.09906014581441E-11  7.81521279944451E-02
 cg2d: Sum(rhs),rhsMax =  -6.13388229098177E-11  7.75723003733248E-02
 cg2d: Sum(rhs),rhsMax =  -6.17543793879349E-11  7.69756330467330E-02
 cg2d: Sum(rhs),rhsMax =  -6.22326634669434E-11  7.63623884350028E-02
 cg2d: Sum(rhs),rhsMax =  -6.26862450836541E-11  7.57328315059859E-02
 cg2d: Sum(rhs),rhsMax =  -6.31258378902544E-11  7.50872296318858E-02
 cg2d: Sum(rhs),rhsMax =  -6.36443120427543E-11  7.44258525646579E-02
 cg2d: Sum(rhs),rhsMax =  -6.41861008787714E-11  7.37489725304848E-02
 cg2d: Sum(rhs),rhsMax =  -6.47584208479657E-11  7.30568644406047E-02
 cg2d: Sum(rhs),rhsMax =  -6.53385123783323E-11  7.23498062163604E-02
 cg2d: Sum(rhs),rhsMax =  -6.59535204228234E-11  7.16280791880521E-02
 cg2d: Sum(rhs),rhsMax =  -6.65689170453732E-11  7.08919685766106E-02
 cg2d: Sum(rhs),rhsMax =  -6.72435995774379E-11  7.01417640433460E-02
 cg2d: Sum(rhs),rhsMax =  -6.79415967930197E-11  6.93777602868620E-02
 cg2d: Sum(rhs),rhsMax =  -6.86359302726203E-11  6.86002576660597E-02
 cg2d: Sum(rhs),rhsMax =  -6.93656243555552E-11  6.78095628302938E-02
 cg2d: Sum(rhs),rhsMax =  -7.01445013184809E-11  6.70059893389821E-02
 cg2d: Sum(rhs),rhsMax =  -7.09527436804080E-11  6.61898582476729E-02
 cg2d: Sum(rhs),rhsMax =  -7.17991777143823E-11  6.53614986524859E-02
 cg2d: Sum(rhs),rhsMax =  -7.26737003908795E-11  6.45212481787983E-02
 cg2d: Sum(rhs),rhsMax =  -7.35854710498529E-11  6.36694534015089E-02
 cg2d: Sum(rhs),rhsMax =  -7.45423722747773E-11  6.28064701860385E-02
 cg2d: Sum(rhs),rhsMax =  -7.55071560831766E-11  6.19326639413786E-02
 cg2d: Sum(rhs),rhsMax =  -7.65285612658317E-11  6.10484097785333E-02
 cg2d: Sum(rhs),rhsMax =  -7.76196051877065E-11  6.01540925693521E-02
 cg2d: Sum(rhs),rhsMax =  -7.86846976463806E-11  5.92501069021680E-02
 cg2d: Sum(rhs),rhsMax =  -7.99296184794684E-11  5.83368569297599E-02
 cg2d: Sum(rhs),rhsMax =  -8.11329337047084E-11  5.74147561067675E-02
 cg2d: Sum(rhs),rhsMax =  -8.23867085664176E-11  5.64842268136953E-02
 cg2d: Sum(rhs),rhsMax =  -8.36613278654141E-11  5.55456998646553E-02
 cg2d: Sum(rhs),rhsMax =  -8.50338410796070E-11  5.45996138945751E-02
 cg2d: Sum(rhs),rhsMax =  -8.64526228383511E-11  5.36464146243309E-02
 cg2d: Sum(rhs),rhsMax =  -8.80072958953093E-11  5.26865540293251E-02
 cg2d: Sum(rhs),rhsMax =  -8.95553353696954E-11  5.17204893989861E-02
 cg2d: Sum(rhs),rhsMax =  -9.11680730908415E-11  5.07486823080507E-02
 cg2d: Sum(rhs),rhsMax =  -9.28555288215449E-11  4.97715975306166E-02
 cg2d: Sum(rhs),rhsMax =  -9.46431544246451E-11  4.87897019377315E-02
 cg2d: Sum(rhs),rhsMax =  -9.65047763923366E-11  4.78034634278960E-02
 cg2d: Sum(rhs),rhsMax =  -9.84275577708971E-11  4.68133499467461E-02
 cg2d: Sum(rhs),rhsMax =  -1.00445034234564E-10  4.58198286561322E-02
 cg2d: Sum(rhs),rhsMax =  -1.02639022281359E-10  4.48233653121583E-02
 cg2d: Sum(rhs),rhsMax =  -1.04861692246105E-10  4.38244239051096E-02
 cg2d: Sum(rhs),rhsMax =  -1.07256339226813E-10  4.28234666006561E-02
 cg2d: Sum(rhs),rhsMax =  -1.09755659422062E-10  4.18209540013741E-02
 cg2d: Sum(rhs),rhsMax =  -1.12355520720531E-10  4.08173457216004E-02
 cg2d: Sum(rhs),rhsMax =  -1.13710360571950E-10  4.03163404901876E-02
 cg2d: Sum(rhs),rhsMax =  -1.12695450193989E-10  4.06631847659079E-02
 cg2d: Sum(rhs),rhsMax =  -1.11697068261307E-10  4.10088403339992E-02
 cg2d: Sum(rhs),rhsMax =  -1.10707831790791E-10  4.13532097432895E-02
 cg2d: Sum(rhs),rhsMax =  -1.09722092522802E-10  4.16961990602707E-02
 cg2d: Sum(rhs),rhsMax =  -1.08803743792407E-10  4.20377221216762E-02
 cg2d: Sum(rhs),rhsMax =  -1.07824832396020E-10  4.23778104704021E-02
 cg2d: Sum(rhs),rhsMax =  -1.06911174357904E-10  4.27163957117924E-02
 cg2d: Sum(rhs),rhsMax =  -1.06041092573506E-10  4.30532125960939E-02
 cg2d: Sum(rhs),rhsMax =  -1.05126990446180E-10  4.33881023661096E-02
 cg2d: Sum(rhs),rhsMax =  -1.04296626890488E-10  4.37208930672539E-02
 cg2d: Sum(rhs),rhsMax =  -1.03489383729283E-10  4.40515583282375E-02
 cg2d: Sum(rhs),rhsMax =  -1.02594377437981E-10  4.43800098170338E-02
 cg2d: Sum(rhs),rhsMax =  -1.01784303208063E-10  4.47061839751497E-02
 cg2d: Sum(rhs),rhsMax =  -1.00938479796753E-10  4.50299946049148E-02
 cg2d: Sum(rhs),rhsMax =  -1.00158548121954E-10  4.53513384739926E-02
 cg2d: Sum(rhs),rhsMax =  -9.93720106201579E-11  4.56701068506386E-02
 cg2d: Sum(rhs),rhsMax =  -9.85828085831031E-11  4.59861741983395E-02
 cg2d: Sum(rhs),rhsMax =  -9.78634395742972E-11  4.62996467267543E-02
 cg2d: Sum(rhs),rhsMax =  -9.71268065974584E-11  4.66104794096517E-02
 cg2d: Sum(rhs),rhsMax =  -9.64419655247184E-11  4.69184568762217E-02
 cg2d: Sum(rhs),rhsMax =  -9.57038892579476E-11  4.72233955310973E-02
 cg2d: Sum(rhs),rhsMax =  -9.50586831471867E-11  4.75251241740423E-02
 cg2d: Sum(rhs),rhsMax =  -9.43713995837925E-11  4.78234239956492E-02
 cg2d: Sum(rhs),rhsMax =  -9.37011579438263E-11  4.81182146844513E-02
 cg2d: Sum(rhs),rhsMax =  -9.30557297884604E-11  4.84094049381000E-02
 cg2d: Sum(rhs),rhsMax =  -9.24185727946281E-11  4.86969473195407E-02
 cg2d: Sum(rhs),rhsMax =  -9.18324860599284E-11  4.89808439998233E-02
 cg2d: Sum(rhs),rhsMax =  -9.12527831076204E-11  4.92610383644129E-02
 cg2d: Sum(rhs),rhsMax =  -9.06469344030825E-11  4.95374156372190E-02
 cg2d: Sum(rhs),rhsMax =  -9.00429730776864E-11  4.98098510821188E-02
 cg2d: Sum(rhs),rhsMax =  -8.94697649300724E-11  5.00782332325156E-02
 cg2d: Sum(rhs),rhsMax =  -8.89495144207331E-11  5.03425246062777E-02
 cg2d: Sum(rhs),rhsMax =  -8.83969564213771E-11  5.06026811112706E-02
 cg2d: Sum(rhs),rhsMax =  -8.78820349825560E-11  5.08585294034439E-02
 cg2d: Sum(rhs),rhsMax =  -8.73457972616620E-11  5.11100654442533E-02
 cg2d: Sum(rhs),rhsMax =  -8.68533023279383E-11  5.13572503044437E-02
 cg2d: Sum(rhs),rhsMax =  -8.63534799222521E-11  5.15999375437447E-02
 cg2d: Sum(rhs),rhsMax =  -8.58960680361065E-11  5.18381457405956E-02
 cg2d: Sum(rhs),rhsMax =  -8.54262216520851E-11  5.20717767816463E-02
 cg2d: Sum(rhs),rhsMax =  -8.50022274789808E-11  5.23007029680980E-02
 cg2d: Sum(rhs),rhsMax =  -8.45704617447041E-11  5.25246717533338E-02
 cg2d: Sum(rhs),rhsMax =  -8.41637870507839E-11  5.27435313991413E-02
 cg2d: Sum(rhs),rhsMax =  -8.37532265762775E-11  5.29571071047302E-02
 cg2d: Sum(rhs),rhsMax =  -8.33896285357127E-11  5.31652751026947E-02
 cg2d: Sum(rhs),rhsMax =  -8.30087110159639E-11  5.33678785418990E-02
 cg2d: Sum(rhs),rhsMax =  -8.26232415818140E-11  5.35648279421677E-02
 cg2d: Sum(rhs),rhsMax =  -8.23127122018263E-11  5.37559375381990E-02
 cg2d: Sum(rhs),rhsMax =  -8.19780909822043E-11  5.39410029421222E-02
 cg2d: Sum(rhs),rhsMax =  -8.16283707294474E-11  5.41198486918983E-02
 cg2d: Sum(rhs),rhsMax =  -8.13175082825524E-11  5.42922728438792E-02
 cg2d: Sum(rhs),rhsMax =  -8.10349565227853E-11  5.44581408349398E-02
 cg2d: Sum(rhs),rhsMax =  -8.07197642060942E-11  5.46173078656475E-02
 cg2d: Sum(rhs),rhsMax =  -8.04527555686718E-11  5.47695096287856E-02
 cg2d: Sum(rhs),rhsMax =  -8.01847477305273E-11  5.49146814738291E-02
 cg2d: Sum(rhs),rhsMax =  -7.99269539442093E-11  5.50527024813136E-02
 cg2d: Sum(rhs),rhsMax =  -7.96724908269653E-11  5.51834328130614E-02
 cg2d: Sum(rhs),rhsMax =  -7.94295740291773E-11  5.53067514008279E-02
 cg2d: Sum(rhs),rhsMax =  -7.91937626587469E-11  5.54226346433633E-02
 cg2d: Sum(rhs),rhsMax =  -7.89505127940515E-11  5.55310966142770E-02
 cg2d: Sum(rhs),rhsMax =  -7.87310217020831E-11  5.56321242294775E-02
 cg2d: Sum(rhs),rhsMax =  -7.85256304425275E-11  5.57256596351677E-02
 cg2d: Sum(rhs),rhsMax =  -7.83625386802100E-11  5.58116843082215E-02
 cg2d: Sum(rhs),rhsMax =  -7.82016673639419E-11  5.58901982997453E-02
 cg2d: Sum(rhs),rhsMax =  -7.80792097643257E-11  5.59612044845150E-02
 cg2d: Sum(rhs),rhsMax =  -7.79483144697224E-11  5.60246039251895E-02
 cg2d: Sum(rhs),rhsMax =  -7.78298536729949E-11  5.60803693313537E-02
 cg2d: Sum(rhs),rhsMax =  -7.77296005338712E-11  5.61285206608846E-02
 cg2d: Sum(rhs),rhsMax =  -7.76472219854440E-11  5.61691026747338E-02
 cg2d: Sum(rhs),rhsMax =  -7.75676189945784E-11  5.62021583042406E-02
 cg2d: Sum(rhs),rhsMax =  -7.74704744799237E-11  5.62277380073124E-02
 cg2d: Sum(rhs),rhsMax =  -7.74131869718531E-11  5.62458814194482E-02
 cg2d: Sum(rhs),rhsMax =  -7.73892061545212E-11  5.62564275947636E-02
 cg2d: Sum(rhs),rhsMax =  -7.73001662679462E-11  5.62593115763229E-02
 cg2d: Sum(rhs),rhsMax =  -7.72092390022294E-11  5.62545675513162E-02
 cg2d: Sum(rhs),rhsMax =  -7.71918085007428E-11  5.62422374562410E-02
 cg2d: Sum(rhs),rhsMax =  -7.71750441330710E-11  5.62222931214530E-02
 cg2d: Sum(rhs),rhsMax =  -7.72403252469189E-11  5.61946806542182E-02
 cg2d: Sum(rhs),rhsMax =  -7.71933628129773E-11  5.61594114476686E-02
 cg2d: Sum(rhs),rhsMax =  -7.72509833879553E-11  5.61165280047881E-02
 cg2d: Sum(rhs),rhsMax =  -7.73153763233836E-11  5.60659708217199E-02
 cg2d: Sum(rhs),rhsMax =  -7.73735520098739E-11  5.60077093989176E-02
 cg2d: Sum(rhs),rhsMax =  -7.74347252985308E-11  5.59417642513256E-02
 cg2d: Sum(rhs),rhsMax =  -7.75415287534997E-11  5.58681624317879E-02
 cg2d: Sum(rhs),rhsMax =  -7.76357866882904E-11  5.57869374474369E-02
 cg2d: Sum(rhs),rhsMax =  -7.77871100865468E-11  5.56981605231362E-02
 cg2d: Sum(rhs),rhsMax =  -7.79124542660270E-11  5.56019216645678E-02
 cg2d: Sum(rhs),rhsMax =  -7.81060771615216E-11  5.54984382446716E-02
 cg2d: Sum(rhs),rhsMax =  -7.82541809130066E-11  5.53877713155240E-02
 cg2d: Sum(rhs),rhsMax =  -7.84652343099879E-11  5.52699569626387E-02
 cg2d: Sum(rhs),rhsMax =  -7.86811726882775E-11  5.51449874482370E-02
 cg2d: Sum(rhs),rhsMax =  -7.89227572184359E-11  5.50128712527261E-02
 cg2d: Sum(rhs),rhsMax =  -7.91962051494011E-11  5.48736477231913E-02
 cg2d: Sum(rhs),rhsMax =  -7.94788679314706E-11  5.47273376094894E-02
 cg2d: Sum(rhs),rhsMax =  -7.97145682795986E-11  5.45738034411409E-02
 cg2d: Sum(rhs),rhsMax =  -8.00097765818464E-11  5.44129596417857E-02
 cg2d: Sum(rhs),rhsMax =  -8.02872213157002E-11  5.42448601538208E-02
 cg2d: Sum(rhs),rhsMax =  -8.06534838915240E-11  5.40695632611231E-02
 cg2d: Sum(rhs),rhsMax =  -8.09784461708318E-11  5.38871590123300E-02
 cg2d: Sum(rhs),rhsMax =  -8.13488165718468E-11  5.36978080761186E-02
 cg2d: Sum(rhs),rhsMax =  -8.16722245389201E-11  5.35014346970913E-02
 cg2d: Sum(rhs),rhsMax =  -8.20395973377686E-11  5.32980629155181E-02
 cg2d: Sum(rhs),rhsMax =  -8.24106338725983E-11  5.30878293813696E-02
 cg2d: Sum(rhs),rhsMax =  -8.28150881204692E-11  5.28708619996712E-02
 cg2d: Sum(rhs),rhsMax =  -8.32099944503284E-11  5.26473093500222E-02
 cg2d: Sum(rhs),rhsMax =  -8.35823632527877E-11  5.24173646176154E-02
 cg2d: Sum(rhs),rhsMax =  -8.40455482986613E-11  5.21811814840733E-02
 cg2d: Sum(rhs),rhsMax =  -8.44706526947903E-11  5.19389335847786E-02
 cg2d: Sum(rhs),rhsMax =  -8.48954240240118E-11  5.16907133491713E-02
 cg2d: Sum(rhs),rhsMax =  -8.53579429360707E-11  5.14365243748899E-02
 cg2d: Sum(rhs),rhsMax =  -8.58422222194122E-11  5.11765043575195E-02
 cg2d: Sum(rhs),rhsMax =  -8.63125126926434E-11  5.09108866054434E-02
 cg2d: Sum(rhs),rhsMax =  -8.68560778854999E-11  5.06397739268023E-02
 cg2d: Sum(rhs),rhsMax =  -8.73394689904217E-11  5.03633072843952E-02
 cg2d: Sum(rhs),rhsMax =  -8.78805916926240E-11  5.00816346780264E-02
 cg2d: Sum(rhs),rhsMax =  -8.84622375352251E-11  4.97947362015393E-02
 cg2d: Sum(rhs),rhsMax =  -8.90676421505532E-11  4.95028105954877E-02
 cg2d: Sum(rhs),rhsMax =  -8.96656082716163E-11  4.92060349194182E-02
 cg2d: Sum(rhs),rhsMax =  -9.03129793172752E-11  4.89045162929997E-02
 cg2d: Sum(rhs),rhsMax =  -9.09717856600878E-11  4.85983420662579E-02
 cg2d: Sum(rhs),rhsMax =  -9.16402509432146E-11  4.82876440859685E-02
 cg2d: Sum(rhs),rhsMax =  -9.23269238839453E-11  4.79725668047884E-02
 cg2d: Sum(rhs),rhsMax =  -9.30321375491872E-11  4.76533105604608E-02
 cg2d: Sum(rhs),rhsMax =  -9.37687705260259E-11  4.73300246944683E-02
 cg2d: Sum(rhs),rhsMax =  -9.44804234848107E-11  4.70029772445331E-02
 cg2d: Sum(rhs),rhsMax =  -9.51917988878392E-11  4.66726118606727E-02
 cg2d: Sum(rhs),rhsMax =  -9.59781698561812E-11  4.63390335421930E-02
 cg2d: Sum(rhs),rhsMax =  -9.67603219770297E-11  4.60025709153504E-02
 cg2d: Sum(rhs),rhsMax =  -9.75086678067782E-11  4.56635826657159E-02
 cg2d: Sum(rhs),rhsMax =  -9.83450543223796E-11  4.53222769530345E-02
 cg2d: Sum(rhs),rhsMax =  -9.91931536908908E-11  4.49788415016833E-02
 cg2d: Sum(rhs),rhsMax =  -1.00040919992495E-10  4.46335197469107E-02
 cg2d: Sum(rhs),rhsMax =  -1.00876862418886E-10  4.42864425918974E-02
 cg2d: Sum(rhs),rhsMax =  -1.01798680596232E-10  4.39376447776738E-02
 cg2d: Sum(rhs),rhsMax =  -1.02708286320308E-10  4.35872565857725E-02
 cg2d: Sum(rhs),rhsMax =  -1.03639929971422E-10  4.32355034517034E-02
 cg2d: Sum(rhs),rhsMax =  -1.04539654710578E-10  4.28823815271736E-02
 cg2d: Sum(rhs),rhsMax =  -1.05514097459292E-10  4.25280955608289E-02
 cg2d: Sum(rhs),rhsMax =  -1.06520570142266E-10  4.21727892468174E-02
 cg2d: Sum(rhs),rhsMax =  -1.07492736933779E-10  4.18165854734335E-02
 cg2d: Sum(rhs),rhsMax =  -1.08440034729540E-10  4.14595604506075E-02
 cg2d: Sum(rhs),rhsMax =  -1.09497688693949E-10  4.11018093400919E-02
 cg2d: Sum(rhs),rhsMax =  -1.10591480417810E-10  4.07434557654269E-02
 cg2d: Sum(rhs),rhsMax =  -1.11618575493466E-10  4.03846271301504E-02
 cg2d: Sum(rhs),rhsMax =  -1.12657883022393E-10  4.00253998006674E-02
 cg2d: Sum(rhs),rhsMax =  -1.13814735414053E-10  3.96659148187676E-02
 cg2d: Sum(rhs),rhsMax =  -1.14895731817555E-10  3.93063138566114E-02
 cg2d: Sum(rhs),rhsMax =  -1.16039428066372E-10  3.89466179473919E-02
 cg2d: Sum(rhs),rhsMax =  -1.17158047152621E-10  3.85870916130502E-02
 cg2d: Sum(rhs),rhsMax =  -1.18289322781351E-10  3.82278941133426E-02
 cg2d: Sum(rhs),rhsMax =  -1.19474194426594E-10  3.78691379634980E-02
 cg2d: Sum(rhs),rhsMax =  -1.16810970618442E-10  3.87492343611776E-02
 cg2d: Sum(rhs),rhsMax =  -1.13995431150204E-10  3.97192782281552E-02
 cg2d: Sum(rhs),rhsMax =  -1.11337727232153E-10  4.06888010426700E-02
 cg2d: Sum(rhs),rhsMax =  -1.08870082220214E-10  4.16573341997854E-02
 cg2d: Sum(rhs),rhsMax =  -1.06468441701812E-10  4.26244080250419E-02
 cg2d: Sum(rhs),rhsMax =  -1.04126061939436E-10  4.35895534990986E-02
 cg2d: Sum(rhs),rhsMax =  -1.01892529136283E-10  4.45523036893369E-02
 cg2d: Sum(rhs),rhsMax =  -9.98457011514020E-11  4.55121948590246E-02
 cg2d: Sum(rhs),rhsMax =  -9.78227082670813E-11  4.64687672531643E-02
 cg2d: Sum(rhs),rhsMax =  -9.59548829282397E-11  4.74215655849995E-02
 cg2d: Sum(rhs),rhsMax =  -9.41608041538089E-11  4.83701392666800E-02
 cg2d: Sum(rhs),rhsMax =  -9.24245679989610E-11  4.93140424407751E-02
 cg2d: Sum(rhs),rhsMax =  -9.06989761073618E-11  5.02528338741419E-02
 cg2d: Sum(rhs),rhsMax =  -8.91422768933836E-11  5.11860767821340E-02
 cg2d: Sum(rhs),rhsMax =  -8.76264893978629E-11  5.21133386382379E-02
 cg2d: Sum(rhs),rhsMax =  -8.62144522439934E-11  5.30341910132698E-02
 cg2d: Sum(rhs),rhsMax =  -8.47753256483230E-11  5.39482094839701E-02
 cg2d: Sum(rhs),rhsMax =  -8.34251001613495E-11  5.48549736347024E-02
 cg2d: Sum(rhs),rhsMax =  -8.21523404859192E-11  5.57540671565804E-02
 cg2d: Sum(rhs),rhsMax =  -8.09208255958538E-11  5.66450780400240E-02
 cg2d: Sum(rhs),rhsMax =  -7.96882559939149E-11  5.75275988465513E-02
 cg2d: Sum(rhs),rhsMax =  -7.85748965892452E-11  5.84012270383183E-02
 cg2d: Sum(rhs),rhsMax =  -7.74762476396518E-11  5.92655653396655E-02
 cg2d: Sum(rhs),rhsMax =  -7.64421304033647E-11  6.01202221037265E-02
 cg2d: Sum(rhs),rhsMax =  -7.54482587517202E-11  6.09648116586647E-02
 cg2d: Sum(rhs),rhsMax =  -7.44292960597193E-11  6.17989546118920E-02
 cg2d: Sum(rhs),rhsMax =  -7.35172478449897E-11  6.26222780960335E-02
 cg2d: Sum(rhs),rhsMax =  -7.25975390913902E-11  6.34344159467550E-02
 cg2d: Sum(rhs),rhsMax =  -7.17576553732613E-11  6.42350088091366E-02
 cg2d: Sum(rhs),rhsMax =  -7.08922920367172E-11  6.50237041753193E-02
 cg2d: Sum(rhs),rhsMax =  -7.00806634945650E-11  6.58001563628874E-02
 cg2d: Sum(rhs),rhsMax =  -6.93531898576794E-11  6.65640264407336E-02
 cg2d: Sum(rhs),rhsMax =  -6.86241063974080E-11  6.73149821206014E-02
 cg2d: Sum(rhs),rhsMax =  -6.78979650281519E-11  6.80526976283394E-02
 cg2d: Sum(rhs),rhsMax =  -6.72682465285845E-11  6.87768535680244E-02
 cg2d: Sum(rhs),rhsMax =  -6.66223187728576E-11  6.94871367905722E-02
 cg2d: Sum(rhs),rhsMax =  -6.60775323346741E-11  7.01832402763464E-02
 cg2d: Sum(rhs),rhsMax =  -6.54698517621455E-11  7.08648630387327E-02
 cg2d: Sum(rhs),rhsMax =  -6.49675868658051E-11  7.15317100524760E-02
 cg2d: Sum(rhs),rhsMax =  -6.44776454450380E-11  7.21834922098431E-02
 cg2d: Sum(rhs),rhsMax =  -6.39522879097854E-11  7.28199263041576E-02
 cg2d: Sum(rhs),rhsMax =  -6.35062002984910E-11  7.34407350384098E-02
 cg2d: Sum(rhs),rhsMax =  -6.30875907070561E-11  7.40456470573552E-02
 cg2d: Sum(rhs),rhsMax =  -6.25905993700826E-11  7.46343970025501E-02
 cg2d: Sum(rhs),rhsMax =  -6.21716567117403E-11  7.52067255882271E-02
 cg2d: Sum(rhs),rhsMax =  -6.17633166832832E-11  7.57623796965082E-02
 cg2d: Sum(rhs),rhsMax =  -6.13441519803359E-11  7.63011124959884E-02
 cg2d: Sum(rhs),rhsMax =  -6.10044237348006E-11  7.68226835854809E-02
 cg2d: Sum(rhs),rhsMax =  -6.06795724777953E-11  7.73268591655004E-02
 cg2d: Sum(rhs),rhsMax =  -6.03266880894182E-11  7.78134122402632E-02
 cg2d: Sum(rhs),rhsMax =  -6.00043903453695E-11  7.82821228525707E-02
 cg2d: Sum(rhs),rhsMax =  -5.97201177399143E-11  7.87327783528095E-02
 cg2d: Sum(rhs),rhsMax =  -5.94109206275562E-11  7.91651737015344E-02
 cg2d: Sum(rhs),rhsMax =  -5.91560134211022E-11  7.95791118027738E-02
 cg2d: Sum(rhs),rhsMax =  -5.89284732122053E-11  7.99744038558604E-02
 cg2d: Sum(rhs),rhsMax =  -5.86819481895873E-11  8.03508697359909E-02
 cg2d: Sum(rhs),rhsMax =  -5.84483572652061E-11  8.07083383791315E-02
 cg2d: Sum(rhs),rhsMax =  -5.82509596114278E-11  8.10466481564860E-02
 cg2d: Sum(rhs),rhsMax =  -5.80543391137667E-11  8.13656472256451E-02
 cg2d: Sum(rhs),rhsMax =  -5.78915804183566E-11  8.16651938459752E-02
 cg2d: Sum(rhs),rhsMax =  -5.77266012768973E-11  8.19451566538039E-02
 cg2d: Sum(rhs),rhsMax =  -5.76211856007092E-11  8.22054148616943E-02
 cg2d: Sum(rhs),rhsMax =  -5.74675307341010E-11  8.24458583957309E-02
 cg2d: Sum(rhs),rhsMax =  -5.73407432646889E-11  8.26663879662513E-02
 cg2d: Sum(rhs),rhsMax =  -5.72213387783904E-11  8.28669150717022E-02
 cg2d: Sum(rhs),rhsMax =  -5.71502289936632E-11  8.30473619400651E-02
 cg2d: Sum(rhs),rhsMax =  -5.70475333638853E-11  8.32076614173248E-02
 cg2d: Sum(rhs),rhsMax =  -5.69738145550502E-11  8.33477568166352E-02
 cg2d: Sum(rhs),rhsMax =  -5.69083113965974E-11  8.34676017444941E-02
 cg2d: Sum(rhs),rhsMax =  -5.68540770018444E-11  8.35671599228217E-02
 cg2d: Sum(rhs),rhsMax =  -5.68173286197293E-11  8.36464050192626E-02
 cg2d: Sum(rhs),rhsMax =  -5.67762503678182E-11  8.37053205031503E-02
 cg2d: Sum(rhs),rhsMax =  -5.67596525336000E-11  8.37438995348708E-02
 cg2d: Sum(rhs),rhsMax =  -5.67559887976188E-11  8.37621448991728E-02
 cg2d: Sum(rhs),rhsMax =  -5.67719760091734E-11  8.37600689834630E-02
 cg2d: Sum(rhs),rhsMax =  -5.67057512057545E-11  8.37376937968268E-02
 cg2d: Sum(rhs),rhsMax =  -5.67234592629973E-11  8.36950510193061E-02
 cg2d: Sum(rhs),rhsMax =  -5.67084712521648E-11  8.36321820925726E-02
 cg2d: Sum(rhs),rhsMax =  -5.67531022177548E-11  8.35491383225331E-02
 cg2d: Sum(rhs),rhsMax =  -5.67323410471943E-11  8.34459809851391E-02
 cg2d: Sum(rhs),rhsMax =  -5.68139979506554E-11  8.33227814282640E-02
 cg2d: Sum(rhs),rhsMax =  -5.68639579867636E-11  8.31796211643027E-02
 cg2d: Sum(rhs),rhsMax =  -5.69580493881006E-11  8.30165919498458E-02
 cg2d: Sum(rhs),rhsMax =  -5.69948532813669E-11  8.28337958506232E-02
 cg2d: Sum(rhs),rhsMax =  -5.70803404542630E-11  8.26313452916030E-02
 cg2d: Sum(rhs),rhsMax =  -5.71765412793468E-11  8.24093630935002E-02
 cg2d: Sum(rhs),rhsMax =  -5.73000535908363E-11  8.21679824997476E-02
 cg2d: Sum(rhs),rhsMax =  -5.74291170174490E-11  8.19073471854812E-02
 cg2d: Sum(rhs),rhsMax =  -5.76007019859048E-11  8.16276112551902E-02
 cg2d: Sum(rhs),rhsMax =  -5.77582981442504E-11  8.13289392235108E-02
 cg2d: Sum(rhs),rhsMax =  -5.79398751199278E-11  8.10115059703055E-02
 cg2d: Sum(rhs),rhsMax =  -5.81242831643181E-11  8.06754966585819E-02
 cg2d: Sum(rhs),rhsMax =  -5.83384451857683E-11  8.03211066022004E-02
 cg2d: Sum(rhs),rhsMax =  -5.85423376442407E-11  7.99485410701298E-02
 cg2d: Sum(rhs),rhsMax =  -5.87725978995479E-11  7.95580150147108E-02
 cg2d: Sum(rhs),rhsMax =  -5.90261728383723E-11  7.91497527140799E-02
 cg2d: Sum(rhs),rhsMax =  -5.92991766801276E-11  7.87239873232690E-02
 cg2d: Sum(rhs),rhsMax =  -5.95533067304643E-11  7.82809603342687E-02
 cg2d: Sum(rhs),rhsMax =  -5.98799343443090E-11  7.78209209519051E-02
 cg2d: Sum(rhs),rhsMax =  -6.01699801094924E-11  7.73441253990848E-02
 cg2d: Sum(rhs),rhsMax =  -6.05127059571942E-11  7.68508361663463E-02
 cg2d: Sum(rhs),rhsMax =  -6.08277872515828E-11  7.63413212397152E-02
 cg2d: Sum(rhs),rhsMax =  -6.12459527538078E-11  7.58158533371035E-02
 cg2d: Sum(rhs),rhsMax =  -6.16004469655707E-11  7.52747091703980E-02
 cg2d: Sum(rhs),rhsMax =  -6.19654882960674E-11  7.47181687627700E-02
 cg2d: Sum(rhs),rhsMax =  -6.24214013811297E-11  7.41465148478867E-02
 cg2d: Sum(rhs),rhsMax =  -6.28584406747734E-11  7.35600323723552E-02
 cg2d: Sum(rhs),rhsMax =  -6.32812691137019E-11  7.29590081157088E-02
 cg2d: Sum(rhs),rhsMax =  -6.37860320118477E-11  7.23437304345960E-02
 cg2d: Sum(rhs),rhsMax =  -6.43192166194240E-11  7.17144891302805E-02
 cg2d: Sum(rhs),rhsMax =  -6.48507358924633E-11  7.10715754315630E-02
 cg2d: Sum(rhs),rhsMax =  -6.53930798399927E-11  7.04152820791507E-02
 cg2d: Sum(rhs),rhsMax =  -6.59816645764977E-11  6.97459034954344E-02
 cg2d: Sum(rhs),rhsMax =  -6.65627553075865E-11  6.90637360192430E-02
 cg2d: Sum(rhs),rhsMax =  -6.71940281193883E-11  6.83690781587782E-02
 cg2d: Sum(rhs),rhsMax =  -6.78352929384118E-11  6.76622308656388E-02
 cg2d: Sum(rhs),rhsMax =  -6.85020928870017E-11  6.69434978065017E-02
 cg2d: Sum(rhs),rhsMax =  -6.92212398512027E-11  6.62131856047510E-02
 cg2d: Sum(rhs),rhsMax =  -6.99216795574387E-11  6.54716040423141E-02
 cg2d: Sum(rhs),rhsMax =  -7.06802394390138E-11  6.47190662110341E-02
 cg2d: Sum(rhs),rhsMax =  -7.14690528980100E-11  6.39558886090741E-02
 cg2d: Sum(rhs),rhsMax =  -7.22777393491469E-11  6.31823911835761E-02
 cg2d: Sum(rhs),rhsMax =  -7.31331939451962E-11  6.23988973257979E-02
 cg2d: Sum(rhs),rhsMax =  -7.40017769285117E-11  6.16057338289036E-02
 cg2d: Sum(rhs),rhsMax =  -7.49124373644605E-11  6.08032308212884E-02
 cg2d: Sum(rhs),rhsMax =  -7.58403340128666E-11  5.99917216897112E-02
 cg2d: Sum(rhs),rhsMax =  -7.68287655716904E-11  5.91715430065140E-02
 cg2d: Sum(rhs),rhsMax =  -7.78556108471662E-11  5.83430344739409E-02
 cg2d: Sum(rhs),rhsMax =  -7.89206755502647E-11  5.75065388964936E-02
 cg2d: Sum(rhs),rhsMax =  -8.00740029838209E-11  5.66624021877203E-02
 cg2d: Sum(rhs),rhsMax =  -8.12218903245565E-11  5.58109734152395E-02
 cg2d: Sum(rhs),rhsMax =  -8.23829338081339E-11  5.49526048840552E-02
 cg2d: Sum(rhs),rhsMax =  -8.36545277493883E-11  5.40876522543529E-02
 cg2d: Sum(rhs),rhsMax =  -8.49473547059887E-11  5.32164746866172E-02
 cg2d: Sum(rhs),rhsMax =  -8.62857008065987E-11  5.23394350044279E-02
 cg2d: Sum(rhs),rhsMax =  -8.76881345313052E-11  5.14568998545965E-02
 cg2d: Sum(rhs),rhsMax =  -8.92032558930111E-11  5.05692398799349E-02
 cg2d: Sum(rhs),rhsMax =  -9.06795610822186E-11  4.96768298705670E-02
 cg2d: Sum(rhs),rhsMax =  -9.23118109730225E-11  4.87800488824608E-02
 cg2d: Sum(rhs),rhsMax =  -9.39313557490884E-11  4.78792803158354E-02
 cg2d: Sum(rhs),rhsMax =  -9.57280990587783E-11  4.69749119477427E-02
 cg2d: Sum(rhs),rhsMax =  -9.74687171251265E-11  4.60673359140817E-02
 cg2d: Sum(rhs),rhsMax =  -9.94013690802653E-11  4.51569486372033E-02
 cg2d: Sum(rhs),rhsMax =  -1.01356914181117E-10  4.42441506962983E-02
 cg2d: Sum(rhs),rhsMax =  -1.03433196035896E-10  4.33293466388074E-02
 cg2d: Sum(rhs),rhsMax =  -1.05553739360165E-10  4.24129447320279E-02
 cg2d: Sum(rhs),rhsMax =  -1.07280795358378E-10  4.17042338047504E-02
 cg2d: Sum(rhs),rhsMax =  -1.06516281905833E-10  4.19538306335441E-02
 cg2d: Sum(rhs),rhsMax =  -1.05805836314588E-10  4.22015685322696E-02
 cg2d: Sum(rhs),rhsMax =  -1.05062514244025E-10  4.24473487199202E-02
 cg2d: Sum(rhs),rhsMax =  -1.04364322739414E-10  4.26910794782437E-02
 cg2d: Sum(rhs),rhsMax =  -1.03669545170604E-10  4.29327997086800E-02
 cg2d: Sum(rhs),rhsMax =  -1.02991143391407E-10  4.31724207400902E-02
 cg2d: Sum(rhs),rhsMax =  -1.02305136584491E-10  4.34098582775653E-02
 cg2d: Sum(rhs),rhsMax =  -1.01720992740084E-10  4.36449829488090E-02
 cg2d: Sum(rhs),rhsMax =  -1.01050334766484E-10  4.38776916794277E-02
 cg2d: Sum(rhs),rhsMax =  -1.00380093126518E-10  4.41078586344351E-02
 cg2d: Sum(rhs),rhsMax =  -9.97651405931776E-11  4.43353414350540E-02
 cg2d: Sum(rhs),rhsMax =  -9.91696724739199E-11  4.45601704049958E-02
 cg2d: Sum(rhs),rhsMax =  -9.85629355909623E-11  4.47822701185949E-02
 cg2d: Sum(rhs),rhsMax =  -9.80725500809854E-11  4.50015779933856E-02
 cg2d: Sum(rhs),rhsMax =  -9.75211023046541E-11  4.52180863092813E-02
 cg2d: Sum(rhs),rhsMax =  -9.69752056434459E-11  4.54318902697526E-02
 cg2d: Sum(rhs),rhsMax =  -9.64996971219989E-11  4.56430330803051E-02
 cg2d: Sum(rhs),rhsMax =  -9.59396451172267E-11  4.58514137993594E-02
 cg2d: Sum(rhs),rhsMax =  -9.54279433251770E-11  4.60568623328129E-02
 cg2d: Sum(rhs),rhsMax =  -9.49987866150082E-11  4.62592900851312E-02
 cg2d: Sum(rhs),rhsMax =  -9.44671563196664E-11  4.64584927776309E-02
(PID.TID 0000.0001)      cg2d_init_res =   9.57743342112426E-02
(PID.TID 0000.0001)      cg2d_iters(min,last) =      -1      38
(PID.TID 0000.0001)      cg2d_last_res =   9.89746711370768E-14
(PID.TID 0000.0001) // =======================================================
(PID.TID 0000.0001) // Begin MONITOR dynamic field statistics
(PID.TID 0000.0001) // =======================================================
(PID.TID 0000.0001) %MON time_tsnumber                =                  6720
(PID.TID 0000.0001) %MON time_secondsf                =   1.0080000000000E+05
(PID.TID 0000.0001) %MON dynstat_eta_max              =   4.8288812423048E-03
(PID.TID 0000.0001) %MON dynstat_eta_min              =  -1.2232684031424E-02
(PID.TID 0000.0001) %MON dynstat_eta_mean             =   9.6711985382888E-15
(PID.TID 0000.0001) %MON dynstat_eta_sd               =   6.6660038167113E-03
(PID.TID 0000.0001) %MON dynstat_eta_del2             =   3.6283846107523E-05
(PID.TID 0000.0001) %MON dynstat_uvel_max             =   1.0223312911681E+00
(PID.TID 0000.0001) %MON dynstat_uvel_min             =  -1.2460940231600E-01
(PID.TID 0000.0001) %MON dynstat_uvel_mean            =   4.5408622281942E-01
(PID.TID 0000.0001) %MON dynstat_uvel_sd              =   1.3889444915879E-01
(PID.TID 0000.0001) %MON dynstat_uvel_del2            =   5.0483717466912E-04
(PID.TID 0000.0001) %MON dynstat_vvel_max             =   0.0000000000000E+00
(PID.TID 0000.0001) %MON dynstat_vvel_min             =   0.0000000000000E+00
(PID.TID 0000.0001) %MON dynstat_vvel_mean            =   0.0000000000000E+00
(PID.TID 0000.0001) %MON dynstat_vvel_sd              =   0.0000000000000E+00
(PID.TID 0000.0001) %MON dynstat_vvel_del2            =   0.0000000000000E+00
(PID.TID 0000.0001) %MON dynstat_wvel_max             =   2.0082127756779E-02
(PID.TID 0000.0001) %MON dynstat_wvel_min             =  -1.6687729948191E-02
(PID.TID 0000.0001) %MON dynstat_wvel_mean            =  -5.4083685668224E-20
(PID.TID 0000.0001) %MON dynstat_wvel_sd              =   2.1778529046742E-03
(PID.TID 0000.0001) %MON dynstat_wvel_del2            =   4.2740953805652E-05
(PID.TID 0000.0001) %MON dynstat_theta_max            =   1.5000000000013E+01
(PID.TID 0000.0001) %MON dynstat_theta_min            =   9.9999999999973E+00
(PID.TID 0000.0001) %MON dynstat_theta_mean           =   1.3965232401017E+01
(PID.TID 0000.0001) %MON dynstat_theta_sd             =   1.8515701410340E+00
(PID.TID 0000.0001) %MON dynstat_theta_del2           =   7.3180100886820E-04
(PID.TID 0000.0001) %MON dynstat_salt_max             =   3.5000000000000E+01
(PID.TID 0000.0001) %MON dynstat_salt_min             =   3.5000000000000E+01
(PID.TID 0000.0001) %MON dynstat_salt_mean            =   3.5000000000000E+01
(PID.TID 0000.0001) %MON dynstat_salt_sd              =   3.0553337637684E-13
(PID.TID 0000.0001) %MON dynstat_salt_del2            =   0.0000000000000E+00
(PID.TID 0000.0001) %MON dynstat_sst_max              =   1.5000000000000E+01
(PID.TID 0000.0001) %MON dynstat_sst_min              =   1.4999999999998E+01
(PID.TID 0000.0001) %MON dynstat_sst_mean             =   1.4999999999999E+01
(PID.TID 0000.0001) %MON dynstat_sst_sd               =   6.3683329678239E-13
(PID.TID 0000.0001) %MON dynstat_sst_del2             =   5.1973715241876E-15
(PID.TID 0000.0001) %MON dynstat_sss_max              =   3.5000000000000E+01
(PID.TID 0000.0001) %MON dynstat_sss_min              =   3.5000000000000E+01
(PID.TID 0000.0001) %MON dynstat_sss_mean             =   3.5000000000000E+01
(PID.TID 0000.0001) %MON dynstat_sss_sd               =   2.8421709430404E-14
(PID.TID 0000.0001) %MON dynstat_sss_del2             =   0.0000000000000E+00
(PID.TID 0000.0001) %MON forcing_qnet_max             =   0.0000000000000E+00
(PID.TID 0000.0001) %MON forcing_qnet_min             =   0.0000000000000E+00
(PID.TID 0000.0001) %MON forcing_qnet_mean            =   0.0000000000000E+00
(PID.TID 0000.0001) %MON forcing_qnet_sd              =   0.0000000000000E+00
(PID.TID 0000.0001) %MON forcing_qnet_del2            =   0.0000000000000E+00
(PID.TID 0000.0001) %MON forcing_qsw_max              =   0.0000000000000E+00
(PID.TID 0000.0001) %MON forcing_qsw_min              =   0.0000000000000E+00
(PID.TID 0000.0001) %MON forcing_qsw_mean             =   0.0000000000000E+00
(PID.TID 0000.0001) %MON forcing_qsw_sd               =   0.0000000000000E+00
(PID.TID 0000.0001) %MON forcing_qsw_del2             =   0.0000000000000E+00
(PID.TID 0000.0001) %MON forcing_empmr_max            =   0.0000000000000E+00
(PID.TID 0000.0001) %MON forcing_empmr_min            =   0.0000000000000E+00
(PID.TID 0000.0001) %MON forcing_empmr_mean           =   0.0000000000000E+00
(PID.TID 0000.0001) %MON forcing_empmr_sd             =   0.0000000000000E+00
(PID.TID 0000.0001) %MON forcing_empmr_del2           =   0.0000000000000E+00
(PID.TID 0000.0001) %MON forcing_fu_max               =   0.0000000000000E+00
(PID.TID 0000.0001) %MON forcing_fu_min               =   0.0000000000000E+00
(PID.TID 0000.0001) %MON forcing_fu_mean              =   0.0000000000000E+00
(PID.TID 0000.0001) %MON forcing_fu_sd                =   0.0000000000000E+00
(PID.TID 0000.0001) %MON forcing_fu_del2              =   0.0000000000000E+00
(PID.TID 0000.0001) %MON forcing_fv_max               =   0.0000000000000E+00
(PID.TID 0000.0001) %MON forcing_fv_min               =   0.0000000000000E+00
(PID.TID 0000.0001) %MON forcing_fv_mean              =   0.0000000000000E+00
(PID.TID 0000.0001) %MON forcing_fv_sd                =   0.0000000000000E+00
(PID.TID 0000.0001) %MON forcing_fv_del2              =   0.0000000000000E+00
(PID.TID 0000.0001) %MON advcfl_uvel_max              =   7.6674846837609E-02
(PID.TID 0000.0001) %MON advcfl_vvel_max              =   0.0000000000000E+00
(PID.TID 0000.0001) %MON advcfl_wvel_max              =   1.1561760064495E-01
(PID.TID 0000.0001) %MON advcfl_W_hf_max              =   1.1687545125343E-01
(PID.TID 0000.0001) %MON pe_b_mean                    =   1.1013222736514E-06
(PID.TID 0000.0001) %MON ke_max                       =   4.2786804674138E-01
(PID.TID 0000.0001) %MON ke_mean                      =   1.1285345891671E-01
(PID.TID 0000.0001) %MON ke_vol                       =   9.6656965507697E+10
(PID.TID 0000.0001) %MON vort_r_min                   =   0.0000000000000E+00
(PID.TID 0000.0001) %MON vort_r_max                   =   0.0000000000000E+00
(PID.TID 0000.0001) %MON vort_a_mean                  =   0.0000000000000E+00
(PID.TID 0000.0001) %MON vort_a_sd                    =   0.0000000000000E+00
(PID.TID 0000.0001) %MON vort_p_mean                  =   0.0000000000000E+00
(PID.TID 0000.0001) %MON vort_p_sd                    =   0.0000000000000E+00
(PID.TID 0000.0001) %MON surfExpan_theta_mean         =  -2.6296373743189E-18
(PID.TID 0000.0001) %MON surfExpan_salt_mean          =  -2.4073390922551E-18
(PID.TID 0000.0001) // =======================================================
(PID.TID 0000.0001) // End MONITOR dynamic field statistics
(PID.TID 0000.0001) // =======================================================
(PID.TID 0000.0001) // =======================================================
(PID.TID 0000.0001) // Begin OBCS MONITOR field statistics
(PID.TID 0000.0001) // =======================================================
(PID.TID 0000.0001) %MON obc_E_uVel_max               =   4.4822851314926E-01
(PID.TID 0000.0001) %MON obc_E_uVel_min               =   4.4822851314926E-01
(PID.TID 0000.0001) %MON obc_E_uVel_mean              =   4.4822851314926E-01
(PID.TID 0000.0001) %MON obc_E_uVel_sd                =   0.0000000000000E+00
(PID.TID 0000.0001) %MON obc_E_uVel_Int               =   4.4822851314926E+05
(PID.TID 0000.0001) %MON obc_W_uVel_max               =   4.4822851314926E-01
(PID.TID 0000.0001) %MON obc_W_uVel_min               =   4.4822851314926E-01
(PID.TID 0000.0001) %MON obc_W_uVel_mean              =   4.4822851314926E-01
(PID.TID 0000.0001) %MON obc_W_uVel_sd                =   0.0000000000000E+00
(PID.TID 0000.0001) %MON obc_W_uVel_Int               =   4.4822851314926E+05
(PID.TID 0000.0001) // =======================================================
(PID.TID 0000.0001) // End OBCS MONITOR field statistics
(PID.TID 0000.0001) // =======================================================
 cg2d: Sum(rhs),rhsMax =  -9.40126310133849E-11  4.66545094237362E-02
 cg2d: Sum(rhs),rhsMax =  -9.36050126298937E-11  4.68472541692472E-02
 cg2d: Sum(rhs),rhsMax =  -9.31313914875886E-11  4.70365544997040E-02
 cg2d: Sum(rhs),rhsMax =  -9.26759224917362E-11  4.72222535148078E-02
 cg2d: Sum(rhs),rhsMax =  -9.23287002407847E-11  4.74042039018612E-02
 cg2d: Sum(rhs),rhsMax =  -9.18871645438912E-11  4.75822711164964E-02
 cg2d: Sum(rhs),rhsMax =  -9.14706088650519E-11  4.77563567429471E-02
 cg2d: Sum(rhs),rhsMax =  -9.11175579432211E-11  4.79263608247627E-02
 cg2d: Sum(rhs),rhsMax =  -9.07504071889775E-11  4.80921887331300E-02
 cg2d: Sum(rhs),rhsMax =  -9.04464281248352E-11  4.82536052631106E-02
 cg2d: Sum(rhs),rhsMax =  -9.00743923892833E-11  4.84106643562898E-02
 cg2d: Sum(rhs),rhsMax =  -8.97023566537314E-11  4.85634378805272E-02
 cg2d: Sum(rhs),rhsMax =  -8.93070062346624E-11  4.87118532523635E-02
 cg2d: Sum(rhs),rhsMax =  -8.90104656647850E-11  4.88558373146551E-02
 cg2d: Sum(rhs),rhsMax =  -8.87215856337775E-11  4.89952952535107E-02
 cg2d: Sum(rhs),rhsMax =  -8.83766393400265E-11  4.91301744537912E-02
 cg2d: Sum(rhs),rhsMax =  -8.80925332680249E-11  4.92604281444417E-02
 cg2d: Sum(rhs),rhsMax =  -8.77901085161170E-11  4.93860804660613E-02
 cg2d: Sum(rhs),rhsMax =  -8.75479688744463E-11  4.95070665395183E-02
 cg2d: Sum(rhs),rhsMax =  -8.72905081550357E-11  4.96231575551310E-02
 cg2d: Sum(rhs),rhsMax =  -8.70419292198221E-11  4.97344590811163E-02
 cg2d: Sum(rhs),rhsMax =  -8.67993454889415E-11  4.98409987246091E-02
 cg2d: Sum(rhs),rhsMax =  -8.65605365163447E-11  4.99426443286446E-02
 cg2d: Sum(rhs),rhsMax =  -8.63369375991851E-11  5.00393792298375E-02
 cg2d: Sum(rhs),rhsMax =  -8.61442028821102E-11  5.01311291633561E-02
 cg2d: Sum(rhs),rhsMax =  -8.59164961397596E-11  5.02178536543514E-02
 cg2d: Sum(rhs),rhsMax =  -8.57218740435428E-11  5.02995854060826E-02
 cg2d: Sum(rhs),rhsMax =  -8.55697734891692E-11  5.03762785343942E-02
 cg2d: Sum(rhs),rhsMax =  -8.53601633821199E-11  5.04479160219937E-02
 cg2d: Sum(rhs),rhsMax =  -8.51919645938892E-11  5.05144480504180E-02
 cg2d: Sum(rhs),rhsMax =  -8.50401971064230E-11  5.05756952977620E-02
 cg2d: Sum(rhs),rhsMax =  -8.48361381144969E-11  5.06317100659464E-02
 cg2d: Sum(rhs),rhsMax =  -8.46896996975488E-11  5.06824510857067E-02
 cg2d: Sum(rhs),rhsMax =  -8.45143954819605E-11  5.07278447946358E-02
 cg2d: Sum(rhs),rhsMax =  -8.43559666563465E-11  5.07678267028397E-02
 cg2d: Sum(rhs),rhsMax =  -8.42569347625499E-11  5.08023103542722E-02
 cg2d: Sum(rhs),rhsMax =  -8.41695602105119E-11  5.08311935837480E-02
 cg2d: Sum(rhs),rhsMax =  -8.41144931484905E-11  5.08543362116710E-02
 cg2d: Sum(rhs),rhsMax =  -8.38903391198187E-11  5.09446364981529E-02
 cg2d: Sum(rhs),rhsMax =  -8.35352897965436E-11  5.11062399768782E-02
 cg2d: Sum(rhs),rhsMax =  -8.32117708071678E-11  5.12613186237650E-02
 cg2d: Sum(rhs),rhsMax =  -8.28924706652856E-11  5.14097413287410E-02
 cg2d: Sum(rhs),rhsMax =  -8.25975954299452E-11  5.15514894586925E-02
 cg2d: Sum(rhs),rhsMax =  -8.23209278522086E-11  5.16865039506828E-02
 cg2d: Sum(rhs),rhsMax =  -8.20262746614731E-11  5.18147013795871E-02
 cg2d: Sum(rhs),rhsMax =  -8.17615974924024E-11  5.19360863658456E-02
 cg2d: Sum(rhs),rhsMax =  -8.15629785932970E-11  5.20506317497461E-02
 cg2d: Sum(rhs),rhsMax =  -8.13539235977601E-11  5.21583456227663E-02
 cg2d: Sum(rhs),rhsMax =  -8.11405387324271E-11  5.22592466171141E-02
 cg2d: Sum(rhs),rhsMax =  -8.08926259310283E-11  5.23534227303502E-02
 cg2d: Sum(rhs),rhsMax =  -8.07411915104694E-11  5.24409361116614E-02
 cg2d: Sum(rhs),rhsMax =  -8.05387978530803E-11  5.25219123816729E-02
 cg2d: Sum(rhs),rhsMax =  -8.03771493806948E-11  5.25962867162485E-02
 cg2d: Sum(rhs),rhsMax =  -8.02535815580541E-11  5.26640725874401E-02
 cg2d: Sum(rhs),rhsMax =  -8.01467781030851E-11  5.27253131308265E-02
 cg2d: Sum(rhs),rhsMax =  -8.00566279934856E-11  5.27800328460068E-02
 cg2d: Sum(rhs),rhsMax =  -7.99382782190605E-11  5.28281812298091E-02
 cg2d: Sum(rhs),rhsMax =  -7.98671129231820E-11  5.28697023635530E-02
 cg2d: Sum(rhs),rhsMax =  -7.98429100612452E-11  5.29046401676301E-02
 cg2d: Sum(rhs),rhsMax =  -7.98757726627741E-11  5.29330818558075E-02
 cg2d: Sum(rhs),rhsMax =  -7.98282551173202E-11  5.29551670636198E-02
 cg2d: Sum(rhs),rhsMax =  -7.98544563807013E-11  5.29709473956983E-02
 cg2d: Sum(rhs),rhsMax =  -7.98707766591633E-11  5.29805930099149E-02
 cg2d: Sum(rhs),rhsMax =  -7.99181831823148E-11  5.29842305201162E-02
 cg2d: Sum(rhs),rhsMax =  -7.99154076247532E-11  5.29819709827013E-02
 cg2d: Sum(rhs),rhsMax =  -7.99713628651944E-11  5.29739210256966E-02
 cg2d: Sum(rhs),rhsMax =  -7.99911248350327E-11  5.29601191217240E-02
 cg2d: Sum(rhs),rhsMax =  -8.00436383840974E-11  5.29405922184338E-02
 cg2d: Sum(rhs),rhsMax =  -8.01078092749208E-11  5.29153155083063E-02
 cg2d: Sum(rhs),rhsMax =  -8.02230504248769E-11  5.28842971106353E-02
 cg2d: Sum(rhs),rhsMax =  -8.02881094941199E-11  5.28474201017023E-02
 cg2d: Sum(rhs),rhsMax =  -8.03862532094968E-11  5.28045826481095E-02
 cg2d: Sum(rhs),rhsMax =  -8.04952771105150E-11  5.27556995440352E-02
 cg2d: Sum(rhs),rhsMax =  -8.06438249512098E-11  5.27007157519253E-02
 cg2d: Sum(rhs),rhsMax =  -8.07883759890160E-11  5.26396345658641E-02
 cg2d: Sum(rhs),rhsMax =  -8.09109446109346E-11  5.25724279745299E-02
 cg2d: Sum(rhs),rhsMax =  -8.10593814293270E-11  5.24990091392116E-02
 cg2d: Sum(rhs),rhsMax =  -8.11907208131402E-11  5.24192417739452E-02
 cg2d: Sum(rhs),rhsMax =  -8.13129563681514E-11  5.23331604018878E-02
 cg2d: Sum(rhs),rhsMax =  -8.15270073672991E-11  5.22408724934330E-02
 cg2d: Sum(rhs),rhsMax =  -8.17030887390047E-11  5.21424995474800E-02
 cg2d: Sum(rhs),rhsMax =  -8.18844991812284E-11  5.20380997066417E-02
 cg2d: Sum(rhs),rhsMax =  -8.21122059235790E-11  5.19277940543867E-02
 cg2d: Sum(rhs),rhsMax =  -8.23215939860233E-11  5.18118116789802E-02
 cg2d: Sum(rhs),rhsMax =  -8.25700618989345E-11  5.16903542779739E-02
 cg2d: Sum(rhs),rhsMax =  -8.28077606485067E-11  5.15635816564970E-02
 cg2d: Sum(rhs),rhsMax =  -8.30499002901774E-11  5.14315324632774E-02
 cg2d: Sum(rhs),rhsMax =  -8.33095814556373E-11  5.12942058574104E-02
 cg2d: Sum(rhs),rhsMax =  -8.36203328802299E-11  5.11517339674306E-02
 cg2d: Sum(rhs),rhsMax =  -8.38693559046533E-11  5.10042203114087E-02
 cg2d: Sum(rhs),rhsMax =  -8.41741121249129E-11  5.08517721588943E-02
 cg2d: Sum(rhs),rhsMax =  -8.45092884560472E-11  5.06944716087794E-02
 cg2d: Sum(rhs),rhsMax =  -8.48248138396457E-11  5.05324170120225E-02
 cg2d: Sum(rhs),rhsMax =  -8.52024006903207E-11  5.03656857276920E-02
 cg2d: Sum(rhs),rhsMax =  -8.54967208141488E-11  5.01943585417750E-02
 cg2d: Sum(rhs),rhsMax =  -8.58785265123174E-11  5.00185310351044E-02
 cg2d: Sum(rhs),rhsMax =  -8.62377946830861E-11  4.98383032770669E-02
 cg2d: Sum(rhs),rhsMax =  -8.66458016446359E-11  4.96538165132834E-02
 cg2d: Sum(rhs),rhsMax =  -8.70280514320143E-11  4.94651459198843E-02
 cg2d: Sum(rhs),rhsMax =  -8.74686989504880E-11  4.92723751519952E-02
 cg2d: Sum(rhs),rhsMax =  -8.78651040814304E-11  4.90755759128412E-02
 cg2d: Sum(rhs),rhsMax =  -8.83035866650062E-11  4.88747814211531E-02
 cg2d: Sum(rhs),rhsMax =  -8.87646067759817E-11  4.86702123750251E-02
 cg2d: Sum(rhs),rhsMax =  -8.91797746760403E-11  4.84619955613234E-02
 cg2d: Sum(rhs),rhsMax =  -8.96280827333840E-11  4.82502512031538E-02
 cg2d: Sum(rhs),rhsMax =  -9.01178021095461E-11  4.80351094364555E-02
 cg2d: Sum(rhs),rhsMax =  -9.06117403332019E-11  4.78167036542806E-02
 cg2d: Sum(rhs),rhsMax =  -9.10910791240838E-11  4.75951614241239E-02
 cg2d: Sum(rhs),rhsMax =  -9.16237641312989E-11  4.73706547689320E-02
 cg2d: Sum(rhs),rhsMax =  -9.21219212024482E-11  4.71432077656770E-02
 cg2d: Sum(rhs),rhsMax =  -9.26603793693914E-11  4.69128404182894E-02
 cg2d: Sum(rhs),rhsMax =  -9.31611454646486E-11  4.66796488904897E-02
 cg2d: Sum(rhs),rhsMax =  -9.37256938726705E-11  4.64437717129413E-02
 cg2d: Sum(rhs),rhsMax =  -9.43007338882751E-11  4.62053330101998E-02
 cg2d: Sum(rhs),rhsMax =  -9.48042200299426E-11  4.59644407828785E-02
 cg2d: Sum(rhs),rhsMax =  -9.53989109930831E-11  4.57211513717023E-02
 cg2d: Sum(rhs),rhsMax =  -9.60092005897195E-11  4.54755561850677E-02
 cg2d: Sum(rhs),rhsMax =  -9.65549307174740E-11  4.52278299148311E-02
 cg2d: Sum(rhs),rhsMax =  -9.71429048313155E-11  4.49780407042053E-02
 cg2d: Sum(rhs),rhsMax =  -9.77973813043320E-11  4.47262987256782E-02
 cg2d: Sum(rhs),rhsMax =  -9.83895187545158E-11  4.44728394660628E-02
 cg2d: Sum(rhs),rhsMax =  -9.89471837797851E-11  4.42179125857841E-02
 cg2d: Sum(rhs),rhsMax =  -9.96307758516224E-11  4.39616193079433E-02
 cg2d: Sum(rhs),rhsMax =  -1.00254887724915E-10  4.37040435444644E-02
 cg2d: Sum(rhs),rhsMax =  -1.00876945685613E-10  4.34452867756615E-02
 cg2d: Sum(rhs),rhsMax =  -1.01536279384362E-10  4.31853183484953E-02
 cg2d: Sum(rhs),rhsMax =  -1.02245711897098E-10  4.29241646529813E-02
 cg2d: Sum(rhs),rhsMax =  -1.02903546794764E-10  4.26618891178246E-02
 cg2d: Sum(rhs),rhsMax =  -1.03617933677747E-10  4.23985193097565E-02
 cg2d: Sum(rhs),rhsMax =  -1.04294711755770E-10  4.21340846245032E-02
 cg2d: Sum(rhs),rhsMax =  -1.05034203556897E-10  4.18686914649825E-02
 cg2d: Sum(rhs),rhsMax =  -1.05735531441553E-10  4.16025677394070E-02
 cg2d: Sum(rhs),rhsMax =  -1.05275198281074E-10  4.18227831547526E-02
 cg2d: Sum(rhs),rhsMax =  -1.03101107512549E-10  4.27131031725653E-02
 cg2d: Sum(rhs),rhsMax =  -1.01084147996477E-10  4.36019472855544E-02
 cg2d: Sum(rhs),rhsMax =  -9.91133598804428E-11  4.44888582906653E-02
 cg2d: Sum(rhs),rhsMax =  -9.72905887797193E-11  4.53733833197572E-02
 cg2d: Sum(rhs),rhsMax =  -9.55308748773476E-11  4.62550747577160E-02
 cg2d: Sum(rhs),rhsMax =  -9.37911484588660E-11  4.71334908697509E-02
 cg2d: Sum(rhs),rhsMax =  -9.21273474174811E-11  4.80081961886772E-02
 cg2d: Sum(rhs),rhsMax =  -9.05360370007102E-11  4.88787617157546E-02
 cg2d: Sum(rhs),rhsMax =  -8.90140183784638E-11  4.97447649875242E-02
 cg2d: Sum(rhs),rhsMax =  -8.76008016126306E-11  5.06057900563050E-02
 cg2d: Sum(rhs),rhsMax =  -8.62004773116709E-11  5.14614274245367E-02
 cg2d: Sum(rhs),rhsMax =  -8.49034453853648E-11  5.23112739642125E-02
 cg2d: Sum(rhs),rhsMax =  -8.36486435673578E-11  5.31549328432503E-02
 cg2d: Sum(rhs),rhsMax =  -8.24295631751681E-11  5.39920134703284E-02
 cg2d: Sum(rhs),rhsMax =  -8.12493128332648E-11  5.48221314656256E-02
 cg2d: Sum(rhs),rhsMax =  -8.01115007664777E-11  5.56449086549861E-02
 cg2d: Sum(rhs),rhsMax =  -7.90315035636979E-11  5.64599730817416E-02
 cg2d: Sum(rhs),rhsMax =  -7.80066566896664E-11  5.72669590229700E-02
 cg2d: Sum(rhs),rhsMax =  -7.69642127806947E-11  5.80655070001516E-02
 cg2d: Sum(rhs),rhsMax =  -7.59934615235380E-11  5.88552637739059E-02
 cg2d: Sum(rhs),rhsMax =  -7.50459416831717E-11  5.96358823134745E-02
 cg2d: Sum(rhs),rhsMax =  -7.41022521122403E-11  6.04070217336959E-02
 cg2d: Sum(rhs),rhsMax =  -7.32685578874737E-11  6.11683471952825E-02
 cg2d: Sum(rhs),rhsMax =  -7.23950621672742E-11  6.19195297678267E-02
 cg2d: Sum(rhs),rhsMax =  -7.15875136947375E-11  6.26602462586483E-02
 cg2d: Sum(rhs),rhsMax =  -7.08003655702782E-11  6.33901790139449E-02
 cg2d: Sum(rhs),rhsMax =  -7.00642877049518E-11  6.41090157012628E-02
 cg2d: Sum(rhs),rhsMax =  -6.93496926551518E-11  6.48164490840448E-02
 cg2d: Sum(rhs),rhsMax =  -6.86719570097694E-11  6.55121767993844E-02
 cg2d: Sum(rhs),rhsMax =  -6.79966638550411E-11  6.61959011491772E-02
 cg2d: Sum(rhs),rhsMax =  -6.73626709968289E-11  6.68673289129832E-02
 cg2d: Sum(rhs),rhsMax =  -6.67635946527412E-11  6.75261711895277E-02
 cg2d: Sum(rhs),rhsMax =  -6.61733445816992E-11  6.81721432653945E-02
 cg2d: Sum(rhs),rhsMax =  -6.56069643056867E-11  6.88049645143767E-02
 cg2d: Sum(rhs),rhsMax =  -6.50194342810551E-11  6.94243583239343E-02
 cg2d: Sum(rhs),rhsMax =  -6.45115627584403E-11  7.00300520465432E-02
 cg2d: Sum(rhs),rhsMax =  -6.39991948325758E-11  7.06217769701781E-02
 cg2d: Sum(rhs),rhsMax =  -6.35203556420549E-11  7.11992683056458E-02
 cg2d: Sum(rhs),rhsMax =  -6.30214214147884E-11  7.17622651925906E-02
 cg2d: Sum(rhs),rhsMax =  -6.26167451223125E-11  7.23105107287148E-02
 cg2d: Sum(rhs),rhsMax =  -6.21686591095738E-11  7.28437520278377E-02
 cg2d: Sum(rhs),rhsMax =  -6.17598194807556E-11  7.33617403221340E-02
 cg2d: Sum(rhs),rhsMax =  -6.13747941358156E-11  7.38642311220139E-02
 cg2d: Sum(rhs),rhsMax =  -6.10354544683389E-11  7.43509844475764E-02
 cg2d: Sum(rhs),rhsMax =  -6.07229821980582E-11  7.48217651443613E-02
 cg2d: Sum(rhs),rhsMax =  -6.03690430978077E-11  7.52763432933249E-02
 cg2d: Sum(rhs),rhsMax =  -6.00955951668425E-11  7.57144947206134E-02
 cg2d: Sum(rhs),rhsMax =  -5.97981109073942E-11  7.61360016072186E-02
 cg2d: Sum(rhs),rhsMax =  -5.95122284785532E-11  7.65406531868432E-02
 cg2d: Sum(rhs),rhsMax =  -5.92595972292997E-11  7.69282465357927E-02
 cg2d: Sum(rhs),rhsMax =  -5.90212878570640E-11  7.72985874246669E-02
 cg2d: Sum(rhs),rhsMax =  -5.87767057247390E-11  7.76514912081512E-02
 cg2d: Sum(rhs),rhsMax =  -5.85829162957907E-11  7.79867837262865E-02
 cg2d: Sum(rhs),rhsMax =  -5.83850190416513E-11  7.83043021942964E-02
 cg2d: Sum(rhs),rhsMax =  -5.81950043709867E-11  7.86038960417251E-02
 cg2d: Sum(rhs),rhsMax =  -5.80115955273186E-11  7.88854276664805E-02
 cg2d: Sum(rhs),rhsMax =  -5.78513348337140E-11  7.91487730836470E-02
 cg2d: Sum(rhs),rhsMax =  -5.77127790002407E-11  7.93938224401367E-02
 cg2d: Sum(rhs),rhsMax =  -5.76096947924043E-11  7.96204803693702E-02
 cg2d: Sum(rhs),rhsMax =  -5.75187675266875E-11  7.98286661650108E-02
 cg2d: Sum(rhs),rhsMax =  -5.74486014315312E-11  8.00183137591611E-02
 cg2d: Sum(rhs),rhsMax =  -5.73567859873947E-11  8.01893714977324E-02
 cg2d: Sum(rhs),rhsMax =  -5.73253666757978E-11  8.03418017135663E-02
 cg2d: Sum(rhs),rhsMax =  -5.72723535263719E-11  8.04755801075102E-02
 cg2d: Sum(rhs),rhsMax =  -5.72187852654338E-11  8.05906949507605E-02
 cg2d: Sum(rhs),rhsMax =  -5.71675484728473E-11  8.06871461372815E-02
 cg2d: Sum(rhs),rhsMax =  -5.71689362516281E-11  8.07649441208668E-02
 cg2d: Sum(rhs),rhsMax =  -5.71433456109105E-11  8.08241087768945E-02
 cg2d: Sum(rhs),rhsMax =  -5.71852565300901E-11  8.08646682362014E-02
 cg2d: Sum(rhs),rhsMax =  -5.72023539646693E-11  8.08866577273453E-02
 cg2d: Sum(rhs),rhsMax =  -5.71913072455743E-11  8.08901185026573E-02
 cg2d: Sum(rhs),rhsMax =  -5.71448444119937E-11  8.08750968776939E-02
 cg2d: Sum(rhs),rhsMax =  -5.70818947664975E-11  8.08416434274025E-02
 cg2d: Sum(rhs),rhsMax =  -5.71121483439185E-11  8.07898123761213E-02
 cg2d: Sum(rhs),rhsMax =  -5.71265257320874E-11  8.07196612072800E-02
 cg2d: Sum(rhs),rhsMax =  -5.71734881660291E-11  8.06312505080147E-02
 cg2d: Sum(rhs),rhsMax =  -5.72317748748219E-11  8.05246440509325E-02
 cg2d: Sum(rhs),rhsMax =  -5.72673020116099E-11  8.03999091028411E-02
 cg2d: Sum(rhs),rhsMax =  -5.73490144262223E-11  8.02571169399497E-02
 cg2d: Sum(rhs),rhsMax =  -5.74535419239908E-11  8.00963435346780E-02
 cg2d: Sum(rhs),rhsMax =  -5.75118841439348E-11  7.99176703743166E-02
 cg2d: Sum(rhs),rhsMax =  -5.76530490015159E-11  7.97211853679062E-02
 cg2d: Sum(rhs),rhsMax =  -5.77799474932306E-11  7.95069837916781E-02
 cg2d: Sum(rhs),rhsMax =  -5.79191694605186E-11  7.92751692228837E-02
 cg2d: Sum(rhs),rhsMax =  -5.80692161022967E-11  7.90258544147329E-02
 cg2d: Sum(rhs),rhsMax =  -5.82442427621288E-11  7.87591620696879E-02
 cg2d: Sum(rhs),rhsMax =  -5.84205461784393E-11  7.84752254756807E-02
 cg2d: Sum(rhs),rhsMax =  -5.85808623831952E-11  7.81741889787118E-02
 cg2d: Sum(rhs),rhsMax =  -5.87946358265867E-11  7.78562082749810E-02
 cg2d: Sum(rhs),rhsMax =  -5.90110738052374E-11  7.75214505153997E-02
 cg2d: Sum(rhs),rhsMax =  -5.92093596374355E-11  7.71700942243802E-02
 cg2d: Sum(rhs),rhsMax =  -5.94492788330570E-11  7.68023290428711E-02
 cg2d: Sum(rhs),rhsMax =  -5.96861449153607E-11  7.64183553115943E-02
 cg2d: Sum(rhs),rhsMax =  -5.99578720006377E-11  7.60183835154950E-02
 cg2d: Sum(rhs),rhsMax =  -6.02104477387400E-11  7.56026336170295E-02
 cg2d: Sum(rhs),rhsMax =  -6.04780669988259E-11  7.51713343013019E-02
 cg2d: Sum(rhs),rhsMax =  -6.07749406356106E-11  7.47247221594674E-02
 cg2d: Sum(rhs),rhsMax =  -6.10788086774505E-11  7.42630408357606E-02
 cg2d: Sum(rhs),rhsMax =  -6.14085449157642E-11  7.37865401614988E-02
 cg2d: Sum(rhs),rhsMax =  -6.17860762552880E-11  7.32954752900622E-02
 cg2d: Sum(rhs),rhsMax =  -6.21698248437497E-11  7.27901058710712E-02
 cg2d: Sum(rhs),rhsMax =  -6.25156593159204E-11  7.22706952641296E-02
 cg2d: Sum(rhs),rhsMax =  -6.29414298458641E-11  7.17375098062739E-02
 cg2d: Sum(rhs),rhsMax =  -6.33754715373414E-11  7.11908181472277E-02
 cg2d: Sum(rhs),rhsMax =  -6.37926378388443E-11  7.06308906654287E-02
 cg2d: Sum(rhs),rhsMax =  -6.42489395019652E-11  7.00579989761341E-02
 cg2d: Sum(rhs),rhsMax =  -6.47773501505355E-11  6.94724155410160E-02
 cg2d: Sum(rhs),rhsMax =  -6.53175291631669E-11  6.88744133866573E-02
 cg2d: Sum(rhs),rhsMax =  -6.58229581951275E-11  6.82642659371915E-02
 cg2d: Sum(rhs),rhsMax =  -6.63915034060381E-11  6.76422469643601E-02
 cg2d: Sum(rhs),rhsMax =  -6.69851951684564E-11  6.70086306574395E-02
 cg2d: Sum(rhs),rhsMax =  -6.76038669489287E-11  6.63636917990768E-02
 cg2d: Sum(rhs),rhsMax =  -6.82062462065147E-11  6.57077060564781E-02
 cg2d: Sum(rhs),rhsMax =  -6.88665791059861E-11  6.50409503552098E-02
 cg2d: Sum(rhs),rhsMax =  -6.95559720931271E-11  6.43637033431776E-02
 cg2d: Sum(rhs),rhsMax =  -7.02478353264979E-11  6.36762459271307E-02
 cg2d: Sum(rhs),rhsMax =  -7.09350078675897E-11  6.29788618620804E-02
 cg2d: Sum(rhs),rhsMax =  -7.16753045804097E-11  6.22718383727518E-02
 cg2d: Sum(rhs),rhsMax =  -7.24688919984118E-11  6.15554667855609E-02
 cg2d: Sum(rhs),rhsMax =  -7.32438554251758E-11  6.08300431489038E-02
 cg2d: Sum(rhs),rhsMax =  -7.40657535303058E-11  6.00958688187802E-02
 cg2d: Sum(rhs),rhsMax =  -7.48993367327699E-11  5.93532509862375E-02
 cg2d: Sum(rhs),rhsMax =  -7.57804374806881E-11  5.86025031232400E-02
 cg2d: Sum(rhs),rhsMax =  -7.66746666158724E-11  5.78439453247414E-02
 cg2d: Sum(rhs),rhsMax =  -7.76327613305483E-11  5.70779045271916E-02
 cg2d: Sum(rhs),rhsMax =  -7.86232745575433E-11  5.63047145875143E-02
 cg2d: Sum(rhs),rhsMax =  -7.96378518685970E-11  5.55247162116449E-02
 cg2d: Sum(rhs),rhsMax =  -8.07056921292570E-11  5.47382567278665E-02
 cg2d: Sum(rhs),rhsMax =  -8.18055068130263E-11  5.39456897068822E-02
 cg2d: Sum(rhs),rhsMax =  -8.29198654184182E-11  5.31473744366617E-02
 cg2d: Sum(rhs),rhsMax =  -8.41181985178352E-11  5.23436752676397E-02
 cg2d: Sum(rhs),rhsMax =  -8.53631887398620E-11  5.15349608495093E-02
 cg2d: Sum(rhs),rhsMax =  -8.66769017671132E-11  5.07216032852203E-02
 cg2d: Sum(rhs),rhsMax =  -8.79969846989681E-11  4.99039772308579E-02
 cg2d: Sum(rhs),rhsMax =  -8.93860194195462E-11  4.90824589661524E-02
 cg2d: Sum(rhs),rhsMax =  -9.08197406168654E-11  4.82574254810150E-02
 cg2d: Sum(rhs),rhsMax =  -9.23041174744066E-11  4.74292536016778E-02
 cg2d: Sum(rhs),rhsMax =  -9.38625941294263E-11  4.65983191774237E-02
 cg2d: Sum(rhs),rhsMax =  -9.54394965835270E-11  4.57649963539027E-02
 cg2d: Sum(rhs),rhsMax =  -9.71159402896049E-11  4.49296569549596E-02
 cg2d: Sum(rhs),rhsMax =  -9.88725004646973E-11  4.40926699887513E-02
 cg2d: Sum(rhs),rhsMax =  -1.00663519186917E-10  4.32544012872320E-02
 cg2d: Sum(rhs),rhsMax =  -1.02543043500880E-10  4.24152132814575E-02
 cg2d: Sum(rhs),rhsMax =  -1.04495578856501E-10  4.15754649090081E-02
 cg2d: Sum(rhs),rhsMax =  -1.06554348677790E-10  4.07355116443411E-02
 cg2d: Sum(rhs),rhsMax =  -1.05921327264724E-10  4.09392112346200E-02
 cg2d: Sum(rhs),rhsMax =  -1.04924263721884E-10  4.12795028659493E-02
 cg2d: Sum(rhs),rhsMax =  -1.04005110079797E-10  4.16186189427576E-02
 cg2d: Sum(rhs),rhsMax =  -1.03079156321684E-10  4.19563714750404E-02
 cg2d: Sum(rhs),rhsMax =  -1.02149372294136E-10  4.22927386055477E-02
 cg2d: Sum(rhs),rhsMax =  -1.01229247206902E-10  4.26276786714270E-02
 cg2d: Sum(rhs),rhsMax =  -1.00338098940611E-10  4.29611240406482E-02
 cg2d: Sum(rhs),rhsMax =  -9.94993809566580E-11  4.32929239297475E-02
 cg2d: Sum(rhs),rhsMax =  -9.86827841664706E-11  4.36229839407006E-02
 cg2d: Sum(rhs),rhsMax =  -9.78536696116805E-11  4.39511934060889E-02
 cg2d: Sum(rhs),rhsMax =  -9.70494795637933E-11  4.42774360816424E-02
 cg2d: Sum(rhs),rhsMax =  -9.62320223507618E-11  4.46015926549419E-02
 cg2d: Sum(rhs),rhsMax =  -9.54342715964174E-11  4.49235601074217E-02
 cg2d: Sum(rhs),rhsMax =  -9.46587253025655E-11  4.52431854394967E-02
 cg2d: Sum(rhs),rhsMax =  -9.39109900954804E-11  4.55602442038377E-02
 cg2d: Sum(rhs),rhsMax =  -9.32183774615680E-11  4.58745451172642E-02
 cg2d: Sum(rhs),rhsMax =  -9.25301502086029E-11  4.61859463988214E-02
 cg2d: Sum(rhs),rhsMax =  -9.17952380774523E-11  4.64944023915123E-02
 cg2d: Sum(rhs),rhsMax =  -9.11195563446654E-11  4.67998163378317E-02
 cg2d: Sum(rhs),rhsMax =  -9.04949448710113E-11  4.71020856669410E-02
 cg2d: Sum(rhs),rhsMax =  -8.99331720205510E-11  4.74010210324537E-02
 cg2d: Sum(rhs),rhsMax =  -8.92874663094290E-11  4.76965335323654E-02
 cg2d: Sum(rhs),rhsMax =  -8.86245521414253E-11  4.79885126850432E-02
 cg2d: Sum(rhs),rhsMax =  -8.80802653036028E-11  4.82768193305734E-02
 cg2d: Sum(rhs),rhsMax =  -8.74966765707086E-11  4.85613352074182E-02
 cg2d: Sum(rhs),rhsMax =  -8.69037619644075E-11  4.88419502938410E-02
 cg2d: Sum(rhs),rhsMax =  -8.63499272085733E-11  4.91185877415278E-02
 cg2d: Sum(rhs),rhsMax =  -8.57842685775267E-11  4.93912581168556E-02
 cg2d: Sum(rhs),rhsMax =  -8.52611314883234E-11  4.96599114175769E-02
 cg2d: Sum(rhs),rhsMax =  -8.47362180422806E-11  4.99243564530623E-02
 cg2d: Sum(rhs),rhsMax =  -8.42469427553283E-11  5.01844578415273E-02
 cg2d: Sum(rhs),rhsMax =  -8.37463431935248E-11  5.04401086472378E-02
 cg2d: Sum(rhs),rhsMax =  -8.32655056015597E-11  5.06912552734284E-02
 cg2d: Sum(rhs),rhsMax =  -8.27968804628654E-11  5.09379297224138E-02
 cg2d: Sum(rhs),rhsMax =  -8.23394685767198E-11  5.11800408152135E-02
 cg2d: Sum(rhs),rhsMax =  -8.19229128978805E-11  5.14175578665609E-02
 cg2d: Sum(rhs),rhsMax =  -8.15267853226942E-11  5.16503934974048E-02
 cg2d: Sum(rhs),rhsMax =  -8.11100075992499E-11  5.18784745747393E-02
 cg2d: Sum(rhs),rhsMax =  -8.06776867534609E-11  5.21017534508167E-02
 cg2d: Sum(rhs),rhsMax =  -8.02932165200332E-11  5.23201760180997E-02
 cg2d: Sum(rhs),rhsMax =  -7.99061927736489E-11  5.25336646974351E-02
 cg2d: Sum(rhs),rhsMax =  -7.95646881712742E-11  5.27421372803995E-02
 cg2d: Sum(rhs),rhsMax =  -7.91959831047961E-11  5.29454841147124E-02
 cg2d: Sum(rhs),rhsMax =  -7.88783482974509E-11  5.31435351602366E-02
 cg2d: Sum(rhs),rhsMax =  -7.85613796239204E-11  5.33360884413819E-02
 cg2d: Sum(rhs),rhsMax =  -7.81866793531094E-11  5.35230330315779E-02
 cg2d: Sum(rhs),rhsMax =  -7.78724862371405E-11  5.37043262446766E-02
 cg2d: Sum(rhs),rhsMax =  -7.75205455383343E-11  5.38799109254249E-02
 cg2d: Sum(rhs),rhsMax =  -7.72295560835801E-11  5.40497563984442E-02
 cg2d: Sum(rhs),rhsMax =  -7.69322383575854E-11  5.42137997554165E-02
 cg2d: Sum(rhs),rhsMax =  -7.66910979166369E-11  5.43718490528060E-02
 cg2d: Sum(rhs),rhsMax =  -7.64645013973109E-11  5.45238583628263E-02
 cg2d: Sum(rhs),rhsMax =  -7.61646301583596E-11  5.46698121927402E-02
 cg2d: Sum(rhs),rhsMax =  -7.59692309060256E-11  5.48096379397852E-02
 cg2d: Sum(rhs),rhsMax =  -7.57350848701321E-11  5.49432732753905E-02
 cg2d: Sum(rhs),rhsMax =  -7.54450946161001E-11  5.50706681912158E-02
 cg2d: Sum(rhs),rhsMax =  -7.52681250659748E-11  5.51917936700158E-02
 cg2d: Sum(rhs),rhsMax =  -7.50325357401493E-11  5.53065476845092E-02
 cg2d: Sum(rhs),rhsMax =  -7.48445749820803E-11  5.54148527521452E-02
 cg2d: Sum(rhs),rhsMax =  -7.46691597441895E-11  5.55166029392497E-02
 cg2d: Sum(rhs),rhsMax =  -7.45015160674711E-11  5.56117800391984E-02
 cg2d: Sum(rhs),rhsMax =  -7.43418659965300E-11  5.57004094978158E-02
 cg2d: Sum(rhs),rhsMax =  -7.41923189551130E-11  5.57824895804315E-02
 cg2d: Sum(rhs),rhsMax =  -7.40572048130161E-11  5.58579902722492E-02
 cg2d: Sum(rhs),rhsMax =  -7.39025507456859E-11  5.59269235450901E-02
 cg2d: Sum(rhs),rhsMax =  -7.38106242792469E-11  5.59892668918255E-02
 cg2d: Sum(rhs),rhsMax =  -7.36763983155697E-11  5.60450118562546E-02
 cg2d: Sum(rhs),rhsMax =  -7.36111172017218E-11  5.60941368067381E-02
 cg2d: Sum(rhs),rhsMax =  -7.35483896008304E-11  5.61365661415547E-02
 cg2d: Sum(rhs),rhsMax =  -7.34616811826072E-11  5.61721591775938E-02
 cg2d: Sum(rhs),rhsMax =  -7.34226013321404E-11  5.62008008725020E-02
 cg2d: Sum(rhs),rhsMax =  -7.32683913540200E-11  5.62224602593340E-02
 cg2d: Sum(rhs),rhsMax =  -7.33048066692277E-11  5.62371560239285E-02
 cg2d: Sum(rhs),rhsMax =  -7.33056948476474E-11  5.62449516798926E-02
 cg2d: Sum(rhs),rhsMax =  -7.32979232864750E-11  5.62458692333275E-02
 cg2d: Sum(rhs),rhsMax =  -7.33235694383438E-11  5.62399157706348E-02
 cg2d: Sum(rhs),rhsMax =  -7.33398897168058E-11  5.62271438948935E-02
 cg2d: Sum(rhs),rhsMax =  -7.33688665377485E-11  5.62075876601223E-02
 cg2d: Sum(rhs),rhsMax =  -7.34582394912309E-11  5.61812571538673E-02
 cg2d: Sum(rhs),rhsMax =  -7.35878025182046E-11  5.61481766945029E-02
 cg2d: Sum(rhs),rhsMax =  -7.37270244854926E-11  5.61083617696196E-02
 cg2d: Sum(rhs),rhsMax =  -7.39137639982346E-11  5.60618240554515E-02
 cg2d: Sum(rhs),rhsMax =  -7.40062455761858E-11  5.60085601311115E-02
 cg2d: Sum(rhs),rhsMax =  -7.41315897556660E-11  5.59485995324441E-02
 cg2d: Sum(rhs),rhsMax =  -7.42644834517137E-11  5.58819665792687E-02
 cg2d: Sum(rhs),rhsMax =  -7.43887174081692E-11  5.58086614706844E-02
 cg2d: Sum(rhs),rhsMax =  -7.45560280179802E-11  5.57287227161341E-02
 cg2d: Sum(rhs),rhsMax =  -7.46672723650477E-11  5.56421750100804E-02
 cg2d: Sum(rhs),rhsMax =  -7.48450190712902E-11  5.55489890157060E-02
 cg2d: Sum(rhs),rhsMax =  -7.50128847926135E-11  5.54490982787565E-02
 cg2d: Sum(rhs),rhsMax =  -7.52103934686943E-11  5.53424794906720E-02
 cg2d: Sum(rhs),rhsMax =  -7.54566409355562E-11  5.52290802037272E-02
 cg2d: Sum(rhs),rhsMax =  -7.56499307641434E-11  5.51089038336425E-02
 cg2d: Sum(rhs),rhsMax =  -7.58691998115069E-11  5.49820347827232E-02
 cg2d: Sum(rhs),rhsMax =  -7.60909113495245E-11  5.48485924713757E-02
 cg2d: Sum(rhs),rhsMax =  -7.63092922184683E-11  5.47086453042560E-02
 cg2d: Sum(rhs),rhsMax =  -7.65846275285753E-11  5.45622415258731E-02
 cg2d: Sum(rhs),rhsMax =  -7.68847208121315E-11  5.44094237124541E-02
 cg2d: Sum(rhs),rhsMax =  -7.71314123682032E-11  5.42502286628541E-02
 cg2d: Sum(rhs),rhsMax =  -7.74020847416068E-11  5.40846034766572E-02
 cg2d: Sum(rhs),rhsMax =  -7.77029551812802E-11  5.39125366699468E-02
 cg2d: Sum(rhs),rhsMax =  -7.80006059741822E-11  5.37340684613515E-02
 cg2d: Sum(rhs),rhsMax =  -7.83071385512812E-11  5.35492553508466E-02
 cg2d: Sum(rhs),rhsMax =  -7.86199993996206E-11  5.33581808834008E-02
 cg2d: Sum(rhs),rhsMax =  -7.90231213798620E-11  5.31609501147279E-02
 cg2d: Sum(rhs),rhsMax =  -7.93670684728909E-11  5.29576543813270E-02
 cg2d: Sum(rhs),rhsMax =  -7.97516497286210E-11  5.27483439065213E-02
 cg2d: Sum(rhs),rhsMax =  -8.01352317836290E-11  5.25329754140701E-02
 cg2d: Sum(rhs),rhsMax =  -8.05275846005316E-11  5.23115783458313E-02
 cg2d: Sum(rhs),rhsMax =  -8.09297073800508E-11  5.20842315403519E-02
 cg2d: Sum(rhs),rhsMax =  -8.13353828732488E-11  5.18510341995302E-02
 cg2d: Sum(rhs),rhsMax =  -8.17337308944843E-11  5.16120979849943E-02
 cg2d: Sum(rhs),rhsMax =  -8.21603896028478E-11  5.13675991738028E-02
 cg2d: Sum(rhs),rhsMax =  -8.26250179386534E-11  5.11176745419808E-02
 cg2d: Sum(rhs),rhsMax =  -8.30923108097181E-11  5.08623634976338E-02
 cg2d: Sum(rhs),rhsMax =  -8.35412850008765E-11  5.06016711423286E-02
 cg2d: Sum(rhs),rhsMax =  -8.39979197309049E-11  5.03356583911310E-02
 cg2d: Sum(rhs),rhsMax =  -8.44975200919862E-11  5.00644234681924E-02
 cg2d: Sum(rhs),rhsMax =  -8.49787462620100E-11  4.97881102747572E-02
 cg2d: Sum(rhs),rhsMax =  -8.55264747912088E-11  4.95068896427808E-02
 cg2d: Sum(rhs),rhsMax =  -8.60807536362529E-11  4.92209684602343E-02
 cg2d: Sum(rhs),rhsMax =  -8.66274274535783E-11  4.89304676595864E-02
 cg2d: Sum(rhs),rhsMax =  -8.72205641044843E-11  4.86355225924191E-02
 cg2d: Sum(rhs),rhsMax =  -8.78172534690691E-11  4.83363093449752E-02
 cg2d: Sum(rhs),rhsMax =  -8.84782802579309E-11  4.80329442084200E-02
 cg2d: Sum(rhs),rhsMax =  -8.90993945290575E-11  4.77256990547136E-02
 cg2d: Sum(rhs),rhsMax =  -8.96669960503971E-11  4.74147728528928E-02
 cg2d: Sum(rhs),rhsMax =  -9.03307983968205E-11  4.71003423198313E-02
 cg2d: Sum(rhs),rhsMax =  -9.10182484936684E-11  4.67825265330430E-02
 cg2d: Sum(rhs),rhsMax =  -9.16825504404528E-11  4.64615679889308E-02
 cg2d: Sum(rhs),rhsMax =  -9.23366383354107E-11  4.61376667157914E-02
 cg2d: Sum(rhs),rhsMax =  -9.30979737745474E-11  4.58110073918417E-02
 cg2d: Sum(rhs),rhsMax =  -9.38621402823969E-11  4.54818085909917E-02
 cg2d: Sum(rhs),rhsMax =  -9.46627221054541E-11  4.51503515047897E-02
 cg2d: Sum(rhs),rhsMax =  -9.53980783258146E-11  4.48168411663354E-02
 cg2d: Sum(rhs),rhsMax =  -9.62311896834933E-11  4.44814724869039E-02
 cg2d: Sum(rhs),rhsMax =  -9.70529212551696E-11  4.41444073234055E-02
 cg2d: Sum(rhs),rhsMax =  -9.78367942217062E-11  4.38058711263270E-02
 cg2d: Sum(rhs),rhsMax =  -9.86807302538750E-11  4.34660662097435E-02
 cg2d: Sum(rhs),rhsMax =  -9.94865301251480E-11  4.31251338566730E-02
 cg2d: Sum(rhs),rhsMax =  -1.00377428591258E-10  4.27832976225855E-02
 cg2d: Sum(rhs),rhsMax =  -1.01270408725540E-10  4.24407621609722E-02
 cg2d: Sum(rhs),rhsMax =  -1.02179653627132E-10  4.20977732045466E-02
 cg2d: Sum(rhs),rhsMax =  -1.03135527895759E-10  4.17545793530929E-02
 cg2d: Sum(rhs),rhsMax =  -1.04055652982993E-10  4.14113147909718E-02
 cg2d: Sum(rhs),rhsMax =  -1.05019354323943E-10  4.10680287202064E-02
 cg2d: Sum(rhs),rhsMax =  -1.05953024132077E-10  4.07249614897577E-02
 cg2d: Sum(rhs),rhsMax =  -1.06930908572167E-10  4.03821875529833E-02
 cg2d: Sum(rhs),rhsMax =  -1.07956171779833E-10  4.00398245450351E-02
 cg2d: Sum(rhs),rhsMax =  -1.07823819317510E-10  4.01259436539080E-02
 cg2d: Sum(rhs),rhsMax =  -1.05711925324492E-10  4.09400170915494E-02
 cg2d: Sum(rhs),rhsMax =  -1.03703420850643E-10  4.17541550179324E-02
 cg2d: Sum(rhs),rhsMax =  -1.01787703266076E-10  4.25680435443023E-02
 cg2d: Sum(rhs),rhsMax =  -9.99860610972902E-11  4.33813647664082E-02
 cg2d: Sum(rhs),rhsMax =  -9.82470806099034E-11  4.41937959372118E-02
 cg2d: Sum(rhs),rhsMax =  -9.65753744336384E-11  4.50050087085040E-02
 cg2d: Sum(rhs),rhsMax =  -9.49645814459291E-11  4.58146684744737E-02
 cg2d: Sum(rhs),rhsMax =  -9.34225873744365E-11  4.66224338454292E-02
 cg2d: Sum(rhs),rhsMax =  -9.18958832640815E-11  4.74279562735995E-02
 cg2d: Sum(rhs),rhsMax =  -9.04373659293967E-11  4.82308798458603E-02
 cg2d: Sum(rhs),rhsMax =  -8.90265014485969E-11  4.90308412510353E-02
 cg2d: Sum(rhs),rhsMax =  -8.76728134535654E-11  4.98274699226294E-02
 cg2d: Sum(rhs),rhsMax =  -8.63602384049145E-11  5.06203883519212E-02
 cg2d: Sum(rhs),rhsMax =  -8.51174686289369E-11  5.14092125615289E-02
 cg2d: Sum(rhs),rhsMax =  -8.39206620861788E-11  5.21935527259166E-02
 cg2d: Sum(rhs),rhsMax =  -8.27286017468509E-11  5.29730139226853E-02
 cg2d: Sum(rhs),rhsMax =  -8.16146178417299E-11  5.37471969967342E-02
 cg2d: Sum(rhs),rhsMax =  -8.05525368630100E-11  5.45156995181204E-02
 cg2d: Sum(rhs),rhsMax =  -7.95226662297921E-11  5.52781168134350E-02
 cg2d: Sum(rhs),rhsMax =  -7.85173037698428E-11  5.60340430495561E-02
 cg2d: Sum(rhs),rhsMax =  -7.75402519970214E-11  5.67830723465551E-02
 cg2d: Sum(rhs),rhsMax =  -7.66105512362003E-11  5.75247998988877E-02
 cg2d: Sum(rhs),rhsMax =  -7.57058582490089E-11  5.82588230848265E-02
 cg2d: Sum(rhs),rhsMax =  -7.48573147912879E-11  5.89847425395066E-02
 cg2d: Sum(rhs),rhsMax =  -7.40123518028213E-11  5.97021631699374E-02
 cg2d: Sum(rhs),rhsMax =  -7.31845140045095E-11  6.04106950964682E-02
 cg2d: Sum(rhs),rhsMax =  -7.23879844954922E-11  6.11099545094479E-02
 cg2d: Sum(rhs),rhsMax =  -7.16603165695773E-11  6.17995644340771E-02
 cg2d: Sum(rhs),rhsMax =  -7.09324821102086E-11  6.24791554011259E-02
 cg2d: Sum(rhs),rhsMax =  -7.02186087053747E-11  6.31483660259825E-02
 cg2d: Sum(rhs),rhsMax =  -6.95718482823793E-11  6.38068435027708E-02
 cg2d: Sum(rhs),rhsMax =  -6.89572843270980E-11  6.44542440234658E-02
 cg2d: Sum(rhs),rhsMax =  -6.83119671940347E-11  6.50902331337142E-02
 cg2d: Sum(rhs),rhsMax =  -6.77118638936491E-11  6.57144860373784E-02
 cg2d: Sum(rhs),rhsMax =  -6.71269151375498E-11  6.63266878608958E-02
 cg2d: Sum(rhs),rhsMax =  -6.66441346552915E-11  6.69265338865773E-02
 cg2d: Sum(rhs),rhsMax =  -6.61382615341211E-11  6.75137297610599E-02
 cg2d: Sum(rhs),rhsMax =  -6.56237841845098E-11  6.80879916827200E-02
 cg2d: Sum(rhs),rhsMax =  -6.51588782929480E-11  6.86490465691360E-02
 cg2d: Sum(rhs),rhsMax =  -6.46603881548913E-11  6.91966322012725E-02
 cg2d: Sum(rhs),rhsMax =  -6.42644271131587E-11  6.97304973391886E-02
 cg2d: Sum(rhs),rhsMax =  -6.38631370009080E-11  7.02504018021931E-02
 cg2d: Sum(rhs),rhsMax =  -6.35021479844511E-11  7.07561165035722E-02
 cg2d: Sum(rhs),rhsMax =  -6.31278362916987E-11  7.12474234349722E-02
 cg2d: Sum(rhs),rhsMax =  -6.27932705832279E-11  7.17241155923930E-02
 cg2d: Sum(rhs),rhsMax =  -6.24574281182788E-11  7.21859968379598E-02
 cg2d: Sum(rhs),rhsMax =  -6.21255824562184E-11  7.26328816951817E-02
 cg2d: Sum(rhs),rhsMax =  -6.18190498791193E-11  7.30645950799744E-02
 cg2d: Sum(rhs),rhsMax =  -6.15439921247685E-11  7.34809719723884E-02
 cg2d: Sum(rhs),rhsMax =  -6.12590533854984E-11  7.38818570446886E-02
 cg2d: Sum(rhs),rhsMax =  -6.09811090512835E-11  7.42671042663261E-02
 cg2d: Sum(rhs),rhsMax =  -6.07256467333173E-11  7.46365764973888E-02
(PID.TID 0000.0001)      cg2d_init_res =   2.46521718842858E-02
(PID.TID 0000.0001)      cg2d_iters(min,last) =      -1      37
(PID.TID 0000.0001)      cg2d_last_res =   4.84942169282899E-14
(PID.TID 0000.0001) // =======================================================
(PID.TID 0000.0001) // Begin MONITOR dynamic field statistics
(PID.TID 0000.0001) // =======================================================
(PID.TID 0000.0001) %MON time_tsnumber                =                  7200
(PID.TID 0000.0001) %MON time_secondsf                =   1.0800000000000E+05
(PID.TID 0000.0001) %MON dynstat_eta_max              =   1.3002509553805E-02
(PID.TID 0000.0001) %MON dynstat_eta_min              =  -1.0772573563502E-02
(PID.TID 0000.0001) %MON dynstat_eta_mean             =   1.0003731510926E-14
(PID.TID 0000.0001) %MON dynstat_eta_sd               =   8.1156275981434E-03
(PID.TID 0000.0001) %MON dynstat_eta_del2             =   3.6569872632759E-05
(PID.TID 0000.0001) %MON dynstat_uvel_max             =   1.0667876150235E+00
(PID.TID 0000.0001) %MON dynstat_uvel_min             =  -9.5303145216198E-02
(PID.TID 0000.0001) %MON dynstat_uvel_mean            =   4.5272694756007E-01
(PID.TID 0000.0001) %MON dynstat_uvel_sd              =   1.4313953683175E-01
(PID.TID 0000.0001) %MON dynstat_uvel_del2            =   4.9080147630961E-04
(PID.TID 0000.0001) %MON dynstat_vvel_max             =   0.0000000000000E+00
(PID.TID 0000.0001) %MON dynstat_vvel_min             =   0.0000000000000E+00
(PID.TID 0000.0001) %MON dynstat_vvel_mean            =   0.0000000000000E+00
(PID.TID 0000.0001) %MON dynstat_vvel_sd              =   0.0000000000000E+00
(PID.TID 0000.0001) %MON dynstat_vvel_del2            =   0.0000000000000E+00
(PID.TID 0000.0001) %MON dynstat_wvel_max             =   1.7329479344032E-02
(PID.TID 0000.0001) %MON dynstat_wvel_min             =  -1.6566135215868E-02
(PID.TID 0000.0001) %MON dynstat_wvel_mean            =   2.2601489675473E-20
(PID.TID 0000.0001) %MON dynstat_wvel_sd              =   2.2133618634935E-03
(PID.TID 0000.0001) %MON dynstat_wvel_del2            =   4.6380723934633E-05
(PID.TID 0000.0001) %MON dynstat_theta_max            =   1.5000000000013E+01
(PID.TID 0000.0001) %MON dynstat_theta_min            =   9.9999999999971E+00
(PID.TID 0000.0001) %MON dynstat_theta_mean           =   1.3955683404037E+01
(PID.TID 0000.0001) %MON dynstat_theta_sd             =   1.8554196247477E+00
(PID.TID 0000.0001) %MON dynstat_theta_del2           =   7.5365406250819E-04
(PID.TID 0000.0001) %MON dynstat_salt_max             =   3.5000000000000E+01
(PID.TID 0000.0001) %MON dynstat_salt_min             =   3.5000000000000E+01
(PID.TID 0000.0001) %MON dynstat_salt_mean            =   3.5000000000000E+01
(PID.TID 0000.0001) %MON dynstat_salt_sd              =   3.0553337637684E-13
(PID.TID 0000.0001) %MON dynstat_salt_del2            =   0.0000000000000E+00
(PID.TID 0000.0001) %MON dynstat_sst_max              =   1.5000000000000E+01
(PID.TID 0000.0001) %MON dynstat_sst_min              =   1.4999999999998E+01
(PID.TID 0000.0001) %MON dynstat_sst_mean             =   1.4999999999999E+01
(PID.TID 0000.0001) %MON dynstat_sst_sd               =   6.6416085105670E-13
(PID.TID 0000.0001) %MON dynstat_sst_del2             =   5.8212241526063E-15
(PID.TID 0000.0001) %MON dynstat_sss_max              =   3.5000000000000E+01
(PID.TID 0000.0001) %MON dynstat_sss_min              =   3.5000000000000E+01
(PID.TID 0000.0001) %MON dynstat_sss_mean             =   3.5000000000000E+01
(PID.TID 0000.0001) %MON dynstat_sss_sd               =   2.8421709430404E-14
(PID.TID 0000.0001) %MON dynstat_sss_del2             =   0.0000000000000E+00
(PID.TID 0000.0001) %MON forcing_qnet_max             =   0.0000000000000E+00
(PID.TID 0000.0001) %MON forcing_qnet_min             =   0.0000000000000E+00
(PID.TID 0000.0001) %MON forcing_qnet_mean            =   0.0000000000000E+00
(PID.TID 0000.0001) %MON forcing_qnet_sd              =   0.0000000000000E+00
(PID.TID 0000.0001) %MON forcing_qnet_del2            =   0.0000000000000E+00
(PID.TID 0000.0001) %MON forcing_qsw_max              =   0.0000000000000E+00
(PID.TID 0000.0001) %MON forcing_qsw_min              =   0.0000000000000E+00
(PID.TID 0000.0001) %MON forcing_qsw_mean             =   0.0000000000000E+00
(PID.TID 0000.0001) %MON forcing_qsw_sd               =   0.0000000000000E+00
(PID.TID 0000.0001) %MON forcing_qsw_del2             =   0.0000000000000E+00
(PID.TID 0000.0001) %MON forcing_empmr_max            =   0.0000000000000E+00
(PID.TID 0000.0001) %MON forcing_empmr_min            =   0.0000000000000E+00
(PID.TID 0000.0001) %MON forcing_empmr_mean           =   0.0000000000000E+00
(PID.TID 0000.0001) %MON forcing_empmr_sd             =   0.0000000000000E+00
(PID.TID 0000.0001) %MON forcing_empmr_del2           =   0.0000000000000E+00
(PID.TID 0000.0001) %MON forcing_fu_max               =   0.0000000000000E+00
(PID.TID 0000.0001) %MON forcing_fu_min               =   0.0000000000000E+00
(PID.TID 0000.0001) %MON forcing_fu_mean              =   0.0000000000000E+00
(PID.TID 0000.0001) %MON forcing_fu_sd                =   0.0000000000000E+00
(PID.TID 0000.0001) %MON forcing_fu_del2              =   0.0000000000000E+00
(PID.TID 0000.0001) %MON forcing_fv_max               =   0.0000000000000E+00
(PID.TID 0000.0001) %MON forcing_fv_min               =   0.0000000000000E+00
(PID.TID 0000.0001) %MON forcing_fv_mean              =   0.0000000000000E+00
(PID.TID 0000.0001) %MON forcing_fv_sd                =   0.0000000000000E+00
(PID.TID 0000.0001) %MON forcing_fv_del2              =   0.0000000000000E+00
(PID.TID 0000.0001) %MON advcfl_uvel_max              =   7.3084414600861E-02
(PID.TID 0000.0001) %MON advcfl_vvel_max              =   0.0000000000000E+00
(PID.TID 0000.0001) %MON advcfl_wvel_max              =   1.0632770978289E-01
(PID.TID 0000.0001) %MON advcfl_W_hf_max              =   1.0748449191384E-01
(PID.TID 0000.0001) %MON pe_b_mean                    =   1.6324035381126E-06
(PID.TID 0000.0001) %MON ke_max                       =   4.3304725194192E-01
(PID.TID 0000.0001) %MON ke_mean                      =   1.1283557970536E-01
(PID.TID 0000.0001) %MON ke_vol                       =   9.6656965507697E+10
(PID.TID 0000.0001) %MON vort_r_min                   =   0.0000000000000E+00
(PID.TID 0000.0001) %MON vort_r_max                   =   0.0000000000000E+00
(PID.TID 0000.0001) %MON vort_a_mean                  =   0.0000000000000E+00
(PID.TID 0000.0001) %MON vort_a_sd                    =   0.0000000000000E+00
(PID.TID 0000.0001) %MON vort_p_mean                  =   0.0000000000000E+00
(PID.TID 0000.0001) %MON vort_p_sd                    =   0.0000000000000E+00
(PID.TID 0000.0001) %MON surfExpan_theta_mean         =   1.3668434683545E-18
(PID.TID 0000.0001) %MON surfExpan_salt_mean          =   1.4473829506520E-18
(PID.TID 0000.0001) // =======================================================
(PID.TID 0000.0001) // End MONITOR dynamic field statistics
(PID.TID 0000.0001) // =======================================================
(PID.TID 0000.0001) // =======================================================
(PID.TID 0000.0001) // Begin OBCS MONITOR field statistics
(PID.TID 0000.0001) // =======================================================
(PID.TID 0000.0001) %MON obc_E_uVel_max               =   4.4822851314926E-01
(PID.TID 0000.0001) %MON obc_E_uVel_min               =   4.4822851314926E-01
(PID.TID 0000.0001) %MON obc_E_uVel_mean              =   4.4822851314926E-01
(PID.TID 0000.0001) %MON obc_E_uVel_sd                =   0.0000000000000E+00
(PID.TID 0000.0001) %MON obc_E_uVel_Int               =   4.4822851314926E+05
(PID.TID 0000.0001) %MON obc_W_uVel_max               =   4.4822851314926E-01
(PID.TID 0000.0001) %MON obc_W_uVel_min               =   4.4822851314926E-01
(PID.TID 0000.0001) %MON obc_W_uVel_mean              =   4.4822851314926E-01
(PID.TID 0000.0001) %MON obc_W_uVel_sd                =   0.0000000000000E+00
(PID.TID 0000.0001) %MON obc_W_uVel_Int               =   4.4822851314926E+05
(PID.TID 0000.0001) // =======================================================
(PID.TID 0000.0001) // End OBCS MONITOR field statistics
(PID.TID 0000.0001) // =======================================================
(PID.TID 0000.0001) %CHECKPOINT      7200 0000007200
(PID.TID 0000.0001)   Seconds in section "ALL                    [THE_MODEL_MAIN]":
(PID.TID 0000.0001)           User time:   279.32999999999998
(PID.TID 0000.0001)         System time:  0.29999999999999999
(PID.TID 0000.0001)     Wall clock time:   279.67106795310974
(PID.TID 0000.0001)          No. starts:           1
(PID.TID 0000.0001)           No. stops:           1
(PID.TID 0000.0001)   Seconds in section "INITIALISE_FIXED       [THE_MODEL_MAIN]":
(PID.TID 0000.0001)           User time:   5.0000000000000003E-002
(PID.TID 0000.0001)         System time:   0.0000000000000000
(PID.TID 0000.0001)     Wall clock time:   5.1515102386474609E-002
(PID.TID 0000.0001)          No. starts:           1
(PID.TID 0000.0001)           No. stops:           1
(PID.TID 0000.0001)   Seconds in section "THE_MAIN_LOOP          [THE_MODEL_MAIN]":
(PID.TID 0000.0001)           User time:   279.27999999999997
(PID.TID 0000.0001)         System time:  0.29999999999999999
(PID.TID 0000.0001)     Wall clock time:   279.61950898170471
(PID.TID 0000.0001)          No. starts:           1
(PID.TID 0000.0001)           No. stops:           1
(PID.TID 0000.0001)   Seconds in section "INITIALISE_VARIA    [THE_MAIN_LOOP]":
(PID.TID 0000.0001)           User time:   9.9999999999999950E-003
(PID.TID 0000.0001)         System time:   0.0000000000000000
(PID.TID 0000.0001)     Wall clock time:   1.5645027160644531E-002
(PID.TID 0000.0001)          No. starts:           1
(PID.TID 0000.0001)           No. stops:           1
(PID.TID 0000.0001)   Seconds in section "MAIN LOOP           [THE_MAIN_LOOP]":
(PID.TID 0000.0001)           User time:   279.26999999999998
(PID.TID 0000.0001)         System time:  0.29999999999999999
(PID.TID 0000.0001)     Wall clock time:   279.60383701324463
(PID.TID 0000.0001)          No. starts:           1
(PID.TID 0000.0001)           No. stops:           1
(PID.TID 0000.0001)   Seconds in section "MAIN_DO_LOOP        [THE_MAIN_LOOP]":
(PID.TID 0000.0001)           User time:   279.19999999998817
(PID.TID 0000.0001)         System time:  0.30000000000000032
(PID.TID 0000.0001)     Wall clock time:   279.54041290283203
(PID.TID 0000.0001)          No. starts:        7200
(PID.TID 0000.0001)           No. stops:        7200
(PID.TID 0000.0001)   Seconds in section "FORWARD_STEP        [MAIN_DO_LOOP]":
(PID.TID 0000.0001)           User time:   279.08999999998827
(PID.TID 0000.0001)         System time:  0.30000000000000032
(PID.TID 0000.0001)     Wall clock time:   279.41157054901123
(PID.TID 0000.0001)          No. starts:        7200
(PID.TID 0000.0001)           No. stops:        7200
(PID.TID 0000.0001)   Seconds in section "LOAD_FIELDS_DRIVER  [FORWARD_STEP]":
(PID.TID 0000.0001)           User time:  0.21000000000003638
(PID.TID 0000.0001)         System time:   0.0000000000000000
(PID.TID 0000.0001)     Wall clock time:  0.19430518150329590
(PID.TID 0000.0001)          No. starts:        7200
(PID.TID 0000.0001)           No. stops:        7200
(PID.TID 0000.0001)   Seconds in section "EXTERNAL_FLDS_LOAD [LOAD_FLDS_DRIVER]":
(PID.TID 0000.0001)           User time:   2.9999999999972715E-002
(PID.TID 0000.0001)         System time:   0.0000000000000000
(PID.TID 0000.0001)     Wall clock time:   6.4990758895874023E-002
(PID.TID 0000.0001)          No. starts:        7200
(PID.TID 0000.0001)           No. stops:        7200
(PID.TID 0000.0001)   Seconds in section "DO_ATMOSPHERIC_PHYS [FORWARD_STEP]":
(PID.TID 0000.0001)           User time:   7.9999999999927240E-002
(PID.TID 0000.0001)         System time:   0.0000000000000000
(PID.TID 0000.0001)     Wall clock time:   6.4791679382324219E-002
(PID.TID 0000.0001)          No. starts:        7200
(PID.TID 0000.0001)           No. stops:        7200
(PID.TID 0000.0001)   Seconds in section "DO_OCEANIC_PHYS     [FORWARD_STEP]":
(PID.TID 0000.0001)           User time:   101.83999999999463
(PID.TID 0000.0001)         System time:  0.10000000000000003
(PID.TID 0000.0001)     Wall clock time:   102.16565799713135
(PID.TID 0000.0001)          No. starts:        7200
(PID.TID 0000.0001)           No. stops:        7200
(PID.TID 0000.0001)   Seconds in section "DYNAMICS            [FORWARD_STEP]":
(PID.TID 0000.0001)           User time:   84.189999999998577
(PID.TID 0000.0001)         System time:  0.10000000000000009
(PID.TID 0000.0001)     Wall clock time:   84.290453195571899
(PID.TID 0000.0001)          No. starts:        7200
(PID.TID 0000.0001)           No. stops:        7200
(PID.TID 0000.0001)   Seconds in section "SOLVE_FOR_PRESSURE  [FORWARD_STEP]":
(PID.TID 0000.0001)           User time:   3.0499999999983061
(PID.TID 0000.0001)         System time:   0.0000000000000000
(PID.TID 0000.0001)     Wall clock time:   3.1305601596832275
(PID.TID 0000.0001)          No. starts:        7200
(PID.TID 0000.0001)           No. stops:        7200
(PID.TID 0000.0001)   Seconds in section "MOM_CORRECTION_STEP [FORWARD_STEP]":
(PID.TID 0000.0001)           User time:   2.7599999999992519
(PID.TID 0000.0001)         System time:   0.0000000000000000
(PID.TID 0000.0001)     Wall clock time:   2.9316351413726807
(PID.TID 0000.0001)          No. starts:        7200
(PID.TID 0000.0001)           No. stops:        7200
(PID.TID 0000.0001)   Seconds in section "INTEGR_CONTINUITY   [FORWARD_STEP]":
(PID.TID 0000.0001)           User time:   1.4999999999992042
(PID.TID 0000.0001)         System time:   1.0000000000000009E-002
(PID.TID 0000.0001)     Wall clock time:   1.4580142498016357
(PID.TID 0000.0001)          No. starts:        7200
(PID.TID 0000.0001)           No. stops:        7200
(PID.TID 0000.0001)   Seconds in section "BLOCKING_EXCHANGES  [FORWARD_STEP]":
(PID.TID 0000.0001)           User time:   7.6999999999927127
(PID.TID 0000.0001)         System time:   3.0000000000000027E-002
(PID.TID 0000.0001)     Wall clock time:   7.7455456256866455
(PID.TID 0000.0001)          No. starts:       14400
(PID.TID 0000.0001)           No. stops:       14400
(PID.TID 0000.0001)   Seconds in section "THERMODYNAMICS      [FORWARD_STEP]":
(PID.TID 0000.0001)           User time:   76.249999999995339
(PID.TID 0000.0001)         System time:   5.0000000000000044E-002
(PID.TID 0000.0001)     Wall clock time:   75.981085300445557
(PID.TID 0000.0001)          No. starts:        7200
(PID.TID 0000.0001)           No. stops:        7200
(PID.TID 0000.0001)   Seconds in section "TRC_CORRECTION_STEP [FORWARD_STEP]":
(PID.TID 0000.0001)           User time:   6.0000000000059117E-002
(PID.TID 0000.0001)         System time:   0.0000000000000000
(PID.TID 0000.0001)     Wall clock time:   6.5600156784057617E-002
(PID.TID 0000.0001)          No. starts:        7200
(PID.TID 0000.0001)           No. stops:        7200
(PID.TID 0000.0001)   Seconds in section "MONITOR             [FORWARD_STEP]":
(PID.TID 0000.0001)           User time:  0.12999999999988177
(PID.TID 0000.0001)         System time:   0.0000000000000000
(PID.TID 0000.0001)     Wall clock time:  0.11417412757873535
(PID.TID 0000.0001)          No. starts:        7200
(PID.TID 0000.0001)           No. stops:        7200
(PID.TID 0000.0001)   Seconds in section "DO_THE_MODEL_IO     [FORWARD_STEP]":
(PID.TID 0000.0001)           User time:  0.16999999999995907
(PID.TID 0000.0001)         System time:   0.0000000000000000
(PID.TID 0000.0001)     Wall clock time:  0.19112420082092285
(PID.TID 0000.0001)          No. starts:        7200
(PID.TID 0000.0001)           No. stops:        7200
(PID.TID 0000.0001)   Seconds in section "DO_WRITE_PICKUP     [FORWARD_STEP]":
(PID.TID 0000.0001)           User time:   5.0000000000011369E-002
(PID.TID 0000.0001)         System time:   1.0000000000000009E-002
(PID.TID 0000.0001)     Wall clock time:   9.3284845352172852E-002
(PID.TID 0000.0001)          No. starts:        7200
(PID.TID 0000.0001)           No. stops:        7200
(PID.TID 0000.0001) // ======================================================
(PID.TID 0000.0001) // Tile <-> Tile communication statistics
(PID.TID 0000.0001) // ======================================================
(PID.TID 0000.0001) // o Tile number: 000001
(PID.TID 0000.0001) //         No. X exchanges =              0
(PID.TID 0000.0001) //            Max. X spins =              0
(PID.TID 0000.0001) //            Min. X spins =     1000000000
(PID.TID 0000.0001) //          Total. X spins =              0
(PID.TID 0000.0001) //            Avg. X spins =       0.00E+00
(PID.TID 0000.0001) //         No. Y exchanges =              0
(PID.TID 0000.0001) //            Max. Y spins =              0
(PID.TID 0000.0001) //            Min. Y spins =     1000000000
(PID.TID 0000.0001) //          Total. Y spins =              0
(PID.TID 0000.0001) //            Avg. Y spins =       0.00E+00
(PID.TID 0000.0001) // o Thread number: 000001
(PID.TID 0000.0001) //            No. barriers =        1729542
(PID.TID 0000.0001) //      Max. barrier spins =              1
(PID.TID 0000.0001) //      Min. barrier spins =              1
(PID.TID 0000.0001) //     Total barrier spins =        1729542
(PID.TID 0000.0001) //      Avg. barrier spins =       1.00E+00
PROGRAM MAIN: Execution ended Normally
