(PID.TID 0000.0001) 
(PID.TID 0000.0001) // ======================================================
(PID.TID 0000.0001) //                      MITgcm UV
(PID.TID 0000.0001) //                      =========
(PID.TID 0000.0001) // ======================================================
(PID.TID 0000.0001) // execution environment starting up...
(PID.TID 0000.0001) 
(PID.TID 0000.0001) // MITgcmUV version:  checkpoint65d
(PID.TID 0000.0001) // Build user:        hugke729
(PID.TID 0000.0001) // Build host:        hugke729
(PID.TID 0000.0001) // Build date:        Mon Apr 10 14:21:54 PDT 2017
(PID.TID 0000.0001) 
(PID.TID 0000.0001) // =======================================================
(PID.TID 0000.0001) // Execution Environment parameter file "eedata"
(PID.TID 0000.0001) // =======================================================
(PID.TID 0000.0001) ># Example "eedata" file
(PID.TID 0000.0001) ># Lines beginning "#" are comments
(PID.TID 0000.0001) ># nTx - No. threads per process in X
(PID.TID 0000.0001) ># nTy - No. threads per process in Y
(PID.TID 0000.0001) > &EEPARMS
(PID.TID 0000.0001) > /
(PID.TID 0000.0001) ># Note: Some systems use & as the
(PID.TID 0000.0001) ># namelist terminator. Other systems
(PID.TID 0000.0001) ># use a / character (as shown here).
(PID.TID 0000.0001) 
(PID.TID 0000.0001) // =======================================================
(PID.TID 0000.0001) // Computational Grid Specification ( see files "SIZE.h" )
(PID.TID 0000.0001) //                                  ( and "eedata"       )
(PID.TID 0000.0001) // =======================================================
(PID.TID 0000.0001)      nPx =    1 ; /* No. processes in X */
(PID.TID 0000.0001)      nPy =    1 ; /* No. processes in Y */
(PID.TID 0000.0001)      nSx =    1 ; /* No. tiles in X per process */
(PID.TID 0000.0001)      nSy =    1 ; /* No. tiles in Y per process */
(PID.TID 0000.0001)      sNx =  200 ; /* Tile size in X */
(PID.TID 0000.0001)      sNy =    1 ; /* Tile size in Y */
(PID.TID 0000.0001)      OLx =    2 ; /* Tile overlap distance in X */
(PID.TID 0000.0001)      OLy =    2 ; /* Tile overlap distance in Y */
(PID.TID 0000.0001)      nTx =    1 ; /* No. threads in X per process */
(PID.TID 0000.0001)      nTy =    1 ; /* No. threads in Y per process */
(PID.TID 0000.0001)       Nr =  100 ; /* No. levels in the vertical   */
(PID.TID 0000.0001)       Nx =  200 ; /* Total domain size in X ( = nPx*nSx*sNx ) */
(PID.TID 0000.0001)       Ny =    1 ; /* Total domain size in Y ( = nPy*nSy*sNy ) */
(PID.TID 0000.0001)   nTiles =    1 ; /* Total no. tiles per process ( = nSx*nSy ) */
(PID.TID 0000.0001)   nProcs =    1 ; /* Total no. processes ( = nPx*nPy ) */
(PID.TID 0000.0001) nThreads =    1 ; /* Total no. threads per process ( = nTx*nTy ) */
(PID.TID 0000.0001) usingMPI =    F ; /* Flag used to control whether MPI is in use */
(PID.TID 0000.0001)                   /*  note: To execute a program with MPI calls */
(PID.TID 0000.0001)                   /*  it must be launched appropriately e.g     */
(PID.TID 0000.0001)                   /*  "mpirun -np 64 ......"                    */
(PID.TID 0000.0001) useCoupler=    F ;/* Flag used to control communications with   */
(PID.TID 0000.0001)                   /*  other model components, through a coupler */
(PID.TID 0000.0001) debugMode =    F ; /* print debug msg. (sequence of S/R calls)  */
(PID.TID 0000.0001) printMapIncludesZeros=    F ; /* print zeros in Std.Output maps */
(PID.TID 0000.0001) maxLengthPrt1D=   65 /* maxLength of 1D array printed to StdOut */
(PID.TID 0000.0001) 
(PID.TID 0000.0001) // ======================================================
(PID.TID 0000.0001) // Mapping of tiles to threads
(PID.TID 0000.0001) // ======================================================
(PID.TID 0000.0001) // -o- Thread   1, tiles (   1:   1,   1:   1)
(PID.TID 0000.0001) 
(PID.TID 0000.0001) // ======================================================
(PID.TID 0000.0001) // Tile <-> Tile connectvity table
(PID.TID 0000.0001) // ======================================================
(PID.TID 0000.0001) // Tile number: 000001 (process no. = 000000)
(PID.TID 0000.0001) //        WEST: Tile = 000001, Process = 000000, Comm = put
(PID.TID 0000.0001) //                bi = 000001, bj = 000001
(PID.TID 0000.0001) //        EAST: Tile = 000001, Process = 000000, Comm = put
(PID.TID 0000.0001) //                bi = 000001, bj = 000001
(PID.TID 0000.0001) //       SOUTH: Tile = 000001, Process = 000000, Comm = put
(PID.TID 0000.0001) //                bi = 000001, bj = 000001
(PID.TID 0000.0001) //       NORTH: Tile = 000001, Process = 000000, Comm = put
(PID.TID 0000.0001) //                bi = 000001, bj = 000001
(PID.TID 0000.0001) 
(PID.TID 0000.0001)  INI_PARMS: opening model parameter file "data"
(PID.TID 0000.0001)  OPEN_COPY_DATA_FILE: opening file data
(PID.TID 0000.0001) // =======================================================
(PID.TID 0000.0001) // Parameter file "data"
(PID.TID 0000.0001) // =======================================================
(PID.TID 0000.0001) ># ====================
(PID.TID 0000.0001) ># | Model parameters |
(PID.TID 0000.0001) ># ====================
(PID.TID 0000.0001) >#
(PID.TID 0000.0001) ># See src/ini_parms.F for possible parameters.
(PID.TID 0000.0001) >#
(PID.TID 0000.0001) ># Continuous equation parameters
(PID.TID 0000.0001) > &PARM01
(PID.TID 0000.0001) > tRefFile='Tref.bin'
(PID.TID 0000.0001) > sRef= 25*35.,
(PID.TID 0000.0001) > viscAz=1.E-5,
(PID.TID 0000.0001) > viscAh=1.E-4,
(PID.TID 0000.0001) > no_slip_sides=.FALSE.,
(PID.TID 0000.0001) > no_slip_bottom=.FALSE.,
(PID.TID 0000.0001) > viscA4=0.E12,
(PID.TID 0000.0001) > diffKhT=1.E-4,
(PID.TID 0000.0001) > diffKzT=1.E-5,
(PID.TID 0000.0001) > diffKhS=1.E3,
(PID.TID 0000.0001) > diffKzS=1.E-5,
(PID.TID 0000.0001) > f0=0.E-4,
(PID.TID 0000.0001) > beta=0.0E-11,
(PID.TID 0000.0001) > tAlpha=2.E-4,
(PID.TID 0000.0001) > sBeta =0.E-4,
(PID.TID 0000.0001) > gravity=9.81,
(PID.TID 0000.0001) > gBaro=9.81,
(PID.TID 0000.0001) > rigidLid=.FALSE.,
(PID.TID 0000.0001) > implicitFreeSurface=.TRUE.,
(PID.TID 0000.0001) > eosType='LINEAR',
(PID.TID 0000.0001) > nonHydrostatic=.FALSE.,
(PID.TID 0000.0001) > readBinaryPrec=64,
(PID.TID 0000.0001) > useSingleCpuIO=.TRUE.
(PID.TID 0000.0001) > writeBinaryPrec=64,
(PID.TID 0000.0001) > writeStatePrec=64,
(PID.TID 0000.0001) > saltStepping=.FALSE.,
(PID.TID 0000.0001) ># minimum cell fraction.  This reduces steppiness..
(PID.TID 0000.0001) >  hFacMin=0.1,
(PID.TID 0000.0001) >  exactConserv=.FALSE.,
(PID.TID 0000.0001) >  implicitDiffusion=.TRUE.
(PID.TID 0000.0001) >  implicitViscosity=.TRUE.
(PID.TID 0000.0001) ># Superbee on:
(PID.TID 0000.0001) > tempAdvScheme=77,
(PID.TID 0000.0001) > staggerTimeStep=.TRUE.,
(PID.TID 0000.0001) >/
(PID.TID 0000.0001) >
(PID.TID 0000.0001) ># Elliptic solver parameters
(PID.TID 0000.0001) > &PARM02
(PID.TID 0000.0001) > cg2dMaxIters=1000,
(PID.TID 0000.0001) > cg2dTargetResidual=1.E-13,
(PID.TID 0000.0001) > cg3dMaxIters=400,
(PID.TID 0000.0001) > cg3dTargetResidual=1.E-13,
(PID.TID 0000.0001) >/
(PID.TID 0000.0001) >
(PID.TID 0000.0001) ># Time stepping parameters
(PID.TID 0000.0001) > &PARM03
(PID.TID 0000.0001) > niter0=0,
(PID.TID 0000.0001) ># times are in s
(PID.TID 0000.0001) > startTime=0,
(PID.TID 0000.0001) > endTime=108000,
(PID.TID 0000.0001) > deltaT=15,
(PID.TID 0000.0001) > abEps=0.1,
(PID.TID 0000.0001) ># once per tide checkpoint...
(PID.TID 0000.0001) > pChkptFreq=21600,
(PID.TID 0000.0001) > chkptFreq=0.0,
(PID.TID 0000.0001) > dumpFreq=7200,
(PID.TID 0000.0001) > monitorFreq=7200,
(PID.TID 0000.0001) ># Forcing for boundary condition files
(PID.TID 0000.0001) > periodicExternalForcing=.FALSE.,
(PID.TID 0000.0001) >/
(PID.TID 0000.0001) >
(PID.TID 0000.0001) ># Gridding parameters
(PID.TID 0000.0001) > &PARM04
(PID.TID 0000.0001) > usingCartesianGrid=.TRUE.,
(PID.TID 0000.0001) > usingSphericalPolarGrid=.FALSE.,
(PID.TID 0000.0001) > delXfile='delXvar.bin',
(PID.TID 0000.0001) > delY=5.e3,
(PID.TID 0000.0001) > delRfile = 'delZvar.bin',
(PID.TID 0000.0001) >/
(PID.TID 0000.0001) >
(PID.TID 0000.0001) ># Input datasets
(PID.TID 0000.0001) > &PARM05
(PID.TID 0000.0001) > bathyFile='topo.bin',
(PID.TID 0000.0001) > hydrogThetaFile='T0.bin',
(PID.TID 0000.0001) > checkIniTemp=.FALSE.,
(PID.TID 0000.0001) > uVelInitFile='U0.bin',
(PID.TID 0000.0001) > /
(PID.TID 0000.0001) 
(PID.TID 0000.0001)  INI_PARMS ; starts to read PARM01
(PID.TID 0000.0001)  INI_PARMS ; read PARM01 : OK
(PID.TID 0000.0001)  INI_PARMS ; starts to read PARM02
(PID.TID 0000.0001)  INI_PARMS ; read PARM02 : OK
(PID.TID 0000.0001)  INI_PARMS ; starts to read PARM03
(PID.TID 0000.0001)  INI_PARMS ; read PARM03 : OK
(PID.TID 0000.0001)  INI_PARMS ; starts to read PARM04
(PID.TID 0000.0001)  INI_PARMS ; read PARM04 : OK
(PID.TID 0000.0001)  INI_PARMS ; starts to read PARM05
(PID.TID 0000.0001)  INI_PARMS ; read PARM05 : OK
(PID.TID 0000.0001)  INI_PARMS: finished reading file "data"
(PID.TID 0000.0001)  PACKAGES_BOOT: opening data.pkg
(PID.TID 0000.0001)  OPEN_COPY_DATA_FILE: opening file data.pkg
(PID.TID 0000.0001) // =======================================================
(PID.TID 0000.0001) // Parameter file "data.pkg"
(PID.TID 0000.0001) // =======================================================
(PID.TID 0000.0001) ># Packages
(PID.TID 0000.0001) > &PACKAGES
(PID.TID 0000.0001) > useOBCS=.TRUE.,
(PID.TID 0000.0001) > useKL10=.TRUE.,
(PID.TID 0000.0001) > useDIAGNOSTICS=.FALSE.,
(PID.TID 0000.0001) > useMNC=.FALSE.,
(PID.TID 0000.0001) > /
(PID.TID 0000.0001) 
(PID.TID 0000.0001)  PACKAGES_BOOT: finished reading data.pkg
(PID.TID 0000.0001)  PACKAGES_BOOT: On/Off package Summary
 --------  pkgs with a standard "usePKG" On/Off switch in "data.pkg":  --------
 pkg/obcs                 compiled   and   used ( useOBCS                  = T )
 pkg/kl10                 compiled   and   used ( useKL10                  = T )
 -------- pkgs without standard "usePKG" On/Off switch in "data.pkg":  --------
 pkg/generic_advdiff      compiled   and   used ( useGAD                   = T )
 pkg/mom_common           compiled   and   used ( momStepping              = T )
 pkg/mom_vecinv           compiled but not used ( +vectorInvariantMomentum = F )
 pkg/mom_fluxform         compiled   and   used ( & not vectorInvariantMom = T )
 pkg/monitor              compiled   and   used ( monitorFreq > 0.         = T )
 pkg/debug                compiled but not used ( debugMode                = F )
 pkg/rw                   compiled   and   used
 pkg/mdsio                compiled   and   used
(PID.TID 0000.0001)  PACKAGES_BOOT: End of package Summary
(PID.TID 0000.0001) 
(PID.TID 0000.0001)  OBCS_READPARMS: opening data.obcs
(PID.TID 0000.0001)  OPEN_COPY_DATA_FILE: opening file data.obcs
(PID.TID 0000.0001) // =======================================================
(PID.TID 0000.0001) // Parameter file "data.obcs"
(PID.TID 0000.0001) // =======================================================
(PID.TID 0000.0001) ># Open-boundaries
(PID.TID 0000.0001) > &OBCS_PARM01
(PID.TID 0000.0001) > OB_Iwest=1*1,
(PID.TID 0000.0001) > OB_Ieast=1*-1,
(PID.TID 0000.0001) > OB_Jnorth=100*0,
(PID.TID 0000.0001) > OB_Jsouth=100*0,
(PID.TID 0000.0001) > useOBCSsponge=.TRUE.,
(PID.TID 0000.0001) > OBEuFile='U_in.bin',
(PID.TID 0000.0001) > OBWuFile='U_in.bin',
(PID.TID 0000.0001) > OBEtFile='TE.bin',
(PID.TID 0000.0001) > OBWtFile='TW.bin',
(PID.TID 0000.0001) > useOBCSprescribe=.TRUE.,
(PID.TID 0000.0001) > /
(PID.TID 0000.0001) >
(PID.TID 0000.0001) ># Orlanski parameters
(PID.TID 0000.0001) > &OBCS_PARM02
(PID.TID 0000.0001) >/
(PID.TID 0000.0001) >
(PID.TID 0000.0001) ># Sponge layer parameters
(PID.TID 0000.0001) > &OBCS_PARM03
(PID.TID 0000.0001) > Urelaxobcsinner=1000.,
(PID.TID 0000.0001) > Urelaxobcsbound=100.,
(PID.TID 0000.0001) > Vrelaxobcsinner=1000.0,
(PID.TID 0000.0001) > Vrelaxobcsbound=100.0,
(PID.TID 0000.0001) > spongeThickness=10,
(PID.TID 0000.0001) > /
(PID.TID 0000.0001) 
(PID.TID 0000.0001)  OBCS_READPARMS: finished reading data.obcs
(PID.TID 0000.0001)  OB_indexUnset = /* unset OB index value (i.e. no OB) */
(PID.TID 0000.0001)                       0
(PID.TID 0000.0001)     ;
(PID.TID 0000.0001)  Northern OB global indices : OB_Jnorth =
(PID.TID 0000.0001)   200 @        0                            /* I =  1:200 */
(PID.TID 0000.0001)  Southern OB global indices : OB_Jsouth =
(PID.TID 0000.0001)   200 @        0                            /* I =  1:200 */
(PID.TID 0000.0001)  Eastern  OB global indices : OB_Ieast =
(PID.TID 0000.0001)                     200                     /* J =  1 */
(PID.TID 0000.0001)  Western  OB global indices : OB_Iwest =
(PID.TID 0000.0001)                       1                     /* J =  1 */
(PID.TID 0000.0001) 
(PID.TID 0000.0001)  KL10_READPARMS: opening data.kl10
(PID.TID 0000.0001)  OPEN_COPY_DATA_FILE: opening file data.kl10
(PID.TID 0000.0001) // =======================================================
(PID.TID 0000.0001) // Parameter file "data.kl10"
(PID.TID 0000.0001) // =======================================================
(PID.TID 0000.0001) ># =====================================================================
(PID.TID 0000.0001) ># | Parameters for Klymak and Legg (2010) vertical mixing scheme      |
(PID.TID 0000.0001) ># =====================================================================
(PID.TID 0000.0001) > &KL10_PARM01
(PID.TID 0000.0001) > KLwriteState=.TRUE.,
(PID.TID 0000.0001) >/
(PID.TID 0000.0001) 
(PID.TID 0000.0001)  KL10_READPARMS: finished reading data.kl10
(PID.TID 0000.0001) SET_PARMS: done
(PID.TID 0000.0001)  MDS_READVEC_LOC: open file: delXvar.bin
(PID.TID 0000.0001) S/R LOAD_GRID_SPACING: delX loaded from file: delXvar.bin
(PID.TID 0000.0001)  MDS_READVEC_LOC: open file: delZvar.bin
(PID.TID 0000.0001) S/R LOAD_GRID_SPACING: delR loaded from file: delZvar.bin
(PID.TID 0000.0001) Enter INI_VERTICAL_GRID: setInterFDr=    T ; setCenterDr=    F
(PID.TID 0000.0001) %MON XC_max                       =   9.9471849328752E+04
(PID.TID 0000.0001) %MON XC_min                       =   6.3164731900833E+02
(PID.TID 0000.0001) %MON XC_mean                      =   5.2906107272275E+04
(PID.TID 0000.0001) %MON XC_sd                        =   2.2139310392762E+04
(PID.TID 0000.0001) %MON XG_max                       =   9.8943698657505E+04
(PID.TID 0000.0001) %MON XG_min                       =   0.0000000000000E+00
(PID.TID 0000.0001) %MON XG_mean                      =   5.2656107272275E+04
(PID.TID 0000.0001) %MON XG_sd                        =   2.2172561685063E+04
(PID.TID 0000.0001) %MON DXC_max                      =   1.2503953509116E+03
(PID.TID 0000.0001) %MON DXC_min                      =   2.0000000000000E+02
(PID.TID 0000.0001) %MON DXC_mean                     =   5.0000000000000E+02
(PID.TID 0000.0001) %MON DXC_sd                       =   2.8531736750525E+02
(PID.TID 0000.0001) %MON DXF_max                      =   1.2632946380167E+03
(PID.TID 0000.0001) %MON DXF_min                      =   2.0000000000000E+02
(PID.TID 0000.0001) %MON DXF_mean                     =   5.0000000000000E+02
(PID.TID 0000.0001) %MON DXF_sd                       =   2.8547066202794E+02
(PID.TID 0000.0001) %MON DXG_max                      =   1.2632946380167E+03
(PID.TID 0000.0001) %MON DXG_min                      =   2.0000000000000E+02
(PID.TID 0000.0001) %MON DXG_mean                     =   5.0000000000000E+02
(PID.TID 0000.0001) %MON DXG_sd                       =   2.8547066202794E+02
(PID.TID 0000.0001) %MON DXV_max                      =   1.2503953509116E+03
(PID.TID 0000.0001) %MON DXV_min                      =   2.0000000000000E+02
(PID.TID 0000.0001) %MON DXV_mean                     =   5.0000000000000E+02
(PID.TID 0000.0001) %MON DXV_sd                       =   2.8531736750525E+02
(PID.TID 0000.0001) %MON YC_max                       =   2.5000000000000E+03
(PID.TID 0000.0001) %MON YC_min                       =   2.5000000000000E+03
(PID.TID 0000.0001) %MON YC_mean                      =   2.5000000000000E+03
(PID.TID 0000.0001) %MON YC_sd                        =   0.0000000000000E+00
(PID.TID 0000.0001) %MON YG_max                       =   0.0000000000000E+00
(PID.TID 0000.0001) %MON YG_min                       =   0.0000000000000E+00
(PID.TID 0000.0001) %MON YG_mean                      =   0.0000000000000E+00
(PID.TID 0000.0001) %MON YG_sd                        =   0.0000000000000E+00
(PID.TID 0000.0001) %MON DYC_max                      =   5.0000000000000E+03
(PID.TID 0000.0001) %MON DYC_min                      =   5.0000000000000E+03
(PID.TID 0000.0001) %MON DYC_mean                     =   5.0000000000000E+03
(PID.TID 0000.0001) %MON DYC_sd                       =   0.0000000000000E+00
(PID.TID 0000.0001) %MON DYF_max                      =   5.0000000000000E+03
(PID.TID 0000.0001) %MON DYF_min                      =   5.0000000000000E+03
(PID.TID 0000.0001) %MON DYF_mean                     =   5.0000000000000E+03
(PID.TID 0000.0001) %MON DYF_sd                       =   0.0000000000000E+00
(PID.TID 0000.0001) %MON DYG_max                      =   5.0000000000000E+03
(PID.TID 0000.0001) %MON DYG_min                      =   5.0000000000000E+03
(PID.TID 0000.0001) %MON DYG_mean                     =   5.0000000000000E+03
(PID.TID 0000.0001) %MON DYG_sd                       =   0.0000000000000E+00
(PID.TID 0000.0001) %MON DYU_max                      =   5.0000000000000E+03
(PID.TID 0000.0001) %MON DYU_min                      =   5.0000000000000E+03
(PID.TID 0000.0001) %MON DYU_mean                     =   5.0000000000000E+03
(PID.TID 0000.0001) %MON DYU_sd                       =   0.0000000000000E+00
(PID.TID 0000.0001) %MON RA_max                       =   6.3164731900833E+06
(PID.TID 0000.0001) %MON RA_min                       =   1.0000000000000E+06
(PID.TID 0000.0001) %MON RA_mean                      =   2.5000000000000E+06
(PID.TID 0000.0001) %MON RA_sd                        =   1.4273533101397E+06
(PID.TID 0000.0001) %MON RAW_max                      =   6.2519767545581E+06
(PID.TID 0000.0001) %MON RAW_min                      =   1.0000000000000E+06
(PID.TID 0000.0001) %MON RAW_mean                     =   2.5000000000000E+06
(PID.TID 0000.0001) %MON RAW_sd                       =   1.4265868375263E+06
(PID.TID 0000.0001) %MON RAS_max                      =   6.3164731900833E+06
(PID.TID 0000.0001) %MON RAS_min                      =   1.0000000000000E+06
(PID.TID 0000.0001) %MON RAS_mean                     =   2.5000000000000E+06
(PID.TID 0000.0001) %MON RAS_sd                       =   1.4273533101397E+06
(PID.TID 0000.0001) %MON RAZ_max                      =   6.2519767545581E+06
(PID.TID 0000.0001) %MON RAZ_min                      =   1.0000000000000E+06
(PID.TID 0000.0001) %MON RAZ_mean                     =   2.5000000000000E+06
(PID.TID 0000.0001) %MON RAZ_sd                       =   1.4265868375263E+06
(PID.TID 0000.0001) %MON AngleCS_max                  =   1.0000000000000E+00
(PID.TID 0000.0001) %MON AngleCS_min                  =   1.0000000000000E+00
(PID.TID 0000.0001) %MON AngleCS_mean                 =   1.0000000000000E+00
(PID.TID 0000.0001) %MON AngleCS_sd                   =   0.0000000000000E+00
(PID.TID 0000.0001) %MON AngleSN_max                  =   0.0000000000000E+00
(PID.TID 0000.0001) %MON AngleSN_min                  =   0.0000000000000E+00
(PID.TID 0000.0001) %MON AngleSN_mean                 =   0.0000000000000E+00
(PID.TID 0000.0001) %MON AngleSN_sd                   =   0.0000000000000E+00
(PID.TID 0000.0001)  MDS_READVEC_LOC: open file: Tref.bin
(PID.TID 0000.0001) S/R LOAD_REF_FILES: tRef loaded from file: Tref.bin
(PID.TID 0000.0001)  MDS_READ_FIELD: opening global file: topo.bin
(PID.TID 0000.0001) // =======================================================
(PID.TID 0000.0001) // Field Model R_low (ini_masks_etc)
(PID.TID 0000.0001) // CMIN =         -1.999999999999999E+02
(PID.TID 0000.0001) // CMAX =         -1.001249219075419E+02
(PID.TID 0000.0001) // CINT =          3.699076966387332E+00
(PID.TID 0000.0001) // SYMBOLS (CMIN->CMAX): -abcdefghijklmnopqrstuvwxyz+
(PID.TID 0000.0001) //                  0.0: .
(PID.TID 0000.0001) // RANGE I (Lo:Hi:Step):(    -1:   202:     1)
(PID.TID 0000.0001) // RANGE J (Lo:Hi:Step):(     3:    -1:    -1)
(PID.TID 0000.0001) // RANGE K (Lo:Hi:Step):(   1:   1:   1)
(PID.TID 0000.0001) // =======================================================
(PID.TID 0000.0001) K =   1
(PID.TID 0000.0001) //                I=8       I=18      I=28      I=38      I=48      I=58      I=68      I=78      I=88      I=98      I=108     I=118     I=128     I=138     I=148     I=158     I=168     I=178     I=188     I=198
(PID.TID 0000.0001) // |--J--|101234567|901234567|901234567|901234567|901234567|901234567|901234567|901234567|901234567|901234567|901234567|901234567|901234567|901234567|901234567|901234567|901234567|901234567|901234567|901234567|9012
(PID.TID 0000.0001) //      3 --------------------------------------------------------------------------aaaabbccdefghiklnpqstvwxyz++++zyxwvtsqpnlkihgfedccbbaaaa--------------------------------------------------------------------------
(PID.TID 0000.0001) //      2 --------------------------------------------------------------------------aaaabbccdefghiklnpqstvwxyz++++zyxwvtsqpnlkihgfedccbbaaaa--------------------------------------------------------------------------
(PID.TID 0000.0001) //      1 --------------------------------------------------------------------------aaaabbccdefghiklnpqstvwxyz++++zyxwvtsqpnlkihgfedccbbaaaa--------------------------------------------------------------------------
(PID.TID 0000.0001) //      0 --------------------------------------------------------------------------aaaabbccdefghiklnpqstvwxyz++++zyxwvtsqpnlkihgfedccbbaaaa--------------------------------------------------------------------------
(PID.TID 0000.0001) //     -1 --------------------------------------------------------------------------aaaabbccdefghiklnpqstvwxyz++++zyxwvtsqpnlkihgfedccbbaaaa--------------------------------------------------------------------------
(PID.TID 0000.0001) // =======================================================
(PID.TID 0000.0001) // END OF FIELD                                          =
(PID.TID 0000.0001) // =======================================================
(PID.TID 0000.0001) 
(PID.TID 0000.0001) // =======================================================
(PID.TID 0000.0001) // Field Model Ro_surf (ini_masks_etc)
(PID.TID 0000.0001) // CMIN =         -2.531308496145357E-14
(PID.TID 0000.0001) // CMAX =          3.153033389935445E-14
(PID.TID 0000.0001) // CINT =          2.105311809659556E-15
(PID.TID 0000.0001) // SYMBOLS (CMIN->CMAX): -abcdefghijklmnopqrstuvwxyz+
(PID.TID 0000.0001) //                  0.0: .
(PID.TID 0000.0001) // RANGE I (Lo:Hi:Step):(    -1:   202:     1)
(PID.TID 0000.0001) // RANGE J (Lo:Hi:Step):(     3:    -1:    -1)
(PID.TID 0000.0001) // RANGE K (Lo:Hi:Step):(   1:   1:   1)
(PID.TID 0000.0001) // =======================================================
(PID.TID 0000.0001) K =   1
(PID.TID 0000.0001) //                I=8       I=18      I=28      I=38      I=48      I=58      I=68      I=78      I=88      I=98      I=108     I=118     I=128     I=138     I=148     I=158     I=168     I=178     I=188     I=198
(PID.TID 0000.0001) // |--J--|101234567|901234567|901234567|901234567|901234567|901234567|901234567|901234567|901234567|901234567|901234567|901234567|901234567|901234567|901234567|901234567|901234567|901234567|901234567|901234567|9012
(PID.TID 0000.0001) //      3 nnnnnnnnnnnnnnnnnnnnnnnnnnnnnnnnnnnnnnnnnnnnnnnnnnnnnnnnnnnnnnnnnnnnnnnnnnnnnnnn----nnn-n-n-nn+nnnnnnnnnnnnnn+nn-n-n-nnn----nnnnnnnnnnnnnnnnnnnnnnnnnnnnnnnnnnnnnnnnnnnnnnnnnnnnnnnnnnnnnnnnnnnnnnnnnnnnnnnn
(PID.TID 0000.0001) //      2 nnnnnnnnnnnnnnnnnnnnnnnnnnnnnnnnnnnnnnnnnnnnnnnnnnnnnnnnnnnnnnnnnnnnnnnnnnnnnnnn----nnn-n-n-nn+nnnnnnnnnnnnnn+nn-n-n-nnn----nnnnnnnnnnnnnnnnnnnnnnnnnnnnnnnnnnnnnnnnnnnnnnnnnnnnnnnnnnnnnnnnnnnnnnnnnnnnnnnn
(PID.TID 0000.0001) //      1 nnnnnnnnnnnnnnnnnnnnnnnnnnnnnnnnnnnnnnnnnnnnnnnnnnnnnnnnnnnnnnnnnnnnnnnnnnnnnnnn----nnn-n-n-nn+nnnnnnnnnnnnnn+nn-n-n-nnn----nnnnnnnnnnnnnnnnnnnnnnnnnnnnnnnnnnnnnnnnnnnnnnnnnnnnnnnnnnnnnnnnnnnnnnnnnnnnnnnn
(PID.TID 0000.0001) //      0 nnnnnnnnnnnnnnnnnnnnnnnnnnnnnnnnnnnnnnnnnnnnnnnnnnnnnnnnnnnnnnnnnnnnnnnnnnnnnnnn----nnn-n-n-nn+nnnnnnnnnnnnnn+nn-n-n-nnn----nnnnnnnnnnnnnnnnnnnnnnnnnnnnnnnnnnnnnnnnnnnnnnnnnnnnnnnnnnnnnnnnnnnnnnnnnnnnnnnn
(PID.TID 0000.0001) //     -1 nnnnnnnnnnnnnnnnnnnnnnnnnnnnnnnnnnnnnnnnnnnnnnnnnnnnnnnnnnnnnnnnnnnnnnnnnnnnnnnn----nnn-n-n-nn+nnnnnnnnnnnnnn+nn-n-n-nnn----nnnnnnnnnnnnnnnnnnnnnnnnnnnnnnnnnnnnnnnnnnnnnnnnnnnnnnnnnnnnnnnnnnnnnnnnnnnnnnnn
(PID.TID 0000.0001) // =======================================================
(PID.TID 0000.0001) // END OF FIELD                                          =
(PID.TID 0000.0001) // =======================================================
(PID.TID 0000.0001) 
(PID.TID 0000.0001) // =======================================================
(PID.TID 0000.0001) // Field hFacC at iteration          0
(PID.TID 0000.0001) // CMIN =          1.000000000000000E+00
(PID.TID 0000.0001) // CMAX =          1.000000000000000E+00
(PID.TID 0000.0001) // CINT =          0.000000000000000E+00
(PID.TID 0000.0001) // SYMBOLS (CMIN->CMAX): -abcdefghijklmnopqrstuvwxyz+
(PID.TID 0000.0001) //                  0.0: .
(PID.TID 0000.0001) // RANGE I (Lo:Hi:Step):(    -1:   202:     1)
(PID.TID 0000.0001) // RANGE J (Lo:Hi:Step):(     3:    -1:    -1)
(PID.TID 0000.0001) // RANGE K (Lo:Hi:Step):(   1:   1:   1)
(PID.TID 0000.0001) // =======================================================
(PID.TID 0000.0001) // =======================================================
(PID.TID 0000.0001) // END OF FIELD                                          =
(PID.TID 0000.0001) // =======================================================
(PID.TID 0000.0001) 
(PID.TID 0000.0001) // =======================================================
(PID.TID 0000.0001) // Field hFacW at iteration          0
(PID.TID 0000.0001) // CMIN =          1.000000000000000E+00
(PID.TID 0000.0001) // CMAX =          1.000000000000000E+00
(PID.TID 0000.0001) // CINT =          0.000000000000000E+00
(PID.TID 0000.0001) // SYMBOLS (CMIN->CMAX): -abcdefghijklmnopqrstuvwxyz+
(PID.TID 0000.0001) //                  0.0: .
(PID.TID 0000.0001) // RANGE I (Lo:Hi:Step):(    -1:   202:     1)
(PID.TID 0000.0001) // RANGE J (Lo:Hi:Step):(     3:    -1:    -1)
(PID.TID 0000.0001) // RANGE K (Lo:Hi:Step):(   1:   1:   1)
(PID.TID 0000.0001) // =======================================================
(PID.TID 0000.0001) // =======================================================
(PID.TID 0000.0001) // END OF FIELD                                          =
(PID.TID 0000.0001) // =======================================================
(PID.TID 0000.0001) 
(PID.TID 0000.0001) // =======================================================
(PID.TID 0000.0001) // Field hFacS at iteration          0
(PID.TID 0000.0001) // CMIN =          1.000000000000000E+00
(PID.TID 0000.0001) // CMAX =          1.000000000000000E+00
(PID.TID 0000.0001) // CINT =          0.000000000000000E+00
(PID.TID 0000.0001) // SYMBOLS (CMIN->CMAX): -abcdefghijklmnopqrstuvwxyz+
(PID.TID 0000.0001) //                  0.0: .
(PID.TID 0000.0001) // RANGE I (Lo:Hi:Step):(    -1:   202:     1)
(PID.TID 0000.0001) // RANGE J (Lo:Hi:Step):(     3:    -1:    -1)
(PID.TID 0000.0001) // RANGE K (Lo:Hi:Step):(   1:   1:   1)
(PID.TID 0000.0001) // =======================================================
(PID.TID 0000.0001) // =======================================================
(PID.TID 0000.0001) // END OF FIELD                                          =
(PID.TID 0000.0001) // =======================================================
(PID.TID 0000.0001) 
(PID.TID 0000.0001) GAD_INIT_FIXED: GAD_OlMinSize=  2  0  1
(PID.TID 0000.0001) 
(PID.TID 0000.0001) // ===================================
(PID.TID 0000.0001) // GAD parameters :
(PID.TID 0000.0001) // ===================================
(PID.TID 0000.0001) tempAdvScheme =   /* Temp. Horiz.Advection scheme selector */
(PID.TID 0000.0001)                      77
(PID.TID 0000.0001)     ;
(PID.TID 0000.0001) tempVertAdvScheme =   /* Temp. Vert. Advection scheme selector */
(PID.TID 0000.0001)                      77
(PID.TID 0000.0001)     ;
(PID.TID 0000.0001) tempMultiDimAdvec =   /* use Muti-Dim Advec method for Temp */
(PID.TID 0000.0001)                   T
(PID.TID 0000.0001)     ;
(PID.TID 0000.0001) tempSOM_Advection = /* use 2nd Order Moment Advection for Temp */
(PID.TID 0000.0001)                   F
(PID.TID 0000.0001)     ;
(PID.TID 0000.0001) AdamsBashforthGt = /* apply Adams-Bashforth extrapolation on Gt */
(PID.TID 0000.0001)                   F
(PID.TID 0000.0001)     ;
(PID.TID 0000.0001) AdamsBashforth_T = /* apply Adams-Bashforth extrapolation on Temp */
(PID.TID 0000.0001)                   F
(PID.TID 0000.0001)     ;
(PID.TID 0000.0001) saltAdvScheme =   /* Salt. Horiz.advection scheme selector */
(PID.TID 0000.0001)                       2
(PID.TID 0000.0001)     ;
(PID.TID 0000.0001) saltVertAdvScheme =   /* Salt. Vert. Advection scheme selector */
(PID.TID 0000.0001)                       2
(PID.TID 0000.0001)     ;
(PID.TID 0000.0001) saltMultiDimAdvec =   /* use Muti-Dim Advec method for Salt */
(PID.TID 0000.0001)                   F
(PID.TID 0000.0001)     ;
(PID.TID 0000.0001) saltSOM_Advection = /* use 2nd Order Moment Advection for Salt */
(PID.TID 0000.0001)                   F
(PID.TID 0000.0001)     ;
(PID.TID 0000.0001) AdamsBashforthGs = /* apply Adams-Bashforth extrapolation on Gs */
(PID.TID 0000.0001)                   F
(PID.TID 0000.0001)     ;
(PID.TID 0000.0001) AdamsBashforth_S = /* apply Adams-Bashforth extrapolation on Salt */
(PID.TID 0000.0001)                   F
(PID.TID 0000.0001)     ;
(PID.TID 0000.0001) // ===================================
(PID.TID 0000.0001) %MON fCori_max                    =   0.0000000000000E+00
(PID.TID 0000.0001) %MON fCori_min                    =   0.0000000000000E+00
(PID.TID 0000.0001) %MON fCori_mean                   =   0.0000000000000E+00
(PID.TID 0000.0001) %MON fCori_sd                     =   0.0000000000000E+00
(PID.TID 0000.0001) %MON fCoriG_max                   =   0.0000000000000E+00
(PID.TID 0000.0001) %MON fCoriG_min                   =   0.0000000000000E+00
(PID.TID 0000.0001) %MON fCoriG_mean                  =   0.0000000000000E+00
(PID.TID 0000.0001) %MON fCoriG_sd                    =   0.0000000000000E+00
(PID.TID 0000.0001) %MON fCoriCos_max                 =   0.0000000000000E+00
(PID.TID 0000.0001) %MON fCoriCos_min                 =   0.0000000000000E+00
(PID.TID 0000.0001) %MON fCoriCos_mean                =   0.0000000000000E+00
(PID.TID 0000.0001) %MON fCoriCos_sd                  =   0.0000000000000E+00
(PID.TID 0000.0001) INI_CG2D: CG2D normalisation factor =  2.2135898720948493E-04
(PID.TID 0000.0001) 
(PID.TID 0000.0001) // =======================================================
(PID.TID 0000.0001) // Model configuration
(PID.TID 0000.0001) // =======================================================
(PID.TID 0000.0001) //
(PID.TID 0000.0001) // "Physical" paramters ( PARM01 in namelist )
(PID.TID 0000.0001) //
(PID.TID 0000.0001) buoyancyRelation = /* Type of relation to get Buoyancy */
(PID.TID 0000.0001)               'OCEANIC'
(PID.TID 0000.0001)     ;
(PID.TID 0000.0001) fluidIsAir   =  /* fluid major constituent is Air */
(PID.TID 0000.0001)                   F
(PID.TID 0000.0001)     ;
(PID.TID 0000.0001) fluidIsWater =  /* fluid major constituent is Water */
(PID.TID 0000.0001)                   T
(PID.TID 0000.0001)     ;
(PID.TID 0000.0001) usingPCoords =  /* use p (or p*) vertical coordinate */
(PID.TID 0000.0001)                   F
(PID.TID 0000.0001)     ;
(PID.TID 0000.0001) usingZCoords =  /* use z (or z*) vertical coordinate */
(PID.TID 0000.0001)                   T
(PID.TID 0000.0001)     ;
(PID.TID 0000.0001) tRef =   /* Reference temperature profile ( oC or K ) */
(PID.TID 0000.0001)    46 @  1.500000000000000E+01,             /* K =  1: 46 */
(PID.TID 0000.0001)                 1.499933084687693E+01,      /* K = 47 */
(PID.TID 0000.0001)                 1.497717153877677E+01,      /* K = 48 */
(PID.TID 0000.0001)                 1.470721590167325E+01,      /* K = 49 */
(PID.TID 0000.0001)                 1.349735867339025E+01,      /* K = 50 */
(PID.TID 0000.0001)                 1.150264132660976E+01,      /* K = 51 */
(PID.TID 0000.0001)                 1.029278409832675E+01,      /* K = 52 */
(PID.TID 0000.0001)                 1.002282846122323E+01,      /* K = 53 */
(PID.TID 0000.0001)                 1.000066915312308E+01,      /* K = 54 */
(PID.TID 0000.0001)    46 @  1.000000000000000E+01              /* K = 55:100 */
(PID.TID 0000.0001)     ;
(PID.TID 0000.0001) sRef =   /* Reference salinity profile ( psu ) */
(PID.TID 0000.0001)   100 @  3.500000000000000E+01              /* K =  1:100 */
(PID.TID 0000.0001)     ;
(PID.TID 0000.0001) useStrainTensionVisc= /* Use StrainTension Form of Viscous Operator */
(PID.TID 0000.0001)                   F
(PID.TID 0000.0001)     ;
(PID.TID 0000.0001) useVariableVisc = /* Use variable horizontal viscosity */
(PID.TID 0000.0001)                   F
(PID.TID 0000.0001)     ;
(PID.TID 0000.0001) useHarmonicVisc = /* Use harmonic horizontal viscosity */
(PID.TID 0000.0001)                   T
(PID.TID 0000.0001)     ;
(PID.TID 0000.0001) useBiharmonicVisc= /* Use biharmonic horiz.  viscosity */
(PID.TID 0000.0001)                   F
(PID.TID 0000.0001)     ;
(PID.TID 0000.0001) useSmag3D = /* Use isotropic 3-D Smagorinsky viscosity */
(PID.TID 0000.0001)                   F
(PID.TID 0000.0001)     ;
(PID.TID 0000.0001) viscAh  =   /* Lateral harmonic viscosity ( m^2/s ) */
(PID.TID 0000.0001)                 1.000000000000000E-04
(PID.TID 0000.0001)     ;
(PID.TID 0000.0001) viscA4  =   /* Lateral biharmonic viscosity ( m^4/s ) */
(PID.TID 0000.0001)                 0.000000000000000E+00
(PID.TID 0000.0001)     ;
(PID.TID 0000.0001) no_slip_sides =  /* Viscous BCs: No-slip sides */
(PID.TID 0000.0001)                   F
(PID.TID 0000.0001)     ;
(PID.TID 0000.0001) sideDragFactor = /* side-drag scaling factor (non-dim) */
(PID.TID 0000.0001)                 2.000000000000000E+00
(PID.TID 0000.0001)     ;
(PID.TID 0000.0001) viscArNr = /* vertical profile of vertical viscosity ( m^2/s )*/
(PID.TID 0000.0001)   100 @  1.000000000000000E-05              /* K =  1:100 */
(PID.TID 0000.0001)     ;
(PID.TID 0000.0001) no_slip_bottom =  /* Viscous BCs: No-slip bottom */
(PID.TID 0000.0001)                   F
(PID.TID 0000.0001)     ;
(PID.TID 0000.0001) bottomDragLinear = /* linear bottom-drag coefficient ( m/s ) */
(PID.TID 0000.0001)                 0.000000000000000E+00
(PID.TID 0000.0001)     ;
(PID.TID 0000.0001) bottomDragQuadratic = /* quadratic bottom-drag coefficient (-) */
(PID.TID 0000.0001)                 0.000000000000000E+00
(PID.TID 0000.0001)     ;
(PID.TID 0000.0001) diffKhT =   /* Laplacian diffusion of heat laterally ( m^2/s ) */
(PID.TID 0000.0001)                 1.000000000000000E-04
(PID.TID 0000.0001)     ;
(PID.TID 0000.0001) diffK4T =   /* Biharmonic diffusion of heat laterally ( m^4/s ) */
(PID.TID 0000.0001)                 0.000000000000000E+00
(PID.TID 0000.0001)     ;
(PID.TID 0000.0001) diffKhS =   /* Laplacian diffusion of salt laterally ( m^2/s ) */
(PID.TID 0000.0001)                 1.000000000000000E+03
(PID.TID 0000.0001)     ;
(PID.TID 0000.0001) diffK4S =   /* Biharmonic diffusion of salt laterally ( m^4/s ) */
(PID.TID 0000.0001)                 0.000000000000000E+00
(PID.TID 0000.0001)     ;
(PID.TID 0000.0001) diffKrNrT = /* vertical profile of vertical diffusion of Temp ( m^2/s )*/
(PID.TID 0000.0001)   100 @  1.000000000000000E-05              /* K =  1:100 */
(PID.TID 0000.0001)     ;
(PID.TID 0000.0001) diffKrNrS = /* vertical profile of vertical diffusion of Salt ( m^2/s )*/
(PID.TID 0000.0001)   100 @  1.000000000000000E-05              /* K =  1:100 */
(PID.TID 0000.0001)     ;
(PID.TID 0000.0001) diffKrBL79surf = /* Surface diffusion for Bryan and Lewis 79 ( m^2/s ) */
(PID.TID 0000.0001)                 0.000000000000000E+00
(PID.TID 0000.0001)     ;
(PID.TID 0000.0001) diffKrBL79deep = /* Deep diffusion for Bryan and Lewis 1979 ( m^2/s ) */
(PID.TID 0000.0001)                 0.000000000000000E+00
(PID.TID 0000.0001)     ;
(PID.TID 0000.0001) diffKrBL79scl = /* Depth scale for Bryan and Lewis 1979 ( m ) */
(PID.TID 0000.0001)                 2.000000000000000E+02
(PID.TID 0000.0001)     ;
(PID.TID 0000.0001) diffKrBL79Ho = /* Turning depth for Bryan and Lewis 1979 ( m ) */
(PID.TID 0000.0001)                -2.000000000000000E+03
(PID.TID 0000.0001)     ;
(PID.TID 0000.0001) ivdc_kappa = /* Implicit Vertical Diffusivity for Convection ( m^2/s) */
(PID.TID 0000.0001)                 0.000000000000000E+00
(PID.TID 0000.0001)     ;
(PID.TID 0000.0001) hMixCriteria=  /* Criteria for mixed-layer diagnostic */
(PID.TID 0000.0001)                -8.000000000000000E-01
(PID.TID 0000.0001)     ;
(PID.TID 0000.0001) dRhoSmall =  /* Parameter for mixed-layer diagnostic */
(PID.TID 0000.0001)                 1.000000000000000E-06
(PID.TID 0000.0001)     ;
(PID.TID 0000.0001) hMixSmooth=  /* Smoothing parameter for mixed-layer diagnostic */
(PID.TID 0000.0001)                 0.000000000000000E+00
(PID.TID 0000.0001)     ;
(PID.TID 0000.0001) eosType =  /* Type of Equation of State */
(PID.TID 0000.0001)               'LINEAR'
(PID.TID 0000.0001)     ;
(PID.TID 0000.0001) tAlpha = /* Linear EOS thermal expansion coefficient ( 1/oC ) */
(PID.TID 0000.0001)                 2.000000000000000E-04
(PID.TID 0000.0001)     ;
(PID.TID 0000.0001) sBeta  = /* Linear EOS haline contraction coefficient ( 1/psu ) */
(PID.TID 0000.0001)                 0.000000000000000E+00
(PID.TID 0000.0001)     ;
(PID.TID 0000.0001) rhoNil    = /* Reference density for Linear EOS ( kg/m^3 ) */
(PID.TID 0000.0001)                 9.998000000000000E+02
(PID.TID 0000.0001)     ;
(PID.TID 0000.0001) HeatCapacity_Cp =  /* Specific heat capacity ( J/kg/K ) */
(PID.TID 0000.0001)                 3.994000000000000E+03
(PID.TID 0000.0001)     ;
(PID.TID 0000.0001) celsius2K = /* 0 degree Celsius converted to Kelvin ( K ) */
(PID.TID 0000.0001)                 2.731500000000000E+02
(PID.TID 0000.0001)     ;
(PID.TID 0000.0001) rhoConst  = /* Reference density (Boussinesq)  ( kg/m^3 ) */
(PID.TID 0000.0001)                 9.998000000000000E+02
(PID.TID 0000.0001)     ;
(PID.TID 0000.0001) rhoFacC = /* normalized Reference density @ cell-Center (-) */
(PID.TID 0000.0001)   100 @  1.000000000000000E+00              /* K =  1:100 */
(PID.TID 0000.0001)     ;
(PID.TID 0000.0001) rhoFacF = /* normalized Reference density @ W-Interface (-) */
(PID.TID 0000.0001)   101 @  1.000000000000000E+00              /* K =  1:101 */
(PID.TID 0000.0001)     ;
(PID.TID 0000.0001) rhoConstFresh = /* Fresh-water reference density ( kg/m^3 ) */
(PID.TID 0000.0001)                 9.998000000000000E+02
(PID.TID 0000.0001)     ;
(PID.TID 0000.0001) gravity =   /* Gravitational acceleration ( m/s^2 ) */
(PID.TID 0000.0001)                 9.810000000000000E+00
(PID.TID 0000.0001)     ;
(PID.TID 0000.0001) gBaro =   /* Barotropic gravity ( m/s^2 ) */
(PID.TID 0000.0001)                 9.810000000000000E+00
(PID.TID 0000.0001)     ;
(PID.TID 0000.0001) rotationPeriod =   /* Rotation Period ( s ) */
(PID.TID 0000.0001)                 8.616400000000000E+04
(PID.TID 0000.0001)     ;
(PID.TID 0000.0001) omega =   /* Angular velocity ( rad/s ) */
(PID.TID 0000.0001)                 7.292123516990375E-05
(PID.TID 0000.0001)     ;
(PID.TID 0000.0001) f0 =   /* Reference coriolis parameter ( 1/s ) */
(PID.TID 0000.0001)                 0.000000000000000E+00
(PID.TID 0000.0001)     ;
(PID.TID 0000.0001) beta =   /* Beta ( 1/(m.s) ) */
(PID.TID 0000.0001)                 0.000000000000000E+00
(PID.TID 0000.0001)     ;
(PID.TID 0000.0001) fPrime =   /* Second coriolis parameter ( 1/s ) */
(PID.TID 0000.0001)                 0.000000000000000E+00
(PID.TID 0000.0001)     ;
(PID.TID 0000.0001) rigidLid =   /* Rigid lid on/off flag */
(PID.TID 0000.0001)                   F
(PID.TID 0000.0001)     ;
(PID.TID 0000.0001) implicitFreeSurface =   /* Implicit free surface on/off flag */
(PID.TID 0000.0001)                   T
(PID.TID 0000.0001)     ;
(PID.TID 0000.0001) freeSurfFac =   /* Implicit free surface factor */
(PID.TID 0000.0001)                 1.000000000000000E+00
(PID.TID 0000.0001)     ;
(PID.TID 0000.0001) implicSurfPress =  /* Surface Pressure implicit factor (0-1)*/
(PID.TID 0000.0001)                 1.000000000000000E+00
(PID.TID 0000.0001)     ;
(PID.TID 0000.0001) implicDiv2Dflow =  /* Barot. Flow Div. implicit factor (0-1)*/
(PID.TID 0000.0001)                 1.000000000000000E+00
(PID.TID 0000.0001)     ;
(PID.TID 0000.0001) uniformLin_PhiSurf = /* use uniform Bo_surf on/off flag*/
(PID.TID 0000.0001)                   T
(PID.TID 0000.0001)     ;
(PID.TID 0000.0001) uniformFreeSurfLev = /* free-surface level-index is uniform */
(PID.TID 0000.0001)                   T
(PID.TID 0000.0001)     ;
(PID.TID 0000.0001) hFacMin =   /* minimum partial cell factor (hFac) */
(PID.TID 0000.0001)                 1.000000000000000E-01
(PID.TID 0000.0001)     ;
(PID.TID 0000.0001) hFacMinDr = /* minimum partial cell thickness ( m) */
(PID.TID 0000.0001)                 0.000000000000000E+00
(PID.TID 0000.0001)     ;
(PID.TID 0000.0001) exactConserv =  /* Exact Volume Conservation on/off flag*/
(PID.TID 0000.0001)                   F
(PID.TID 0000.0001)     ;
(PID.TID 0000.0001) linFSConserveTr = /* Tracer correction for Lin Free Surface on/off flag*/
(PID.TID 0000.0001)                   F
(PID.TID 0000.0001)     ;
(PID.TID 0000.0001) nonlinFreeSurf = /* Non-linear Free Surf. options (-1,0,1,2,3)*/
(PID.TID 0000.0001)                       0
(PID.TID 0000.0001)      -1,0= Off ; 1,2,3= On, 2=+rescale gU,gV, 3=+update cg2d solv.
(PID.TID 0000.0001)     ;
(PID.TID 0000.0001) hFacInf =   /* lower threshold for hFac (nonlinFreeSurf only)*/
(PID.TID 0000.0001)                 2.000000000000000E-01
(PID.TID 0000.0001)     ;
(PID.TID 0000.0001) hFacSup =   /* upper threshold for hFac (nonlinFreeSurf only)*/
(PID.TID 0000.0001)                 2.000000000000000E+00
(PID.TID 0000.0001)     ;
(PID.TID 0000.0001) select_rStar = /* r* Vertical coord. options (=0 r coord.; >0 uses r*)*/
(PID.TID 0000.0001)                       0
(PID.TID 0000.0001)     ;
(PID.TID 0000.0001) useRealFreshWaterFlux = /* Real Fresh Water Flux on/off flag*/
(PID.TID 0000.0001)                   F
(PID.TID 0000.0001)     ;
(PID.TID 0000.0001) temp_EvPrRn = /* Temp. of Evap/Prec/R (UNSET=use local T)(oC)*/
(PID.TID 0000.0001)                 1.234567000000000E+05
(PID.TID 0000.0001)     ;
(PID.TID 0000.0001) salt_EvPrRn = /* Salin. of Evap/Prec/R (UNSET=use local S)(psu)*/
(PID.TID 0000.0001)                 0.000000000000000E+00
(PID.TID 0000.0001)     ;
(PID.TID 0000.0001) selectAddFluid = /* option for mass source/sink of fluid (=0: off) */
(PID.TID 0000.0001)                       0
(PID.TID 0000.0001)     ;
(PID.TID 0000.0001) temp_addMass = /* Temp. of addMass array (UNSET=use local T)(oC)*/
(PID.TID 0000.0001)                 1.234567000000000E+05
(PID.TID 0000.0001)     ;
(PID.TID 0000.0001) salt_addMass = /* Salin. of addMass array (UNSET=use local S)(psu)*/
(PID.TID 0000.0001)                 0.000000000000000E+00
(PID.TID 0000.0001)     ;
(PID.TID 0000.0001) convertFW2Salt = /* convert F.W. Flux to Salt Flux (-1=use local S)(psu)*/
(PID.TID 0000.0001)                 3.500000000000000E+01
(PID.TID 0000.0001)     ;
(PID.TID 0000.0001) use3Dsolver = /* use 3-D pressure solver on/off flag */
(PID.TID 0000.0001)                   F
(PID.TID 0000.0001)     ;
(PID.TID 0000.0001) nonHydrostatic =  /* Non-Hydrostatic on/off flag */
(PID.TID 0000.0001)                   F
(PID.TID 0000.0001)     ;
(PID.TID 0000.0001) nh_Am2 = /* Non-Hydrostatic terms scaling factor */
(PID.TID 0000.0001)                 1.000000000000000E+00
(PID.TID 0000.0001)     ;
(PID.TID 0000.0001) implicitNHPress = /* Non-Hyd Pressure implicit factor (0-1)*/
(PID.TID 0000.0001)                 1.000000000000000E+00
(PID.TID 0000.0001)     ;
(PID.TID 0000.0001) selectNHfreeSurf = /* Non-Hyd (free-)Surface option */
(PID.TID 0000.0001)                       0
(PID.TID 0000.0001)     ;
(PID.TID 0000.0001) quasiHydrostatic = /* Quasi-Hydrostatic on/off flag */
(PID.TID 0000.0001)                   F
(PID.TID 0000.0001)     ;
(PID.TID 0000.0001) calc_wVelocity = /* vertical velocity calculation on/off flag */
(PID.TID 0000.0001)                   T
(PID.TID 0000.0001)     ;
(PID.TID 0000.0001) momStepping =  /* Momentum equation on/off flag */
(PID.TID 0000.0001)                   T
(PID.TID 0000.0001)     ;
(PID.TID 0000.0001) vectorInvariantMomentum= /* Vector-Invariant Momentum on/off */
(PID.TID 0000.0001)                   F
(PID.TID 0000.0001)     ;
(PID.TID 0000.0001) momAdvection =  /* Momentum advection on/off flag */
(PID.TID 0000.0001)                   T
(PID.TID 0000.0001)     ;
(PID.TID 0000.0001) momViscosity =  /* Momentum viscosity on/off flag */
(PID.TID 0000.0001)                   T
(PID.TID 0000.0001)     ;
(PID.TID 0000.0001) momImplVertAdv= /* Momentum implicit vert. advection on/off*/
(PID.TID 0000.0001)                   F
(PID.TID 0000.0001)     ;
(PID.TID 0000.0001) implicitViscosity = /* Implicit viscosity on/off flag */
(PID.TID 0000.0001)                   T
(PID.TID 0000.0001)     ;
(PID.TID 0000.0001) metricTerms =  /* metric-Terms on/off flag */
(PID.TID 0000.0001)                   F
(PID.TID 0000.0001)     ;
(PID.TID 0000.0001) useNHMTerms = /* Non-Hydrostatic Metric-Terms on/off */
(PID.TID 0000.0001)                   F
(PID.TID 0000.0001)     ;
(PID.TID 0000.0001) selectCoriMap = /* Coriolis Map options (0,1,2,3)*/
(PID.TID 0000.0001)                       1
(PID.TID 0000.0001)     0= f-Plane ; 1= Beta-Plane ; 2= Spherical ; 3= read from file
(PID.TID 0000.0001)     ;
(PID.TID 0000.0001) use3dCoriolis = /* 3-D Coriolis on/off flag */
(PID.TID 0000.0001)                   F
(PID.TID 0000.0001)     ;
(PID.TID 0000.0001) useCoriolis =  /* Coriolis on/off flag */
(PID.TID 0000.0001)                   T
(PID.TID 0000.0001)     ;
(PID.TID 0000.0001) useCDscheme =  /* CD scheme on/off flag */
(PID.TID 0000.0001)                   F
(PID.TID 0000.0001)     ;
(PID.TID 0000.0001) useEnergyConservingCoriolis= /* Flx-Form Coriolis scheme flag */
(PID.TID 0000.0001)                   F
(PID.TID 0000.0001)     ;
(PID.TID 0000.0001) useJamartWetPoints= /* Coriolis WetPoints method flag */
(PID.TID 0000.0001)                   F
(PID.TID 0000.0001)     ;
(PID.TID 0000.0001) useJamartMomAdv= /* V.I Non-linear terms Jamart flag */
(PID.TID 0000.0001)                   F
(PID.TID 0000.0001)     ;
(PID.TID 0000.0001) useAbsVorticity= /* V.I Works with f+zeta in Coriolis */
(PID.TID 0000.0001)                   F
(PID.TID 0000.0001)     ;
(PID.TID 0000.0001) selectVortScheme= /* V.I Scheme selector for Vorticity-Term */
(PID.TID 0000.0001)               123456789
(PID.TID 0000.0001)    = 0 : enstrophy (Shallow-Water Eq.) conserving scheme by Sadourny, JAS 75
(PID.TID 0000.0001)    = 1 : same as 0 with modified hFac
(PID.TID 0000.0001)    = 2 : energy conserving scheme (used by Sadourny in JAS 75 paper)
(PID.TID 0000.0001)    = 3 : energy (general) and enstrophy (2D, nonDiv.) conserving scheme
(PID.TID 0000.0001)          from Sadourny (Burridge & Haseler, ECMWF Rep.4, 1977)
(PID.TID 0000.0001)     ;
(PID.TID 0000.0001) upwindVorticity= /* V.I Upwind bias vorticity flag */
(PID.TID 0000.0001)                   F
(PID.TID 0000.0001)     ;
(PID.TID 0000.0001) highOrderVorticity= /* V.I High order vort. advect. flag */
(PID.TID 0000.0001)                   F
(PID.TID 0000.0001)     ;
(PID.TID 0000.0001) upwindShear= /* V.I Upwind vertical Shear advection flag */
(PID.TID 0000.0001)                   F
(PID.TID 0000.0001)     ;
(PID.TID 0000.0001) selectKEscheme= /* V.I Kinetic Energy scheme selector */
(PID.TID 0000.0001)                       0
(PID.TID 0000.0001)     ;
(PID.TID 0000.0001) momForcing =  /* Momentum forcing on/off flag */
(PID.TID 0000.0001)                   T
(PID.TID 0000.0001)     ;
(PID.TID 0000.0001) momPressureForcing =  /* Momentum pressure term on/off flag */
(PID.TID 0000.0001)                   T
(PID.TID 0000.0001)     ;
(PID.TID 0000.0001) implicitIntGravWave= /* Implicit Internal Gravity Wave flag */
(PID.TID 0000.0001)                   F
(PID.TID 0000.0001)     ;
(PID.TID 0000.0001) staggerTimeStep =    /* Stagger time stepping on/off flag */
(PID.TID 0000.0001)                   T
(PID.TID 0000.0001)     ;
(PID.TID 0000.0001) doResetHFactors = /* reset thickness factors @ each time-step */
(PID.TID 0000.0001)                   F
(PID.TID 0000.0001)     ;
(PID.TID 0000.0001) multiDimAdvection =  /* enable/disable Multi-Dim Advection */
(PID.TID 0000.0001)                   T
(PID.TID 0000.0001)     ;
(PID.TID 0000.0001) useMultiDimAdvec =   /* Multi-Dim Advection is/is-not used */
(PID.TID 0000.0001)                   T
(PID.TID 0000.0001)     ;
(PID.TID 0000.0001) implicitDiffusion = /* Implicit Diffusion on/off flag */
(PID.TID 0000.0001)                   T
(PID.TID 0000.0001)     ;
(PID.TID 0000.0001) tempStepping =  /* Temperature equation on/off flag */
(PID.TID 0000.0001)                   T
(PID.TID 0000.0001)     ;
(PID.TID 0000.0001) tempAdvection = /* Temperature advection on/off flag */
(PID.TID 0000.0001)                   T
(PID.TID 0000.0001)     ;
(PID.TID 0000.0001) tempImplVertAdv = /* Temp. implicit vert. advection on/off */
(PID.TID 0000.0001)                   F
(PID.TID 0000.0001)     ;
(PID.TID 0000.0001) tempForcing  =  /* Temperature forcing on/off flag */
(PID.TID 0000.0001)                   T
(PID.TID 0000.0001)     ;
(PID.TID 0000.0001) doThetaClimRelax = /* apply SST relaxation on/off flag */
(PID.TID 0000.0001)                   F
(PID.TID 0000.0001)     ;
(PID.TID 0000.0001) tempIsActiveTr = /* Temp. is a dynamically Active Tracer */
(PID.TID 0000.0001)                   T
(PID.TID 0000.0001)     ;
(PID.TID 0000.0001) saltStepping =  /* Salinity equation on/off flag */
(PID.TID 0000.0001)                   F
(PID.TID 0000.0001)     ;
(PID.TID 0000.0001) saltAdvection = /* Salinity advection on/off flag */
(PID.TID 0000.0001)                   F
(PID.TID 0000.0001)     ;
(PID.TID 0000.0001) saltImplVertAdv = /* Sali. implicit vert. advection on/off */
(PID.TID 0000.0001)                   F
(PID.TID 0000.0001)     ;
(PID.TID 0000.0001) saltForcing  =  /* Salinity forcing on/off flag */
(PID.TID 0000.0001)                   F
(PID.TID 0000.0001)     ;
(PID.TID 0000.0001) doSaltClimRelax = /* apply SSS relaxation on/off flag */
(PID.TID 0000.0001)                   F
(PID.TID 0000.0001)     ;
(PID.TID 0000.0001) saltIsActiveTr = /* Salt  is a dynamically Active Tracer */
(PID.TID 0000.0001)                   F
(PID.TID 0000.0001)     ;
(PID.TID 0000.0001)  readBinaryPrec = /* Precision used for reading binary files */
(PID.TID 0000.0001)                      64
(PID.TID 0000.0001)     ;
(PID.TID 0000.0001) writeBinaryPrec = /* Precision used for writing binary files */
(PID.TID 0000.0001)                      64
(PID.TID 0000.0001)     ;
(PID.TID 0000.0001)  globalFiles = /* write "global" (=not per tile) files */
(PID.TID 0000.0001)                   F
(PID.TID 0000.0001)     ;
(PID.TID 0000.0001)  useSingleCpuIO = /* only master MPI process does I/O */
(PID.TID 0000.0001)                   T
(PID.TID 0000.0001)     ;
(PID.TID 0000.0001)  useSingleCpuInput = /* only master process reads input */
(PID.TID 0000.0001)                   T
(PID.TID 0000.0001)     ;
(PID.TID 0000.0001) /* debLev[*]  : level of debug & auxiliary message printing */
(PID.TID 0000.0001) debLevZero =  0 ; /* level of disabled aux. msg printing */
(PID.TID 0000.0001)    debLevA =  1 ; /* level of minimum  aux. msg printing */
(PID.TID 0000.0001)    debLevB =  2 ; /* level of low aux. print (report read-file opening)*/
(PID.TID 0000.0001)    debLevC =  3 ; /* level of moderate debug prt (most pkgs debug msg) */
(PID.TID 0000.0001)    debLevD =  4 ; /* level of enhanced debug prt (add DEBUG_STATS prt) */
(PID.TID 0000.0001)    debLevE =  5 ; /* level of extensive debug printing */
(PID.TID 0000.0001) debugLevel =  /* select debug printing level */
(PID.TID 0000.0001)                       2
(PID.TID 0000.0001)     ;
(PID.TID 0000.0001) //
(PID.TID 0000.0001) // Elliptic solver(s) paramters ( PARM02 in namelist )
(PID.TID 0000.0001) //
(PID.TID 0000.0001) cg2dMaxIters =   /* Upper limit on 2d con. grad iterations  */
(PID.TID 0000.0001)                    1000
(PID.TID 0000.0001)     ;
(PID.TID 0000.0001) cg2dChkResFreq =   /* 2d con. grad convergence test frequency */
(PID.TID 0000.0001)                       1
(PID.TID 0000.0001)     ;
(PID.TID 0000.0001) cg2dUseMinResSol= /* use cg2d last-iter(=0) / min-resid.(=1) solution */
(PID.TID 0000.0001)                       0
(PID.TID 0000.0001)     ;
(PID.TID 0000.0001) cg2dTargetResidual =   /* 2d con. grad target residual  */
(PID.TID 0000.0001)                 1.000000000000000E-13
(PID.TID 0000.0001)     ;
(PID.TID 0000.0001) cg2dTargetResWunit =   /* CG2d target residual [W units] */
(PID.TID 0000.0001)                -1.000000000000000E+00
(PID.TID 0000.0001)     ;
(PID.TID 0000.0001) cg2dPreCondFreq =   /* Freq. for updating cg2d preconditioner */
(PID.TID 0000.0001)                       1
(PID.TID 0000.0001)     ;
(PID.TID 0000.0001) useSRCGSolver =  /* use single reduction CG solver(s) */
(PID.TID 0000.0001)                   F
(PID.TID 0000.0001)     ;
(PID.TID 0000.0001) printResidualFreq = /* Freq. for printing CG residual */
(PID.TID 0000.0001)                       0
(PID.TID 0000.0001)     ;
(PID.TID 0000.0001) //
(PID.TID 0000.0001) // Time stepping paramters ( PARM03 in namelist )
(PID.TID 0000.0001) //
(PID.TID 0000.0001) deltaTMom =   /* Momentum equation timestep ( s ) */
(PID.TID 0000.0001)                 1.500000000000000E+01
(PID.TID 0000.0001)     ;
(PID.TID 0000.0001) deltaTFreeSurf = /* FreeSurface equation timestep ( s ) */
(PID.TID 0000.0001)                 1.500000000000000E+01
(PID.TID 0000.0001)     ;
(PID.TID 0000.0001) dTtracerLev =  /* Tracer equation timestep ( s ) */
(PID.TID 0000.0001)   100 @  1.500000000000000E+01              /* K =  1:100 */
(PID.TID 0000.0001)     ;
(PID.TID 0000.0001) deltaTClock  =   /* Model clock timestep ( s ) */
(PID.TID 0000.0001)                 1.500000000000000E+01
(PID.TID 0000.0001)     ;
(PID.TID 0000.0001) cAdjFreq =   /* Convective adjustment interval ( s ) */
(PID.TID 0000.0001)                 0.000000000000000E+00
(PID.TID 0000.0001)     ;
(PID.TID 0000.0001) momForcingOutAB = /* =1: take Momentum Forcing out of Adams-Bash. stepping */
(PID.TID 0000.0001)                       0
(PID.TID 0000.0001)     ;
(PID.TID 0000.0001) tracForcingOutAB = /* =1: take T,S,pTr Forcing out of Adams-Bash. stepping */
(PID.TID 0000.0001)                       0
(PID.TID 0000.0001)     ;
(PID.TID 0000.0001) momDissip_In_AB = /* put Dissipation Tendency in Adams-Bash. stepping */
(PID.TID 0000.0001)                   T
(PID.TID 0000.0001)     ;
(PID.TID 0000.0001) doAB_onGtGs = /* apply AB on Tendencies (rather than on T,S)*/
(PID.TID 0000.0001)                   T
(PID.TID 0000.0001)     ;
(PID.TID 0000.0001) abEps =   /* Adams-Bashforth-2 stabilizing weight */
(PID.TID 0000.0001)                 1.000000000000000E-01
(PID.TID 0000.0001)     ;
(PID.TID 0000.0001) pickupStrictlyMatch= /* stop if pickup do not strictly match */
(PID.TID 0000.0001)                   T
(PID.TID 0000.0001)     ;
(PID.TID 0000.0001) nIter0   =   /* Run starting timestep number */
(PID.TID 0000.0001)                       0
(PID.TID 0000.0001)     ;
(PID.TID 0000.0001) nTimeSteps = /* Number of timesteps */
(PID.TID 0000.0001)                    7200
(PID.TID 0000.0001)     ;
(PID.TID 0000.0001) nEndIter =   /* Run ending timestep number */
(PID.TID 0000.0001)                    7200
(PID.TID 0000.0001)     ;
(PID.TID 0000.0001) baseTime =   /* Model base time ( s ) */
(PID.TID 0000.0001)                 0.000000000000000E+00
(PID.TID 0000.0001)     ;
(PID.TID 0000.0001) startTime =  /* Run start time ( s ) */
(PID.TID 0000.0001)                 0.000000000000000E+00
(PID.TID 0000.0001)     ;
(PID.TID 0000.0001) endTime  =   /* Integration ending time ( s ) */
(PID.TID 0000.0001)                 1.080000000000000E+05
(PID.TID 0000.0001)     ;
(PID.TID 0000.0001) pChkPtFreq = /* Permanent restart/pickup file interval ( s ) */
(PID.TID 0000.0001)                 2.160000000000000E+04
(PID.TID 0000.0001)     ;
(PID.TID 0000.0001) chkPtFreq  = /* Rolling restart/pickup file interval ( s ) */
(PID.TID 0000.0001)                 0.000000000000000E+00
(PID.TID 0000.0001)     ;
(PID.TID 0000.0001) pickup_write_mdsio =   /* Model IO flag. */
(PID.TID 0000.0001)                   T
(PID.TID 0000.0001)     ;
(PID.TID 0000.0001) pickup_read_mdsio =   /* Model IO flag. */
(PID.TID 0000.0001)                   T
(PID.TID 0000.0001)     ;
(PID.TID 0000.0001) pickup_write_immed =   /* Model IO flag. */
(PID.TID 0000.0001)                   F
(PID.TID 0000.0001)     ;
(PID.TID 0000.0001) writePickupAtEnd =   /* Model IO flag. */
(PID.TID 0000.0001)                   T
(PID.TID 0000.0001)     ;
(PID.TID 0000.0001) dumpFreq =   /* Model state write out interval ( s ). */
(PID.TID 0000.0001)                 7.200000000000000E+03
(PID.TID 0000.0001)     ;
(PID.TID 0000.0001) dumpInitAndLast= /* write out Initial & Last iter. model state */
(PID.TID 0000.0001)                   T
(PID.TID 0000.0001)     ;
(PID.TID 0000.0001) snapshot_mdsio =   /* Model IO flag. */
(PID.TID 0000.0001)                   T
(PID.TID 0000.0001)     ;
(PID.TID 0000.0001) monitorFreq =   /* Monitor output interval ( s ). */
(PID.TID 0000.0001)                 7.200000000000000E+03
(PID.TID 0000.0001)     ;
(PID.TID 0000.0001) monitorSelect = /* select group of variables to monitor */
(PID.TID 0000.0001)                       3
(PID.TID 0000.0001)     ;
(PID.TID 0000.0001) monitor_stdio =   /* Model IO flag. */
(PID.TID 0000.0001)                   T
(PID.TID 0000.0001)     ;
(PID.TID 0000.0001) externForcingPeriod =   /* forcing period (s) */
(PID.TID 0000.0001)                 0.000000000000000E+00
(PID.TID 0000.0001)     ;
(PID.TID 0000.0001) externForcingCycle =   /* period of the cyle (s). */
(PID.TID 0000.0001)                 0.000000000000000E+00
(PID.TID 0000.0001)     ;
(PID.TID 0000.0001) tauThetaClimRelax =   /* relaxation time scale (s) */
(PID.TID 0000.0001)                 0.000000000000000E+00
(PID.TID 0000.0001)     ;
(PID.TID 0000.0001) tauSaltClimRelax =   /* relaxation time scale (s) */
(PID.TID 0000.0001)                 0.000000000000000E+00
(PID.TID 0000.0001)     ;
(PID.TID 0000.0001) latBandClimRelax =   /* max. Lat. where relaxation */
(PID.TID 0000.0001)                 1.500000000000000E+04
(PID.TID 0000.0001)     ;
(PID.TID 0000.0001) //
(PID.TID 0000.0001) // Gridding paramters ( PARM04 in namelist )
(PID.TID 0000.0001) //
(PID.TID 0000.0001) usingCartesianGrid = /* Cartesian coordinates flag ( True/False ) */
(PID.TID 0000.0001)                   T
(PID.TID 0000.0001)     ;
(PID.TID 0000.0001) usingCylindricalGrid = /* Cylindrical coordinates flag ( True/False ) */
(PID.TID 0000.0001)                   F
(PID.TID 0000.0001)     ;
(PID.TID 0000.0001) usingSphericalPolarGrid = /* Spherical coordinates flag ( True/False ) */
(PID.TID 0000.0001)                   F
(PID.TID 0000.0001)     ;
(PID.TID 0000.0001) usingCurvilinearGrid = /* Curvilinear coordinates flag ( True/False ) */
(PID.TID 0000.0001)                   F
(PID.TID 0000.0001)     ;
(PID.TID 0000.0001) selectSigmaCoord = /* Hybrid-Sigma Vert. Coordinate option */
(PID.TID 0000.0001)                       0
(PID.TID 0000.0001)     ;
(PID.TID 0000.0001) Ro_SeaLevel = /* r(1) ( units of r ==  m ) */
(PID.TID 0000.0001)                 0.000000000000000E+00
(PID.TID 0000.0001)     ;
(PID.TID 0000.0001) rSigmaBnd = /* r/sigma transition ( units of r ==  m ) */
(PID.TID 0000.0001)                 1.234567000000000E+05
(PID.TID 0000.0001)     ;
(PID.TID 0000.0001) rkSign =   /* index orientation relative to vertical coordinate */
(PID.TID 0000.0001)                -1.000000000000000E+00
(PID.TID 0000.0001)     ;
(PID.TID 0000.0001) gravitySign = /* gravity orientation relative to vertical coordinate */
(PID.TID 0000.0001)                -1.000000000000000E+00
(PID.TID 0000.0001)     ;
(PID.TID 0000.0001) mass2rUnit = /* convert mass per unit area [kg/m2] to r-units [m] */
(PID.TID 0000.0001)                 1.000200040008002E-03
(PID.TID 0000.0001)     ;
(PID.TID 0000.0001) rUnit2mass = /* convert r-units [m] to mass per unit area [kg/m2] */
(PID.TID 0000.0001)                 9.998000000000000E+02
(PID.TID 0000.0001)     ;
(PID.TID 0000.0001) drC =   /* C spacing ( units of r ) */
(PID.TID 0000.0001)                 1.778230853257070E+00,      /* K =  1 */
(PID.TID 0000.0001)                 3.510074164864204E+00,      /* K =  2 */
(PID.TID 0000.0001)                 3.418509162930531E+00,      /* K =  3 */
(PID.TID 0000.0001)                 3.329332757130535E+00,      /* K =  4 */
(PID.TID 0000.0001)                 3.242482637723929E+00,      /* K =  5 */
(PID.TID 0000.0001)                 3.157898120403742E+00,      /* K =  6 */
(PID.TID 0000.0001)                 3.075520103894710E+00,      /* K =  7 */
(PID.TID 0000.0001)                 2.995291028657758E+00,      /* K =  8 */
(PID.TID 0000.0001)                 2.917154836671749E+00,      /* K =  9 */
(PID.TID 0000.0001)                 2.841056932264362E+00,      /* K = 10 */
(PID.TID 0000.0001)                 2.766944143964766E+00,      /* K = 11 */
(PID.TID 0000.0001)                 2.694764687351404E+00,      /* K = 12 */
(PID.TID 0000.0001)                 2.624468128868950E+00,      /* K = 13 */
(PID.TID 0000.0001)                 2.556005350589150E+00,      /* K = 14 */
(PID.TID 0000.0001)                 2.489328515890922E+00,      /* K = 15 */
(PID.TID 0000.0001)                 2.424391036035729E+00,      /* K = 16 */
(PID.TID 0000.0001)                 2.361147537614897E+00,      /* K = 17 */
(PID.TID 0000.0001)                 2.299553830846095E+00,      /* K = 18 */
(PID.TID 0000.0001)                 2.239566878696850E+00,      /* K = 19 */
(PID.TID 0000.0001)                 2.181144766813524E+00,      /* K = 20 */
(PID.TID 0000.0001)                 2.124246674234723E+00,      /* K = 21 */
(PID.TID 0000.0001)                 2.068832844868692E+00,      /* K = 22 */
(PID.TID 0000.0001)                 2.014864559714757E+00,      /* K = 23 */
(PID.TID 0000.0001)                 1.962304109809418E+00,      /* K = 24 */
(PID.TID 0000.0001)                 1.911114769878161E+00,      /* K = 25 */
(PID.TID 0000.0001)                 1.861260772674619E+00,      /* K = 26 */
(PID.TID 0000.0001)                 1.812707283989113E+00,      /* K = 27 */
(PID.TID 0000.0001)                 1.765420378309139E+00,      /* K = 28 */
(PID.TID 0000.0001)                 1.719367015114782E+00,      /* K = 29 */
(PID.TID 0000.0001)                 1.674515015792491E+00,      /* K = 30 */
(PID.TID 0000.0001)                 1.630833041151099E+00,      /* K = 31 */
(PID.TID 0000.0001)                 1.588290569524356E+00,      /* K = 32 */
(PID.TID 0000.0001)                 1.546857875444697E+00,      /* K = 33 */
(PID.TID 0000.0001)                 1.506506008873327E+00,      /* K = 34 */
(PID.TID 0000.0001)                 1.467206774972122E+00,      /* K = 35 */
(PID.TID 0000.0001)                 1.428932714403200E+00,      /* K = 36 */
(PID.TID 0000.0001)                 1.391657084142413E+00,      /* K = 37 */
(PID.TID 0000.0001)                 1.355353838793339E+00,      /* K = 38 */
(PID.TID 0000.0001)                 1.319997612388726E+00,      /* K = 39 */
(PID.TID 0000.0001)                 1.285563700666666E+00,      /* K = 40 */
(PID.TID 0000.0001)                 1.252028043809125E+00,      /* K = 41 */
(PID.TID 0000.0001)                 1.219367209630760E+00,      /* K = 42 */
(PID.TID 0000.0001)                 1.187558377206269E+00,      /* K = 43 */
(PID.TID 0000.0001)                 1.156579320924862E+00,      /* K = 44 */
(PID.TID 0000.0001)                 1.126408394960672E+00,      /* K = 45 */
(PID.TID 0000.0001)                 1.097024518148294E+00,      /* K = 46 */
(PID.TID 0000.0001)                 1.068407159252853E+00,      /* K = 47 */
(PID.TID 0000.0001)                 1.040536322624328E+00,      /* K = 48 */
(PID.TID 0000.0001)                 1.013392534226109E+00,      /* K = 49 */
(PID.TID 0000.0001)     3 @  1.000000000000000E+00,             /* K = 50: 52 */
(PID.TID 0000.0001)                 1.013392534226109E+00,      /* K = 53 */
(PID.TID 0000.0001)                 1.040536322624328E+00,      /* K = 54 */
(PID.TID 0000.0001)                 1.068407159252853E+00,      /* K = 55 */
(PID.TID 0000.0001)                 1.097024518148294E+00,      /* K = 56 */
(PID.TID 0000.0001)                 1.126408394960672E+00,      /* K = 57 */
(PID.TID 0000.0001)                 1.156579320924862E+00,      /* K = 58 */
(PID.TID 0000.0001)                 1.187558377206269E+00,      /* K = 59 */
(PID.TID 0000.0001)                 1.219367209630760E+00,      /* K = 60 */
(PID.TID 0000.0001)                 1.252028043809125E+00,      /* K = 61 */
(PID.TID 0000.0001)                 1.285563700666666E+00,      /* K = 62 */
(PID.TID 0000.0001)                 1.319997612388726E+00,      /* K = 63 */
(PID.TID 0000.0001)                 1.355353838793339E+00,      /* K = 64 */
(PID.TID 0000.0001)                 1.391657084142413E+00,      /* K = 65 */
(PID.TID 0000.0001)                 1.428932714403200E+00,      /* K = 66 */
(PID.TID 0000.0001)                 1.467206774972122E+00,      /* K = 67 */
(PID.TID 0000.0001)                 1.506506008873327E+00,      /* K = 68 */
(PID.TID 0000.0001)                 1.546857875444697E+00,      /* K = 69 */
(PID.TID 0000.0001)                 1.588290569524356E+00,      /* K = 70 */
(PID.TID 0000.0001)                 1.630833041151099E+00,      /* K = 71 */
(PID.TID 0000.0001)                 1.674515015792491E+00,      /* K = 72 */
(PID.TID 0000.0001)                 1.719367015114782E+00,      /* K = 73 */
(PID.TID 0000.0001)                 1.765420378309139E+00,      /* K = 74 */
(PID.TID 0000.0001)                 1.812707283989113E+00,      /* K = 75 */
(PID.TID 0000.0001)                 1.861260772674619E+00,      /* K = 76 */
(PID.TID 0000.0001)                 1.911114769878161E+00,      /* K = 77 */
(PID.TID 0000.0001)                 1.962304109809418E+00,      /* K = 78 */
(PID.TID 0000.0001)                 2.014864559714757E+00,      /* K = 79 */
(PID.TID 0000.0001)                 2.068832844868692E+00,      /* K = 80 */
(PID.TID 0000.0001)                 2.124246674234723E+00,      /* K = 81 */
(PID.TID 0000.0001)                 2.181144766813524E+00,      /* K = 82 */
(PID.TID 0000.0001)                 2.239566878696850E+00,      /* K = 83 */
(PID.TID 0000.0001)                 2.299553830846095E+00,      /* K = 84 */
(PID.TID 0000.0001)                 2.361147537614897E+00,      /* K = 85 */
(PID.TID 0000.0001)                 2.424391036035729E+00,      /* K = 86 */
(PID.TID 0000.0001)                 2.489328515890922E+00,      /* K = 87 */
(PID.TID 0000.0001)                 2.556005350589150E+00,      /* K = 88 */
(PID.TID 0000.0001)                 2.624468128868950E+00,      /* K = 89 */
(PID.TID 0000.0001)                 2.694764687351404E+00,      /* K = 90 */
(PID.TID 0000.0001)                 2.766944143964766E+00,      /* K = 91 */
(PID.TID 0000.0001)                 2.841056932264362E+00,      /* K = 92 */
(PID.TID 0000.0001)                 2.917154836671749E+00,      /* K = 93 */
(PID.TID 0000.0001)                 2.995291028657758E+00,      /* K = 94 */
(PID.TID 0000.0001)                 3.075520103894710E+00,      /* K = 95 */
(PID.TID 0000.0001)                 3.157898120403742E+00,      /* K = 96 */
(PID.TID 0000.0001)                 3.242482637723929E+00,      /* K = 97 */
(PID.TID 0000.0001)                 3.329332757130535E+00,      /* K = 98 */
(PID.TID 0000.0001)                 3.418509162930531E+00,      /* K = 99 */
(PID.TID 0000.0001)                 3.510074164864204E+00,      /* K =100 */
(PID.TID 0000.0001)                 1.778230853257070E+00       /* K =101 */
(PID.TID 0000.0001)     ;
(PID.TID 0000.0001) drF =   /* W spacing ( units of r ) */
(PID.TID 0000.0001)                 3.556461706514141E+00,      /* K =  1 */
(PID.TID 0000.0001)                 3.463686623214269E+00,      /* K =  2 */
(PID.TID 0000.0001)                 3.373331702646793E+00,      /* K =  3 */
(PID.TID 0000.0001)                 3.285333811614276E+00,      /* K =  4 */
(PID.TID 0000.0001)                 3.199631463833581E+00,      /* K =  5 */
(PID.TID 0000.0001)                 3.116164776973904E+00,      /* K =  6 */
(PID.TID 0000.0001)                 3.034875430815516E+00,      /* K =  7 */
(PID.TID 0000.0001)                 2.955706626500000E+00,      /* K =  8 */
(PID.TID 0000.0001)                 2.878603046843497E+00,      /* K =  9 */
(PID.TID 0000.0001)                 2.803510817685228E+00,      /* K = 10 */
(PID.TID 0000.0001)                 2.730377470244305E+00,      /* K = 11 */
(PID.TID 0000.0001)                 2.659151904458503E+00,      /* K = 12 */
(PID.TID 0000.0001)                 2.589784353279397E+00,      /* K = 13 */
(PID.TID 0000.0001)                 2.522226347898904E+00,      /* K = 14 */
(PID.TID 0000.0001)                 2.456430683882939E+00,      /* K = 15 */
(PID.TID 0000.0001)                 2.392351388188520E+00,      /* K = 16 */
(PID.TID 0000.0001)                 2.329943687041276E+00,      /* K = 17 */
(PID.TID 0000.0001)                 2.269163974650914E+00,      /* K = 18 */
(PID.TID 0000.0001)                 2.209969782742786E+00,      /* K = 19 */
(PID.TID 0000.0001)                 2.152319750884263E+00,      /* K = 20 */
(PID.TID 0000.0001)                 2.096173597585184E+00,      /* K = 21 */
(PID.TID 0000.0001)                 2.041492092152199E+00,      /* K = 22 */
(PID.TID 0000.0001)                 1.988237027277316E+00,      /* K = 23 */
(PID.TID 0000.0001)                 1.936371192341520E+00,      /* K = 24 */
(PID.TID 0000.0001)                 1.885858347414803E+00,      /* K = 25 */
(PID.TID 0000.0001)                 1.836663197934435E+00,      /* K = 26 */
(PID.TID 0000.0001)                 1.788751370043790E+00,      /* K = 27 */
(PID.TID 0000.0001)                 1.742089386574488E+00,      /* K = 28 */
(PID.TID 0000.0001)                 1.696644643655076E+00,      /* K = 29 */
(PID.TID 0000.0001)                 1.652385387929906E+00,      /* K = 30 */
(PID.TID 0000.0001)                 1.609280694372291E+00,      /* K = 31 */
(PID.TID 0000.0001)                 1.567300444676421E+00,      /* K = 32 */
(PID.TID 0000.0001)                 1.526415306212973E+00,      /* K = 33 */
(PID.TID 0000.0001)                 1.486596711533682E+00,      /* K = 34 */
(PID.TID 0000.0001)                 1.447816838410562E+00,      /* K = 35 */
(PID.TID 0000.0001)                 1.410048590395838E+00,      /* K = 36 */
(PID.TID 0000.0001)                 1.373265577888988E+00,      /* K = 37 */
(PID.TID 0000.0001)                 1.337442099697690E+00,      /* K = 38 */
(PID.TID 0000.0001)                 1.302553125079761E+00,      /* K = 39 */
(PID.TID 0000.0001)                 1.268574276253570E+00,      /* K = 40 */
(PID.TID 0000.0001)                 1.235481811364681E+00,      /* K = 41 */
(PID.TID 0000.0001)                 1.203252607896838E+00,      /* K = 42 */
(PID.TID 0000.0001)                 1.171864146515700E+00,      /* K = 43 */
(PID.TID 0000.0001)                 1.141294495334024E+00,      /* K = 44 */
(PID.TID 0000.0001)                 1.111522294587321E+00,      /* K = 45 */
(PID.TID 0000.0001)                 1.082526741709268E+00,      /* K = 46 */
(PID.TID 0000.0001)                 1.054287576796438E+00,      /* K = 47 */
(PID.TID 0000.0001)                 1.026785068452217E+00,      /* K = 48 */
(PID.TID 0000.0001)     4 @  1.000000000000000E+00,             /* K = 49: 52 */
(PID.TID 0000.0001)                 1.026785068452217E+00,      /* K = 53 */
(PID.TID 0000.0001)                 1.054287576796438E+00,      /* K = 54 */
(PID.TID 0000.0001)                 1.082526741709268E+00,      /* K = 55 */
(PID.TID 0000.0001)                 1.111522294587321E+00,      /* K = 56 */
(PID.TID 0000.0001)                 1.141294495334024E+00,      /* K = 57 */
(PID.TID 0000.0001)                 1.171864146515700E+00,      /* K = 58 */
(PID.TID 0000.0001)                 1.203252607896838E+00,      /* K = 59 */
(PID.TID 0000.0001)                 1.235481811364681E+00,      /* K = 60 */
(PID.TID 0000.0001)                 1.268574276253570E+00,      /* K = 61 */
(PID.TID 0000.0001)                 1.302553125079761E+00,      /* K = 62 */
(PID.TID 0000.0001)                 1.337442099697690E+00,      /* K = 63 */
(PID.TID 0000.0001)                 1.373265577888988E+00,      /* K = 64 */
(PID.TID 0000.0001)                 1.410048590395838E+00,      /* K = 65 */
(PID.TID 0000.0001)                 1.447816838410562E+00,      /* K = 66 */
(PID.TID 0000.0001)                 1.486596711533682E+00,      /* K = 67 */
(PID.TID 0000.0001)                 1.526415306212973E+00,      /* K = 68 */
(PID.TID 0000.0001)                 1.567300444676421E+00,      /* K = 69 */
(PID.TID 0000.0001)                 1.609280694372291E+00,      /* K = 70 */
(PID.TID 0000.0001)                 1.652385387929906E+00,      /* K = 71 */
(PID.TID 0000.0001)                 1.696644643655076E+00,      /* K = 72 */
(PID.TID 0000.0001)                 1.742089386574488E+00,      /* K = 73 */
(PID.TID 0000.0001)                 1.788751370043790E+00,      /* K = 74 */
(PID.TID 0000.0001)                 1.836663197934435E+00,      /* K = 75 */
(PID.TID 0000.0001)                 1.885858347414803E+00,      /* K = 76 */
(PID.TID 0000.0001)                 1.936371192341520E+00,      /* K = 77 */
(PID.TID 0000.0001)                 1.988237027277316E+00,      /* K = 78 */
(PID.TID 0000.0001)                 2.041492092152199E+00,      /* K = 79 */
(PID.TID 0000.0001)                 2.096173597585184E+00,      /* K = 80 */
(PID.TID 0000.0001)                 2.152319750884263E+00,      /* K = 81 */
(PID.TID 0000.0001)                 2.209969782742786E+00,      /* K = 82 */
(PID.TID 0000.0001)                 2.269163974650914E+00,      /* K = 83 */
(PID.TID 0000.0001)                 2.329943687041276E+00,      /* K = 84 */
(PID.TID 0000.0001)                 2.392351388188520E+00,      /* K = 85 */
(PID.TID 0000.0001)                 2.456430683882939E+00,      /* K = 86 */
(PID.TID 0000.0001)                 2.522226347898904E+00,      /* K = 87 */
(PID.TID 0000.0001)                 2.589784353279397E+00,      /* K = 88 */
(PID.TID 0000.0001)                 2.659151904458503E+00,      /* K = 89 */
(PID.TID 0000.0001)                 2.730377470244305E+00,      /* K = 90 */
(PID.TID 0000.0001)                 2.803510817685228E+00,      /* K = 91 */
(PID.TID 0000.0001)                 2.878603046843497E+00,      /* K = 92 */
(PID.TID 0000.0001)                 2.955706626500000E+00,      /* K = 93 */
(PID.TID 0000.0001)                 3.034875430815516E+00,      /* K = 94 */
(PID.TID 0000.0001)                 3.116164776973904E+00,      /* K = 95 */
(PID.TID 0000.0001)                 3.199631463833581E+00,      /* K = 96 */
(PID.TID 0000.0001)                 3.285333811614276E+00,      /* K = 97 */
(PID.TID 0000.0001)                 3.373331702646793E+00,      /* K = 98 */
(PID.TID 0000.0001)                 3.463686623214269E+00,      /* K = 99 */
(PID.TID 0000.0001)                 3.556461706514141E+00       /* K =100 */
(PID.TID 0000.0001)     ;
(PID.TID 0000.0001) delX = /* U spacing ( m - cartesian, degrees - spherical ) */
(PID.TID 0000.0001)                 1.263294638016668E+03,      /* I =  1 */
(PID.TID 0000.0001)                 1.237496063806571E+03,      /* I =  2 */
(PID.TID 0000.0001)                 1.212224339320398E+03,      /* I =  3 */
(PID.TID 0000.0001)      . . .
(PID.TID 0000.0001)                 4.790113490274632E+02,      /* I = 48 */
(PID.TID 0000.0001)                 4.692291418815790E+02,      /* I = 49 */
(PID.TID 0000.0001)                 4.596467036489769E+02,      /* I = 50 */
(PID.TID 0000.0001)                 4.502599547167311E+02,      /* I = 51 */
(PID.TID 0000.0001)                 4.410648987843862E+02,      /* I = 52 */
(PID.TID 0000.0001)                 4.320576211625778E+02,      /* I = 53 */
(PID.TID 0000.0001)      . . .
(PID.TID 0000.0001)                 2.000000000000000E+02,      /* I = 98 */
(PID.TID 0000.0001)                 2.000000000000000E+02,      /* I = 99 */
(PID.TID 0000.0001)                 2.000000000000000E+02,      /* I =100 */
(PID.TID 0000.0001)                 2.000000000000000E+02,      /* I =101 */
(PID.TID 0000.0001)                 2.000000000000000E+02,      /* I =102 */
(PID.TID 0000.0001)                 2.000000000000000E+02,      /* I =103 */
(PID.TID 0000.0001)      . . .
(PID.TID 0000.0001)                 3.612641354876311E+02,      /* I =148 */
(PID.TID 0000.0001)                 3.687955530665730E+02,      /* I =149 */
(PID.TID 0000.0001)                 3.764839811128614E+02,      /* I =150 */
(PID.TID 0000.0001)                 3.843326928863569E+02,      /* I =151 */
(PID.TID 0000.0001)                 3.923450298858749E+02,      /* I =152 */
(PID.TID 0000.0001)                 4.005244032717896E+02,      /* I =153 */
(PID.TID 0000.0001)      . . .
(PID.TID 0000.0001)                 1.013599012055986E+03,      /* I =198 */
(PID.TID 0000.0001)                 1.034729915092050E+03,      /* I =199 */
(PID.TID 0000.0001)                 1.056301342495056E+03       /* I =200 */
(PID.TID 0000.0001)     ;
(PID.TID 0000.0001) delY = /* V spacing ( m - cartesian, degrees - spherical ) */
(PID.TID 0000.0001)                 5.000000000000000E+03       /* J =  1 */
(PID.TID 0000.0001)     ;
(PID.TID 0000.0001) xgOrigin = /* X-axis origin of West  edge (cartesian: m, lat-lon: deg) */
(PID.TID 0000.0001)                 0.000000000000000E+00
(PID.TID 0000.0001)     ;
(PID.TID 0000.0001) ygOrigin = /* Y-axis origin of South edge (cartesian: m, lat-lon: deg) */
(PID.TID 0000.0001)                 0.000000000000000E+00
(PID.TID 0000.0001)     ;
(PID.TID 0000.0001) rSphere =  /* Radius ( ignored - cartesian, m - spherical ) */
(PID.TID 0000.0001)                 6.370000000000000E+06
(PID.TID 0000.0001)     ;
(PID.TID 0000.0001) deepAtmosphere = /* Deep/Shallow Atmosphere flag (True/False) */
(PID.TID 0000.0001)                   F
(PID.TID 0000.0001)     ;
(PID.TID 0000.0001) xC =  /* xC(:,1,:,1) : P-point X coord ( deg. or m if cartesian) */
(PID.TID 0000.0001)                 6.316473190083342E+02,      /* I =  1 */
(PID.TID 0000.0001)                 1.882042669919954E+03,      /* I =  2 */
(PID.TID 0000.0001)                 3.106902871483439E+03,      /* I =  3 */
(PID.TID 0000.0001)      . . .
(PID.TID 0000.0001)                 3.864398747251778E+04,      /* I = 48 */
(PID.TID 0000.0001)                 3.911810771797229E+04,      /* I = 49 */
(PID.TID 0000.0001)                 3.958254564073758E+04,      /* I = 50 */
(PID.TID 0000.0001)                 4.003749896992043E+04,      /* I = 51 */
(PID.TID 0000.0001)                 4.048316139667099E+04,      /* I = 52 */
(PID.TID 0000.0001)                 4.091972265664447E+04,      /* I = 53 */
(PID.TID 0000.0001)      . . .
(PID.TID 0000.0001)                 5.369999999999999E+04,      /* I = 98 */
(PID.TID 0000.0001)                 5.389999999999999E+04,      /* I = 99 */
(PID.TID 0000.0001)                 5.409999999999999E+04,      /* I =100 */
(PID.TID 0000.0001)                 5.429999999999999E+04,      /* I =101 */
(PID.TID 0000.0001)                 5.449999999999999E+04,      /* I =102 */
(PID.TID 0000.0001)                 5.469999999999999E+04,      /* I =103 */
(PID.TID 0000.0001)      . . .
(PID.TID 0000.0001)                 6.578505387737689E+04,      /* I =148 */
(PID.TID 0000.0001)                 6.615008372165399E+04,      /* I =149 */
(PID.TID 0000.0001)                 6.652272348874371E+04,      /* I =150 */
(PID.TID 0000.0001)                 6.690313182574332E+04,      /* I =151 */
(PID.TID 0000.0001)                 6.729147068712943E+04,      /* I =152 */
(PID.TID 0000.0001)                 6.768790540370827E+04,      /* I =153 */
(PID.TID 0000.0001)      . . .
(PID.TID 0000.0001)                 9.740216923638493E+04,      /* I =198 */
(PID.TID 0000.0001)                 9.842633369995895E+04,      /* I =199 */
(PID.TID 0000.0001)                 9.947184932875249E+04       /* I =200 */
(PID.TID 0000.0001)     ;
(PID.TID 0000.0001) yC =  /* yC(1,:,1,:) : P-point Y coord ( deg. or m if cartesian) */
(PID.TID 0000.0001)                 2.500000000000000E+03       /* J =  1 */
(PID.TID 0000.0001)     ;
(PID.TID 0000.0001) rcoord = /* P-point R coordinate (  units of r ) */
(PID.TID 0000.0001)                -1.778230853257070E+00,      /* K =  1 */
(PID.TID 0000.0001)                -5.288305018121275E+00,      /* K =  2 */
(PID.TID 0000.0001)                -8.706814181051806E+00,      /* K =  3 */
(PID.TID 0000.0001)                -1.203614693818234E+01,      /* K =  4 */
(PID.TID 0000.0001)                -1.527862957590627E+01,      /* K =  5 */
(PID.TID 0000.0001)                -1.843652769631001E+01,      /* K =  6 */
(PID.TID 0000.0001)                -2.151204780020472E+01,      /* K =  7 */
(PID.TID 0000.0001)                -2.450733882886248E+01,      /* K =  8 */
(PID.TID 0000.0001)                -2.742449366553423E+01,      /* K =  9 */
(PID.TID 0000.0001)                -3.026555059779859E+01,      /* K = 10 */
(PID.TID 0000.0001)                -3.303249474176336E+01,      /* K = 11 */
(PID.TID 0000.0001)                -3.572725942911476E+01,      /* K = 12 */
(PID.TID 0000.0001)                -3.835172755798371E+01,      /* K = 13 */
(PID.TID 0000.0001)                -4.090773290857286E+01,      /* K = 14 */
(PID.TID 0000.0001)                -4.339706142446379E+01,      /* K = 15 */
(PID.TID 0000.0001)                -4.582145246049951E+01,      /* K = 16 */
(PID.TID 0000.0001)                -4.818259999811441E+01,      /* K = 17 */
(PID.TID 0000.0001)                -5.048215382896051E+01,      /* K = 18 */
(PID.TID 0000.0001)                -5.272172070765735E+01,      /* K = 19 */
(PID.TID 0000.0001)                -5.490286547447088E+01,      /* K = 20 */
(PID.TID 0000.0001)                -5.702711214870560E+01,      /* K = 21 */
(PID.TID 0000.0001)                -5.909594499357430E+01,      /* K = 22 */
(PID.TID 0000.0001)                -6.111080955328906E+01,      /* K = 23 */
(PID.TID 0000.0001)                -6.307311366309848E+01,      /* K = 24 */
(PID.TID 0000.0001)                -6.498422843297664E+01,      /* K = 25 */
(PID.TID 0000.0001)                -6.684548920565126E+01,      /* K = 26 */
(PID.TID 0000.0001)                -6.865819648964037E+01,      /* K = 27 */
(PID.TID 0000.0001)                -7.042361686794952E+01,      /* K = 28 */
(PID.TID 0000.0001)                -7.214298388306430E+01,      /* K = 29 */
(PID.TID 0000.0001)                -7.381749889885680E+01,      /* K = 30 */
(PID.TID 0000.0001)                -7.544833194000789E+01,      /* K = 31 */
(PID.TID 0000.0001)                -7.703662250953225E+01,      /* K = 32 */
(PID.TID 0000.0001)                -7.858348038497695E+01,      /* K = 33 */
(PID.TID 0000.0001)                -8.008998639385028E+01,      /* K = 34 */
(PID.TID 0000.0001)                -8.155719316882241E+01,      /* K = 35 */
(PID.TID 0000.0001)                -8.298612588322561E+01,      /* K = 36 */
(PID.TID 0000.0001)                -8.437778296736802E+01,      /* K = 37 */
(PID.TID 0000.0001)                -8.573313680616135E+01,      /* K = 38 */
(PID.TID 0000.0001)                -8.705313441855009E+01,      /* K = 39 */
(PID.TID 0000.0001)                -8.833869811921676E+01,      /* K = 40 */
(PID.TID 0000.0001)                -8.959072616302588E+01,      /* K = 41 */
(PID.TID 0000.0001)                -9.081009337265664E+01,      /* K = 42 */
(PID.TID 0000.0001)                -9.199765174986291E+01,      /* K = 43 */
(PID.TID 0000.0001)                -9.315423107078777E+01,      /* K = 44 */
(PID.TID 0000.0001)                -9.428063946574845E+01,      /* K = 45 */
(PID.TID 0000.0001)                -9.537766398389674E+01,      /* K = 46 */
(PID.TID 0000.0001)                -9.644607114314960E+01,      /* K = 47 */
(PID.TID 0000.0001)                -9.748660746577393E+01,      /* K = 48 */
(PID.TID 0000.0001)                -9.850000000000004E+01,      /* K = 49 */
(PID.TID 0000.0001)                -9.950000000000004E+01,      /* K = 50 */
(PID.TID 0000.0001)                -1.005000000000000E+02,      /* K = 51 */
(PID.TID 0000.0001)                -1.015000000000000E+02,      /* K = 52 */
(PID.TID 0000.0001)                -1.025133925342262E+02,      /* K = 53 */
(PID.TID 0000.0001)                -1.035539288568505E+02,      /* K = 54 */
(PID.TID 0000.0001)                -1.046223360161033E+02,      /* K = 55 */
(PID.TID 0000.0001)                -1.057193605342516E+02,      /* K = 56 */
(PID.TID 0000.0001)                -1.068457689292123E+02,      /* K = 57 */
(PID.TID 0000.0001)                -1.080023482501372E+02,      /* K = 58 */
(PID.TID 0000.0001)                -1.091899066273434E+02,      /* K = 59 */
(PID.TID 0000.0001)                -1.104092738369742E+02,      /* K = 60 */
(PID.TID 0000.0001)                -1.116613018807833E+02,      /* K = 61 */
(PID.TID 0000.0001)                -1.129468655814500E+02,      /* K = 62 */
(PID.TID 0000.0001)                -1.142668631938387E+02,      /* K = 63 */
(PID.TID 0000.0001)                -1.156222170326321E+02,      /* K = 64 */
(PID.TID 0000.0001)                -1.170138741167745E+02,      /* K = 65 */
(PID.TID 0000.0001)                -1.184428068311777E+02,      /* K = 66 */
(PID.TID 0000.0001)                -1.199100136061498E+02,      /* K = 67 */
(PID.TID 0000.0001)                -1.214165196150231E+02,      /* K = 68 */
(PID.TID 0000.0001)                -1.229633774904678E+02,      /* K = 69 */
(PID.TID 0000.0001)                -1.245516680599922E+02,      /* K = 70 */
(PID.TID 0000.0001)                -1.261825011011433E+02,      /* K = 71 */
(PID.TID 0000.0001)                -1.278570161169358E+02,      /* K = 72 */
(PID.TID 0000.0001)                -1.295763831320506E+02,      /* K = 73 */
(PID.TID 0000.0001)                -1.313418035103597E+02,      /* K = 74 */
(PID.TID 0000.0001)                -1.331545107943488E+02,      /* K = 75 */
(PID.TID 0000.0001)                -1.350157715670234E+02,      /* K = 76 */
(PID.TID 0000.0001)                -1.369268863369016E+02,      /* K = 77 */
(PID.TID 0000.0001)                -1.388891904467110E+02,      /* K = 78 */
(PID.TID 0000.0001)                -1.409040550064258E+02,      /* K = 79 */
(PID.TID 0000.0001)                -1.429728878512945E+02,      /* K = 80 */
(PID.TID 0000.0001)                -1.450971345255292E+02,      /* K = 81 */
(PID.TID 0000.0001)                -1.472782792923427E+02,      /* K = 82 */
(PID.TID 0000.0001)                -1.495178461710396E+02,      /* K = 83 */
(PID.TID 0000.0001)                -1.518174000018857E+02,      /* K = 84 */
(PID.TID 0000.0001)                -1.541785475395006E+02,      /* K = 85 */
(PID.TID 0000.0001)                -1.566029385755363E+02,      /* K = 86 */
(PID.TID 0000.0001)                -1.590922670914272E+02,      /* K = 87 */
(PID.TID 0000.0001)                -1.616482724420163E+02,      /* K = 88 */
(PID.TID 0000.0001)                -1.642727405708853E+02,      /* K = 89 */
(PID.TID 0000.0001)                -1.669675052582367E+02,      /* K = 90 */
(PID.TID 0000.0001)                -1.697344494022015E+02,      /* K = 91 */
(PID.TID 0000.0001)                -1.725755063344658E+02,      /* K = 92 */
(PID.TID 0000.0001)                -1.754926611711376E+02,      /* K = 93 */
(PID.TID 0000.0001)                -1.784879521997954E+02,      /* K = 94 */
(PID.TID 0000.0001)                -1.815634723036901E+02,      /* K = 95 */
(PID.TID 0000.0001)                -1.847213704240938E+02,      /* K = 96 */
(PID.TID 0000.0001)                -1.879638530618177E+02,      /* K = 97 */
(PID.TID 0000.0001)                -1.912931858189483E+02,      /* K = 98 */
(PID.TID 0000.0001)                -1.947116949818788E+02,      /* K = 99 */
(PID.TID 0000.0001)                -1.982217691467430E+02       /* K =100 */
(PID.TID 0000.0001)     ;
(PID.TID 0000.0001) rF =   /* W-Interf. R coordinate (  units of r ) */
(PID.TID 0000.0001)                 0.000000000000000E+00,      /* K =  1 */
(PID.TID 0000.0001)                -3.556461706514141E+00,      /* K =  2 */
(PID.TID 0000.0001)                -7.020148329728409E+00,      /* K =  3 */
(PID.TID 0000.0001)                -1.039348003237520E+01,      /* K =  4 */
(PID.TID 0000.0001)                -1.367881384398948E+01,      /* K =  5 */
(PID.TID 0000.0001)                -1.687844530782306E+01,      /* K =  6 */
(PID.TID 0000.0001)                -1.999461008479696E+01,      /* K =  7 */
(PID.TID 0000.0001)                -2.302948551561248E+01,      /* K =  8 */
(PID.TID 0000.0001)                -2.598519214211248E+01,      /* K =  9 */
(PID.TID 0000.0001)                -2.886379518895598E+01,      /* K = 10 */
(PID.TID 0000.0001)                -3.166730600664120E+01,      /* K = 11 */
(PID.TID 0000.0001)                -3.439768347688551E+01,      /* K = 12 */
(PID.TID 0000.0001)                -3.705683538134402E+01,      /* K = 13 */
(PID.TID 0000.0001)                -3.964661973462341E+01,      /* K = 14 */
(PID.TID 0000.0001)                -4.216884608252232E+01,      /* K = 15 */
(PID.TID 0000.0001)                -4.462527676640526E+01,      /* K = 16 */
(PID.TID 0000.0001)                -4.701762815459379E+01,      /* K = 17 */
(PID.TID 0000.0001)                -4.934757184163506E+01,      /* K = 18 */
(PID.TID 0000.0001)                -5.161673581628597E+01,      /* K = 19 */
(PID.TID 0000.0001)                -5.382670559902876E+01,      /* K = 20 */
(PID.TID 0000.0001)                -5.597902534991302E+01,      /* K = 21 */
(PID.TID 0000.0001)                -5.807519894749821E+01,      /* K = 22 */
(PID.TID 0000.0001)                -6.011669103965041E+01,      /* K = 23 */
(PID.TID 0000.0001)                -6.210492806692772E+01,      /* K = 24 */
(PID.TID 0000.0001)                -6.404129925926924E+01,      /* K = 25 */
(PID.TID 0000.0001)                -6.592715760668403E+01,      /* K = 26 */
(PID.TID 0000.0001)                -6.776382080461848E+01,      /* K = 27 */
(PID.TID 0000.0001)                -6.955257217466226E+01,      /* K = 28 */
(PID.TID 0000.0001)                -7.129466156123675E+01,      /* K = 29 */
(PID.TID 0000.0001)                -7.299130620489183E+01,      /* K = 30 */
(PID.TID 0000.0001)                -7.464369159282174E+01,      /* K = 31 */
(PID.TID 0000.0001)                -7.625297228719403E+01,      /* K = 32 */
(PID.TID 0000.0001)                -7.782027273187045E+01,      /* K = 33 */
(PID.TID 0000.0001)                -7.934668803808341E+01,      /* K = 34 */
(PID.TID 0000.0001)                -8.083328474961709E+01,      /* K = 35 */
(PID.TID 0000.0001)                -8.228110158802765E+01,      /* K = 36 */
(PID.TID 0000.0001)                -8.369115017842348E+01,      /* K = 37 */
(PID.TID 0000.0001)                -8.506441575631247E+01,      /* K = 38 */
(PID.TID 0000.0001)                -8.640185785601017E+01,      /* K = 39 */
(PID.TID 0000.0001)                -8.770441098108992E+01,      /* K = 40 */
(PID.TID 0000.0001)                -8.897298525734350E+01,      /* K = 41 */
(PID.TID 0000.0001)                -9.020846706870817E+01,      /* K = 42 */
(PID.TID 0000.0001)                -9.141171967660502E+01,      /* K = 43 */
(PID.TID 0000.0001)                -9.258358382312072E+01,      /* K = 44 */
(PID.TID 0000.0001)                -9.372487831845474E+01,      /* K = 45 */
(PID.TID 0000.0001)                -9.483640061304206E+01,      /* K = 46 */
(PID.TID 0000.0001)                -9.591892735475133E+01,      /* K = 47 */
(PID.TID 0000.0001)                -9.697321493154777E+01,      /* K = 48 */
(PID.TID 0000.0001)                -9.799999999999999E+01,      /* K = 49 */
(PID.TID 0000.0001)                -9.899999999999999E+01,      /* K = 50 */
(PID.TID 0000.0001)                -9.999999999999999E+01,      /* K = 51 */
(PID.TID 0000.0001)                -1.010000000000000E+02,      /* K = 52 */
(PID.TID 0000.0001)                -1.020000000000000E+02,      /* K = 53 */
(PID.TID 0000.0001)                -1.030267850684522E+02,      /* K = 54 */
(PID.TID 0000.0001)                -1.040810726452486E+02,      /* K = 55 */
(PID.TID 0000.0001)                -1.051635993869579E+02,      /* K = 56 */
(PID.TID 0000.0001)                -1.062751216815452E+02,      /* K = 57 */
(PID.TID 0000.0001)                -1.074164161768793E+02,      /* K = 58 */
(PID.TID 0000.0001)                -1.085882803233950E+02,      /* K = 59 */
(PID.TID 0000.0001)                -1.097915329312918E+02,      /* K = 60 */
(PID.TID 0000.0001)                -1.110270147426565E+02,      /* K = 61 */
(PID.TID 0000.0001)                -1.122955890189101E+02,      /* K = 62 */
(PID.TID 0000.0001)                -1.135981421439898E+02,      /* K = 63 */
(PID.TID 0000.0001)                -1.149355842436875E+02,      /* K = 64 */
(PID.TID 0000.0001)                -1.163088498215765E+02,      /* K = 65 */
(PID.TID 0000.0001)                -1.177188984119723E+02,      /* K = 66 */
(PID.TID 0000.0001)                -1.191667152503829E+02,      /* K = 67 */
(PID.TID 0000.0001)                -1.206533119619166E+02,      /* K = 68 */
(PID.TID 0000.0001)                -1.221797272681295E+02,      /* K = 69 */
(PID.TID 0000.0001)                -1.237470277128059E+02,      /* K = 70 */
(PID.TID 0000.0001)                -1.253563084071782E+02,      /* K = 71 */
(PID.TID 0000.0001)                -1.270086937951081E+02,      /* K = 72 */
(PID.TID 0000.0001)                -1.287053384387632E+02,      /* K = 73 */
(PID.TID 0000.0001)                -1.304474278253377E+02,      /* K = 74 */
(PID.TID 0000.0001)                -1.322361791953815E+02,      /* K = 75 */
(PID.TID 0000.0001)                -1.340728423933159E+02,      /* K = 76 */
(PID.TID 0000.0001)                -1.359587007407307E+02,      /* K = 77 */
(PID.TID 0000.0001)                -1.378950719330722E+02,      /* K = 78 */
(PID.TID 0000.0001)                -1.398833089603496E+02,      /* K = 79 */
(PID.TID 0000.0001)                -1.419248010525017E+02,      /* K = 80 */
(PID.TID 0000.0001)                -1.440209746500869E+02,      /* K = 81 */
(PID.TID 0000.0001)                -1.461732944009712E+02,      /* K = 82 */
(PID.TID 0000.0001)                -1.483832641837140E+02,      /* K = 83 */
(PID.TID 0000.0001)                -1.506524281583649E+02,      /* K = 84 */
(PID.TID 0000.0001)                -1.529823718454062E+02,      /* K = 85 */
(PID.TID 0000.0001)                -1.553747232335947E+02,      /* K = 86 */
(PID.TID 0000.0001)                -1.578311539174776E+02,      /* K = 87 */
(PID.TID 0000.0001)                -1.603533802653765E+02,      /* K = 88 */
(PID.TID 0000.0001)                -1.629431646186559E+02,      /* K = 89 */
(PID.TID 0000.0001)                -1.656023165231144E+02,      /* K = 90 */
(PID.TID 0000.0001)                -1.683326939933587E+02,      /* K = 91 */
(PID.TID 0000.0001)                -1.711362048110439E+02,      /* K = 92 */
(PID.TID 0000.0001)                -1.740148078578874E+02,      /* K = 93 */
(PID.TID 0000.0001)                -1.769705144843874E+02,      /* K = 94 */
(PID.TID 0000.0001)                -1.800053899152029E+02,      /* K = 95 */
(PID.TID 0000.0001)                -1.831215546921768E+02,      /* K = 96 */
(PID.TID 0000.0001)                -1.863211861560104E+02,      /* K = 97 */
(PID.TID 0000.0001)                -1.896065199676247E+02,      /* K = 98 */
(PID.TID 0000.0001)                -1.929798516702715E+02,      /* K = 99 */
(PID.TID 0000.0001)                -1.964435382934857E+02,      /* K =100 */
(PID.TID 0000.0001)                -1.999999999999999E+02       /* K =101 */
(PID.TID 0000.0001)     ;
(PID.TID 0000.0001) deepFacC = /* deep-model grid factor @ cell-Center (-) */
(PID.TID 0000.0001)   100 @  1.000000000000000E+00              /* K =  1:100 */
(PID.TID 0000.0001)     ;
(PID.TID 0000.0001) deepFacF = /* deep-model grid factor @ W-Interface (-) */
(PID.TID 0000.0001)   101 @  1.000000000000000E+00              /* K =  1:101 */
(PID.TID 0000.0001)     ;
(PID.TID 0000.0001) rVel2wUnit = /* convert units: rVel -> wSpeed (=1 if z-coord)*/
(PID.TID 0000.0001)   101 @  1.000000000000000E+00              /* K =  1:101 */
(PID.TID 0000.0001)     ;
(PID.TID 0000.0001) wUnit2rVel = /* convert units: wSpeed -> rVel (=1 if z-coord)*/
(PID.TID 0000.0001)   101 @  1.000000000000000E+00              /* K =  1:101 */
(PID.TID 0000.0001)     ;
(PID.TID 0000.0001) dBdrRef = /* Vertical grad. of reference buoyancy [(m/s/r)^2] */
(PID.TID 0000.0001)    46 @  0.000000000000000E+00,             /* K =  1: 46 */
(PID.TID 0000.0001)                 1.228818448192056E-06,      /* K = 47 */
(PID.TID 0000.0001)                 4.178283981750208E-05,      /* K = 48 */
(PID.TID 0000.0001)                 5.226533076855416E-04,      /* K = 49 */
(PID.TID 0000.0001)                 2.373739881891255E-03,      /* K = 50 */
(PID.TID 0000.0001)                 3.913635434383322E-03,      /* K = 51 */
(PID.TID 0000.0001)                 2.373739881891255E-03,      /* K = 52 */
(PID.TID 0000.0001)                 5.226533076855416E-04,      /* K = 53 */
(PID.TID 0000.0001)                 4.178283981750208E-05,      /* K = 54 */
(PID.TID 0000.0001)                 1.228818448192056E-06,      /* K = 55 */
(PID.TID 0000.0001)    45 @  0.000000000000000E+00              /* K = 56:100 */
(PID.TID 0000.0001)     ;
(PID.TID 0000.0001) rotateGrid = /* use rotated grid ( True/False ) */
(PID.TID 0000.0001)                   F
(PID.TID 0000.0001)     ;
(PID.TID 0000.0001) phiEuler = /* Euler angle, rotation about original z-coordinate [rad] */
(PID.TID 0000.0001)                 0.000000000000000E+00
(PID.TID 0000.0001)     ;
(PID.TID 0000.0001) thetaEuler = /* Euler angle, rotation about new x-coordinate [rad] */
(PID.TID 0000.0001)                 0.000000000000000E+00
(PID.TID 0000.0001)     ;
(PID.TID 0000.0001) psiEuler = /* Euler angle, rotation about new z-coordinate [rad] */
(PID.TID 0000.0001)                 0.000000000000000E+00
(PID.TID 0000.0001)     ;
(PID.TID 0000.0001) dxF =  /* dxF(:,1,:,1) ( units: m ) */
(PID.TID 0000.0001)                 1.263294638016668E+03,      /* I =  1 */
(PID.TID 0000.0001)                 1.237496063806571E+03,      /* I =  2 */
(PID.TID 0000.0001)                 1.212224339320398E+03,      /* I =  3 */
(PID.TID 0000.0001)      . . .
(PID.TID 0000.0001)                 4.790113490274632E+02,      /* I = 48 */
(PID.TID 0000.0001)                 4.692291418815790E+02,      /* I = 49 */
(PID.TID 0000.0001)                 4.596467036489769E+02,      /* I = 50 */
(PID.TID 0000.0001)                 4.502599547167311E+02,      /* I = 51 */
(PID.TID 0000.0001)                 4.410648987843862E+02,      /* I = 52 */
(PID.TID 0000.0001)                 4.320576211625778E+02,      /* I = 53 */
(PID.TID 0000.0001)      . . .
(PID.TID 0000.0001)                 2.000000000000000E+02,      /* I = 98 */
(PID.TID 0000.0001)                 2.000000000000000E+02,      /* I = 99 */
(PID.TID 0000.0001)                 2.000000000000000E+02,      /* I =100 */
(PID.TID 0000.0001)                 2.000000000000000E+02,      /* I =101 */
(PID.TID 0000.0001)                 2.000000000000000E+02,      /* I =102 */
(PID.TID 0000.0001)                 2.000000000000000E+02,      /* I =103 */
(PID.TID 0000.0001)      . . .
(PID.TID 0000.0001)                 3.612641354876311E+02,      /* I =148 */
(PID.TID 0000.0001)                 3.687955530665730E+02,      /* I =149 */
(PID.TID 0000.0001)                 3.764839811128614E+02,      /* I =150 */
(PID.TID 0000.0001)                 3.843326928863569E+02,      /* I =151 */
(PID.TID 0000.0001)                 3.923450298858749E+02,      /* I =152 */
(PID.TID 0000.0001)                 4.005244032717896E+02,      /* I =153 */
(PID.TID 0000.0001)      . . .
(PID.TID 0000.0001)                 1.013599012055986E+03,      /* I =198 */
(PID.TID 0000.0001)                 1.034729915092050E+03,      /* I =199 */
(PID.TID 0000.0001)                 1.056301342495056E+03       /* I =200 */
(PID.TID 0000.0001)     ;
(PID.TID 0000.0001) dxF =  /* dxF(1,:,1,:) ( units: m ) */
(PID.TID 0000.0001)                 1.263294638016668E+03       /* J =  1 */
(PID.TID 0000.0001)     ;
(PID.TID 0000.0001) dyF =  /* dyF(:,1,:,1) ( units: m ) */
(PID.TID 0000.0001)   200 @  5.000000000000000E+03              /* I =  1:200 */
(PID.TID 0000.0001)     ;
(PID.TID 0000.0001) dyF =  /* dyF(1,:,1,:) ( units: m ) */
(PID.TID 0000.0001)                 5.000000000000000E+03       /* J =  1 */
(PID.TID 0000.0001)     ;
(PID.TID 0000.0001) dxG =  /* dxG(:,1,:,1) ( units: m ) */
(PID.TID 0000.0001)                 1.263294638016668E+03,      /* I =  1 */
(PID.TID 0000.0001)                 1.237496063806571E+03,      /* I =  2 */
(PID.TID 0000.0001)                 1.212224339320398E+03,      /* I =  3 */
(PID.TID 0000.0001)      . . .
(PID.TID 0000.0001)                 4.790113490274632E+02,      /* I = 48 */
(PID.TID 0000.0001)                 4.692291418815790E+02,      /* I = 49 */
(PID.TID 0000.0001)                 4.596467036489769E+02,      /* I = 50 */
(PID.TID 0000.0001)                 4.502599547167311E+02,      /* I = 51 */
(PID.TID 0000.0001)                 4.410648987843862E+02,      /* I = 52 */
(PID.TID 0000.0001)                 4.320576211625778E+02,      /* I = 53 */
(PID.TID 0000.0001)      . . .
(PID.TID 0000.0001)                 2.000000000000000E+02,      /* I = 98 */
(PID.TID 0000.0001)                 2.000000000000000E+02,      /* I = 99 */
(PID.TID 0000.0001)                 2.000000000000000E+02,      /* I =100 */
(PID.TID 0000.0001)                 2.000000000000000E+02,      /* I =101 */
(PID.TID 0000.0001)                 2.000000000000000E+02,      /* I =102 */
(PID.TID 0000.0001)                 2.000000000000000E+02,      /* I =103 */
(PID.TID 0000.0001)      . . .
(PID.TID 0000.0001)                 3.612641354876311E+02,      /* I =148 */
(PID.TID 0000.0001)                 3.687955530665730E+02,      /* I =149 */
(PID.TID 0000.0001)                 3.764839811128614E+02,      /* I =150 */
(PID.TID 0000.0001)                 3.843326928863569E+02,      /* I =151 */
(PID.TID 0000.0001)                 3.923450298858749E+02,      /* I =152 */
(PID.TID 0000.0001)                 4.005244032717896E+02,      /* I =153 */
(PID.TID 0000.0001)      . . .
(PID.TID 0000.0001)                 1.013599012055986E+03,      /* I =198 */
(PID.TID 0000.0001)                 1.034729915092050E+03,      /* I =199 */
(PID.TID 0000.0001)                 1.056301342495056E+03       /* I =200 */
(PID.TID 0000.0001)     ;
(PID.TID 0000.0001) dxG =  /* dxG(1,:,1,:) ( units: m ) */
(PID.TID 0000.0001)                 1.263294638016668E+03       /* J =  1 */
(PID.TID 0000.0001)     ;
(PID.TID 0000.0001) dyG =  /* dyG(:,1,:,1) ( units: m ) */
(PID.TID 0000.0001)   200 @  5.000000000000000E+03              /* I =  1:200 */
(PID.TID 0000.0001)     ;
(PID.TID 0000.0001) dyG =  /* dyG(1,:,1,:) ( units: m ) */
(PID.TID 0000.0001)                 5.000000000000000E+03       /* J =  1 */
(PID.TID 0000.0001)     ;
(PID.TID 0000.0001) dxC =  /* dxC(:,1,:,1) ( units: m ) */
(PID.TID 0000.0001)                 1.159797990255862E+03,      /* I =  1 */
(PID.TID 0000.0001)                 1.250395350911620E+03,      /* I =  2 */
(PID.TID 0000.0001)                 1.224860201563485E+03,      /* I =  3 */
(PID.TID 0000.0001)      . . .
(PID.TID 0000.0001)                 4.840044193881684E+02,      /* I = 48 */
(PID.TID 0000.0001)                 4.741202454545211E+02,      /* I = 49 */
(PID.TID 0000.0001)                 4.644379227652780E+02,      /* I = 50 */
(PID.TID 0000.0001)                 4.549533291828540E+02,      /* I = 51 */
(PID.TID 0000.0001)                 4.456624267505587E+02,      /* I = 52 */
(PID.TID 0000.0001)                 4.365612599734820E+02,      /* I = 53 */
(PID.TID 0000.0001)      . . .
(PID.TID 0000.0001)                 2.000000000000000E+02,      /* I = 98 */
(PID.TID 0000.0001)                 2.000000000000000E+02,      /* I = 99 */
(PID.TID 0000.0001)                 2.000000000000000E+02,      /* I =100 */
(PID.TID 0000.0001)                 2.000000000000000E+02,      /* I =101 */
(PID.TID 0000.0001)                 2.000000000000000E+02,      /* I =102 */
(PID.TID 0000.0001)                 2.000000000000000E+02,      /* I =103 */
(PID.TID 0000.0001)      . . .
(PID.TID 0000.0001)                 3.575753287246037E+02,      /* I =148 */
(PID.TID 0000.0001)                 3.650298442771020E+02,      /* I =149 */
(PID.TID 0000.0001)                 3.726397670897172E+02,      /* I =150 */
(PID.TID 0000.0001)                 3.804083369996092E+02,      /* I =151 */
(PID.TID 0000.0001)                 3.883388613861159E+02,      /* I =152 */
(PID.TID 0000.0001)                 3.964347165788323E+02,      /* I =153 */
(PID.TID 0000.0001)      . . .
(PID.TID 0000.0001)                 1.003249324601893E+03,      /* I =198 */
(PID.TID 0000.0001)                 1.024164463574018E+03,      /* I =199 */
(PID.TID 0000.0001)                 1.045515628793553E+03       /* I =200 */
(PID.TID 0000.0001)     ;
(PID.TID 0000.0001) dxC =  /* dxC(1,:,1,:) ( units: m ) */
(PID.TID 0000.0001)                 1.159797990255862E+03       /* J =  1 */
(PID.TID 0000.0001)     ;
(PID.TID 0000.0001) dyC =  /* dyC(:,1,:,1) ( units: m ) */
(PID.TID 0000.0001)   200 @  5.000000000000000E+03              /* I =  1:200 */
(PID.TID 0000.0001)     ;
(PID.TID 0000.0001) dyC =  /* dyC(1,:,1,:) ( units: m ) */
(PID.TID 0000.0001)                 5.000000000000000E+03       /* J =  1 */
(PID.TID 0000.0001)     ;
(PID.TID 0000.0001) dxV =  /* dxV(:,1,:,1) ( units: m ) */
(PID.TID 0000.0001)                 1.159797990255862E+03,      /* I =  1 */
(PID.TID 0000.0001)                 1.250395350911620E+03,      /* I =  2 */
(PID.TID 0000.0001)                 1.224860201563485E+03,      /* I =  3 */
(PID.TID 0000.0001)      . . .
(PID.TID 0000.0001)                 4.840044193881684E+02,      /* I = 48 */
(PID.TID 0000.0001)                 4.741202454545211E+02,      /* I = 49 */
(PID.TID 0000.0001)                 4.644379227652780E+02,      /* I = 50 */
(PID.TID 0000.0001)                 4.549533291828540E+02,      /* I = 51 */
(PID.TID 0000.0001)                 4.456624267505587E+02,      /* I = 52 */
(PID.TID 0000.0001)                 4.365612599734820E+02,      /* I = 53 */
(PID.TID 0000.0001)      . . .
(PID.TID 0000.0001)                 2.000000000000000E+02,      /* I = 98 */
(PID.TID 0000.0001)                 2.000000000000000E+02,      /* I = 99 */
(PID.TID 0000.0001)                 2.000000000000000E+02,      /* I =100 */
(PID.TID 0000.0001)                 2.000000000000000E+02,      /* I =101 */
(PID.TID 0000.0001)                 2.000000000000000E+02,      /* I =102 */
(PID.TID 0000.0001)                 2.000000000000000E+02,      /* I =103 */
(PID.TID 0000.0001)      . . .
(PID.TID 0000.0001)                 3.575753287246037E+02,      /* I =148 */
(PID.TID 0000.0001)                 3.650298442771020E+02,      /* I =149 */
(PID.TID 0000.0001)                 3.726397670897172E+02,      /* I =150 */
(PID.TID 0000.0001)                 3.804083369996092E+02,      /* I =151 */
(PID.TID 0000.0001)                 3.883388613861159E+02,      /* I =152 */
(PID.TID 0000.0001)                 3.964347165788323E+02,      /* I =153 */
(PID.TID 0000.0001)      . . .
(PID.TID 0000.0001)                 1.003249324601893E+03,      /* I =198 */
(PID.TID 0000.0001)                 1.024164463574018E+03,      /* I =199 */
(PID.TID 0000.0001)                 1.045515628793553E+03       /* I =200 */
(PID.TID 0000.0001)     ;
(PID.TID 0000.0001) dxV =  /* dxV(1,:,1,:) ( units: m ) */
(PID.TID 0000.0001)                 1.159797990255862E+03       /* J =  1 */
(PID.TID 0000.0001)     ;
(PID.TID 0000.0001) dyU =  /* dyU(:,1,:,1) ( units: m ) */
(PID.TID 0000.0001)   200 @  5.000000000000000E+03              /* I =  1:200 */
(PID.TID 0000.0001)     ;
(PID.TID 0000.0001) dyU =  /* dyU(1,:,1,:) ( units: m ) */
(PID.TID 0000.0001)                 5.000000000000000E+03       /* J =  1 */
(PID.TID 0000.0001)     ;
(PID.TID 0000.0001) rA  =  /* rA (:,1,:,1) ( units: m^2 ) */
(PID.TID 0000.0001)                 6.316473190083342E+06,      /* I =  1 */
(PID.TID 0000.0001)                 6.187480319032855E+06,      /* I =  2 */
(PID.TID 0000.0001)                 6.061121696601991E+06,      /* I =  3 */
(PID.TID 0000.0001)      . . .
(PID.TID 0000.0001)                 2.395056745137316E+06,      /* I = 48 */
(PID.TID 0000.0001)                 2.346145709407895E+06,      /* I = 49 */
(PID.TID 0000.0001)                 2.298233518244884E+06,      /* I = 50 */
(PID.TID 0000.0001)                 2.251299773583656E+06,      /* I = 51 */
(PID.TID 0000.0001)                 2.205324493921931E+06,      /* I = 52 */
(PID.TID 0000.0001)                 2.160288105812889E+06,      /* I = 53 */
(PID.TID 0000.0001)      . . .
(PID.TID 0000.0001)                 1.000000000000000E+06,      /* I = 98 */
(PID.TID 0000.0001)                 1.000000000000000E+06,      /* I = 99 */
(PID.TID 0000.0001)                 1.000000000000000E+06,      /* I =100 */
(PID.TID 0000.0001)                 1.000000000000000E+06,      /* I =101 */
(PID.TID 0000.0001)                 1.000000000000000E+06,      /* I =102 */
(PID.TID 0000.0001)                 1.000000000000000E+06,      /* I =103 */
(PID.TID 0000.0001)      . . .
(PID.TID 0000.0001)                 1.806320677438155E+06,      /* I =148 */
(PID.TID 0000.0001)                 1.843977765332865E+06,      /* I =149 */
(PID.TID 0000.0001)                 1.882419905564307E+06,      /* I =150 */
(PID.TID 0000.0001)                 1.921663464431785E+06,      /* I =151 */
(PID.TID 0000.0001)                 1.961725149429375E+06,      /* I =152 */
(PID.TID 0000.0001)                 2.002622016358948E+06,      /* I =153 */
(PID.TID 0000.0001)      . . .
(PID.TID 0000.0001)                 5.067995060279928E+06,      /* I =198 */
(PID.TID 0000.0001)                 5.173649575460250E+06,      /* I =199 */
(PID.TID 0000.0001)                 5.281506712475282E+06       /* I =200 */
(PID.TID 0000.0001)     ;
(PID.TID 0000.0001) rA  =  /* rA (1,:,1,:) ( units: m^2 ) */
(PID.TID 0000.0001)                 6.316473190083342E+06       /* J =  1 */
(PID.TID 0000.0001)     ;
(PID.TID 0000.0001) rAw =  /* rAw(:,1,:,1) ( units: m^2 ) */
(PID.TID 0000.0001)                 5.798989951279311E+06,      /* I =  1 */
(PID.TID 0000.0001)                 6.251976754558099E+06,      /* I =  2 */
(PID.TID 0000.0001)                 6.124301007817423E+06,      /* I =  3 */
(PID.TID 0000.0001)      . . .
(PID.TID 0000.0001)                 2.420022096940842E+06,      /* I = 48 */
(PID.TID 0000.0001)                 2.370601227272606E+06,      /* I = 49 */
(PID.TID 0000.0001)                 2.322189613826390E+06,      /* I = 50 */
(PID.TID 0000.0001)                 2.274766645914270E+06,      /* I = 51 */
(PID.TID 0000.0001)                 2.228312133752794E+06,      /* I = 52 */
(PID.TID 0000.0001)                 2.182806299867410E+06,      /* I = 53 */
(PID.TID 0000.0001)      . . .
(PID.TID 0000.0001)                 1.000000000000000E+06,      /* I = 98 */
(PID.TID 0000.0001)                 1.000000000000000E+06,      /* I = 99 */
(PID.TID 0000.0001)                 1.000000000000000E+06,      /* I =100 */
(PID.TID 0000.0001)                 1.000000000000000E+06,      /* I =101 */
(PID.TID 0000.0001)                 1.000000000000000E+06,      /* I =102 */
(PID.TID 0000.0001)                 1.000000000000000E+06,      /* I =103 */
(PID.TID 0000.0001)      . . .
(PID.TID 0000.0001)                 1.787876643623018E+06,      /* I =148 */
(PID.TID 0000.0001)                 1.825149221385510E+06,      /* I =149 */
(PID.TID 0000.0001)                 1.863198835448586E+06,      /* I =150 */
(PID.TID 0000.0001)                 1.902041684998046E+06,      /* I =151 */
(PID.TID 0000.0001)                 1.941694306930580E+06,      /* I =152 */
(PID.TID 0000.0001)                 1.982173582894161E+06,      /* I =153 */
(PID.TID 0000.0001)      . . .
(PID.TID 0000.0001)                 5.016246623009465E+06,      /* I =198 */
(PID.TID 0000.0001)                 5.120822317870088E+06,      /* I =199 */
(PID.TID 0000.0001)                 5.227578143967765E+06       /* I =200 */
(PID.TID 0000.0001)     ;
(PID.TID 0000.0001) rAw =  /* rAw(1,:,1,:) ( units: m^2 ) */
(PID.TID 0000.0001)                 5.798989951279311E+06       /* J =  1 */
(PID.TID 0000.0001)     ;
(PID.TID 0000.0001) rAs =  /* rAs(:,1,:,1) ( units: m^2 ) */
(PID.TID 0000.0001)                 6.316473190083342E+06,      /* I =  1 */
(PID.TID 0000.0001)                 6.187480319032855E+06,      /* I =  2 */
(PID.TID 0000.0001)                 6.061121696601991E+06,      /* I =  3 */
(PID.TID 0000.0001)      . . .
(PID.TID 0000.0001)                 2.395056745137316E+06,      /* I = 48 */
(PID.TID 0000.0001)                 2.346145709407895E+06,      /* I = 49 */
(PID.TID 0000.0001)                 2.298233518244884E+06,      /* I = 50 */
(PID.TID 0000.0001)                 2.251299773583656E+06,      /* I = 51 */
(PID.TID 0000.0001)                 2.205324493921931E+06,      /* I = 52 */
(PID.TID 0000.0001)                 2.160288105812889E+06,      /* I = 53 */
(PID.TID 0000.0001)      . . .
(PID.TID 0000.0001)                 1.000000000000000E+06,      /* I = 98 */
(PID.TID 0000.0001)                 1.000000000000000E+06,      /* I = 99 */
(PID.TID 0000.0001)                 1.000000000000000E+06,      /* I =100 */
(PID.TID 0000.0001)                 1.000000000000000E+06,      /* I =101 */
(PID.TID 0000.0001)                 1.000000000000000E+06,      /* I =102 */
(PID.TID 0000.0001)                 1.000000000000000E+06,      /* I =103 */
(PID.TID 0000.0001)      . . .
(PID.TID 0000.0001)                 1.806320677438155E+06,      /* I =148 */
(PID.TID 0000.0001)                 1.843977765332865E+06,      /* I =149 */
(PID.TID 0000.0001)                 1.882419905564307E+06,      /* I =150 */
(PID.TID 0000.0001)                 1.921663464431785E+06,      /* I =151 */
(PID.TID 0000.0001)                 1.961725149429375E+06,      /* I =152 */
(PID.TID 0000.0001)                 2.002622016358948E+06,      /* I =153 */
(PID.TID 0000.0001)      . . .
(PID.TID 0000.0001)                 5.067995060279928E+06,      /* I =198 */
(PID.TID 0000.0001)                 5.173649575460250E+06,      /* I =199 */
(PID.TID 0000.0001)                 5.281506712475282E+06       /* I =200 */
(PID.TID 0000.0001)     ;
(PID.TID 0000.0001) rAs =  /* rAs(1,:,1,:) ( units: m^2 ) */
(PID.TID 0000.0001)                 6.316473190083342E+06       /* J =  1 */
(PID.TID 0000.0001)     ;
(PID.TID 0000.0001) globalArea = /* Integrated horizontal Area (m^2) */
(PID.TID 0000.0001)                 4.884020200974414E+08
(PID.TID 0000.0001)     ;
(PID.TID 0000.0001) // =======================================================
(PID.TID 0000.0001) // End of Model config. summary
(PID.TID 0000.0001) // =======================================================
(PID.TID 0000.0001) 
(PID.TID 0000.0001) == Packages configuration : Check & print summary ==
(PID.TID 0000.0001) 
(PID.TID 0000.0001) OBCS_CHECK: #define ALLOW_OBCS
(PID.TID 0000.0001) OBCS_CHECK: start summary:
(PID.TID 0000.0001) useOBCSprescribe = /* prescribe OB values */
(PID.TID 0000.0001)                   T
(PID.TID 0000.0001)     ;
(PID.TID 0000.0001) useOBCSbalance = /* balance the flow through OB */
(PID.TID 0000.0001)                   F
(PID.TID 0000.0001)     ;
(PID.TID 0000.0001) OBCS_uvApplyFac = /* Factor to apply to U,V 2nd column/row */
(PID.TID 0000.0001)                 1.000000000000000E+00
(PID.TID 0000.0001)     ;
(PID.TID 0000.0001) OBCS_u1_adv_T = /* Temp uses upwind adv-scheme @ OB */
(PID.TID 0000.0001)                       0
(PID.TID 0000.0001)     ;
(PID.TID 0000.0001) OBCS_u1_adv_S = /* Salt uses upwind adv-scheme @ OB */
(PID.TID 0000.0001)                       0
(PID.TID 0000.0001)     ;
(PID.TID 0000.0001) OBCS_monitorFreq = /* monitor output frequency [s] */
(PID.TID 0000.0001)                 7.200000000000000E+03
(PID.TID 0000.0001)     ;
(PID.TID 0000.0001) OBCS_monSelect = /* select group of variables to monitor */
(PID.TID 0000.0001)                       0
(PID.TID 0000.0001)     ;
(PID.TID 0000.0001) useOBCStides = /* apply tidal forcing through OB */
(PID.TID 0000.0001)                   F
(PID.TID 0000.0001)     ;
(PID.TID 0000.0001) tidalPeriod = /* (s) */
(PID.TID 0000.0001)    10 @  0.000000000000000E+00              /* I =  1: 10 */
(PID.TID 0000.0001)     ;
(PID.TID 0000.0001) OB_indexNone = /* null value for OB index (i.e. no OB) */
(PID.TID 0000.0001)                     -99
(PID.TID 0000.0001)     ;
(PID.TID 0000.0001) ======== Tile bi=   1 , bj=   1 ========
(PID.TID 0000.0001)  OB_Jn = /* Northern OB local indices */
(PID.TID 0000.0001)   204 @      -99                            /* I = -1:202 */
(PID.TID 0000.0001)  OB_Js = /* Southern OB local indices */
(PID.TID 0000.0001)   204 @      -99                            /* I = -1:202 */
(PID.TID 0000.0001)  OB_Ie = /* Eastern OB local indices */
(PID.TID 0000.0001)     5 @      200                            /* J = -1:  3 */
(PID.TID 0000.0001)  OB_Iw = /* Western OB local indices */
(PID.TID 0000.0001)     5 @        1                            /* J = -1:  3 */
(PID.TID 0000.0001) OBCS_CHECK: end summary.
(PID.TID 0000.0001) OBCS_CHECK: set-up OK
(PID.TID 0000.0001) OBCS_CHECK: check Inside Mask and OB locations: OK
(PID.TID 0000.0001) KL10_CHECK: #define ALLOW_KL10
(PID.TID 0000.0001) GAD_CHECK: #define ALLOW_GENERIC_ADVDIFF
(PID.TID 0000.0001) // =======================================================
(PID.TID 0000.0001) // Check Model config. (CONFIG_CHECK):
(PID.TID 0000.0001) // CONFIG_CHECK : Normal End
(PID.TID 0000.0001) // =======================================================
(PID.TID 0000.0001) 
(PID.TID 0000.0001)  MDS_READ_FIELD: opening global file: U0.bin
(PID.TID 0000.0001)  MDS_READ_FIELD: opening global file: T0.bin
(PID.TID 0000.0001) Start initial hydrostatic pressure computation
(PID.TID 0000.0001) Pressure is predetermined for buoyancyRelation OCEANIC
(PID.TID 0000.0001) 
(PID.TID 0000.0001)  OBCS_FIELDS_LOAD: Reading initial data:         0  0.000000000000E+00
(PID.TID 0000.0001)  MDS_READ_SEC_YZ: opening global file: U_in.bin
(PID.TID 0000.0001)  MDS_READ_SEC_YZ: opening global file: TE.bin
(PID.TID 0000.0001)  MDS_READ_SEC_YZ: opening global file: U_in.bin
(PID.TID 0000.0001)  MDS_READ_SEC_YZ: opening global file: TW.bin
(PID.TID 0000.0001) // =======================================================
(PID.TID 0000.0001) // Model current state
(PID.TID 0000.0001) // =======================================================
(PID.TID 0000.0001) 
(PID.TID 0000.0001) // =======================================================
(PID.TID 0000.0001) // Begin MONITOR dynamic field statistics
(PID.TID 0000.0001) // =======================================================
(PID.TID 0000.0001) %MON time_tsnumber                =                     0
(PID.TID 0000.0001) %MON time_secondsf                =   0.0000000000000E+00
(PID.TID 0000.0001) %MON dynstat_eta_max              =   0.0000000000000E+00
(PID.TID 0000.0001) %MON dynstat_eta_min              =   0.0000000000000E+00
(PID.TID 0000.0001) %MON dynstat_eta_mean             =   0.0000000000000E+00
(PID.TID 0000.0001) %MON dynstat_eta_sd               =   0.0000000000000E+00
(PID.TID 0000.0001) %MON dynstat_eta_del2             =   0.0000000000000E+00
(PID.TID 0000.0001) %MON dynstat_uvel_max             =   1.0505355776936E-01
(PID.TID 0000.0001) %MON dynstat_uvel_min             =   1.0505355776936E-01
(PID.TID 0000.0001) %MON dynstat_uvel_mean            =   1.0505355776936E-01
(PID.TID 0000.0001) %MON dynstat_uvel_sd              =   2.3592239273285E-16
(PID.TID 0000.0001) %MON dynstat_uvel_del2            =   0.0000000000000E+00
(PID.TID 0000.0001) %MON dynstat_vvel_max             =   0.0000000000000E+00
(PID.TID 0000.0001) %MON dynstat_vvel_min             =   0.0000000000000E+00
(PID.TID 0000.0001) %MON dynstat_vvel_mean            =   0.0000000000000E+00
(PID.TID 0000.0001) %MON dynstat_vvel_sd              =   0.0000000000000E+00
(PID.TID 0000.0001) %MON dynstat_vvel_del2            =   0.0000000000000E+00
(PID.TID 0000.0001) %MON dynstat_wvel_max             =   3.1832562551957E-03
(PID.TID 0000.0001) %MON dynstat_wvel_min             =  -3.1832562551957E-03
(PID.TID 0000.0001) %MON dynstat_wvel_mean            =   1.0134382455709E-21
(PID.TID 0000.0001) %MON dynstat_wvel_sd              =   6.0150741560543E-04
(PID.TID 0000.0001) %MON dynstat_wvel_del2            =   7.9628174982999E-07
(PID.TID 0000.0001) %MON dynstat_theta_max            =   1.5000000000000E+01
(PID.TID 0000.0001) %MON dynstat_theta_min            =   1.0000000000000E+01
(PID.TID 0000.0001) %MON dynstat_theta_mean           =   1.2567208628853E+01
(PID.TID 0000.0001) %MON dynstat_theta_sd             =   2.4852134676990E+00
(PID.TID 0000.0001) %MON dynstat_theta_del2           =   0.0000000000000E+00
(PID.TID 0000.0001) %MON dynstat_salt_max             =   3.5000000000000E+01
(PID.TID 0000.0001) %MON dynstat_salt_min             =   3.5000000000000E+01
(PID.TID 0000.0001) %MON dynstat_salt_mean            =   3.5000000000000E+01
(PID.TID 0000.0001) %MON dynstat_salt_sd              =   3.9790393202566E-13
(PID.TID 0000.0001) %MON dynstat_salt_del2            =   0.0000000000000E+00
(PID.TID 0000.0001) %MON dynstat_sst_max              =   1.5000000000000E+01
(PID.TID 0000.0001) %MON dynstat_sst_min              =   1.5000000000000E+01
(PID.TID 0000.0001) %MON dynstat_sst_mean             =   1.5000000000000E+01
(PID.TID 0000.0001) %MON dynstat_sst_sd               =   5.3290705182008E-15
(PID.TID 0000.0001) %MON dynstat_sst_del2             =   0.0000000000000E+00
(PID.TID 0000.0001) %MON dynstat_sss_max              =   3.5000000000000E+01
(PID.TID 0000.0001) %MON dynstat_sss_min              =   3.5000000000000E+01
(PID.TID 0000.0001) %MON dynstat_sss_mean             =   3.5000000000000E+01
(PID.TID 0000.0001) %MON dynstat_sss_sd               =   5.6843418860808E-14
(PID.TID 0000.0001) %MON dynstat_sss_del2             =   0.0000000000000E+00
(PID.TID 0000.0001) %MON forcing_qnet_max             =   0.0000000000000E+00
(PID.TID 0000.0001) %MON forcing_qnet_min             =   0.0000000000000E+00
(PID.TID 0000.0001) %MON forcing_qnet_mean            =   0.0000000000000E+00
(PID.TID 0000.0001) %MON forcing_qnet_sd              =   0.0000000000000E+00
(PID.TID 0000.0001) %MON forcing_qnet_del2            =   0.0000000000000E+00
(PID.TID 0000.0001) %MON forcing_qsw_max              =   0.0000000000000E+00
(PID.TID 0000.0001) %MON forcing_qsw_min              =   0.0000000000000E+00
(PID.TID 0000.0001) %MON forcing_qsw_mean             =   0.0000000000000E+00
(PID.TID 0000.0001) %MON forcing_qsw_sd               =   0.0000000000000E+00
(PID.TID 0000.0001) %MON forcing_qsw_del2             =   0.0000000000000E+00
(PID.TID 0000.0001) %MON forcing_empmr_max            =   0.0000000000000E+00
(PID.TID 0000.0001) %MON forcing_empmr_min            =   0.0000000000000E+00
(PID.TID 0000.0001) %MON forcing_empmr_mean           =   0.0000000000000E+00
(PID.TID 0000.0001) %MON forcing_empmr_sd             =   0.0000000000000E+00
(PID.TID 0000.0001) %MON forcing_empmr_del2           =   0.0000000000000E+00
(PID.TID 0000.0001) %MON forcing_fu_max               =   0.0000000000000E+00
(PID.TID 0000.0001) %MON forcing_fu_min               =   0.0000000000000E+00
(PID.TID 0000.0001) %MON forcing_fu_mean              =   0.0000000000000E+00
(PID.TID 0000.0001) %MON forcing_fu_sd                =   0.0000000000000E+00
(PID.TID 0000.0001) %MON forcing_fu_del2              =   0.0000000000000E+00
(PID.TID 0000.0001) %MON forcing_fv_max               =   0.0000000000000E+00
(PID.TID 0000.0001) %MON forcing_fv_min               =   0.0000000000000E+00
(PID.TID 0000.0001) %MON forcing_fv_mean              =   0.0000000000000E+00
(PID.TID 0000.0001) %MON forcing_fv_sd                =   0.0000000000000E+00
(PID.TID 0000.0001) %MON forcing_fv_del2              =   0.0000000000000E+00
(PID.TID 0000.0001) %MON advcfl_uvel_max              =   7.8790168327019E-03
(PID.TID 0000.0001) %MON advcfl_vvel_max              =   0.0000000000000E+00
(PID.TID 0000.0001) %MON advcfl_wvel_max              =   4.7748843827935E-02
(PID.TID 0000.0001) %MON advcfl_W_hf_max              =   4.7748843827935E-02
(PID.TID 0000.0001) %MON pe_b_mean                    =   0.0000000000000E+00
(PID.TID 0000.0001) %MON ke_max                       =   5.5565194040038E-03
(PID.TID 0000.0001) %MON ke_mean                      =   5.5126840721762E-03
(PID.TID 0000.0001) %MON ke_vol                       =   9.5121673331316E+10
(PID.TID 0000.0001) %MON vort_r_min                   =   0.0000000000000E+00
(PID.TID 0000.0001) %MON vort_r_max                   =   0.0000000000000E+00
(PID.TID 0000.0001) %MON vort_a_mean                  =   0.0000000000000E+00
(PID.TID 0000.0001) %MON vort_a_sd                    =   0.0000000000000E+00
(PID.TID 0000.0001) %MON vort_p_mean                  =   0.0000000000000E+00
(PID.TID 0000.0001) %MON vort_p_sd                    =   0.0000000000000E+00
(PID.TID 0000.0001) %MON surfExpan_theta_mean         =   9.6759218396976E-20
(PID.TID 0000.0001) %MON surfExpan_salt_mean          =  -3.0587881689732E-19
(PID.TID 0000.0001) // =======================================================
(PID.TID 0000.0001) // End MONITOR dynamic field statistics
(PID.TID 0000.0001) // =======================================================
(PID.TID 0000.0001) // =======================================================
(PID.TID 0000.0001) // Begin OBCS MONITOR field statistics
(PID.TID 0000.0001) // =======================================================
(PID.TID 0000.0001) %MON obc_E_uVel_max               =   1.0505355776936E-01
(PID.TID 0000.0001) %MON obc_E_uVel_min               =   1.0505355776936E-01
(PID.TID 0000.0001) %MON obc_E_uVel_mean              =   1.0505355776936E-01
(PID.TID 0000.0001) %MON obc_E_uVel_sd                =  -6.9388939039072E-18
(PID.TID 0000.0001) %MON obc_E_uVel_Int               =   1.0505355776936E+05
(PID.TID 0000.0001) %MON obc_W_uVel_max               =   1.0505355776936E-01
(PID.TID 0000.0001) %MON obc_W_uVel_min               =   1.0505355776936E-01
(PID.TID 0000.0001) %MON obc_W_uVel_mean              =   1.0505355776936E-01
(PID.TID 0000.0001) %MON obc_W_uVel_sd                =  -6.9388939039072E-18
(PID.TID 0000.0001) %MON obc_W_uVel_Int               =   1.0505355776936E+05
(PID.TID 0000.0001) // =======================================================
(PID.TID 0000.0001) // End OBCS MONITOR field statistics
(PID.TID 0000.0001) // =======================================================
(PID.TID 0000.0001) SOLVE_FOR_PRESSURE: putPmEinXvector =    F
 cg2d: Sum(rhs),rhsMax =  -2.80070344316210E-15  4.69954559658639E-02
 cg2d: Sum(rhs),rhsMax =   2.41578962428616E-14  8.27385916294012E-02
 cg2d: Sum(rhs),rhsMax =   1.75629921904706E-14  1.06526282329297E-01
 cg2d: Sum(rhs),rhsMax =  -8.22416597146494E-14  1.22002319422078E-01
 cg2d: Sum(rhs),rhsMax =  -7.06150430902477E-14  1.31451109297828E-01
 cg2d: Sum(rhs),rhsMax =  -1.17819462316889E-13  1.37571448281203E-01
 cg2d: Sum(rhs),rhsMax =  -1.76884817280324E-13  1.42283152752084E-01
 cg2d: Sum(rhs),rhsMax =  -1.77547998566547E-13  1.46659116167806E-01
 cg2d: Sum(rhs),rhsMax =  -2.82854737658762E-13  1.50927110671488E-01
 cg2d: Sum(rhs),rhsMax =  -2.70453537131190E-13  1.55062630000298E-01
 cg2d: Sum(rhs),rhsMax =  -2.21379499944267E-13  1.59327311155695E-01
 cg2d: Sum(rhs),rhsMax =  -1.97701022565792E-13  1.63535666732836E-01
 cg2d: Sum(rhs),rhsMax =  -2.19391280094048E-13  1.67653867693462E-01
 cg2d: Sum(rhs),rhsMax =  -4.23046177310556E-13  1.71680835788642E-01
 cg2d: Sum(rhs),rhsMax =  -4.58433430604259E-13  1.75591886903398E-01
 cg2d: Sum(rhs),rhsMax =  -4.66695700938748E-13  1.79468207796568E-01
 cg2d: Sum(rhs),rhsMax =  -5.00287986438073E-13  1.83458173114197E-01
 cg2d: Sum(rhs),rhsMax =  -5.43536680178990E-13  1.87261937828200E-01
 cg2d: Sum(rhs),rhsMax =  -4.58546076787995E-13  1.90748475983827E-01
 cg2d: Sum(rhs),rhsMax =  -4.69652192480255E-13  1.94684571118561E-01
 cg2d: Sum(rhs),rhsMax =  -5.99811111341099E-13  1.98141254860483E-01
 cg2d: Sum(rhs),rhsMax =  -6.48814877533209E-13  2.01876193131501E-01
 cg2d: Sum(rhs),rhsMax =  -5.22485361367624E-13  2.05149630111280E-01
 cg2d: Sum(rhs),rhsMax =  -3.88258948379168E-13  2.08889674710929E-01
 cg2d: Sum(rhs),rhsMax =  -3.48477184420044E-13  2.12176718525051E-01
 cg2d: Sum(rhs),rhsMax =  -2.64169749377843E-13  2.15533112088138E-01
 cg2d: Sum(rhs),rhsMax =  -1.14385074085092E-13  2.19058499050188E-01
 cg2d: Sum(rhs),rhsMax =   5.06258222158823E-14  2.22299894689062E-01
 cg2d: Sum(rhs),rhsMax =   1.79769241349546E-13  2.25315295356972E-01
 cg2d: Sum(rhs),rhsMax =   2.84081291205673E-13  2.28645739180495E-01
 cg2d: Sum(rhs),rhsMax =   3.47075229748797E-13  2.32006572494318E-01
 cg2d: Sum(rhs),rhsMax =   4.33175054799419E-13  2.35229443261150E-01
 cg2d: Sum(rhs),rhsMax =   5.47785883493745E-13  2.38349742234217E-01
 cg2d: Sum(rhs),rhsMax =   6.44422774691289E-13  2.41397987735841E-01
 cg2d: Sum(rhs),rhsMax =   7.18168688580711E-13  2.44399641298065E-01
 cg2d: Sum(rhs),rhsMax =   7.93079794544904E-13  2.47374961351286E-01
 cg2d: Sum(rhs),rhsMax =   8.42569395330395E-13  2.50338874829537E-01
 cg2d: Sum(rhs),rhsMax =   9.35058020595791E-13  2.53300849764264E-01
 cg2d: Sum(rhs),rhsMax =   1.02860341771871E-12  2.56264757598766E-01
 cg2d: Sum(rhs),rhsMax =   1.12819042302759E-12  2.59228718577081E-01
 cg2d: Sum(rhs),rhsMax =   1.20234898426386E-12  2.62184928272103E-01
 cg2d: Sum(rhs),rhsMax =   1.29160050710286E-12  2.65119468040330E-01
 cg2d: Sum(rhs),rhsMax =   1.31736462016807E-12  2.68012106972517E-01
 cg2d: Sum(rhs),rhsMax =   1.37117747711635E-12  2.70836107892946E-01
 cg2d: Sum(rhs),rhsMax =   1.42880152154135E-12  2.73558055331149E-01
 cg2d: Sum(rhs),rhsMax =   1.46713197146653E-12  2.76137729325432E-01
 cg2d: Sum(rhs),rhsMax =   1.51452461683022E-12  2.78528056079378E-01
 cg2d: Sum(rhs),rhsMax =   1.59937341148719E-12  2.81450794369471E-01
 cg2d: Sum(rhs),rhsMax =   1.60402247040281E-12  2.84478863663352E-01
 cg2d: Sum(rhs),rhsMax =   1.64473989983094E-12  2.87293004219673E-01
 cg2d: Sum(rhs),rhsMax =   1.64906976962698E-12  2.89823123207961E-01
 cg2d: Sum(rhs),rhsMax =   1.66072711138554E-12  2.91992459098586E-01
 cg2d: Sum(rhs),rhsMax =   1.70541358812670E-12  2.94815218015256E-01
 cg2d: Sum(rhs),rhsMax =   1.71718195218773E-12  2.97823702567425E-01
 cg2d: Sum(rhs),rhsMax =   1.73039360618077E-12  3.00391255633260E-01
 cg2d: Sum(rhs),rhsMax =   1.76758607750571E-12  3.02425561512345E-01
 cg2d: Sum(rhs),rhsMax =   1.80933046323162E-12  3.05316882588669E-01
 cg2d: Sum(rhs),rhsMax =   1.73261405223002E-12  3.14421039710905E-01
 cg2d: Sum(rhs),rhsMax =   1.60738089505230E-12  3.26653633536713E-01
 cg2d: Sum(rhs),rhsMax =   1.51978429840938E-12  3.44335546296799E-01
 cg2d: Sum(rhs),rhsMax =   1.46205270112887E-12  3.68946061378037E-01
 cg2d: Sum(rhs),rhsMax =   1.35413902313530E-12  4.02727441133006E-01
 cg2d: Sum(rhs),rhsMax =   1.24811272428360E-12  4.42050371461268E-01
 cg2d: Sum(rhs),rhsMax =   1.22246657241476E-12  4.79488618570231E-01
 cg2d: Sum(rhs),rhsMax =   1.24589227823435E-12  5.13661799898961E-01
 cg2d: Sum(rhs),rhsMax =   1.25044419263531E-12  5.43619914334722E-01
 cg2d: Sum(rhs),rhsMax =   1.26887389484409E-12  5.68538930449679E-01
 cg2d: Sum(rhs),rhsMax =   1.30750965610105E-12  5.87761397816133E-01
 cg2d: Sum(rhs),rhsMax =   1.45505829607373E-12  6.00827028791784E-01
 cg2d: Sum(rhs),rhsMax =   1.58151269857854E-12  6.07491258457082E-01
 cg2d: Sum(rhs),rhsMax =   1.69930736149126E-12  6.07730831898609E-01
 cg2d: Sum(rhs),rhsMax =   1.82021064887294E-12  6.01736553691016E-01
 cg2d: Sum(rhs),rhsMax =   1.94633198447036E-12  5.89894350271662E-01
 cg2d: Sum(rhs),rhsMax =   2.03714822788470E-12  5.72756645189805E-01
 cg2d: Sum(rhs),rhsMax =   2.12729833748426E-12  5.51006654604027E-01
 cg2d: Sum(rhs),rhsMax =   2.22610818667590E-12  5.26405683858745E-01
 cg2d: Sum(rhs),rhsMax =   2.06346051356832E-12  5.61698718023680E-01
 cg2d: Sum(rhs),rhsMax =   1.90925053544788E-12  5.93240777049539E-01
 cg2d: Sum(rhs),rhsMax =   1.75881531561117E-12  6.20284554414752E-01
 cg2d: Sum(rhs),rhsMax =   1.63646873829748E-12  6.42204235651829E-01
 cg2d: Sum(rhs),rhsMax =   1.52422519050788E-12  6.58521526651770E-01
 cg2d: Sum(rhs),rhsMax =   1.41342493265029E-12  6.68924107768563E-01
 cg2d: Sum(rhs),rhsMax =   1.32133193275763E-12  6.73275518640701E-01
 cg2d: Sum(rhs),rhsMax =   1.27559074414307E-12  6.71616105251499E-01
 cg2d: Sum(rhs),rhsMax =   1.22685195336203E-12  6.64155294047874E-01
 cg2d: Sum(rhs),rhsMax =   1.20525811553307E-12  6.51256041570774E-01
 cg2d: Sum(rhs),rhsMax =   1.18116627589870E-12  6.33412792803251E-01
 cg2d: Sum(rhs),rhsMax =   1.15263354416584E-12  6.11224632487373E-01
 cg2d: Sum(rhs),rhsMax =   1.10278453036017E-12  5.85365508567781E-01
 cg2d: Sum(rhs),rhsMax =   1.12104769911525E-12  5.56553447693854E-01
 cg2d: Sum(rhs),rhsMax =   1.13156706227358E-12  5.25520575225795E-01
 cg2d: Sum(rhs),rhsMax =   1.13284381875189E-12  4.92985512404215E-01
 cg2d: Sum(rhs),rhsMax =   1.10783604512221E-12  4.59629394713023E-01
 cg2d: Sum(rhs),rhsMax =   1.07266973081721E-12  4.26076395090065E-01
 cg2d: Sum(rhs),rhsMax =   1.10808584530275E-12  3.92879238644166E-01
 cg2d: Sum(rhs),rhsMax =   1.14608322832055E-12  3.60509801881916E-01
 cg2d: Sum(rhs),rhsMax =   1.17769682894675E-12  3.29354571773799E-01
 cg2d: Sum(rhs),rhsMax =   1.20173315742989E-12  2.99714475282902E-01
 cg2d: Sum(rhs),rhsMax =   1.25224830505033E-12  2.71808397000368E-01
 cg2d: Sum(rhs),rhsMax =   1.17694742840513E-12  2.60806562499909E-01
 cg2d: Sum(rhs),rhsMax =   1.19648735363853E-12  2.53846361135987E-01
 cg2d: Sum(rhs),rhsMax =   1.15754628104980E-12  2.48264780317097E-01
 cg2d: Sum(rhs),rhsMax =   1.15893405983059E-12  2.43784009264458E-01
 cg2d: Sum(rhs),rhsMax =   1.14178111410013E-12  2.39035708192012E-01
 cg2d: Sum(rhs),rhsMax =   1.12967968313171E-12  2.34334992061237E-01
 cg2d: Sum(rhs),rhsMax =   1.11725906304372E-12  2.30429890540302E-01
 cg2d: Sum(rhs),rhsMax =   1.08138498156052E-12  2.26308465911876E-01
 cg2d: Sum(rhs),rhsMax =   1.04004305168104E-12  2.21997895028574E-01
 cg2d: Sum(rhs),rhsMax =   9.93760629341978E-13  2.18413638197479E-01
 cg2d: Sum(rhs),rhsMax =   9.41968725243214E-13  2.14608791740011E-01
 cg2d: Sum(rhs),rhsMax =   9.01625996085897E-13  2.10624106660161E-01
 cg2d: Sum(rhs),rhsMax =   8.47669157089115E-13  2.07009070430738E-01
 cg2d: Sum(rhs),rhsMax =   8.27463098040937E-13  2.03421712512253E-01
 cg2d: Sum(rhs),rhsMax =   8.07298672356183E-13  1.99687277371673E-01
 cg2d: Sum(rhs),rhsMax =   7.68454744282110E-13  1.95914556716930E-01
 cg2d: Sum(rhs),rhsMax =   7.45417616521138E-13  1.92505862776725E-01
 cg2d: Sum(rhs),rhsMax =   6.49036380195867E-13  1.88980907226949E-01
 cg2d: Sum(rhs),rhsMax =   5.50254286579843E-13  1.85373971874940E-01
 cg2d: Sum(rhs),rhsMax =   4.66612859462145E-13  1.81718402072568E-01
 cg2d: Sum(rhs),rhsMax =   3.52579077045334E-13  1.78369013057691E-01
 cg2d: Sum(rhs),rhsMax =   2.36977104606240E-13  1.74952896827432E-01
 cg2d: Sum(rhs),rhsMax =   1.47812317941032E-13  1.71491825183035E-01
 cg2d: Sum(rhs),rhsMax =   1.35252919974960E-13  1.68003057863136E-01
 cg2d: Sum(rhs),rhsMax =   2.22891149981308E-13  1.64499439726308E-01
 cg2d: Sum(rhs),rhsMax =   3.20785065177631E-13  1.61164117924352E-01
 cg2d: Sum(rhs),rhsMax =   3.51815798715904E-13  1.57811519501104E-01
 cg2d: Sum(rhs),rhsMax =   3.84969833788773E-13  1.54427021251273E-01
 cg2d: Sum(rhs),rhsMax =   3.68233221692549E-13  1.51010084634352E-01
 cg2d: Sum(rhs),rhsMax =   2.93196023015696E-13  1.47554381727880E-01
 cg2d: Sum(rhs),rhsMax =   3.53633788918728E-13  1.44047144706445E-01
 cg2d: Sum(rhs),rhsMax =   4.72816230612239E-13  1.40478146785111E-01
 cg2d: Sum(rhs),rhsMax =   5.63007973575225E-13  1.36916251997072E-01
 cg2d: Sum(rhs),rhsMax =   6.05890337901371E-13  1.33218648803429E-01
 cg2d: Sum(rhs),rhsMax =   6.52450315996589E-13  1.29347196243679E-01
 cg2d: Sum(rhs),rhsMax =   7.77600206447460E-13  1.25256305870242E-01
 cg2d: Sum(rhs),rhsMax =   8.64808225031766E-13  1.20894293002585E-01
 cg2d: Sum(rhs),rhsMax =   9.88473192187200E-13  1.16360762680015E-01
 cg2d: Sum(rhs),rhsMax =   1.12176934408126E-12  1.11473905892379E-01
 cg2d: Sum(rhs),rhsMax =   1.20820020654833E-12  1.06158647212840E-01
 cg2d: Sum(rhs),rhsMax =   1.31655797375174E-12  1.00576988580780E-01
 cg2d: Sum(rhs),rhsMax =   1.49766310464372E-12  9.45004524848372E-02
 cg2d: Sum(rhs),rhsMax =   1.67671432294014E-12  8.80812115073764E-02
 cg2d: Sum(rhs),rhsMax =   1.86137216751092E-12  8.11685210739330E-02
 cg2d: Sum(rhs),rhsMax =   2.11358708313014E-12  7.39547999174911E-02
 cg2d: Sum(rhs),rhsMax =   2.47371567674293E-12  6.63279010407971E-02
 cg2d: Sum(rhs),rhsMax =   2.85743650962900E-12  5.83483972045907E-02
 cg2d: Sum(rhs),rhsMax =   3.40466543846674E-12  5.01164532149396E-02
 cg2d: Sum(rhs),rhsMax =   3.97848420874425E-12  4.16621770484673E-02
 cg2d: Sum(rhs),rhsMax =   4.93582952287852E-12  3.30356165948757E-02
 cg2d: Sum(rhs),rhsMax =   6.75937084082534E-12  2.43114072083709E-02
 cg2d: Sum(rhs),rhsMax =   8.21043233401042E-12  2.00390949836476E-02
 cg2d: Sum(rhs),rhsMax =   8.22175660886160E-12  2.02262404387765E-02
 cg2d: Sum(rhs),rhsMax =   8.08830780130165E-12  2.05085011964839E-02
 cg2d: Sum(rhs),rhsMax =   7.84927678409986E-12  2.08598825075310E-02
 cg2d: Sum(rhs),rhsMax =   7.70272734484934E-12  2.12619722601284E-02
 cg2d: Sum(rhs),rhsMax =   6.34359231810322E-12  2.60880342159699E-02
 cg2d: Sum(rhs),rhsMax =   4.98434626905464E-12  3.35896440421656E-02
 cg2d: Sum(rhs),rhsMax =   4.15179002288824E-12  4.06887759106726E-02
 cg2d: Sum(rhs),rhsMax =   3.59329233035055E-12  4.73558726034143E-02
 cg2d: Sum(rhs),rhsMax =   3.19000381665546E-12  5.36498677617589E-02
 cg2d: Sum(rhs),rhsMax =   2.99327229669188E-12  5.94472049714129E-02
 cg2d: Sum(rhs),rhsMax =   2.82529555306610E-12  6.48624347456544E-02
 cg2d: Sum(rhs),rhsMax =   2.73220335245128E-12  6.97997587656423E-02
 cg2d: Sum(rhs),rhsMax =   2.63467025973796E-12  7.44030284188954E-02
 cg2d: Sum(rhs),rhsMax =   2.58065790958995E-12  7.85630804024265E-02
 cg2d: Sum(rhs),rhsMax =   2.51809684215232E-12  8.24202623363400E-02
 cg2d: Sum(rhs),rhsMax =   2.47418752152839E-12  8.59800732001291E-02
 cg2d: Sum(rhs),rhsMax =   2.43477460415420E-12  8.92284538393086E-02
 cg2d: Sum(rhs),rhsMax =   2.40041320154205E-12  9.22079080183449E-02
 cg2d: Sum(rhs),rhsMax =   2.39019914971550E-12  9.50286809413801E-02
 cg2d: Sum(rhs),rhsMax =   2.35389485681026E-12  9.76825640046683E-02
 cg2d: Sum(rhs),rhsMax =   2.34112729202707E-12  1.00165371659147E-01
 cg2d: Sum(rhs),rhsMax =   2.22838414387638E-12  1.02501555713806E-01
 cg2d: Sum(rhs),rhsMax =   2.24809060256348E-12  1.04710830874514E-01
 cg2d: Sum(rhs),rhsMax =   2.18502993476477E-12  1.06808653461904E-01
 cg2d: Sum(rhs),rhsMax =   2.11947126516066E-12  1.08860061845575E-01
 cg2d: Sum(rhs),rhsMax =   2.12629913676210E-12  1.10882783249205E-01
 cg2d: Sum(rhs),rhsMax =   2.12330153459561E-12  1.12833995767684E-01
 cg2d: Sum(rhs),rhsMax =   2.08466577333866E-12  1.14718587925741E-01
 cg2d: Sum(rhs),rhsMax =   2.01699767998775E-12  1.16538986646853E-01
 cg2d: Sum(rhs),rhsMax =   1.88454807314997E-12  1.18295463778625E-01
 cg2d: Sum(rhs),rhsMax =   1.83841830647680E-12  1.20079178132971E-01
 cg2d: Sum(rhs),rhsMax =   1.83458803704184E-12  1.21891578840006E-01
 cg2d: Sum(rhs),rhsMax =   1.71768155254881E-12  1.23656489049597E-01
 cg2d: Sum(rhs),rhsMax =   1.72328817882317E-12  1.25371230834500E-01
 cg2d: Sum(rhs),rhsMax =   1.66278102398110E-12  1.27033584446643E-01
 cg2d: Sum(rhs),rhsMax =   1.59255941767356E-12  1.28821903848419E-01
 cg2d: Sum(rhs),rhsMax =   1.50934820197790E-12  1.30646451499479E-01
 cg2d: Sum(rhs),rhsMax =   1.44090295250976E-12  1.32450825383338E-01
 cg2d: Sum(rhs),rhsMax =   1.34969813103680E-12  1.34247502075689E-01
 cg2d: Sum(rhs),rhsMax =   1.28591581827209E-12  1.36158514002096E-01
 cg2d: Sum(rhs),rhsMax =   1.22413190695170E-12  1.38297832484624E-01
 cg2d: Sum(rhs),rhsMax =   1.15413234524908E-12  1.40538105048121E-01
 cg2d: Sum(rhs),rhsMax =   1.06797903853817E-12  1.42944015763029E-01
 cg2d: Sum(rhs),rhsMax =   1.01671449037610E-12  1.45607367524460E-01
 cg2d: Sum(rhs),rhsMax =   9.22206755404886E-13  1.48653621693332E-01
 cg2d: Sum(rhs),rhsMax =   8.44241343500585E-13  1.52262206147303E-01
 cg2d: Sum(rhs),rhsMax =   7.74033614980851E-13  1.56740815155140E-01
 cg2d: Sum(rhs),rhsMax =   6.77249922809153E-13  1.61889980723416E-01
 cg2d: Sum(rhs),rhsMax =   6.05529515418368E-13  1.67801780689041E-01
 cg2d: Sum(rhs),rhsMax =   5.61575091984068E-13  1.74643434467153E-01
 cg2d: Sum(rhs),rhsMax =   4.52790582805562E-13  1.82629824256400E-01
 cg2d: Sum(rhs),rhsMax =   3.85039222727812E-13  1.92018058870770E-01
 cg2d: Sum(rhs),rhsMax =   3.26016991181177E-13  2.03113529010204E-01
 cg2d: Sum(rhs),rhsMax =   2.23709939461969E-13  2.15738988353035E-01
 cg2d: Sum(rhs),rhsMax =   1.10772502281975E-13  2.30238717402547E-01
 cg2d: Sum(rhs),rhsMax =   3.25295346215171E-14  2.44786411625629E-01
 cg2d: Sum(rhs),rhsMax =  -4.33542091116124E-14  2.59018189067604E-01
 cg2d: Sum(rhs),rhsMax =  -1.26398891353574E-13  2.72804066075986E-01
 cg2d: Sum(rhs),rhsMax =  -1.87294624254264E-13  2.86014304822156E-01
 cg2d: Sum(rhs),rhsMax =  -2.57793786317961E-13  2.98521617091435E-01
 cg2d: Sum(rhs),rhsMax =  -2.98927549380323E-13  3.10203396352551E-01
 cg2d: Sum(rhs),rhsMax =  -3.36231043007729E-13  3.20943922207662E-01
 cg2d: Sum(rhs),rhsMax =  -3.77919917582403E-13  3.30636480448395E-01
 cg2d: Sum(rhs),rhsMax =  -4.02233801821694E-13  3.39185342974822E-01
 cg2d: Sum(rhs),rhsMax =  -4.26325641456060E-13  3.46507554672908E-01
 cg2d: Sum(rhs),rhsMax =  -4.86388707088281E-13  3.52534479074255E-01
 cg2d: Sum(rhs),rhsMax =  -5.65436586441592E-13  3.57213060997359E-01
 cg2d: Sum(rhs),rhsMax =  -6.35713703900365E-13  3.60506772191896E-01
 cg2d: Sum(rhs),rhsMax =  -6.84785561588797E-13  3.62396214941457E-01
 cg2d: Sum(rhs),rhsMax =  -7.51843032276156E-13  3.62879368626789E-01
 cg2d: Sum(rhs),rhsMax =  -8.18234369148740E-13  3.61971474196715E-01
 cg2d: Sum(rhs),rhsMax =  -8.89732731934600E-13  3.59704562166072E-01
 cg2d: Sum(rhs),rhsMax =  -9.71445146547012E-13  3.56126640403928E-01
 cg2d: Sum(rhs),rhsMax =  -1.01207930924829E-12  3.51300566586277E-01
 cg2d: Sum(rhs),rhsMax =  -1.05182529352987E-12  3.45302638862602E-01
 cg2d: Sum(rhs),rhsMax =  -1.13598019879646E-12  3.38220945709798E-01
 cg2d: Sum(rhs),rhsMax =  -1.18494103418243E-12  3.37396948333734E-01
 cg2d: Sum(rhs),rhsMax =  -1.25233157177718E-12  3.42631333320570E-01
 cg2d: Sum(rhs),rhsMax =  -1.31306077122417E-12  3.46612805166169E-01
 cg2d: Sum(rhs),rhsMax =  -1.38189459875093E-12  3.49320198751674E-01
 cg2d: Sum(rhs),rhsMax =  -1.44684264569150E-12  3.50744801166359E-01
 cg2d: Sum(rhs),rhsMax =  -1.47570844433176E-12  3.50890383653935E-01
 cg2d: Sum(rhs),rhsMax =  -1.50446322066955E-12  3.49773027133692E-01
 cg2d: Sum(rhs),rhsMax =  -1.49924517245381E-12  3.47420746054438E-01
 cg2d: Sum(rhs),rhsMax =  -1.54265489271666E-12  3.43872919030151E-01
 cg2d: Sum(rhs),rhsMax =  -1.58573154607211E-12  3.39179540879586E-01
 cg2d: Sum(rhs),rhsMax =  -1.65611968583335E-12  3.33400314695900E-01
 cg2d: Sum(rhs),rhsMax =  -1.66344715779587E-12  3.26603605926567E-01
 cg2d: Sum(rhs),rhsMax =  -1.78879133727605E-12  3.18865283215556E-01
 cg2d: Sum(rhs),rhsMax =  -1.94289029309402E-12  3.10267472868696E-01
 cg2d: Sum(rhs),rhsMax =  -2.09143813378887E-12  3.00897256082977E-01
 cg2d: Sum(rhs),rhsMax =  -2.21123119814592E-12  2.90845337335098E-01
 cg2d: Sum(rhs),rhsMax =  -2.43494113760789E-12  2.80204711861893E-01
 cg2d: Sum(rhs),rhsMax =  -2.59803289992533E-12  2.69069358940781E-01
 cg2d: Sum(rhs),rhsMax =  -2.60858001865927E-12  2.57532986229711E-01
 cg2d: Sum(rhs),rhsMax =  -2.69961830667853E-12  2.45687849078233E-01
 cg2d: Sum(rhs),rhsMax =  -2.77844414142692E-12  2.33623663435589E-01
 cg2d: Sum(rhs),rhsMax =  -2.87958545897027E-12  2.21426628892711E-01
 cg2d: Sum(rhs),rhsMax =  -2.95041768794135E-12  2.09178573174031E-01
 cg2d: Sum(rhs),rhsMax =  -3.13948866903502E-12  1.96956227066988E-01
 cg2d: Sum(rhs),rhsMax =  -3.32911476164099E-12  1.84830634684428E-01
 cg2d: Sum(rhs),rhsMax =  -3.49886786210618E-12  1.72866700005190E-01
 cg2d: Sum(rhs),rhsMax =  -3.72013531091397E-12  1.61122867651407E-01
 cg2d: Sum(rhs),rhsMax =  -3.91398025101353E-12  1.49650932724627E-01
 cg2d: Sum(rhs),rhsMax =  -4.18143297764573E-12  1.38495972292456E-01
 cg2d: Sum(rhs),rhsMax =  -4.43223235890855E-12  1.27696388228641E-01
 cg2d: Sum(rhs),rhsMax =  -4.74076333745188E-12  1.17284050448348E-01
 cg2d: Sum(rhs),rhsMax =  -4.98145968919061E-12  1.09661053471820E-01
 cg2d: Sum(rhs),rhsMax =  -5.07760500312315E-12  1.06313289668323E-01
 cg2d: Sum(rhs),rhsMax =  -5.18851628328321E-12  1.03265085048878E-01
 cg2d: Sum(rhs),rhsMax =  -5.26334531514294E-12  1.00449039282688E-01
 cg2d: Sum(rhs),rhsMax =  -5.26967358638331E-12  9.78127873221004E-02
 cg2d: Sum(rhs),rhsMax =  -5.33706412397805E-12  9.53161375530304E-02
 cg2d: Sum(rhs),rhsMax =  -5.36437561038383E-12  9.29285810304333E-02
 cg2d: Sum(rhs),rhsMax =  -5.45297140774892E-12  9.06271807028294E-02
 cg2d: Sum(rhs),rhsMax =  -5.53768142452782E-12  8.83948105092462E-02
 cg2d: Sum(rhs),rhsMax =  -5.64254198920366E-12  8.62187030976510E-02
 cg2d: Sum(rhs),rhsMax =  -5.62661028880029E-12  8.40892659688093E-02
 cg2d: Sum(rhs),rhsMax =  -5.68983749005270E-12  8.19991220581544E-02
 cg2d: Sum(rhs),rhsMax =  -5.75223202403663E-12  7.99423325337396E-02
 cg2d: Sum(rhs),rhsMax =  -5.83211257065841E-12  7.79137614768044E-02
 cg2d: Sum(rhs),rhsMax =  -5.92431659285353E-12  7.59085550850385E-02
 cg2d: Sum(rhs),rhsMax =  -5.96972471456070E-12  7.39217152790866E-02
 cg2d: Sum(rhs),rhsMax =  -6.01244054543315E-12  7.19477640469883E-02
 cg2d: Sum(rhs),rhsMax =  -6.12753597861726E-12  6.99804890322195E-02
 cg2d: Sum(rhs),rhsMax =  -6.20238842924392E-12  6.80127815995199E-02
 cg2d: Sum(rhs),rhsMax =  -6.23361778862019E-12  6.63718655925850E-02
 cg2d: Sum(rhs),rhsMax =  -6.27983776091412E-12  6.48474921184590E-02
 cg2d: Sum(rhs),rhsMax =  -6.32013885670801E-12  6.32234764971540E-02
 cg2d: Sum(rhs),rhsMax =  -6.46827036376862E-12  6.14955775699016E-02
 cg2d: Sum(rhs),rhsMax =  -6.63782917520450E-12  5.96228899480157E-02
 cg2d: Sum(rhs),rhsMax =  -6.86437018337926E-12  5.76332518282739E-02
 cg2d: Sum(rhs),rhsMax =  -7.07262026722333E-12  5.54962998135264E-02
 cg2d: Sum(rhs),rhsMax =  -7.34712291006190E-12  5.31991273578521E-02
 cg2d: Sum(rhs),rhsMax =  -7.69029284697353E-12  5.07798837925458E-02
 cg2d: Sum(rhs),rhsMax =  -8.04106781160385E-12  4.82114646688861E-02
 cg2d: Sum(rhs),rhsMax =  -8.51657633305081E-12  4.54982623965122E-02
 cg2d: Sum(rhs),rhsMax =  -9.26292376135507E-12  4.26498133443647E-02
 cg2d: Sum(rhs),rhsMax =  -9.97590898776934E-12  3.96754676421158E-02
 cg2d: Sum(rhs),rhsMax =  -1.08671960319384E-11  3.65843235898060E-02
 cg2d: Sum(rhs),rhsMax =  -1.18702825346872E-11  3.34128781745083E-02
 cg2d: Sum(rhs),rhsMax =  -1.31807897929548E-11  3.01592337184904E-02
 cg2d: Sum(rhs),rhsMax =  -1.48107082154070E-11  2.68748735744619E-02
 cg2d: Sum(rhs),rhsMax =  -1.58402180261419E-11  2.51754747343093E-02
 cg2d: Sum(rhs),rhsMax =  -1.55667700951767E-11  2.56979659683428E-02
 cg2d: Sum(rhs),rhsMax =  -1.53566048766152E-11  2.61776748146476E-02
 cg2d: Sum(rhs),rhsMax =  -1.51223478184193E-11  2.66192256725931E-02
 cg2d: Sum(rhs),rhsMax =  -1.49427137330349E-11  2.70269500494001E-02
 cg2d: Sum(rhs),rhsMax =  -1.47721834764525E-11  2.74049422553922E-02
 cg2d: Sum(rhs),rhsMax =  -1.46052059335489E-11  2.77571164001990E-02
 cg2d: Sum(rhs),rhsMax =  -1.44750877950628E-11  2.80872646230743E-02
 cg2d: Sum(rhs),rhsMax =  -1.43212108838497E-11  2.83991165420182E-02
 cg2d: Sum(rhs),rhsMax =  -1.41763267791362E-11  2.86963996540502E-02
 cg2d: Sum(rhs),rhsMax =  -1.40409905924344E-11  2.89829004806794E-02
 cg2d: Sum(rhs),rhsMax =  -1.38580258379761E-11  2.92625261248675E-02
 cg2d: Sum(rhs),rhsMax =  -1.37805322708573E-11  2.95393659256698E-02
 cg2d: Sum(rhs),rhsMax =  -1.36486377755318E-11  2.98177526472111E-02
 cg2d: Sum(rhs),rhsMax =  -1.23812071706197E-11  3.31399306256200E-02
 cg2d: Sum(rhs),rhsMax =  -1.13048459482457E-11  3.65223392599143E-02
 cg2d: Sum(rhs),rhsMax =  -1.03719255406531E-11  3.98521985323586E-02
 cg2d: Sum(rhs),rhsMax =  -9.64606172715321E-12  4.31242125270872E-02
 cg2d: Sum(rhs),rhsMax =  -9.09872177601301E-12  4.63364049712228E-02
 cg2d: Sum(rhs),rhsMax =  -8.56803517024218E-12  4.94896127132710E-02
 cg2d: Sum(rhs),rhsMax =  -8.16746670295743E-12  5.25869109964276E-02
 cg2d: Sum(rhs),rhsMax =  -7.78321851413466E-12  5.56329549736018E-02
 cg2d: Sum(rhs),rhsMax =  -7.46969153198052E-12  5.86332783965099E-02
 cg2d: Sum(rhs),rhsMax =  -7.14561743109243E-12  6.15951487129771E-02
 cg2d: Sum(rhs),rhsMax =  -6.92013113479106E-12  6.45309841102249E-02
 cg2d: Sum(rhs),rhsMax =  -6.64079902179537E-12  6.74373019318467E-02
 cg2d: Sum(rhs),rhsMax =  -6.44151398887516E-12  7.03179370613447E-02
 cg2d: Sum(rhs),rhsMax =  -6.22568663288803E-12  7.31752707341319E-02
 cg2d: Sum(rhs),rhsMax =  -6.04960526118248E-12  7.60100342851383E-02
 cg2d: Sum(rhs),rhsMax =  -5.90461013416643E-12  7.88212354544927E-02
 cg2d: Sum(rhs),rhsMax =  -5.66846569682866E-12  8.16061925303993E-02
 cg2d: Sum(rhs),rhsMax =  -5.50337553306690E-12  8.43606636778284E-02
 cg2d: Sum(rhs),rhsMax =  -5.30575583468362E-12  8.70790460629543E-02
 cg2d: Sum(rhs),rhsMax =  -5.17175191561137E-12  8.97646866555282E-02
 cg2d: Sum(rhs),rhsMax =  -5.11313213991116E-12  9.24373066114192E-02
 cg2d: Sum(rhs),rhsMax =  -5.04862818218044E-12  9.50613101165897E-02
 cg2d: Sum(rhs),rhsMax =  -4.99611463311567E-12  9.76288022641091E-02
 cg2d: Sum(rhs),rhsMax =  -4.98867613885068E-12  1.00131544534184E-01
 cg2d: Sum(rhs),rhsMax =  -4.94926322147649E-12  1.02599584707922E-01
 cg2d: Sum(rhs),rhsMax =  -4.93538543366867E-12  1.05032782598032E-01
 cg2d: Sum(rhs),rhsMax =  -4.89697171701664E-12  1.07388412933499E-01
 cg2d: Sum(rhs),rhsMax =  -4.86455320469759E-12  1.09658566113319E-01
 cg2d: Sum(rhs),rhsMax =  -4.92639262716921E-12  1.11911516789786E-01
 cg2d: Sum(rhs),rhsMax =  -4.89919216306589E-12  1.14104675205625E-01
 cg2d: Sum(rhs),rhsMax =  -4.89108753498613E-12  1.16204042804935E-01
 cg2d: Sum(rhs),rhsMax =  -4.73654448995831E-12  1.18242162599152E-01
 cg2d: Sum(rhs),rhsMax =  -4.52571313758199E-12  1.20272142448881E-01
 cg2d: Sum(rhs),rhsMax =  -4.33686420109325E-12  1.22207921232771E-01
 cg2d: Sum(rhs),rhsMax =  -4.28546087505310E-12  1.24051072577423E-01
 cg2d: Sum(rhs),rhsMax =  -4.18454160211468E-12  1.25944786644380E-01
 cg2d: Sum(rhs),rhsMax =  -4.18021173231864E-12  1.27761194770434E-01
 cg2d: Sum(rhs),rhsMax =  -4.09372535870034E-12  1.29510450908800E-01
 cg2d: Sum(rhs),rhsMax =  -4.04831723699317E-12  1.32809785504881E-01
 cg2d: Sum(rhs),rhsMax =  -3.86624066095465E-12  1.39896443963850E-01
 cg2d: Sum(rhs),rhsMax =  -3.75388609086258E-12  1.47144339527254E-01
 cg2d: Sum(rhs),rhsMax =  -3.68816088780477E-12  1.54525607213555E-01
 cg2d: Sum(rhs),rhsMax =  -3.54116735934440E-12  1.62010041780261E-01
 cg2d: Sum(rhs),rhsMax =  -3.50919293623519E-12  1.69565308838963E-01
 cg2d: Sum(rhs),rhsMax =  -3.38440386826733E-12  1.77157191056489E-01
 cg2d: Sum(rhs),rhsMax =  -3.32711636019667E-12  1.84749866975994E-01
 cg2d: Sum(rhs),rhsMax =  -3.23052695705428E-12  1.92306219284564E-01
 cg2d: Sum(rhs),rhsMax =  -3.13848946831286E-12  1.99788168733329E-01
 cg2d: Sum(rhs),rhsMax =  -3.05955261126201E-12  2.07157029472868E-01
 cg2d: Sum(rhs),rhsMax =  -2.96784818942797E-12  2.14373880877599E-01
 cg2d: Sum(rhs),rhsMax =  -2.88835622086481E-12  2.21399950641963E-01
 cg2d: Sum(rhs),rhsMax =  -2.79953837889479E-12  2.28197003616891E-01
 cg2d: Sum(rhs),rhsMax =  -2.75335310107039E-12  2.34727730648317E-01
 cg2d: Sum(rhs),rhsMax =  -2.65121258280487E-12  2.40956131557008E-01
 cg2d: Sum(rhs),rhsMax =  -2.60103050209182E-12  2.46847886410797E-01
 cg2d: Sum(rhs),rhsMax =  -2.55506726887234E-12  2.52370709433340E-01
 cg2d: Sum(rhs),rhsMax =  -2.47402098807470E-12  2.57494680087284E-01
 cg2d: Sum(rhs),rhsMax =  -2.46380693624815E-12  2.62192546257290E-01
 cg2d: Sum(rhs),rhsMax =  -2.37343478204366E-12  2.66439994947406E-01
 cg2d: Sum(rhs),rhsMax =  -2.36166641798263E-12  2.70215886390375E-01
 cg2d: Sum(rhs),rhsMax =  -2.30060415162825E-12  2.74953400245088E-01
 cg2d: Sum(rhs),rhsMax =  -2.21178630965824E-12  2.85283850233627E-01
 cg2d: Sum(rhs),rhsMax =  -2.09898765035632E-12  2.95273662561097E-01
 cg2d: Sum(rhs),rhsMax =  -1.97619698383278E-12  3.04872377194369E-01
 cg2d: Sum(rhs),rhsMax =  -1.83986159640881E-12  3.14031291588141E-01
 cg2d: Sum(rhs),rhsMax =  -1.73483449827927E-12  3.22703887881398E-01
 cg2d: Sum(rhs),rhsMax =  -1.69042557729426E-12  3.30846242542035E-01
 cg2d: Sum(rhs),rhsMax =  -1.74327219326642E-12  3.38417413222576E-01
 cg2d: Sum(rhs),rhsMax =  -1.75137682134618E-12  3.45379797854220E-01
 cg2d: Sum(rhs),rhsMax =  -1.76492154224661E-12  3.51699461341530E-01
 cg2d: Sum(rhs),rhsMax =  -1.78301817754800E-12  3.57346425677486E-01
 cg2d: Sum(rhs),rhsMax =  -1.79412040779425E-12  3.62294919859096E-01
 cg2d: Sum(rhs),rhsMax =  -1.82909243306995E-12  3.66523586390865E-01
 cg2d: Sum(rhs),rhsMax =  -1.78068670919629E-12  3.70015641842448E-01
 cg2d: Sum(rhs),rhsMax =  -1.78113079840614E-12  3.72758989652237E-01
 cg2d: Sum(rhs),rhsMax =  -1.77302617032637E-12  3.74746284184701E-01
 cg2d: Sum(rhs),rhsMax =  -1.79467551930657E-12  3.75974945672837E-01
 cg2d: Sum(rhs),rhsMax =  -1.81765713591631E-12  3.76447126111803E-01
 cg2d: Sum(rhs),rhsMax =  -1.84163795324821E-12  3.76169627076808E-01
 cg2d: Sum(rhs),rhsMax =  -1.88626891883814E-12  3.75153771191081E-01
 cg2d: Sum(rhs),rhsMax =  -1.95732319241415E-12  3.73415229566884E-01
 cg2d: Sum(rhs),rhsMax =  -2.01283434364541E-12  3.70973808167220E-01
 cg2d: Sum(rhs),rhsMax =  -2.06146211212399E-12  3.67853196557130E-01
 cg2d: Sum(rhs),rhsMax =  -2.14972484258169E-12  3.64080682949064E-01
 cg2d: Sum(rhs),rhsMax =  -2.22155627227494E-12  3.59686839961301E-01
 cg2d: Sum(rhs),rhsMax =  -2.27462493285202E-12  3.54705185622723E-01
 cg2d: Sum(rhs),rhsMax =  -2.37732056262985E-12  3.49171824261889E-01
 cg2d: Sum(rhs),rhsMax =  -2.46724862762449E-12  3.43125072066072E-01
 cg2d: Sum(rhs),rhsMax =  -2.56239474083486E-12  3.36605073843874E-01
 cg2d: Sum(rhs),rhsMax =  -2.69639865990712E-12  3.29653414579902E-01
 cg2d: Sum(rhs),rhsMax =  -2.81075163144351E-12  3.22312732176056E-01
 cg2d: Sum(rhs),rhsMax =  -2.97950553118653E-12  3.14626333844308E-01
 cg2d: Sum(rhs),rhsMax =  -3.09163805667367E-12  3.06637821779944E-01
 cg2d: Sum(rhs),rhsMax =  -3.27793348020577E-12  2.98390732815026E-01
 cg2d: Sum(rhs),rhsMax =  -3.47244455412010E-12  2.89928194558509E-01
 cg2d: Sum(rhs),rhsMax =  -3.65851793304728E-12  2.81292602216934E-01
 cg2d: Sum(rhs),rhsMax =  -3.82527343134598E-12  2.72525318975180E-01
 cg2d: Sum(rhs),rhsMax =  -3.95583565904190E-12  2.63666402211487E-01
 cg2d: Sum(rhs),rhsMax =  -4.16711110062806E-12  2.54754357338453E-01
 cg2d: Sum(rhs),rhsMax =  -4.34008384786466E-12  2.45825920651914E-01
 cg2d: Sum(rhs),rhsMax =  -4.52715642751400E-12  2.36915872018580E-01
 cg2d: Sum(rhs),rhsMax =  -4.76663153392565E-12  2.28056877983133E-01
 cg2d: Sum(rhs),rhsMax =  -5.00333108277573E-12  2.19279365069878E-01
 cg2d: Sum(rhs),rhsMax =  -5.26656496191436E-12  2.10611423016182E-01
 cg2d: Sum(rhs),rhsMax =  -5.48650014309260E-12  2.02078737193780E-01
 cg2d: Sum(rhs),rhsMax =  -5.78603831513647E-12  1.93704548821269E-01
 cg2d: Sum(rhs),rhsMax =  -6.08957329006898E-12  1.85509641515260E-01
 cg2d: Sum(rhs),rhsMax =  -6.40165698229112E-12  1.77512352671157E-01
 cg2d: Sum(rhs),rhsMax =  -6.72562006087674E-12  1.69728607835808E-01
 cg2d: Sum(rhs),rhsMax =  -7.18081150097305E-12  1.62171975532924E-01
 cg2d: Sum(rhs),rhsMax =  -7.61279927985470E-12  1.54853740334555E-01
 cg2d: Sum(rhs),rhsMax =  -8.08042521782681E-12  1.47782991950465E-01
 cg2d: Sum(rhs),rhsMax =  -8.49909032041296E-12  1.40966727951970E-01
 cg2d: Sum(rhs),rhsMax =  -8.90398865749376E-12  1.34409967808583E-01
 cg2d: Sum(rhs),rhsMax =  -9.33231270039414E-12  1.28115876245837E-01
 cg2d: Sum(rhs),rhsMax =  -9.63329416237002E-12  1.24870487152522E-01
 cg2d: Sum(rhs),rhsMax =  -9.91895454660607E-12  1.22135885499895E-01
 cg2d: Sum(rhs),rhsMax =  -1.00671693203935E-11  1.19435342413623E-01
 cg2d: Sum(rhs),rhsMax =  -1.02143848934588E-11  1.16775593773148E-01
 cg2d: Sum(rhs),rhsMax =  -1.04354302976617E-11  1.14164907719983E-01
 cg2d: Sum(rhs),rhsMax =  -1.06302744384834E-11  1.11516873621578E-01
 cg2d: Sum(rhs),rhsMax =  -1.09030562356338E-11  1.08883444432696E-01
 cg2d: Sum(rhs),rhsMax =  -1.11956000026225E-11  1.06221501331148E-01
 cg2d: Sum(rhs),rhsMax =  -1.15106812970112E-11  1.03509824829386E-01
 cg2d: Sum(rhs),rhsMax =  -1.17496012919105E-11  1.00779753150960E-01
 cg2d: Sum(rhs),rhsMax =  -1.21094245741915E-11  9.79716788752730E-02
 cg2d: Sum(rhs),rhsMax =  -1.23917542893537E-11  9.51265749654243E-02
 cg2d: Sum(rhs),rhsMax =  -1.28018706746502E-11  9.22063449590825E-02
 cg2d: Sum(rhs),rhsMax =  -1.31160637906191E-11  8.92080826631505E-02
 cg2d: Sum(rhs),rhsMax =  -1.35415012536555E-11  8.61633748112043E-02
 cg2d: Sum(rhs),rhsMax =  -1.40296663175832E-11  8.30161775099923E-02
 cg2d: Sum(rhs),rhsMax =  -1.45168321807887E-11  7.98079617210840E-02
 cg2d: Sum(rhs),rhsMax =  -1.51143542126420E-11  7.65341599860849E-02
 cg2d: Sum(rhs),rhsMax =  -1.57736046446644E-11  7.31721070120413E-02
 cg2d: Sum(rhs),rhsMax =  -1.64374069910878E-11  6.97305671820335E-02
 cg2d: Sum(rhs),rhsMax =  -1.72628578098966E-11  6.62446264091904E-02
 cg2d: Sum(rhs),rhsMax =  -1.81755721584409E-11  6.26928285708538E-02
 cg2d: Sum(rhs),rhsMax =  -1.91869853338744E-11  5.90787313215711E-02
 cg2d: Sum(rhs),rhsMax =  -2.03725925018716E-11  5.54113863248925E-02
 cg2d: Sum(rhs),rhsMax =  -2.17111884026622E-11  5.16997617194447E-02
 cg2d: Sum(rhs),rhsMax =  -2.32808217148772E-11  4.79527264612622E-02
 cg2d: Sum(rhs),rhsMax =  -2.45599096615479E-11  4.52235773473386E-02
 cg2d: Sum(rhs),rhsMax =  -2.45443665392031E-11  4.51202676740565E-02
 cg2d: Sum(rhs),rhsMax =  -2.45208298110811E-11  4.50812245199580E-02
 cg2d: Sum(rhs),rhsMax =  -2.44524400727641E-11  4.51030721189210E-02
 cg2d: Sum(rhs),rhsMax =  -2.44151365791367E-11  4.51821229323206E-02
 cg2d: Sum(rhs),rhsMax =  -2.42934561356378E-11  4.53143493264102E-02
 cg2d: Sum(rhs),rhsMax =  -2.41617836849173E-11  4.54953557963205E-02
 cg2d: Sum(rhs),rhsMax =  -2.39945840974087E-11  4.57203522812949E-02
 cg2d: Sum(rhs),rhsMax =  -2.38241648631288E-11  4.59841290815018E-02
 cg2d: Sum(rhs),rhsMax =  -2.36251018748135E-11  4.62810338719437E-02
 cg2d: Sum(rhs),rhsMax =  -2.34381403174666E-11  4.66049513419829E-02
 cg2d: Sum(rhs),rhsMax =  -2.31903385383703E-11  4.69492859631629E-02
 cg2d: Sum(rhs),rhsMax =  -2.29168906074051E-11  4.73069483959755E-02
 cg2d: Sum(rhs),rhsMax =  -2.26363372490823E-11  4.76703458793139E-02
 cg2d: Sum(rhs),rhsMax =  -2.23365770324335E-11  4.80313771264047E-02
 cg2d: Sum(rhs),rhsMax =  -2.20565787856231E-11  4.83814321502968E-02
 cg2d: Sum(rhs),rhsMax =  -2.17991180662125E-11  4.87113974000082E-02
 cg2d: Sum(rhs),rhsMax =  -2.15614193166402E-11  4.90116665490476E-02
 cg2d: Sum(rhs),rhsMax =  -2.13229434109508E-11  4.92721572500706E-02
 cg2d: Sum(rhs),rhsMax =  -2.11324291399251E-11  4.94823341366311E-02
 cg2d: Sum(rhs),rhsMax =  -2.09481321178373E-11  4.96312383042544E-02
 cg2d: Sum(rhs),rhsMax =  -2.08176809124438E-11  4.97075234649054E-02
 cg2d: Sum(rhs),rhsMax =  -2.07145411934562E-11  4.96994989035394E-02
 cg2d: Sum(rhs),rhsMax =  -2.06616945774840E-11  4.95951792564401E-02
 cg2d: Sum(rhs),rhsMax =  -2.06643591127431E-11  4.93823410729638E-02
 cg2d: Sum(rhs),rhsMax =  -2.07144301711537E-11  4.90485860360084E-02
 cg2d: Sum(rhs),rhsMax =  -2.08268957635482E-11  4.85814106151160E-02
 cg2d: Sum(rhs),rhsMax =  -2.10080841611671E-11  4.79682818269920E-02
 cg2d: Sum(rhs),rhsMax =  -2.12683204381392E-11  4.71967186818707E-02
 cg2d: Sum(rhs),rhsMax =  -2.16552331622211E-11  4.62543787987612E-02
 cg2d: Sum(rhs),rhsMax =  -2.12420081524556E-11  4.69744590853302E-02
(PID.TID 0000.0001)      cg2d_init_res =   4.33202824872509E-01
(PID.TID 0000.0001)      cg2d_iters(min,last) =      -1      38
(PID.TID 0000.0001)      cg2d_last_res =   4.16710171924961E-14
(PID.TID 0000.0001) // =======================================================
(PID.TID 0000.0001) // Begin MONITOR dynamic field statistics
(PID.TID 0000.0001) // =======================================================
(PID.TID 0000.0001) %MON time_tsnumber                =                   480
(PID.TID 0000.0001) %MON time_secondsf                =   7.2000000000000E+03
(PID.TID 0000.0001) %MON dynstat_eta_max              =   1.8416137138055E-02
(PID.TID 0000.0001) %MON dynstat_eta_min              =  -1.2550599967029E-02
(PID.TID 0000.0001) %MON dynstat_eta_mean             =   2.0730942451454E-15
(PID.TID 0000.0001) %MON dynstat_eta_sd               =   9.8816579823320E-03
(PID.TID 0000.0001) %MON dynstat_eta_del2             =   6.9770928398317E-06
(PID.TID 0000.0001) %MON dynstat_uvel_max             =   7.9693247975814E-01
(PID.TID 0000.0001) %MON dynstat_uvel_min             =  -8.4028293573997E-02
(PID.TID 0000.0001) %MON dynstat_uvel_mean            =   1.1212086181928E-01
(PID.TID 0000.0001) %MON dynstat_uvel_sd              =   2.4762272589975E-02
(PID.TID 0000.0001) %MON dynstat_uvel_del2            =   1.1161801757011E-04
(PID.TID 0000.0001) %MON dynstat_vvel_max             =   0.0000000000000E+00
(PID.TID 0000.0001) %MON dynstat_vvel_min             =   0.0000000000000E+00
(PID.TID 0000.0001) %MON dynstat_vvel_mean            =   0.0000000000000E+00
(PID.TID 0000.0001) %MON dynstat_vvel_sd              =   0.0000000000000E+00
(PID.TID 0000.0001) %MON dynstat_vvel_del2            =   0.0000000000000E+00
(PID.TID 0000.0001) %MON dynstat_wvel_max             =   1.2202421850974E-02
(PID.TID 0000.0001) %MON dynstat_wvel_min             =  -1.2304497252919E-02
(PID.TID 0000.0001) %MON dynstat_wvel_mean            =   8.5965402364059E-21
(PID.TID 0000.0001) %MON dynstat_wvel_sd              =   5.9830190946740E-04
(PID.TID 0000.0001) %MON dynstat_wvel_del2            =   1.0657422413386E-05
(PID.TID 0000.0001) %MON dynstat_theta_max            =   1.5000000000002E+01
(PID.TID 0000.0001) %MON dynstat_theta_min            =   9.9999999999991E+00
(PID.TID 0000.0001) %MON dynstat_theta_mean           =   1.2567206919097E+01
(PID.TID 0000.0001) %MON dynstat_theta_sd             =   2.4831836318250E+00
(PID.TID 0000.0001) %MON dynstat_theta_del2           =   7.5462335000855E-04
(PID.TID 0000.0001) %MON dynstat_salt_max             =   3.5000000000000E+01
(PID.TID 0000.0001) %MON dynstat_salt_min             =   3.5000000000000E+01
(PID.TID 0000.0001) %MON dynstat_salt_mean            =   3.5000000000000E+01
(PID.TID 0000.0001) %MON dynstat_salt_sd              =   3.9790393202566E-13
(PID.TID 0000.0001) %MON dynstat_salt_del2            =   0.0000000000000E+00
(PID.TID 0000.0001) %MON dynstat_sst_max              =   1.5000000000000E+01
(PID.TID 0000.0001) %MON dynstat_sst_min              =   1.5000000000000E+01
(PID.TID 0000.0001) %MON dynstat_sst_mean             =   1.5000000000000E+01
(PID.TID 0000.0001) %MON dynstat_sst_sd               =   3.0350362207250E-14
(PID.TID 0000.0001) %MON dynstat_sst_del2             =   1.6910740528280E-15
(PID.TID 0000.0001) %MON dynstat_sss_max              =   3.5000000000000E+01
(PID.TID 0000.0001) %MON dynstat_sss_min              =   3.5000000000000E+01
(PID.TID 0000.0001) %MON dynstat_sss_mean             =   3.5000000000000E+01
(PID.TID 0000.0001) %MON dynstat_sss_sd               =   5.6843418860808E-14
(PID.TID 0000.0001) %MON dynstat_sss_del2             =   0.0000000000000E+00
(PID.TID 0000.0001) %MON forcing_qnet_max             =   0.0000000000000E+00
(PID.TID 0000.0001) %MON forcing_qnet_min             =   0.0000000000000E+00
(PID.TID 0000.0001) %MON forcing_qnet_mean            =   0.0000000000000E+00
(PID.TID 0000.0001) %MON forcing_qnet_sd              =   0.0000000000000E+00
(PID.TID 0000.0001) %MON forcing_qnet_del2            =   0.0000000000000E+00
(PID.TID 0000.0001) %MON forcing_qsw_max              =   0.0000000000000E+00
(PID.TID 0000.0001) %MON forcing_qsw_min              =   0.0000000000000E+00
(PID.TID 0000.0001) %MON forcing_qsw_mean             =   0.0000000000000E+00
(PID.TID 0000.0001) %MON forcing_qsw_sd               =   0.0000000000000E+00
(PID.TID 0000.0001) %MON forcing_qsw_del2             =   0.0000000000000E+00
(PID.TID 0000.0001) %MON forcing_empmr_max            =   0.0000000000000E+00
(PID.TID 0000.0001) %MON forcing_empmr_min            =   0.0000000000000E+00
(PID.TID 0000.0001) %MON forcing_empmr_mean           =   0.0000000000000E+00
(PID.TID 0000.0001) %MON forcing_empmr_sd             =   0.0000000000000E+00
(PID.TID 0000.0001) %MON forcing_empmr_del2           =   0.0000000000000E+00
(PID.TID 0000.0001) %MON forcing_fu_max               =   0.0000000000000E+00
(PID.TID 0000.0001) %MON forcing_fu_min               =   0.0000000000000E+00
(PID.TID 0000.0001) %MON forcing_fu_mean              =   0.0000000000000E+00
(PID.TID 0000.0001) %MON forcing_fu_sd                =   0.0000000000000E+00
(PID.TID 0000.0001) %MON forcing_fu_del2              =   0.0000000000000E+00
(PID.TID 0000.0001) %MON forcing_fv_max               =   0.0000000000000E+00
(PID.TID 0000.0001) %MON forcing_fv_min               =   0.0000000000000E+00
(PID.TID 0000.0001) %MON forcing_fv_mean              =   0.0000000000000E+00
(PID.TID 0000.0001) %MON forcing_fv_sd                =   0.0000000000000E+00
(PID.TID 0000.0001) %MON forcing_fv_del2              =   0.0000000000000E+00
(PID.TID 0000.0001) %MON advcfl_uvel_max              =   5.9769935981860E-02
(PID.TID 0000.0001) %MON advcfl_vvel_max              =   0.0000000000000E+00
(PID.TID 0000.0001) %MON advcfl_wvel_max              =   1.7292476367226E-01
(PID.TID 0000.0001) %MON advcfl_W_hf_max              =   1.7524066448828E-01
(PID.TID 0000.0001) %MON pe_b_mean                    =   2.4592156747692E-06
(PID.TID 0000.0001) %MON ke_max                       =   1.9991504750183E-01
(PID.TID 0000.0001) %MON ke_mean                      =   6.5985903782271E-03
(PID.TID 0000.0001) %MON ke_vol                       =   9.5121673331316E+10
(PID.TID 0000.0001) %MON vort_r_min                   =   0.0000000000000E+00
(PID.TID 0000.0001) %MON vort_r_max                   =   0.0000000000000E+00
(PID.TID 0000.0001) %MON vort_a_mean                  =   0.0000000000000E+00
(PID.TID 0000.0001) %MON vort_a_sd                    =   0.0000000000000E+00
(PID.TID 0000.0001) %MON vort_p_mean                  =   0.0000000000000E+00
(PID.TID 0000.0001) %MON vort_p_sd                    =   0.0000000000000E+00
(PID.TID 0000.0001) %MON surfExpan_theta_mean         =   2.8677642251579E-19
(PID.TID 0000.0001) %MON surfExpan_salt_mean          =   2.4301508531371E-19
(PID.TID 0000.0001) // =======================================================
(PID.TID 0000.0001) // End MONITOR dynamic field statistics
(PID.TID 0000.0001) // =======================================================
(PID.TID 0000.0001) // =======================================================
(PID.TID 0000.0001) // Begin OBCS MONITOR field statistics
(PID.TID 0000.0001) // =======================================================
(PID.TID 0000.0001) %MON obc_E_uVel_max               =   1.0505355776936E-01
(PID.TID 0000.0001) %MON obc_E_uVel_min               =   1.0505355776936E-01
(PID.TID 0000.0001) %MON obc_E_uVel_mean              =   1.0505355776936E-01
(PID.TID 0000.0001) %MON obc_E_uVel_sd                =  -6.9388939039072E-18
(PID.TID 0000.0001) %MON obc_E_uVel_Int               =   1.0505355776936E+05
(PID.TID 0000.0001) %MON obc_W_uVel_max               =   1.0505355776936E-01
(PID.TID 0000.0001) %MON obc_W_uVel_min               =   1.0505355776936E-01
(PID.TID 0000.0001) %MON obc_W_uVel_mean              =   1.0505355776936E-01
(PID.TID 0000.0001) %MON obc_W_uVel_sd                =  -6.9388939039072E-18
(PID.TID 0000.0001) %MON obc_W_uVel_Int               =   1.0505355776936E+05
(PID.TID 0000.0001) // =======================================================
(PID.TID 0000.0001) // End OBCS MONITOR field statistics
(PID.TID 0000.0001) // =======================================================
 cg2d: Sum(rhs),rhsMax =  -2.04110062185237E-11  4.88082924592876E-02
 cg2d: Sum(rhs),rhsMax =  -1.97727390016667E-11  5.06504850213446E-02
 cg2d: Sum(rhs),rhsMax =  -1.91862081777572E-11  5.24509882943855E-02
 cg2d: Sum(rhs),rhsMax =  -1.86227699927599E-11  5.42341314300247E-02
 cg2d: Sum(rhs),rhsMax =  -1.81831216750084E-11  5.60689782516560E-02
 cg2d: Sum(rhs),rhsMax =  -1.76570980059410E-11  5.79358481976717E-02
 cg2d: Sum(rhs),rhsMax =  -1.71603842247237E-11  5.98652002725981E-02
 cg2d: Sum(rhs),rhsMax =  -1.66404112711405E-11  6.18948245636002E-02
 cg2d: Sum(rhs),rhsMax =  -1.60259583381617E-11  6.40669405740528E-02
 cg2d: Sum(rhs),rhsMax =  -1.54272150609813E-11  6.64359193595465E-02
 cg2d: Sum(rhs),rhsMax =  -1.48509538000496E-11  6.91285739188159E-02
 cg2d: Sum(rhs),rhsMax =  -1.42007516856779E-11  7.23295651019551E-02
 cg2d: Sum(rhs),rhsMax =  -1.36045757992420E-11  7.57629677071844E-02
 cg2d: Sum(rhs),rhsMax =  -1.29339733367928E-11  7.94896358852006E-02
 cg2d: Sum(rhs),rhsMax =  -1.23056369781549E-11  8.35384501983279E-02
 cg2d: Sum(rhs),rhsMax =  -1.17301515722978E-11  8.79577608644301E-02
 cg2d: Sum(rhs),rhsMax =  -1.11339826247558E-11  9.27630600828624E-02
 cg2d: Sum(rhs),rhsMax =  -1.05684350160118E-11  9.82641580169242E-02
 cg2d: Sum(rhs),rhsMax =  -1.00679187209352E-11  1.03829955594593E-01
 cg2d: Sum(rhs),rhsMax =  -9.60426183027607E-12  1.09408611501569E-01
 cg2d: Sum(rhs),rhsMax =  -9.17588227622446E-12  1.14982912686594E-01
 cg2d: Sum(rhs),rhsMax =  -8.83543238572315E-12  1.20535153331324E-01
 cg2d: Sum(rhs),rhsMax =  -8.51063663986906E-12  1.26047250976366E-01
 cg2d: Sum(rhs),rhsMax =  -8.21187562394243E-12  1.31500868452815E-01
 cg2d: Sum(rhs),rhsMax =  -7.93798360376741E-12  1.36877540334048E-01
 cg2d: Sum(rhs),rhsMax =  -7.70289387830303E-12  1.42158802550736E-01
 cg2d: Sum(rhs),rhsMax =  -7.50333128962666E-12  1.47326323710343E-01
 cg2d: Sum(rhs),rhsMax =  -7.32325311503246E-12  1.52362036676700E-01
 cg2d: Sum(rhs),rhsMax =  -7.15172365772787E-12  1.57248268944462E-01
 cg2d: Sum(rhs),rhsMax =  -7.00706159761921E-12  1.61967870346716E-01
 cg2d: Sum(rhs),rhsMax =  -6.87949697208978E-12  1.66504336671463E-01
 cg2d: Sum(rhs),rhsMax =  -6.74971190051110E-12  1.70841927822415E-01
 cg2d: Sum(rhs),rhsMax =  -6.65734134486229E-12  1.74965779238113E-01
 cg2d: Sum(rhs),rhsMax =  -6.56796839137996E-12  1.78862005377556E-01
 cg2d: Sum(rhs),rhsMax =  -6.47981668322473E-12  1.82517794163677E-01
 cg2d: Sum(rhs),rhsMax =  -6.39710506789015E-12  1.85921491458771E-01
 cg2d: Sum(rhs),rhsMax =  -6.31428243025312E-12  1.89062674758772E-01
 cg2d: Sum(rhs),rhsMax =  -6.27564666899616E-12  1.91932215338854E-01
 cg2d: Sum(rhs),rhsMax =  -6.21669382638856E-12  1.94522328292313E-01
 cg2d: Sum(rhs),rhsMax =  -6.23323614945548E-12  1.96826610053603E-01
 cg2d: Sum(rhs),rhsMax =  -6.26487750565730E-12  1.98840063146884E-01
 cg2d: Sum(rhs),rhsMax =  -6.28674889924241E-12  2.00559108048664E-01
 cg2d: Sum(rhs),rhsMax =  -6.27831120425526E-12  2.01981582211582E-01
 cg2d: Sum(rhs),rhsMax =  -6.33448848930129E-12  2.03106726487671E-01
 cg2d: Sum(rhs),rhsMax =  -6.32038865688855E-12  2.03935159291450E-01
 cg2d: Sum(rhs),rhsMax =  -6.37701003114444E-12  2.04468838981585E-01
 cg2d: Sum(rhs),rhsMax =  -6.35203001309037E-12  2.06208887451103E-01
 cg2d: Sum(rhs),rhsMax =  -6.26643181789177E-12  2.10049673357532E-01
 cg2d: Sum(rhs),rhsMax =  -6.18582962630398E-12  2.13496837081655E-01
 cg2d: Sum(rhs),rhsMax =  -6.15396622549724E-12  2.16539938630037E-01
 cg2d: Sum(rhs),rhsMax =  -6.10866912609254E-12  2.19170484665616E-01
 cg2d: Sum(rhs),rhsMax =  -6.02751182299244E-12  2.21381961582158E-01
 cg2d: Sum(rhs),rhsMax =  -5.99686966751278E-12  2.23169853176258E-01
 cg2d: Sum(rhs),rhsMax =  -5.94047033786183E-12  2.24531642703938E-01
 cg2d: Sum(rhs),rhsMax =  -5.93614046806579E-12  2.25466799634013E-01
 cg2d: Sum(rhs),rhsMax =  -5.91438009678313E-12  2.25976751375628E-01
 cg2d: Sum(rhs),rhsMax =  -5.87918602690252E-12  2.26064840472360E-01
 cg2d: Sum(rhs),rhsMax =  -5.93269877668945E-12  2.25736267999497E-01
 cg2d: Sum(rhs),rhsMax =  -6.06814598569372E-12  2.24998024034464E-01
 cg2d: Sum(rhs),rhsMax =  -6.24067464372047E-12  2.23858806270153E-01
 cg2d: Sum(rhs),rhsMax =  -6.44495568025150E-12  2.22328928030750E-01
 cg2d: Sum(rhs),rhsMax =  -6.63191723759837E-12  2.20420216714324E-01
 cg2d: Sum(rhs),rhsMax =  -6.78945788479268E-12  2.18145904066655E-01
 cg2d: Sum(rhs),rhsMax =  -6.85251855259139E-12  2.15520509951281E-01
 cg2d: Sum(rhs),rhsMax =  -6.95687951690616E-12  2.12559720803255E-01
 cg2d: Sum(rhs),rhsMax =  -7.12374603750732E-12  2.09280264062433E-01
 cg2d: Sum(rhs),rhsMax =  -7.21489534782904E-12  2.05699779665124E-01
 cg2d: Sum(rhs),rhsMax =  -7.35755900649337E-12  2.01836689509412E-01
 cg2d: Sum(rhs),rhsMax =  -7.47202300033223E-12  1.97710066456075E-01
 cg2d: Sum(rhs),rhsMax =  -7.59114993087451E-12  1.93339503588358E-01
 cg2d: Sum(rhs),rhsMax =  -7.76534392343819E-12  1.88744984937757E-01
 cg2d: Sum(rhs),rhsMax =  -7.89279752666516E-12  1.83946758291701E-01
 cg2d: Sum(rhs),rhsMax =  -8.06310573864266E-12  1.78965210896918E-01
 cg2d: Sum(rhs),rhsMax =  -8.27116153345742E-12  1.73820748682284E-01
 cg2d: Sum(rhs),rhsMax =  -8.43214387202806E-12  1.68533680292410E-01
 cg2d: Sum(rhs),rhsMax =  -8.63886739921327E-12  1.63124106308376E-01
 cg2d: Sum(rhs),rhsMax =  -8.85891360269397E-12  1.57611814291082E-01
 cg2d: Sum(rhs),rhsMax =  -9.18587428344608E-12  1.52016180434470E-01
 cg2d: Sum(rhs),rhsMax =  -9.45910016980633E-12  1.46356078489288E-01
 cg2d: Sum(rhs),rhsMax =  -9.81781322906272E-12  1.40649796461669E-01
 cg2d: Sum(rhs),rhsMax =  -1.01699759724738E-11  1.34914961398612E-01
 cg2d: Sum(rhs),rhsMax =  -1.05446762432848E-11  1.29168472812586E-01
 cg2d: Sum(rhs),rhsMax =  -1.09869890962955E-11  1.23426444851283E-01
 cg2d: Sum(rhs),rhsMax =  -1.14854792343522E-11  1.17704157154058E-01
 cg2d: Sum(rhs),rhsMax =  -1.19649845586878E-11  1.12016014206049E-01
 cg2d: Sum(rhs),rhsMax =  -1.25559562746957E-11  1.06375513256204E-01
 cg2d: Sum(rhs),rhsMax =  -1.31747945886218E-11  1.00795220544446E-01
 cg2d: Sum(rhs),rhsMax =  -1.38747902056480E-11  9.52867549252313E-02
 cg2d: Sum(rhs),rhsMax =  -1.46103129594621E-11  8.98607784879812E-02
 cg2d: Sum(rhs),rhsMax =  -1.54328771984069E-11  8.45269939795084E-02
 cg2d: Sum(rhs),rhsMax =  -1.63722368995423E-11  7.92941483823809E-02
 cg2d: Sum(rhs),rhsMax =  -1.74170677880170E-11  7.41700420444517E-02
 cg2d: Sum(rhs),rhsMax =  -1.85861326329473E-11  6.91615428402027E-02
 cg2d: Sum(rhs),rhsMax =  -1.98732141853952E-11  6.42746047504978E-02
 cg2d: Sum(rhs),rhsMax =  -2.13795647852066E-11  5.95142907381813E-02
 cg2d: Sum(rhs),rhsMax =  -2.31555885576995E-11  5.48847993981770E-02
 cg2d: Sum(rhs),rhsMax =  -2.44289033446421E-11  5.18819392936125E-02
 cg2d: Sum(rhs),rhsMax =  -2.51205722889836E-11  5.04670732373521E-02
 cg2d: Sum(rhs),rhsMax =  -2.56804577603020E-11  4.93338881649556E-02
 cg2d: Sum(rhs),rhsMax =  -2.62802002382045E-11  4.81816759784812E-02
 cg2d: Sum(rhs),rhsMax =  -2.69503308558683E-11  4.70221967437535E-02
 cg2d: Sum(rhs),rhsMax =  -2.76538791865732E-11  4.58205185282808E-02
 cg2d: Sum(rhs),rhsMax =  -2.84070544864790E-11  4.46053801071774E-02
 cg2d: Sum(rhs),rhsMax =  -2.91827673137846E-11  4.33412419372557E-02
 cg2d: Sum(rhs),rhsMax =  -3.00168223610342E-11  4.20271474028075E-02
 cg2d: Sum(rhs),rhsMax =  -3.09465786330065E-11  4.06623818968955E-02
 cg2d: Sum(rhs),rhsMax =  -3.20167226064427E-11  3.92461569932753E-02
 cg2d: Sum(rhs),rhsMax =  -3.32288641047285E-11  3.77776327633097E-02
 cg2d: Sum(rhs),rhsMax =  -3.45967976489447E-11  3.62559394909889E-02
 cg2d: Sum(rhs),rhsMax =  -3.60809715438393E-11  3.46801985508382E-02
 cg2d: Sum(rhs),rhsMax =  -3.77360365177992E-11  3.30495425612788E-02
 cg2d: Sum(rhs),rhsMax =  -3.97599071721988E-11  3.13631351772390E-02
 cg2d: Sum(rhs),rhsMax =  -4.21380152992867E-11  2.96201910174013E-02
 cg2d: Sum(rhs),rhsMax =  -4.48134862551797E-11  2.78498403898713E-02
 cg2d: Sum(rhs),rhsMax =  -4.79601358627235E-11  2.60256253379334E-02
 cg2d: Sum(rhs),rhsMax =  -5.17210718697925E-11  2.41590973406257E-02
 cg2d: Sum(rhs),rhsMax =  -5.61278801214371E-11  2.22673496977313E-02
 cg2d: Sum(rhs),rhsMax =  -6.13832318308027E-11  2.03388398914116E-02
 cg2d: Sum(rhs),rhsMax =  -6.78836986622855E-11  1.83917355165698E-02
 cg2d: Sum(rhs),rhsMax =  -7.16580128568012E-11  1.74036193377090E-02
 cg2d: Sum(rhs),rhsMax =  -6.51465548173746E-11  1.91239004952034E-02
 cg2d: Sum(rhs),rhsMax =  -5.99182925498098E-11  2.07819553984477E-02
 cg2d: Sum(rhs),rhsMax =  -5.56203971768809E-11  2.23837271996593E-02
 cg2d: Sum(rhs),rhsMax =  -5.20630205613770E-11  2.39352909405663E-02
 cg2d: Sum(rhs),rhsMax =  -4.90252283213977E-11  2.54428368255312E-02
 cg2d: Sum(rhs),rhsMax =  -4.64086546969611E-11  2.69126507305029E-02
 cg2d: Sum(rhs),rhsMax =  -4.41333636302943E-11  2.83510926153964E-02
 cg2d: Sum(rhs),rhsMax =  -4.20831147707190E-11  2.97645735626099E-02
 cg2d: Sum(rhs),rhsMax =  -4.02811117794499E-11  3.11595321516373E-02
 cg2d: Sum(rhs),rhsMax =  -3.86735088397927E-11  3.25424108914564E-02
 cg2d: Sum(rhs),rhsMax =  -3.71689345968207E-11  3.39196330506516E-02
 cg2d: Sum(rhs),rhsMax =  -3.57922580462855E-11  3.52975801794181E-02
 cg2d: Sum(rhs),rhsMax =  -3.45277140212374E-11  3.66825704168418E-02
 cg2d: Sum(rhs),rhsMax =  -3.33462146784314E-11  3.80808374920636E-02
 cg2d: Sum(rhs),rhsMax =  -3.22430970811638E-11  3.94985102083683E-02
 cg2d: Sum(rhs),rhsMax =  -3.11609626990617E-11  4.09415921416721E-02
 cg2d: Sum(rhs),rhsMax =  -3.01577651740104E-11  4.24159412950545E-02
 cg2d: Sum(rhs),rhsMax =  -2.91766610871491E-11  4.39272495225122E-02
 cg2d: Sum(rhs),rhsMax =  -2.83240098042370E-11  4.54810216235687E-02
 cg2d: Sum(rhs),rhsMax =  -2.74388289867034E-11  4.70825542688599E-02
 cg2d: Sum(rhs),rhsMax =  -2.65810706778780E-11  4.87369148506714E-02
 cg2d: Sum(rhs),rhsMax =  -2.57294185956880E-11  5.04489205810870E-02
 cg2d: Sum(rhs),rhsMax =  -2.49213982783658E-11  5.22231181473462E-02
 cg2d: Sum(rhs),rhsMax =  -2.41285880164810E-11  5.40637643170681E-02
 cg2d: Sum(rhs),rhsMax =  -2.33981722885801E-11  5.59748077370409E-02
 cg2d: Sum(rhs),rhsMax =  -2.26534346836615E-11  5.79598720366543E-02
 cg2d: Sum(rhs),rhsMax =  -2.19084750341381E-11  6.00222401852053E-02
 cg2d: Sum(rhs),rhsMax =  -2.11997086552174E-11  6.21648398822679E-02
 cg2d: Sum(rhs),rhsMax =  -2.05440109368737E-11  6.43902296077203E-02
 cg2d: Sum(rhs),rhsMax =  -1.98947525120730E-11  6.67005848505142E-02
 cg2d: Sum(rhs),rhsMax =  -1.92317273217668E-11  6.90976839957378E-02
 cg2d: Sum(rhs),rhsMax =  -1.86286541747904E-11  7.15828933908993E-02
 cg2d: Sum(rhs),rhsMax =  -1.80742087962926E-11  7.41571512351750E-02
 cg2d: Sum(rhs),rhsMax =  -1.74584791068355E-11  7.68209501250717E-02
 cg2d: Sum(rhs),rhsMax =  -1.68698388591793E-11  7.95743183375387E-02
 cg2d: Sum(rhs),rhsMax =  -1.63016267151761E-11  8.24168001885127E-02
 cg2d: Sum(rhs),rhsMax =  -1.57528434741039E-11  8.53474360405860E-02
 cg2d: Sum(rhs),rhsMax =  -1.52134971287410E-11  8.83647427489547E-02
 cg2d: Sum(rhs),rhsMax =  -1.46895828834204E-11  9.14666954845046E-02
 cg2d: Sum(rhs),rhsMax =  -1.42468259411999E-11  9.46507118877070E-02
 cg2d: Sum(rhs),rhsMax =  -1.37309053016565E-11  9.79136395774743E-02
 cg2d: Sum(rhs),rhsMax =  -1.33340005703531E-11  1.01251747886355E-01
 cg2d: Sum(rhs),rhsMax =  -1.29736221765597E-11  1.04660724530422E-01
 cg2d: Sum(rhs),rhsMax =  -1.26081367568531E-11  1.08135677764283E-01
 cg2d: Sum(rhs),rhsMax =  -1.22548637904174E-11  1.11671144324990E-01
 cg2d: Sum(rhs),rhsMax =  -1.19080301175245E-11  1.15261103313404E-01
 cg2d: Sum(rhs),rhsMax =  -1.16414655693120E-11  1.18898995899874E-01
 cg2d: Sum(rhs),rhsMax =  -1.13131726209303E-11  1.22577750564003E-01
 cg2d: Sum(rhs),rhsMax =  -1.10862430346970E-11  1.26289813499835E-01
 cg2d: Sum(rhs),rhsMax =  -1.07669428928148E-11  1.30027183754663E-01
 cg2d: Sum(rhs),rhsMax =  -1.04991570992752E-11  1.33781452572198E-01
 cg2d: Sum(rhs),rhsMax =  -1.02466923834754E-11  1.37543846412293E-01
 cg2d: Sum(rhs),rhsMax =  -1.00284225368341E-11  1.41305273136790E-01
 cg2d: Sum(rhs),rhsMax =  -9.89119897099044E-12  1.45056370898650E-01
 cg2d: Sum(rhs),rhsMax =  -9.84778925072760E-12  1.48787559313784E-01
 cg2d: Sum(rhs),rhsMax =  -9.70645785969282E-12  1.52489092534153E-01
 cg2d: Sum(rhs),rhsMax =  -9.63251700625278E-12  1.56151113901696E-01
 cg2d: Sum(rhs),rhsMax =  -9.55191481466500E-12  1.59763711881488E-01
 cg2d: Sum(rhs),rhsMax =  -9.41691169487058E-12  1.63316976972981E-01
 cg2d: Sum(rhs),rhsMax =  -9.37039335013878E-12  1.66801059271357E-01
 cg2d: Sum(rhs),rhsMax =  -9.14912590133099E-12  1.72836715536967E-01
 cg2d: Sum(rhs),rhsMax =  -8.88833451284654E-12  1.79548763681569E-01
 cg2d: Sum(rhs),rhsMax =  -8.66240412733532E-12  1.86231911695977E-01
 cg2d: Sum(rhs),rhsMax =  -8.49642578515386E-12  1.92867544846534E-01
 cg2d: Sum(rhs),rhsMax =  -8.28415114284553E-12  1.99436869439493E-01
 cg2d: Sum(rhs),rhsMax =  -8.16247069934661E-12  2.05921006977708E-01
 cg2d: Sum(rhs),rhsMax =  -8.09086131425829E-12  2.12301090618231E-01
 cg2d: Sum(rhs),rhsMax =  -8.02946598099652E-12  2.18558363048799E-01
 cg2d: Sum(rhs),rhsMax =  -7.91600118787983E-12  2.24674275013333E-01
 cg2d: Sum(rhs),rhsMax =  -7.86992693235788E-12  2.30630583676635E-01
 cg2d: Sum(rhs),rhsMax =  -7.85793652369193E-12  2.36409450037248E-01
 cg2d: Sum(rhs),rhsMax =  -7.78566100478884E-12  2.41993534629444E-01
 cg2d: Sum(rhs),rhsMax =  -7.80775444297888E-12  2.47366090790710E-01
 cg2d: Sum(rhs),rhsMax =  -7.77589104217213E-12  2.52511054803769E-01
 cg2d: Sum(rhs),rhsMax =  -7.77322650691303E-12  2.57413132235385E-01
 cg2d: Sum(rhs),rhsMax =  -7.77078401625886E-12  2.62057879808924E-01
 cg2d: Sum(rhs),rhsMax =  -7.78643816090607E-12  2.66431782307180E-01
 cg2d: Sum(rhs),rhsMax =  -7.73425767874869E-12  2.70522323755595E-01
 cg2d: Sum(rhs),rhsMax =  -7.70239427794195E-12  2.74318052263588E-01
 cg2d: Sum(rhs),rhsMax =  -7.68851649013413E-12  2.77808637928911E-01
 cg2d: Sum(rhs),rhsMax =  -7.65920660228403E-12  2.80984923387959E-01
 cg2d: Sum(rhs),rhsMax =  -7.57049978261648E-12  2.83838966357495E-01
 cg2d: Sum(rhs),rhsMax =  -7.52164996953297E-12  2.86364073727653E-01
 cg2d: Sum(rhs),rhsMax =  -7.58781926180063E-12  2.88554826856686E-01
 cg2d: Sum(rhs),rhsMax =  -7.57494067471498E-12  2.90407097811469E-01
 cg2d: Sum(rhs),rhsMax =  -7.47202300033223E-12  2.91918056490508E-01
 cg2d: Sum(rhs),rhsMax =  -7.47768513775782E-12  2.93086168630915E-01
 cg2d: Sum(rhs),rhsMax =  -7.48934247951638E-12  2.93911184877040E-01
 cg2d: Sum(rhs),rhsMax =  -7.50310924502173E-12  2.94394121255592E-01
 cg2d: Sum(rhs),rhsMax =  -7.49078576944839E-12  2.94537231459198E-01
 cg2d: Sum(rhs),rhsMax =  -7.49600381766413E-12  2.94343971542863E-01
 cg2d: Sum(rhs),rhsMax =  -7.49056372484347E-12  2.93818957865227E-01
 cg2d: Sum(rhs),rhsMax =  -7.55007167896338E-12  2.92967918885331E-01
 cg2d: Sum(rhs),rhsMax =  -7.60003171507151E-12  2.91797641400975E-01
 cg2d: Sum(rhs),rhsMax =  -7.67963470593713E-12  2.90315912139530E-01
 cg2d: Sum(rhs),rhsMax =  -7.75446373779687E-12  2.88531455368376E-01
 cg2d: Sum(rhs),rhsMax =  -7.87403475754900E-12  2.86453867103189E-01
 cg2d: Sum(rhs),rhsMax =  -8.02347077666354E-12  2.84093546455933E-01
 cg2d: Sum(rhs),rhsMax =  -8.17768075478398E-12  2.81461624930155E-01
 cg2d: Sum(rhs),rhsMax =  -8.33011437606501E-12  2.78569893878063E-01
 cg2d: Sum(rhs),rhsMax =  -8.53417336799112E-12  2.75430730324030E-01
 cg2d: Sum(rhs),rhsMax =  -8.73112693255962E-12  2.72057021642900E-01
 cg2d: Sum(rhs),rhsMax =  -8.94539997631227E-12  2.68462089027401E-01
 cg2d: Sum(rhs),rhsMax =  -9.22584231233259E-12  2.64659610654727E-01
 cg2d: Sum(rhs),rhsMax =  -9.47564249287325E-12  2.60663544786833E-01
 cg2d: Sum(rhs),rhsMax =  -9.76219105552900E-12  2.56488053221619E-01
 cg2d: Sum(rhs),rhsMax =  -1.00613961606655E-11  2.52147425627740E-01
 cg2d: Sum(rhs),rhsMax =  -1.03498321024631E-11  2.47656005606722E-01
 cg2d: Sum(rhs),rhsMax =  -1.06444852931986E-11  2.43028118477028E-01
 cg2d: Sum(rhs),rhsMax =  -1.09908748768817E-11  2.38278001994522E-01
 cg2d: Sum(rhs),rhsMax =  -1.13248299626889E-11  2.33419740778370E-01
 cg2d: Sum(rhs),rhsMax =  -1.16386900117504E-11  2.28467205099074E-01
 cg2d: Sum(rhs),rhsMax =  -1.19764198558414E-11  2.23433994516005E-01
 cg2d: Sum(rhs),rhsMax =  -1.22838406113601E-11  2.18333386777438E-01
 cg2d: Sum(rhs),rhsMax =  -1.25994770172611E-11  2.13178292403832E-01
 cg2d: Sum(rhs),rhsMax =  -1.29120047986930E-11  2.07981215119334E-01
 cg2d: Sum(rhs),rhsMax =  -1.32733823932085E-11  2.02754218116765E-01
 cg2d: Sum(rhs),rhsMax =  -1.36710642806293E-11  1.97508895954717E-01
 cg2d: Sum(rhs),rhsMax =  -1.41292533228921E-11  1.92256351547449E-01
 cg2d: Sum(rhs),rhsMax =  -1.46473944084846E-11  1.87007177990799E-01
 cg2d: Sum(rhs),rhsMax =  -1.49033008156607E-11  1.81771444571617E-01
 cg2d: Sum(rhs),rhsMax =  -1.52744483727929E-11  1.76558686056061E-01
 cg2d: Sum(rhs),rhsMax =  -1.56596957623378E-11  1.71377894572096E-01
 cg2d: Sum(rhs),rhsMax =  -1.60672586346777E-11  1.66237513416947E-01
 cg2d: Sum(rhs),rhsMax =  -1.65207847402371E-11  1.61145432192892E-01
 cg2d: Sum(rhs),rhsMax =  -1.69403380212430E-11  1.56108982770145E-01
 cg2d: Sum(rhs),rhsMax =  -1.74434910960031E-11  1.51134935699844E-01
 cg2d: Sum(rhs),rhsMax =  -1.80053749687659E-11  1.46229496861529E-01
 cg2d: Sum(rhs),rhsMax =  -1.86479720554189E-11  1.41398304206332E-01
 cg2d: Sum(rhs),rhsMax =  -1.92702520607213E-11  1.36646424966020E-01
 cg2d: Sum(rhs),rhsMax =  -1.99065208761340E-11  1.31978353441241E-01
 cg2d: Sum(rhs),rhsMax =  -2.06632488897185E-11  1.27398009535393E-01
 cg2d: Sum(rhs),rhsMax =  -2.14239737061916E-11  1.22908738513178E-01
 cg2d: Sum(rhs),rhsMax =  -2.22090124069041E-11  1.18513312507711E-01
 cg2d: Sum(rhs),rhsMax =  -2.30683250279640E-11  1.14213934223567E-01
 cg2d: Sum(rhs),rhsMax =  -2.39434028159735E-11  1.10012243238119E-01
 cg2d: Sum(rhs),rhsMax =  -2.48794318480350E-11  1.05909325235515E-01
 cg2d: Sum(rhs),rhsMax =  -2.58036925160354E-11  1.01905724421842E-01
 cg2d: Sum(rhs),rhsMax =  -2.67895705619026E-11  9.80014592667409E-02
 cg2d: Sum(rhs),rhsMax =  -2.78415068777349E-11  9.41960416038643E-02
 cg2d: Sum(rhs),rhsMax =  -2.89217538806952E-11  9.04884990142479E-02
 cg2d: Sum(rhs),rhsMax =  -3.00857116997122E-11  8.68774002796085E-02
 cg2d: Sum(rhs),rhsMax =  -3.12820880310483E-11  8.33608835862138E-02
 cg2d: Sum(rhs),rhsMax =  -3.24983373545251E-11  7.99366871026529E-02
 cg2d: Sum(rhs),rhsMax =  -3.38504779762161E-11  7.66021814196345E-02
 cg2d: Sum(rhs),rhsMax =  -3.50054429887336E-11  7.39001360057199E-02
 cg2d: Sum(rhs),rhsMax =  -3.56767948517245E-11  7.25474012878211E-02
 cg2d: Sum(rhs),rhsMax =  -3.62103680373593E-11  7.12487808594151E-02
 cg2d: Sum(rhs),rhsMax =  -3.67981201065959E-11  7.00017947414718E-02
 cg2d: Sum(rhs),rhsMax =  -3.73969744060787E-11  6.88036756879731E-02
 cg2d: Sum(rhs),rhsMax =  -3.79893894120187E-11  6.76513660129209E-02
 cg2d: Sum(rhs),rhsMax =  -3.85105280997777E-11  6.65415164625426E-02
 cg2d: Sum(rhs),rhsMax =  -3.91713328440346E-11  6.54704872881318E-02
 cg2d: Sum(rhs),rhsMax =  -3.96962462900774E-11  6.44343515160726E-02
 cg2d: Sum(rhs),rhsMax =  -4.02309296987369E-11  6.34289003471162E-02
 cg2d: Sum(rhs),rhsMax =  -4.08033606902336E-11  6.24496507533403E-02
 cg2d: Sum(rhs),rhsMax =  -4.13353795636340E-11  6.14918553521751E-02
 cg2d: Sum(rhs),rhsMax =  -4.19264623019444E-11  6.05505146357579E-02
 cg2d: Sum(rhs),rhsMax =  -4.24840163049112E-11  5.96203916200471E-02
 cg2d: Sum(rhs),rhsMax =  -4.30642188575803E-11  5.86960289580928E-02
 cg2d: Sum(rhs),rhsMax =  -4.36968239370117E-11  5.77717685231984E-02
 cg2d: Sum(rhs),rhsMax =  -4.43530767668676E-11  5.68417734073346E-02
 cg2d: Sum(rhs),rhsMax =  -4.49653647649484E-11  5.59000521982732E-02
 cg2d: Sum(rhs),rhsMax =  -4.56736870546592E-11  5.49404853206614E-02
 cg2d: Sum(rhs),rhsMax =  -4.64477345474279E-11  5.39568531298924E-02
 cg2d: Sum(rhs),rhsMax =  -4.72422101438497E-11  5.29428653657006E-02
 cg2d: Sum(rhs),rhsMax =  -4.81149564635075E-11  5.18921915277341E-02
 cg2d: Sum(rhs),rhsMax =  -4.90683049747531E-11  5.07984917145317E-02
 cg2d: Sum(rhs),rhsMax =  -5.00863794883344E-11  4.96554474926759E-02
 cg2d: Sum(rhs),rhsMax =  -5.12515585526785E-11  4.84567923997995E-02
 cg2d: Sum(rhs),rhsMax =  -5.25162136000290E-11  4.71963417668729E-02
 cg2d: Sum(rhs),rhsMax =  -5.39635003349304E-11  4.58680217416876E-02
 cg2d: Sum(rhs),rhsMax =  -5.55890888875865E-11  4.44658974740438E-02
 cg2d: Sum(rhs),rhsMax =  -5.74238434580820E-11  4.29842005368966E-02
 cg2d: Sum(rhs),rhsMax =  -5.95041793616247E-11  4.14173557939198E-02
 cg2d: Sum(rhs),rhsMax =  -6.19061468754012E-11  3.97600080024920E-02
 cg2d: Sum(rhs),rhsMax =  -6.46642739354775E-11  3.80070484722778E-02
 cg2d: Sum(rhs),rhsMax =  -6.78903600004332E-11  3.61536420799691E-02
 cg2d: Sum(rhs),rhsMax =  -7.17124137850078E-11  3.41952548735522E-02
 cg2d: Sum(rhs),rhsMax =  -7.62514495988853E-11  3.21276823923894E-02
 cg2d: Sum(rhs),rhsMax =  -8.17204082181888E-11  2.99470786947525E-02
 cg2d: Sum(rhs),rhsMax =  -8.84337048034922E-11  2.76499859370631E-02
 cg2d: Sum(rhs),rhsMax =  -8.88736861881512E-11  2.74867923184015E-02
 cg2d: Sum(rhs),rhsMax =  -8.17141909692509E-11  2.98951923008419E-02
 cg2d: Sum(rhs),rhsMax =  -7.55182583134228E-11  3.23347874370481E-02
 cg2d: Sum(rhs),rhsMax =  -7.01814162340497E-11  3.47838257645001E-02
 cg2d: Sum(rhs),rhsMax =  -6.54944987132922E-11  3.72978060391015E-02
 cg2d: Sum(rhs),rhsMax =  -6.12946360334377E-11  3.98624704267155E-02
 cg2d: Sum(rhs),rhsMax =  -5.77259351430826E-11  4.24793470237244E-02
 cg2d: Sum(rhs),rhsMax =  -5.44047862316432E-11  4.51771799559776E-02
 cg2d: Sum(rhs),rhsMax =  -5.13508263688678E-11  4.79610450535114E-02
 cg2d: Sum(rhs),rhsMax =  -4.85347526058000E-11  5.08338448018850E-02
 cg2d: Sum(rhs),rhsMax =  -4.59358662219245E-11  5.38278405547734E-02
 cg2d: Sum(rhs),rhsMax =  -4.33477698180695E-11  5.70825859374077E-02
 cg2d: Sum(rhs),rhsMax =  -4.10735057077005E-11  6.03600409906231E-02
 cg2d: Sum(rhs),rhsMax =  -3.89754339913395E-11  6.36564011046362E-02
 cg2d: Sum(rhs),rhsMax =  -3.70240504921071E-11  6.69675983306663E-02
 cg2d: Sum(rhs),rhsMax =  -3.53127527219499E-11  7.02893193443377E-02
 cg2d: Sum(rhs),rhsMax =  -3.36996541783208E-11  7.36170239913700E-02
 cg2d: Sum(rhs),rhsMax =  -3.22497029081603E-11  7.69459643501973E-02
 cg2d: Sum(rhs),rhsMax =  -3.09312020441155E-11  8.02712043280648E-02
 cg2d: Sum(rhs),rhsMax =  -2.97016855554944E-11  8.35876398756108E-02
 cg2d: Sum(rhs),rhsMax =  -2.85701462487964E-11  8.68900199588125E-02
 cg2d: Sum(rhs),rhsMax =  -2.75615086309244E-11  9.01729684479318E-02
 cg2d: Sum(rhs),rhsMax =  -2.66016098038335E-11  9.34310070812484E-02
 cg2d: Sum(rhs),rhsMax =  -2.56878962545670E-11  9.66585796290700E-02
 cg2d: Sum(rhs),rhsMax =  -2.48744358444242E-11  9.98500773104177E-02
 cg2d: Sum(rhs),rhsMax =  -2.40738540213670E-11  1.02999865439752E-01
 cg2d: Sum(rhs),rhsMax =  -2.33928432180619E-11  1.06102311162322E-01
 cg2d: Sum(rhs),rhsMax =  -2.27140528608061E-11  1.09151812015286E-01
 cg2d: Sum(rhs),rhsMax =  -2.21225260332858E-11  1.12142824929768E-01
 cg2d: Sum(rhs),rhsMax =  -2.15836237771327E-11  1.15069895178037E-01
 cg2d: Sum(rhs),rhsMax =  -2.10478301454486E-11  1.17927684685154E-01
 cg2d: Sum(rhs),rhsMax =  -2.05881978132538E-11  1.20710999058106E-01
 cg2d: Sum(rhs),rhsMax =  -2.01528793652983E-11  1.23414812687072E-01
 cg2d: Sum(rhs),rhsMax =  -1.97410976454648E-11  1.26034291304840E-01
 cg2d: Sum(rhs),rhsMax =  -1.94192439906260E-11  1.28564811474828E-01
 cg2d: Sum(rhs),rhsMax =  -1.91218152423289E-11  1.31001976605466E-01
 cg2d: Sum(rhs),rhsMax =  -1.88604687423322E-11  1.33341629276067E-01
 cg2d: Sum(rhs),rhsMax =  -1.85553794551652E-11  1.35579859835095E-01
 cg2d: Sum(rhs),rhsMax =  -1.83310033818884E-11  1.37713011450948E-01
 cg2d: Sum(rhs),rhsMax =  -1.81266113230549E-11  1.39737681999488E-01
 cg2d: Sum(rhs),rhsMax =  -1.79121162346974E-11  1.41650723355879E-01
 cg2d: Sum(rhs),rhsMax =  -1.77274861457022E-11  1.43449238791409E-01
 cg2d: Sum(rhs),rhsMax =  -1.74439351852129E-11  1.46172062175304E-01
 cg2d: Sum(rhs),rhsMax =  -1.70810032784630E-11  1.49471268632585E-01
 cg2d: Sum(rhs),rhsMax =  -1.67658109617719E-11  1.52591586358795E-01
 cg2d: Sum(rhs),rhsMax =  -1.64541713587596E-11  1.55525839958021E-01
 cg2d: Sum(rhs),rhsMax =  -1.61776148033255E-11  1.58267484680923E-01
 cg2d: Sum(rhs),rhsMax =  -1.59439128566419E-11  1.60810623130517E-01
 cg2d: Sum(rhs),rhsMax =  -1.57078794416066E-11  1.63150016666059E-01
 cg2d: Sum(rhs),rhsMax =  -1.54963819554155E-11  1.65281091942046E-01
 cg2d: Sum(rhs),rhsMax =  -1.52927670526992E-11  1.67199943052057E-01
 cg2d: Sum(rhs),rhsMax =  -1.51394452529985E-11  1.68903329804886E-01
 cg2d: Sum(rhs),rhsMax =  -1.49681378402988E-11  1.70388672712346E-01
 cg2d: Sum(rhs),rhsMax =  -1.48742129724155E-11  1.71654045248995E-01
 cg2d: Sum(rhs),rhsMax =  -1.47626355584407E-11  1.72698163984530E-01
 cg2d: Sum(rhs),rhsMax =  -1.47167833475237E-11  1.73520377122836E-01
 cg2d: Sum(rhs),rhsMax =  -1.46416212487566E-11  1.74120651960371E-01
 cg2d: Sum(rhs),rhsMax =  -1.46890277719081E-11  1.74499561566509E-01
 cg2d: Sum(rhs),rhsMax =  -1.47710732534279E-11  1.74658270940732E-01
 cg2d: Sum(rhs),rhsMax =  -1.48888679163406E-11  1.74598522830973E-01
 cg2d: Sum(rhs),rhsMax =  -1.49877887878347E-11  1.74322623152663E-01
 cg2d: Sum(rhs),rhsMax =  -1.50975898449701E-11  1.73833425823812E-01
 cg2d: Sum(rhs),rhsMax =  -1.51397783199059E-11  1.73134316942430E-01
 cg2d: Sum(rhs),rhsMax =  -1.51800794156998E-11  1.72229198012455E-01
 cg2d: Sum(rhs),rhsMax =  -1.51954004934396E-11  1.71122467897838E-01
 cg2d: Sum(rhs),rhsMax =  -1.52201584668887E-11  1.69819003396053E-01
 cg2d: Sum(rhs),rhsMax =  -1.53215218290370E-11  1.68324138267762E-01
 cg2d: Sum(rhs),rhsMax =  -1.53369539290793E-11  1.66643640478741E-01
 cg2d: Sum(rhs),rhsMax =  -1.53904666788662E-11  1.64783687554463E-01
 cg2d: Sum(rhs),rhsMax =  -1.54419810272088E-11  1.62750840268088E-01
 cg2d: Sum(rhs),rhsMax =  -1.56251678262720E-11  1.60552014647893E-01
 cg2d: Sum(rhs),rhsMax =  -1.57804880274171E-11  1.58194452434648E-01
 cg2d: Sum(rhs),rhsMax =  -1.59842139524358E-11  1.55685690327324E-01
 cg2d: Sum(rhs),rhsMax =  -1.62324598207420E-11  1.53033527527722E-01
 cg2d: Sum(rhs),rhsMax =  -1.64722679940610E-11  1.50245992000617E-01
 cg2d: Sum(rhs),rhsMax =  -1.67605929135561E-11  1.47331305553283E-01
 cg2d: Sum(rhs),rhsMax =  -1.70873315497033E-11  1.44297847820895E-01
 cg2d: Sum(rhs),rhsMax =  -1.73896452793088E-11  1.41154119215824E-01
 cg2d: Sum(rhs),rhsMax =  -1.77217129859741E-11  1.37908702882110E-01
 cg2d: Sum(rhs),rhsMax =  -1.80964132567851E-11  1.34570226181080E-01
 cg2d: Sum(rhs),rhsMax =  -1.84912085643418E-11  1.31147321632613E-01
 cg2d: Sum(rhs),rhsMax =  -1.89395166216855E-11  1.27648587606696E-01
 cg2d: Sum(rhs),rhsMax =  -1.94164684330644E-11  1.24082549336582E-01
 cg2d: Sum(rhs),rhsMax =  -1.99503746856067E-11  1.20457620734790E-01
 cg2d: Sum(rhs),rhsMax =  -2.04952721460927E-11  1.16782067454055E-01
 cg2d: Sum(rhs),rhsMax =  -2.11485273737821E-11  1.13063971862187E-01
 cg2d: Sum(rhs),rhsMax =  -2.18376428051670E-11  1.09311200546116E-01
 cg2d: Sum(rhs),rhsMax =  -2.25265361919469E-11  1.05531374893400E-01
 cg2d: Sum(rhs),rhsMax =  -2.32658337040448E-11  1.01931351439866E-01
 cg2d: Sum(rhs),rhsMax =  -2.37700970018295E-11  9.93867306685030E-02
 cg2d: Sum(rhs),rhsMax =  -2.43710607250591E-11  9.68333104729851E-02
 cg2d: Sum(rhs),rhsMax =  -2.50485188146854E-11  9.42747612300963E-02
 cg2d: Sum(rhs),rhsMax =  -2.57408538928416E-11  9.17146850582010E-02
 cg2d: Sum(rhs),rhsMax =  -2.64502864055771E-11  8.91566025649030E-02
 cg2d: Sum(rhs),rhsMax =  -2.72102340659330E-11  8.66039381975660E-02
 cg2d: Sum(rhs),rhsMax =  -2.80543366315555E-11  8.40600043967297E-02
 cg2d: Sum(rhs),rhsMax =  -2.89279711296331E-11  8.15279847800013E-02
 cg2d: Sum(rhs),rhsMax =  -2.98437941026464E-11  7.90109166350926E-02
 cg2d: Sum(rhs),rhsMax =  -3.07416314626607E-11  7.65116731158212E-02
 cg2d: Sum(rhs),rhsMax =  -3.17960102691472E-11  7.40329455153819E-02
 cg2d: Sum(rhs),rhsMax =  -3.29676286270342E-11  7.15772260188009E-02
 cg2d: Sum(rhs),rhsMax =  -3.40913963725598E-11  6.91467913593007E-02
 cg2d: Sum(rhs),rhsMax =  -3.52283757720784E-11  6.67436877292831E-02
 cg2d: Sum(rhs),rhsMax =  -3.64561714150113E-11  6.43697174640894E-02
 cg2d: Sum(rhs),rhsMax =  -3.77843312193704E-11  6.20264277499117E-02
 cg2d: Sum(rhs),rhsMax =  -3.91429111346042E-11  5.97151015748007E-02
 cg2d: Sum(rhs),rhsMax =  -4.06029654342888E-11  5.74367510876104E-02
 cg2d: Sum(rhs),rhsMax =  -4.21785939508368E-11  5.51921134208648E-02
 cg2d: Sum(rhs),rhsMax =  -4.38270530978002E-11  5.29816489164523E-02
 cg2d: Sum(rhs),rhsMax =  -4.55712134694863E-11  5.08055415772449E-02
 cg2d: Sum(rhs),rhsMax =  -4.74617567469693E-11  4.86637014761786E-02
 cg2d: Sum(rhs),rhsMax =  -4.94649321503005E-11  4.65557687929166E-02
 cg2d: Sum(rhs),rhsMax =  -5.18448062258869E-11  4.44811190651128E-02
 cg2d: Sum(rhs),rhsMax =  -5.43846634393219E-11  4.24388692559785E-02
 cg2d: Sum(rhs),rhsMax =  -5.70441471836602E-11  4.04278842560749E-02
 cg2d: Sum(rhs),rhsMax =  -5.98646687777205E-11  3.84467834824477E-02
 cg2d: Sum(rhs),rhsMax =  -6.29496177406708E-11  3.64939473258563E-02
 cg2d: Sum(rhs),rhsMax =  -6.63390453681245E-11  3.45675232357024E-02
 cg2d: Sum(rhs),rhsMax =  -7.01216307241737E-11  3.26654313724633E-02
 cg2d: Sum(rhs),rhsMax =  -7.43827499594119E-11  3.07853698930904E-02
 cg2d: Sum(rhs),rhsMax =  -7.91659515719800E-11  2.89248200008481E-02
 cg2d: Sum(rhs),rhsMax =  -8.46035186352623E-11  2.70810509663565E-02
 cg2d: Sum(rhs),rhsMax =  -9.07869335264877E-11  2.52511254055787E-02
 cg2d: Sum(rhs),rhsMax =  -9.78889747038636E-11  2.34319051477918E-02
 cg2d: Sum(rhs),rhsMax =  -1.06168296376552E-10  2.16200580437611E-02
 cg2d: Sum(rhs),rhsMax =  -1.15967790925708E-10  1.98120660527338E-02
 cg2d: Sum(rhs),rhsMax =  -1.27728716492470E-10  1.80042349155579E-02
 cg2d: Sum(rhs),rhsMax =  -1.19682042054592E-10  1.92357473831113E-02
 cg2d: Sum(rhs),rhsMax =  -1.07722386566422E-10  2.13897925706699E-02
 cg2d: Sum(rhs),rhsMax =  -9.81037473479773E-11  2.35164696931848E-02
 cg2d: Sum(rhs),rhsMax =  -9.01426711052977E-11  2.56185915175986E-02
 cg2d: Sum(rhs),rhsMax =  -8.34716740172325E-11  2.76990936329271E-02
 cg2d: Sum(rhs),rhsMax =  -7.77897746218059E-11  2.97609655539030E-02
 cg2d: Sum(rhs),rhsMax =  -7.28868077004563E-11  3.18072402744642E-02
 cg2d: Sum(rhs),rhsMax =  -6.86217749290563E-11  3.38409809543684E-02
 cg2d: Sum(rhs),rhsMax =  -6.48174847128757E-11  3.58652647165661E-02
 cg2d: Sum(rhs),rhsMax =  -6.14517325914221E-11  3.78831639114521E-02
 cg2d: Sum(rhs),rhsMax =  -5.84132742176280E-11  3.98977253710557E-02
 cg2d: Sum(rhs),rhsMax =  -5.56877877144757E-11  4.19119483137832E-02
 cg2d: Sum(rhs),rhsMax =  -5.32019983623400E-11  4.39287617169299E-02
 cg2d: Sum(rhs),rhsMax =  -5.09229325373894E-11  4.59510019654614E-02
 cg2d: Sum(rhs),rhsMax =  -4.88454832137108E-11  4.79813915034961E-02
 cg2d: Sum(rhs),rhsMax =  -4.69646543876934E-11  5.00225190712382E-02
 cg2d: Sum(rhs),rhsMax =  -4.50977033494837E-11  5.20768219294995E-02
 cg2d: Sum(rhs),rhsMax =  -4.35163016732076E-11  5.41465702827966E-02
 cg2d: Sum(rhs),rhsMax =  -4.19611012603127E-11  5.62338539162884E-02
 cg2d: Sum(rhs),rhsMax =  -4.04374311813172E-11  5.83405709801917E-02
 cg2d: Sum(rhs),rhsMax =  -3.91271459676545E-11  6.04684186724351E-02
 cg2d: Sum(rhs),rhsMax =  -3.77973208287585E-11  6.26188855190057E-02
 cg2d: Sum(rhs),rhsMax =  -3.65756314124610E-11  6.47932450091130E-02
 cg2d: Sum(rhs),rhsMax =  -3.54096751919997E-11  6.69925503532894E-02
 cg2d: Sum(rhs),rhsMax =  -3.43329809027182E-11  6.92176301979314E-02
 cg2d: Sum(rhs),rhsMax =  -3.33488792136905E-11  7.14690852373208E-02
 cg2d: Sum(rhs),rhsMax =  -3.23776561117484E-11  7.37472857228662E-02
 cg2d: Sum(rhs),rhsMax =  -3.15028003683437E-11  7.60523699420907E-02
 cg2d: Sum(rhs),rhsMax =  -3.05977465586693E-11  7.83842437883082E-02
 cg2d: Sum(rhs),rhsMax =  -2.98303604040484E-11  8.07425815577215E-02
 cg2d: Sum(rhs),rhsMax =  -2.89857027269136E-11  8.31268280912704E-02
 cg2d: Sum(rhs),rhsMax =  -2.82533996198708E-11  8.55362023270881E-02
 cg2d: Sum(rhs),rhsMax =  -2.75042211228538E-11  8.79697022534564E-02
 cg2d: Sum(rhs),rhsMax =  -2.67519340013678E-11  9.04261111625474E-02
 cg2d: Sum(rhs),rhsMax =  -2.60715893318775E-11  9.29040050149778E-02
 cg2d: Sum(rhs),rhsMax =  -2.54229970408915E-11  9.54017606477844E-02
 cg2d: Sum(rhs),rhsMax =  -2.47789566643064E-11  9.79175645061750E-02
 cg2d: Sum(rhs),rhsMax =  -2.41655584432010E-11  1.00449421567154E-01
 cg2d: Sum(rhs),rhsMax =  -2.35393926573124E-11  1.02995164127615E-01
 cg2d: Sum(rhs),rhsMax =  -2.29808394536235E-11  1.05552460194936E-01
 cg2d: Sum(rhs),rhsMax =  -2.24189555808607E-11  1.08118821341720E-01
 cg2d: Sum(rhs),rhsMax =  -2.18857154621332E-11  1.10691609967942E-01
 cg2d: Sum(rhs),rhsMax =  -2.13967732420883E-11  1.13268046037495E-01
 cg2d: Sum(rhs),rhsMax =  -2.08878470076002E-11  1.16115938824347E-01
 cg2d: Sum(rhs),rhsMax =  -2.00697236607539E-11  1.20841353507798E-01
 cg2d: Sum(rhs),rhsMax =  -1.93007831938985E-11  1.25597964708393E-01
 cg2d: Sum(rhs),rhsMax =  -1.85388371320983E-11  1.30378250090430E-01
 cg2d: Sum(rhs),rhsMax =  -1.79255499332953E-11  1.35174401604817E-01
 cg2d: Sum(rhs),rhsMax =  -1.73027148164806E-11  1.39978356413112E-01
 cg2d: Sum(rhs),rhsMax =  -1.66866520601161E-11  1.44781829225012E-01
 cg2d: Sum(rhs),rhsMax =  -1.61286539679395E-11  1.49576345728379E-01
(PID.TID 0000.0001)      cg2d_init_res =   1.13173716735373E-01
(PID.TID 0000.0001)      cg2d_iters(min,last) =      -1      36
(PID.TID 0000.0001)      cg2d_last_res =   4.25208501178008E-14
(PID.TID 0000.0001) // =======================================================
(PID.TID 0000.0001) // Begin MONITOR dynamic field statistics
(PID.TID 0000.0001) // =======================================================
(PID.TID 0000.0001) %MON time_tsnumber                =                   960
(PID.TID 0000.0001) %MON time_secondsf                =   1.4400000000000E+04
(PID.TID 0000.0001) %MON dynstat_eta_max              =   2.5615575871268E-02
(PID.TID 0000.0001) %MON dynstat_eta_min              =  -2.6540001177889E-02
(PID.TID 0000.0001) %MON dynstat_eta_mean             =   5.0335875011080E-15
(PID.TID 0000.0001) %MON dynstat_eta_sd               =   2.0595581686234E-02
(PID.TID 0000.0001) %MON dynstat_eta_del2             =   8.7165749348212E-06
(PID.TID 0000.0001) %MON dynstat_uvel_max             =   8.0658081434055E-01
(PID.TID 0000.0001) %MON dynstat_uvel_min             =  -1.1439253507445E-01
(PID.TID 0000.0001) %MON dynstat_uvel_mean            =   1.0499092033262E-01
(PID.TID 0000.0001) %MON dynstat_uvel_sd              =   3.6900060496468E-02
(PID.TID 0000.0001) %MON dynstat_uvel_del2            =   1.6778354300029E-04
(PID.TID 0000.0001) %MON dynstat_vvel_max             =   0.0000000000000E+00
(PID.TID 0000.0001) %MON dynstat_vvel_min             =   0.0000000000000E+00
(PID.TID 0000.0001) %MON dynstat_vvel_mean            =   0.0000000000000E+00
(PID.TID 0000.0001) %MON dynstat_vvel_sd              =   0.0000000000000E+00
(PID.TID 0000.0001) %MON dynstat_vvel_del2            =   0.0000000000000E+00
(PID.TID 0000.0001) %MON dynstat_wvel_max             =   7.4955322925084E-03
(PID.TID 0000.0001) %MON dynstat_wvel_min             =  -1.0021913076952E-02
(PID.TID 0000.0001) %MON dynstat_wvel_mean            =  -1.1893831222658E-20
(PID.TID 0000.0001) %MON dynstat_wvel_sd              =   6.1113613482058E-04
(PID.TID 0000.0001) %MON dynstat_wvel_del2            =   1.0923383551439E-05
(PID.TID 0000.0001) %MON dynstat_theta_max            =   1.5000000000003E+01
(PID.TID 0000.0001) %MON dynstat_theta_min            =   9.9999999999982E+00
(PID.TID 0000.0001) %MON dynstat_theta_mean           =   1.2567205141379E+01
(PID.TID 0000.0001) %MON dynstat_theta_sd             =   2.4794606712877E+00
(PID.TID 0000.0001) %MON dynstat_theta_del2           =   9.7687452571404E-04
(PID.TID 0000.0001) %MON dynstat_salt_max             =   3.5000000000000E+01
(PID.TID 0000.0001) %MON dynstat_salt_min             =   3.5000000000000E+01
(PID.TID 0000.0001) %MON dynstat_salt_mean            =   3.5000000000000E+01
(PID.TID 0000.0001) %MON dynstat_salt_sd              =   3.9790393202566E-13
(PID.TID 0000.0001) %MON dynstat_salt_del2            =   0.0000000000000E+00
(PID.TID 0000.0001) %MON dynstat_sst_max              =   1.5000000000000E+01
(PID.TID 0000.0001) %MON dynstat_sst_min              =   1.5000000000000E+01
(PID.TID 0000.0001) %MON dynstat_sst_mean             =   1.5000000000000E+01
(PID.TID 0000.0001) %MON dynstat_sst_sd               =   8.6072253528605E-14
(PID.TID 0000.0001) %MON dynstat_sst_del2             =   3.7686490690811E-15
(PID.TID 0000.0001) %MON dynstat_sss_max              =   3.5000000000000E+01
(PID.TID 0000.0001) %MON dynstat_sss_min              =   3.5000000000000E+01
(PID.TID 0000.0001) %MON dynstat_sss_mean             =   3.5000000000000E+01
(PID.TID 0000.0001) %MON dynstat_sss_sd               =   5.6843418860808E-14
(PID.TID 0000.0001) %MON dynstat_sss_del2             =   0.0000000000000E+00
(PID.TID 0000.0001) %MON forcing_qnet_max             =   0.0000000000000E+00
(PID.TID 0000.0001) %MON forcing_qnet_min             =   0.0000000000000E+00
(PID.TID 0000.0001) %MON forcing_qnet_mean            =   0.0000000000000E+00
(PID.TID 0000.0001) %MON forcing_qnet_sd              =   0.0000000000000E+00
(PID.TID 0000.0001) %MON forcing_qnet_del2            =   0.0000000000000E+00
(PID.TID 0000.0001) %MON forcing_qsw_max              =   0.0000000000000E+00
(PID.TID 0000.0001) %MON forcing_qsw_min              =   0.0000000000000E+00
(PID.TID 0000.0001) %MON forcing_qsw_mean             =   0.0000000000000E+00
(PID.TID 0000.0001) %MON forcing_qsw_sd               =   0.0000000000000E+00
(PID.TID 0000.0001) %MON forcing_qsw_del2             =   0.0000000000000E+00
(PID.TID 0000.0001) %MON forcing_empmr_max            =   0.0000000000000E+00
(PID.TID 0000.0001) %MON forcing_empmr_min            =   0.0000000000000E+00
(PID.TID 0000.0001) %MON forcing_empmr_mean           =   0.0000000000000E+00
(PID.TID 0000.0001) %MON forcing_empmr_sd             =   0.0000000000000E+00
(PID.TID 0000.0001) %MON forcing_empmr_del2           =   0.0000000000000E+00
(PID.TID 0000.0001) %MON forcing_fu_max               =   0.0000000000000E+00
(PID.TID 0000.0001) %MON forcing_fu_min               =   0.0000000000000E+00
(PID.TID 0000.0001) %MON forcing_fu_mean              =   0.0000000000000E+00
(PID.TID 0000.0001) %MON forcing_fu_sd                =   0.0000000000000E+00
(PID.TID 0000.0001) %MON forcing_fu_del2              =   0.0000000000000E+00
(PID.TID 0000.0001) %MON forcing_fv_max               =   0.0000000000000E+00
(PID.TID 0000.0001) %MON forcing_fv_min               =   0.0000000000000E+00
(PID.TID 0000.0001) %MON forcing_fv_mean              =   0.0000000000000E+00
(PID.TID 0000.0001) %MON forcing_fv_sd                =   0.0000000000000E+00
(PID.TID 0000.0001) %MON forcing_fv_del2              =   0.0000000000000E+00
(PID.TID 0000.0001) %MON advcfl_uvel_max              =   6.0493561075541E-02
(PID.TID 0000.0001) %MON advcfl_vvel_max              =   0.0000000000000E+00
(PID.TID 0000.0001) %MON advcfl_wvel_max              =   1.2823327619767E-01
(PID.TID 0000.0001) %MON advcfl_W_hf_max              =   1.2995064473808E-01
(PID.TID 0000.0001) %MON pe_b_mean                    =   1.0682800213887E-05
(PID.TID 0000.0001) %MON ke_max                       =   2.3994068925456E-01
(PID.TID 0000.0001) %MON ke_mean                      =   6.1943849708367E-03
(PID.TID 0000.0001) %MON ke_vol                       =   9.5121673331316E+10
(PID.TID 0000.0001) %MON vort_r_min                   =   0.0000000000000E+00
(PID.TID 0000.0001) %MON vort_r_max                   =   0.0000000000000E+00
(PID.TID 0000.0001) %MON vort_a_mean                  =   0.0000000000000E+00
(PID.TID 0000.0001) %MON vort_a_sd                    =   0.0000000000000E+00
(PID.TID 0000.0001) %MON vort_p_mean                  =   0.0000000000000E+00
(PID.TID 0000.0001) %MON vort_p_sd                    =   0.0000000000000E+00
(PID.TID 0000.0001) %MON surfExpan_theta_mean         =   3.4450414393131E-20
(PID.TID 0000.0001) %MON surfExpan_salt_mean          =  -7.0949231804232E-19
(PID.TID 0000.0001) // =======================================================
(PID.TID 0000.0001) // End MONITOR dynamic field statistics
(PID.TID 0000.0001) // =======================================================
(PID.TID 0000.0001) // =======================================================
(PID.TID 0000.0001) // Begin OBCS MONITOR field statistics
(PID.TID 0000.0001) // =======================================================
(PID.TID 0000.0001) %MON obc_E_uVel_max               =   1.0505355776936E-01
(PID.TID 0000.0001) %MON obc_E_uVel_min               =   1.0505355776936E-01
(PID.TID 0000.0001) %MON obc_E_uVel_mean              =   1.0505355776936E-01
(PID.TID 0000.0001) %MON obc_E_uVel_sd                =  -6.9388939039072E-18
(PID.TID 0000.0001) %MON obc_E_uVel_Int               =   1.0505355776936E+05
(PID.TID 0000.0001) %MON obc_W_uVel_max               =   1.0505355776936E-01
(PID.TID 0000.0001) %MON obc_W_uVel_min               =   1.0505355776936E-01
(PID.TID 0000.0001) %MON obc_W_uVel_mean              =   1.0505355776936E-01
(PID.TID 0000.0001) %MON obc_W_uVel_sd                =  -6.9388939039072E-18
(PID.TID 0000.0001) %MON obc_W_uVel_Int               =   1.0505355776936E+05
(PID.TID 0000.0001) // =======================================================
(PID.TID 0000.0001) // End OBCS MONITOR field statistics
(PID.TID 0000.0001) // =======================================================
 cg2d: Sum(rhs),rhsMax =  -1.56789026206638E-11  1.54353276770435E-01
 cg2d: Sum(rhs),rhsMax =  -1.52374779460729E-11  1.59103872943831E-01
 cg2d: Sum(rhs),rhsMax =  -1.48453471737753E-11  1.63819299243961E-01
 cg2d: Sum(rhs),rhsMax =  -1.44848577576795E-11  1.68490669493838E-01
 cg2d: Sum(rhs),rhsMax =  -1.41280320775650E-11  1.73109080278905E-01
 cg2d: Sum(rhs),rhsMax =  -1.38105082925222E-11  1.77665644191620E-01
 cg2d: Sum(rhs),rhsMax =  -1.34992017564173E-11  1.82151522248379E-01
 cg2d: Sum(rhs),rhsMax =  -1.32505117989012E-11  1.86557955403703E-01
 cg2d: Sum(rhs),rhsMax =  -1.30099264694650E-11  1.90876295142781E-01
 cg2d: Sum(rhs),rhsMax =  -1.27615695788563E-11  1.95098033184316E-01
 cg2d: Sum(rhs),rhsMax =  -1.25798260697252E-11  1.99214830329659E-01
 cg2d: Sum(rhs),rhsMax =  -1.24313892513328E-11  2.03218544509966E-01
 cg2d: Sum(rhs),rhsMax =  -1.22811760761010E-11  2.07101258127138E-01
 cg2d: Sum(rhs),rhsMax =  -1.21500587368928E-11  2.10855304711248E-01
 cg2d: Sum(rhs),rhsMax =  -1.19489973471332E-11  2.14473294846093E-01
 cg2d: Sum(rhs),rhsMax =  -1.16970877428457E-11  2.17948141303835E-01
 cg2d: Sum(rhs),rhsMax =  -1.14869225242842E-11  2.21273083284607E-01
 cg2d: Sum(rhs),rhsMax =  -1.13602460771745E-11  2.24441709614191E-01
 cg2d: Sum(rhs),rhsMax =  -1.12758691273029E-11  2.27447980717886E-01
 cg2d: Sum(rhs),rhsMax =  -1.11933795565733E-11  2.30286249166474E-01
 cg2d: Sum(rhs),rhsMax =  -1.11173292793865E-11  2.32951278583776E-01
 cg2d: Sum(rhs),rhsMax =  -1.10421671806193E-11  2.35438260711334E-01
 cg2d: Sum(rhs),rhsMax =  -1.10165210287505E-11  2.37742830463318E-01
 cg2d: Sum(rhs),rhsMax =  -1.09313669227618E-11  2.39861078812171E-01
 cg2d: Sum(rhs),rhsMax =  -1.08105746576825E-11  2.41789563436111E-01
 cg2d: Sum(rhs),rhsMax =  -1.07353015366130E-11  2.43525317071291E-01
 cg2d: Sum(rhs),rhsMax =  -1.06227249219160E-11  2.45065853527055E-01
 cg2d: Sum(rhs),rhsMax =  -1.05562225627409E-11  2.46409171504796E-01
 cg2d: Sum(rhs),rhsMax =  -1.04810604639738E-11  2.47553756231225E-01
 cg2d: Sum(rhs),rhsMax =  -1.04266595357672E-11  2.48498579073146E-01
 cg2d: Sum(rhs),rhsMax =  -1.03925756889112E-11  2.49243095307113E-01
 cg2d: Sum(rhs),rhsMax =  -1.03677066931596E-11  2.49787240224350E-01
 cg2d: Sum(rhs),rhsMax =  -1.03836939047142E-11  2.50131423753163E-01
 cg2d: Sum(rhs),rhsMax =  -1.03951292018678E-11  2.50276523842367E-01
 cg2d: Sum(rhs),rhsMax =  -1.04922737165225E-11  2.50223878603518E-01
 cg2d: Sum(rhs),rhsMax =  -1.05514486037350E-11  2.49975277457442E-01
 cg2d: Sum(rhs),rhsMax =  -1.06497033414144E-11  2.49532951387628E-01
 cg2d: Sum(rhs),rhsMax =  -1.07608366661793E-11  2.48899562351928E-01
 cg2d: Sum(rhs),rhsMax =  -1.09313669227618E-11  2.48078191662583E-01
 cg2d: Sum(rhs),rhsMax =  -1.10789155627344E-11  2.47072327320557E-01
 cg2d: Sum(rhs),rhsMax =  -1.12446718603110E-11  2.45885850186551E-01
 cg2d: Sum(rhs),rhsMax =  -1.13717923966306E-11  2.44523018959395E-01
 cg2d: Sum(rhs),rhsMax =  -1.14726006472665E-11  2.42988453500963E-01
 cg2d: Sum(rhs),rhsMax =  -1.16072707001535E-11  2.41287116309704E-01
 cg2d: Sum(rhs),rhsMax =  -1.17320597681214E-11  2.39424292094962E-01
 cg2d: Sum(rhs),rhsMax =  -1.18753895606005E-11  2.37405565031081E-01
 cg2d: Sum(rhs),rhsMax =  -1.20001786285684E-11  2.35236793764468E-01
 cg2d: Sum(rhs),rhsMax =  -1.22303278615732E-11  2.32924084400063E-01
 cg2d: Sum(rhs),rhsMax =  -1.24649179866765E-11  2.30473761757720E-01
 cg2d: Sum(rhs),rhsMax =  -1.27297061780496E-11  2.27892338940738E-01
 cg2d: Sum(rhs),rhsMax =  -1.28849153568922E-11  2.25186485610363E-01
 cg2d: Sum(rhs),rhsMax =  -1.29780630686582E-11  2.22362995466490E-01
 cg2d: Sum(rhs),rhsMax =  -1.31183952589708E-11  2.19428753502674E-01
 cg2d: Sum(rhs),rhsMax =  -1.31945565584601E-11  2.16390703708093E-01
 cg2d: Sum(rhs),rhsMax =  -1.32762689730725E-11  2.13255817623424E-01
 cg2d: Sum(rhs),rhsMax =  -1.33970612381518E-11  2.10031064185702E-01
 cg2d: Sum(rhs),rhsMax =  -1.35067512729847E-11  2.06723381513321E-01
 cg2d: Sum(rhs),rhsMax =  -1.36354261215388E-11  2.03339650921408E-01
 cg2d: Sum(rhs),rhsMax =  -1.38118405601517E-11  1.99886673322448E-01
 cg2d: Sum(rhs),rhsMax =  -1.39694922296485E-11  1.96371148048099E-01
 cg2d: Sum(rhs),rhsMax =  -1.41937572806228E-11  1.92799654023930E-01
 cg2d: Sum(rhs),rhsMax =  -1.43919320905184E-11  1.89178633133460E-01
 cg2d: Sum(rhs),rhsMax =  -1.45813361385194E-11  1.85514375457734E-01
 cg2d: Sum(rhs),rhsMax =  -1.48239198694000E-11  1.81813006342948E-01
 cg2d: Sum(rhs),rhsMax =  -1.50773837859219E-11  1.78080474830651E-01
 cg2d: Sum(rhs),rhsMax =  -1.53880241882121E-11  1.74322543100286E-01
 cg2d: Sum(rhs),rhsMax =  -1.57261981215129E-11  1.70544776680735E-01
 cg2d: Sum(rhs),rhsMax =  -1.61110014218480E-11  1.66752535248192E-01
 cg2d: Sum(rhs),rhsMax =  -1.64754876408324E-11  1.62950963896071E-01
 cg2d: Sum(rhs),rhsMax =  -1.68780545095615E-11  1.59144984819911E-01
 cg2d: Sum(rhs),rhsMax =  -1.72913905416294E-11  1.55339289441545E-01
 cg2d: Sum(rhs),rhsMax =  -1.77347025953623E-11  1.51538331058945E-01
 cg2d: Sum(rhs),rhsMax =  -1.82195369902161E-11  1.47746318153296E-01
 cg2d: Sum(rhs),rhsMax =  -1.86647364230907E-11  1.43967208508753E-01
 cg2d: Sum(rhs),rhsMax =  -1.92000859655650E-11  1.40204704313271E-01
 cg2d: Sum(rhs),rhsMax =  -1.97201144302994E-11  1.36462248333251E-01
 cg2d: Sum(rhs),rhsMax =  -2.03025374290178E-11  1.32743021202675E-01
 cg2d: Sum(rhs),rhsMax =  -2.08600914319845E-11  1.29049940116414E-01
 cg2d: Sum(rhs),rhsMax =  -2.14329665126911E-11  1.25385658672062E-01
 cg2d: Sum(rhs),rhsMax =  -2.20616858115363E-11  1.21752567772152E-01
 cg2d: Sum(rhs),rhsMax =  -2.26663132707472E-11  1.18152797441089E-01
 cg2d: Sum(rhs),rhsMax =  -2.33177921415972E-11  1.14588219396846E-01
 cg2d: Sum(rhs),rhsMax =  -2.40397701745110E-11  1.11060450208647E-01
 cg2d: Sum(rhs),rhsMax =  -2.48124853996501E-11  1.07570854864706E-01
 cg2d: Sum(rhs),rhsMax =  -2.55079291022753E-11  1.04120550614694E-01
 cg2d: Sum(rhs),rhsMax =  -2.63404853484417E-11  1.00710410984012E-01
 cg2d: Sum(rhs),rhsMax =  -2.70072852970316E-11  9.81650217963341E-02
 cg2d: Sum(rhs),rhsMax =  -2.74701372759978E-11  9.63417869624225E-02
 cg2d: Sum(rhs),rhsMax =  -2.79026801663917E-11  9.45260249067284E-02
 cg2d: Sum(rhs),rhsMax =  -2.84134937800218E-11  9.27164247384232E-02
 cg2d: Sum(rhs),rhsMax =  -2.89119839180785E-11  9.09115744429049E-02
 cg2d: Sum(rhs),rhsMax =  -2.94360091857016E-11  8.91099768305807E-02
 cg2d: Sum(rhs),rhsMax =  -2.99258395841662E-11  8.73100646627081E-02
 cg2d: Sum(rhs),rhsMax =  -3.04871683454166E-11  8.55102144864571E-02
 cg2d: Sum(rhs),rhsMax =  -3.10343972742544E-11  8.37087586772666E-02
 cg2d: Sum(rhs),rhsMax =  -3.16660031529636E-11  8.19039951902285E-02
 cg2d: Sum(rhs),rhsMax =  -3.22901705374079E-11  8.00941945766366E-02
 cg2d: Sum(rhs),rhsMax =  -3.29416494082579E-11  7.82776039386280E-02
 cg2d: Sum(rhs),rhsMax =  -3.36490835195491E-11  7.64524477310677E-02
 cg2d: Sum(rhs),rhsMax =  -3.43942652136775E-11  7.46169255217232E-02
 cg2d: Sum(rhs),rhsMax =  -3.51711992863102E-11  7.27692071076784E-02
 cg2d: Sum(rhs),rhsMax =  -3.59756668899536E-11  7.09074256801017E-02
 cg2d: Sum(rhs),rhsMax =  -3.68776120751590E-11  6.90296699562131E-02
 cg2d: Sum(rhs),rhsMax =  -3.78168607539919E-11  6.71339763663481E-02
 cg2d: Sum(rhs),rhsMax =  -3.88744592072499E-11  6.52183224123510E-02
 cg2d: Sum(rhs),rhsMax =  -3.99036359510774E-11  6.32806222600242E-02
 cg2d: Sum(rhs),rhsMax =  -4.11133349587089E-11  6.13187254759850E-02
 cg2d: Sum(rhs),rhsMax =  -4.24336121795932E-11  5.93304195787270E-02
 cg2d: Sum(rhs),rhsMax =  -4.38697966842483E-11  5.73134367137949E-02
 cg2d: Sum(rhs),rhsMax =  -4.54508652936170E-11  5.52654646068843E-02
 cg2d: Sum(rhs),rhsMax =  -4.71973571336548E-11  5.31841614120607E-02
 cg2d: Sum(rhs),rhsMax =  -4.90888441007087E-11  5.10671738593543E-02
 cg2d: Sum(rhs),rhsMax =  -5.12025977172925E-11  4.89121579691855E-02
 cg2d: Sum(rhs),rhsMax =  -5.35307353999315E-11  4.67168014857313E-02
 cg2d: Sum(rhs),rhsMax =  -5.61783952690575E-11  4.44788471519775E-02
 cg2d: Sum(rhs),rhsMax =  -5.91382498527082E-11  4.21961160087590E-02
 cg2d: Sum(rhs),rhsMax =  -6.25508533858010E-11  3.98665300241352E-02
 cg2d: Sum(rhs),rhsMax =  -6.64570620756422E-11  3.74881335351700E-02
 cg2d: Sum(rhs),rhsMax =  -7.09996506031985E-11  3.50591131791633E-02
 cg2d: Sum(rhs),rhsMax =  -7.63542562509656E-11  3.25778161829018E-02
 cg2d: Sum(rhs),rhsMax =  -8.27526935864853E-11  3.00427670468183E-02
 cg2d: Sum(rhs),rhsMax =  -9.04890606889808E-11  2.74526827914279E-02
 cg2d: Sum(rhs),rhsMax =  -1.00075947528921E-10  2.48064870166606E-02
 cg2d: Sum(rhs),rhsMax =  -1.12274634034293E-10  2.21033230745925E-02
 cg2d: Sum(rhs),rhsMax =  -1.28258736964426E-10  1.93425665675840E-02
 cg2d: Sum(rhs),rhsMax =  -1.50091050699075E-10  1.65238374055786E-02
 cg2d: Sum(rhs),rhsMax =  -1.46179401916413E-10  1.69582352405420E-02
 cg2d: Sum(rhs),rhsMax =  -1.28473565119691E-10  1.92924956877100E-02
 cg2d: Sum(rhs),rhsMax =  -1.14553200258882E-10  2.16432603919522E-02
 cg2d: Sum(rhs),rhsMax =  -1.03240999083098E-10  2.40219235261961E-02
 cg2d: Sum(rhs),rhsMax =  -9.40385894154794E-11  2.64076625123992E-02
 cg2d: Sum(rhs),rhsMax =  -8.61687873832118E-11  2.88354117915933E-02
 cg2d: Sum(rhs),rhsMax =  -7.94086463251631E-11  3.12700957438480E-02
 cg2d: Sum(rhs),rhsMax =  -7.36610772378299E-11  3.37505743747127E-02
 cg2d: Sum(rhs),rhsMax =  -6.87543355581965E-11  3.62550623857252E-02
 cg2d: Sum(rhs),rhsMax =  -6.42890185531542E-11  3.88096531282508E-02
 cg2d: Sum(rhs),rhsMax =  -6.02039529340459E-11  4.14577776287638E-02
 cg2d: Sum(rhs),rhsMax =  -5.65761326676295E-11  4.41056014713597E-02
 cg2d: Sum(rhs),rhsMax =  -5.35127497869325E-11  4.67521732801728E-02
 cg2d: Sum(rhs),rhsMax =  -5.07109909619885E-11  4.93964190619545E-02
 cg2d: Sum(rhs),rhsMax =  -4.82460738027157E-11  5.20371428049284E-02
 cg2d: Sum(rhs),rhsMax =  -4.59490223647663E-11  5.46730271431826E-02
 cg2d: Sum(rhs),rhsMax =  -4.39306369059977E-11  5.73026340091173E-02
 cg2d: Sum(rhs),rhsMax =  -4.20363743813823E-11  5.99244052670334E-02
 cg2d: Sum(rhs),rhsMax =  -4.02690103484815E-11  6.25366633959745E-02
 cg2d: Sum(rhs),rhsMax =  -3.87277987456969E-11  6.51376123620346E-02
 cg2d: Sum(rhs),rhsMax =  -3.73086006533185E-11  6.77253388816991E-02
 cg2d: Sum(rhs),rhsMax =  -3.59052787501923E-11  7.02978143211899E-02
 cg2d: Sum(rhs),rhsMax =  -3.46102035919671E-11  7.28528974962859E-02
 cg2d: Sum(rhs),rhsMax =  -3.33999494728232E-11  7.53883386321591E-02
 cg2d: Sum(rhs),rhsMax =  -3.23083781950118E-11  7.79017847068021E-02
 cg2d: Sum(rhs),rhsMax =  -3.13026271570038E-11  8.03907863422362E-02
 cg2d: Sum(rhs),rhsMax =  -3.03901348530644E-11  8.28528063304409E-02
 cg2d: Sum(rhs),rhsMax =  -2.95256041837888E-11  8.52852297935525E-02
 cg2d: Sum(rhs),rhsMax =  -2.87163626211395E-11  8.76853758702691E-02
 cg2d: Sum(rhs),rhsMax =  -2.79578582507156E-11  9.00505107313393E-02
 cg2d: Sum(rhs),rhsMax =  -2.72474265372580E-11  9.23778616457050E-02
 cg2d: Sum(rhs),rhsMax =  -2.65745203620327E-11  9.46646317563627E-02
 cg2d: Sum(rhs),rhsMax =  -2.59952059877833E-11  9.69080151861191E-02
 cg2d: Sum(rhs),rhsMax =  -2.53660425997282E-11  9.91052120811298E-02
 cg2d: Sum(rhs),rhsMax =  -2.47455389512652E-11  1.01548572901783E-01
 cg2d: Sum(rhs),rhsMax =  -2.40740760659719E-11  1.04536433492871E-01
 cg2d: Sum(rhs),rhsMax =  -2.33979502439752E-11  1.07438209837346E-01
 cg2d: Sum(rhs),rhsMax =  -2.27983187883751E-11  1.10248891756967E-01
 cg2d: Sum(rhs),rhsMax =  -2.22365459379148E-11  1.12963642265089E-01
 cg2d: Sum(rhs),rhsMax =  -2.17487139408945E-11  1.15577815755128E-01
 cg2d: Sum(rhs),rhsMax =  -2.12611039884791E-11  1.18086974524619E-01
 cg2d: Sum(rhs),rhsMax =  -2.08419947966831E-11  1.20486903344373E-01
 cg2d: Sum(rhs),rhsMax =  -2.04786188007233E-11  1.22773621857779E-01
 cg2d: Sum(rhs),rhsMax =  -2.00898186974996E-11  1.24943394720600E-01
 cg2d: Sum(rhs),rhsMax =  -1.98012717333995E-11  1.26992739533900E-01
 cg2d: Sum(rhs),rhsMax =  -1.94996241376089E-11  1.28918432765171E-01
 cg2d: Sum(rhs),rhsMax =  -1.92654781017154E-11  1.30717513989184E-01
 cg2d: Sum(rhs),rhsMax =  -1.89986915088980E-11  1.32387288899345E-01
 cg2d: Sum(rhs),rhsMax =  -1.87895254910586E-11  1.33925331605107E-01
 cg2d: Sum(rhs),rhsMax =  -1.85919057926753E-11  1.35329486777697E-01
 cg2d: Sum(rhs),rhsMax =  -1.84146031756427E-11  1.36597872184765E-01
 cg2d: Sum(rhs),rhsMax =  -1.82698300932316E-11  1.37728882029160E-01
 cg2d: Sum(rhs),rhsMax =  -1.81288317691042E-11  1.38721191391846E-01
 cg2d: Sum(rhs),rhsMax =  -1.79913861586556E-11  1.39573761892957E-01
 cg2d: Sum(rhs),rhsMax =  -1.79557479995651E-11  1.40285848479690E-01
 cg2d: Sum(rhs),rhsMax =  -1.79406489664302E-11  1.40857007086036E-01
 cg2d: Sum(rhs),rhsMax =  -1.78415060503312E-11  1.41287102721132E-01
 cg2d: Sum(rhs),rhsMax =  -1.77452497140962E-11  1.41576317417759E-01
 cg2d: Sum(rhs),rhsMax =  -1.76526571138425E-11  1.41725157371665E-01
 cg2d: Sum(rhs),rhsMax =  -1.75085501652461E-11  1.41734458679589E-01
 cg2d: Sum(rhs),rhsMax =  -1.74409375830464E-11  1.41605390995540E-01
 cg2d: Sum(rhs),rhsMax =  -1.74171788103195E-11  1.41339458508550E-01
 cg2d: Sum(rhs),rhsMax =  -1.73635550382301E-11  1.40938497763199E-01
 cg2d: Sum(rhs),rhsMax =  -1.73607794806685E-11  1.40404671905147E-01
 cg2d: Sum(rhs),rhsMax =  -1.73610015252734E-11  1.39740461134065E-01
 cg2d: Sum(rhs),rhsMax =  -1.74382730477873E-11  1.38948649210299E-01
 cg2d: Sum(rhs),rhsMax =  -1.75290892912017E-11  1.38032305706610E-01
 cg2d: Sum(rhs),rhsMax =  -1.76030301446417E-11  1.36994764280989E-01
 cg2d: Sum(rhs),rhsMax =  -1.77268200118874E-11  1.35839597162382E-01
 cg2d: Sum(rhs),rhsMax =  -1.78524972582750E-11  1.34570586173919E-01
 cg2d: Sum(rhs),rhsMax =  -1.79822823298537E-11  1.33191690881900E-01
 cg2d: Sum(rhs),rhsMax =  -1.81744619354163E-11  1.31707014744039E-01
 cg2d: Sum(rhs),rhsMax =  -1.83772996820153E-11  1.30120770026764E-01
 cg2d: Sum(rhs),rhsMax =  -1.85851334322251E-11  1.28437242707801E-01
 cg2d: Sum(rhs),rhsMax =  -1.88137283529954E-11  1.26660758453054E-01
 cg2d: Sum(rhs),rhsMax =  -1.90175653003166E-11  1.25283735557582E-01
 cg2d: Sum(rhs),rhsMax =  -1.92108551289039E-11  1.24190260534027E-01
 cg2d: Sum(rhs),rhsMax =  -1.93597360365061E-11  1.23032187823391E-01
 cg2d: Sum(rhs),rhsMax =  -1.96032079458064E-11  1.21811900686813E-01
 cg2d: Sum(rhs),rhsMax =  -1.98202565471206E-11  1.20531867948785E-01
 cg2d: Sum(rhs),rhsMax =  -2.00046645915108E-11  1.19194631021411E-01
 cg2d: Sum(rhs),rhsMax =  -2.02609040655943E-11  1.17802787969214E-01
 cg2d: Sum(rhs),rhsMax =  -2.04961603245124E-11  1.16358974785775E-01
 cg2d: Sum(rhs),rhsMax =  -2.07345252078994E-11  1.14865844256326E-01
 cg2d: Sum(rhs),rhsMax =  -2.09916528604026E-11  1.13326042970491E-01
 cg2d: Sum(rhs),rhsMax =  -2.12974082813844E-11  1.11742187207309E-01
 cg2d: Sum(rhs),rhsMax =  -2.15752971044481E-11  1.10116838534523E-01
 cg2d: Sum(rhs),rhsMax =  -2.19312346061429E-11  1.08452480078909E-01
 cg2d: Sum(rhs),rhsMax =  -2.22686313833265E-11  1.06751494536976E-01
 cg2d: Sum(rhs),rhsMax =  -2.26416663196005E-11  1.05016144545338E-01
 cg2d: Sum(rhs),rhsMax =  -2.30446772775394E-11  1.03248556347633E-01
 cg2d: Sum(rhs),rhsMax =  -2.34408048527257E-11  1.01450707369296E-01
 cg2d: Sum(rhs),rhsMax =  -2.38187247703081E-11  9.96244180598297E-02
 cg2d: Sum(rhs),rhsMax =  -2.42555975304981E-11  9.77713481144666E-02
 cg2d: Sum(rhs),rhsMax =  -2.47124543051314E-11  9.58929969419877E-02
 cg2d: Sum(rhs),rhsMax =  -2.52852183635355E-11  9.39907079830564E-02
 cg2d: Sum(rhs),rhsMax =  -2.57164289862999E-11  9.20656762732957E-02
 cg2d: Sum(rhs),rhsMax =  -2.61456412076200E-11  9.01189584880575E-02
 cg2d: Sum(rhs),rhsMax =  -2.66819899508164E-11  8.81514846120266E-02
 cg2d: Sum(rhs),rhsMax =  -2.72704081538677E-11  8.61640703507377E-02
 cg2d: Sum(rhs),rhsMax =  -2.78852496649051E-11  8.41574294517315E-02
 cg2d: Sum(rhs),rhsMax =  -2.85306223091197E-11  8.21321851633963E-02
 cg2d: Sum(rhs),rhsMax =  -2.92172952498504E-11  8.00888802426814E-02
 cg2d: Sum(rhs),rhsMax =  -2.98071567428337E-11  7.80279850988321E-02
 cg2d: Sum(rhs),rhsMax =  -3.04083425106683E-11  7.59499038405830E-02
 cg2d: Sum(rhs),rhsMax =  -3.10390602109578E-11  7.38549781678498E-02
 cg2d: Sum(rhs),rhsMax =  -3.17931236892832E-11  7.17434892211028E-02
 cg2d: Sum(rhs),rhsMax =  -3.26355609203688E-11  6.96156576446467E-02
 cg2d: Sum(rhs),rhsMax =  -3.36985994664474E-11  6.74716422245965E-02
 cg2d: Sum(rhs),rhsMax =  -3.47283313217872E-11  6.53115375242319E-02
 cg2d: Sum(rhs),rhsMax =  -3.58726381932684E-11  6.31353709602150E-02
 cg2d: Sum(rhs),rhsMax =  -3.70738995059128E-11  6.09430997491816E-02
 cg2d: Sum(rhs),rhsMax =  -3.84420273391584E-11  5.87346081054778E-02
 cg2d: Sum(rhs),rhsMax =  -3.99499877623555E-11  5.65097049679133E-02
 cg2d: Sum(rhs),rhsMax =  -4.16079948273307E-11  5.42681225854267E-02
 cg2d: Sum(rhs),rhsMax =  -4.34381974834253E-11  5.20095160583537E-02
 cg2d: Sum(rhs),rhsMax =  -4.54725146425972E-11  4.97334638423799E-02
 cg2d: Sum(rhs),rhsMax =  -4.77119455055686E-11  4.74394691981794E-02
 cg2d: Sum(rhs),rhsMax =  -5.02504704513740E-11  4.51269624985178E-02
 cg2d: Sum(rhs),rhsMax =  -5.30381294439053E-11  4.27953042457767E-02
 cg2d: Sum(rhs),rhsMax =  -5.61554691635990E-11  4.04437886133712E-02
 cg2d: Sum(rhs),rhsMax =  -5.97074611974335E-11  3.80716473084569E-02
 cg2d: Sum(rhs),rhsMax =  -6.37720570795253E-11  3.56780535589124E-02
 cg2d: Sum(rhs),rhsMax =  -6.84672058631763E-11  3.32621260546517E-02
 cg2d: Sum(rhs),rhsMax =  -7.39411448735794E-11  3.08229327177579E-02
 cg2d: Sum(rhs),rhsMax =  -8.04542543697551E-11  2.83594942328487E-02
 cg2d: Sum(rhs),rhsMax =  -8.82996453732687E-11  2.58707873326724E-02
 cg2d: Sum(rhs),rhsMax =  -9.79221703722999E-11  2.33557479067380E-02
 cg2d: Sum(rhs),rhsMax =  -1.09984354956794E-10  2.08132740611317E-02
 cg2d: Sum(rhs),rhsMax =  -1.25649379789650E-10  1.82422293163407E-02
 cg2d: Sum(rhs),rhsMax =  -1.42984180051542E-10  1.60384899897597E-02
 cg2d: Sum(rhs),rhsMax =  -1.26179955373118E-10  1.81880436741138E-02
 cg2d: Sum(rhs),rhsMax =  -1.12827192033649E-10  2.03495309456275E-02
 cg2d: Sum(rhs),rhsMax =  -1.01952890574353E-10  2.25295420564930E-02
 cg2d: Sum(rhs),rhsMax =  -9.31044130680903E-11  2.47321682964096E-02
 cg2d: Sum(rhs),rhsMax =  -8.56180681907404E-11  2.69251653440572E-02
 cg2d: Sum(rhs),rhsMax =  -7.92801380100627E-11  2.91096770194549E-02
 cg2d: Sum(rhs),rhsMax =  -7.38715755232988E-11  3.12868330990155E-02
 cg2d: Sum(rhs),rhsMax =  -6.91802171104428E-11  3.34577458241133E-02
 cg2d: Sum(rhs),rhsMax =  -6.50421938530599E-11  3.56235058072727E-02
 cg2d: Sum(rhs),rhsMax =  -6.14326367553986E-11  3.77851771624063E-02
 cg2d: Sum(rhs),rhsMax =  -5.81965586832212E-11  3.99437917432331E-02
 cg2d: Sum(rhs),rhsMax =  -5.52815571097653E-11  4.21003426190730E-02
 cg2d: Sum(rhs),rhsMax =  -5.26672039313780E-11  4.42557768990966E-02
 cg2d: Sum(rhs),rhsMax =  -5.02469177376952E-11  4.64109881321985E-02
 cg2d: Sum(rhs),rhsMax =  -4.80997464080701E-11  4.85668086228562E-02
 cg2d: Sum(rhs),rhsMax =  -4.61028992759793E-11  5.07240020532585E-02
 cg2d: Sum(rhs),rhsMax =  -4.42375025500041E-11  5.28832568109151E-02
 cg2d: Sum(rhs),rhsMax =  -4.26180202239834E-11  5.50451803843143E-02
 cg2d: Sum(rhs),rhsMax =  -4.10573797182678E-11  5.72102951215539E-02
 cg2d: Sum(rhs),rhsMax =  -3.95816712739361E-11  5.93790355315692E-02
 cg2d: Sum(rhs),rhsMax =  -3.82338605220411E-11  6.15517471609315E-02
 cg2d: Sum(rhs),rhsMax =  -3.69768660135605E-11  6.37286869533624E-02
 cg2d: Sum(rhs),rhsMax =  -3.58202356665061E-11  6.59100248592139E-02
 cg2d: Sum(rhs),rhsMax =  -3.47946116363573E-11  6.80958462605762E-02
 cg2d: Sum(rhs),rhsMax =  -3.37414540751979E-11  7.02861547584341E-02
 cg2d: Sum(rhs),rhsMax =  -3.28213012323886E-11  7.24808748189925E-02
 cg2d: Sum(rhs),rhsMax =  -3.19748671984144E-11  7.46798538092863E-02
 cg2d: Sum(rhs),rhsMax =  -3.10631520505922E-11  7.68828629963904E-02
 cg2d: Sum(rhs),rhsMax =  -3.02700087218000E-11  7.90895972038715E-02
 cg2d: Sum(rhs),rhsMax =  -2.95132807082155E-11  8.12996729760684E-02
 cg2d: Sum(rhs),rhsMax =  -2.84799961391968E-11  8.44632815476226E-02
 cg2d: Sum(rhs),rhsMax =  -2.72675215740037E-11  8.82950927752468E-02
 cg2d: Sum(rhs),rhsMax =  -2.61662913558780E-11  9.21461613914913E-02
 cg2d: Sum(rhs),rhsMax =  -2.51820786445478E-11  9.60131344157209E-02
 cg2d: Sum(rhs),rhsMax =  -2.41686670676700E-11  9.98924815778890E-02
 cg2d: Sum(rhs),rhsMax =  -2.32965868818269E-11  1.03780503976142E-01
 cg2d: Sum(rhs),rhsMax =  -2.25265361919469E-11  1.07673344098217E-01
 cg2d: Sum(rhs),rhsMax =  -2.17887929920835E-11  1.11566997155018E-01
 cg2d: Sum(rhs),rhsMax =  -2.10882422635450E-11  1.15457323596051E-01
 cg2d: Sum(rhs),rhsMax =  -2.03959071853888E-11  1.19340062604973E-01
 cg2d: Sum(rhs),rhsMax =  -1.98175920118615E-11  1.23210846317551E-01
 cg2d: Sum(rhs),rhsMax =  -1.92145188648851E-11  1.27065214469985E-01
 cg2d: Sum(rhs),rhsMax =  -1.86742843411025E-11  1.30898629176420E-01
 cg2d: Sum(rhs),rhsMax =  -1.81291648360116E-11  1.34706489543259E-01
 cg2d: Sum(rhs),rhsMax =  -1.76616499203419E-11  1.38484145895586E-01
 cg2d: Sum(rhs),rhsMax =  -1.71707092988527E-11  1.42226913425027E-01
 cg2d: Sum(rhs),rhsMax =  -1.67666991401916E-11  1.45930085135995E-01
 cg2d: Sum(rhs),rhsMax =  -1.63360436289395E-11  1.49588944058553E-01
 cg2d: Sum(rhs),rhsMax =  -1.59406932098705E-11  1.53198774770197E-01
 cg2d: Sum(rhs),rhsMax =  -1.55878643326446E-11  1.56754874331932E-01
 cg2d: Sum(rhs),rhsMax =  -1.51909596013411E-11  1.60252562791288E-01
 cg2d: Sum(rhs),rhsMax =  -1.48544510025772E-11  1.63687193433633E-01
 cg2d: Sum(rhs),rhsMax =  -1.45469192247560E-11  1.67054162971251E-01
 cg2d: Sum(rhs),rhsMax =  -1.42713618700441E-11  1.70348921849074E-01
 cg2d: Sum(rhs),rhsMax =  -1.39717126756977E-11  1.73566984817510E-01
 cg2d: Sum(rhs),rhsMax =  -1.37475586470259E-11  1.76703941880602E-01
 cg2d: Sum(rhs),rhsMax =  -1.34917632621523E-11  1.79755469675917E-01
 cg2d: Sum(rhs),rhsMax =  -1.32508448658086E-11  1.82717343297666E-01
 cg2d: Sum(rhs),rhsMax =  -1.30445654278333E-11  1.85585448518024E-01
 cg2d: Sum(rhs),rhsMax =  -1.28561605805544E-11  1.88355794321636E-01
 cg2d: Sum(rhs),rhsMax =  -1.26688659563001E-11  1.91024525639373E-01
 cg2d: Sum(rhs),rhsMax =  -1.24682486557504E-11  1.93587936147009E-01
 cg2d: Sum(rhs),rhsMax =  -1.23253629524811E-11  1.96042480978085E-01
 cg2d: Sum(rhs),rhsMax =  -1.21870291636128E-11  1.98384789230707E-01
 cg2d: Sum(rhs),rhsMax =  -1.20161658401230E-11  2.00611676101960E-01
 cg2d: Sum(rhs),rhsMax =  -1.19232401729619E-11  2.02720154551130E-01
 cg2d: Sum(rhs),rhsMax =  -1.17684750833291E-11  2.04707446356076E-01
 cg2d: Sum(rhs),rhsMax =  -1.16948672967965E-11  2.06570992472340E-01
 cg2d: Sum(rhs),rhsMax =  -1.15979448267467E-11  2.08308462600809E-01
 cg2d: Sum(rhs),rhsMax =  -1.15246701071214E-11  2.09917763866978E-01
 cg2d: Sum(rhs),rhsMax =  -1.14596110378784E-11  2.11397048510067E-01
 cg2d: Sum(rhs),rhsMax =  -1.14195319866894E-11  2.12744720472878E-01
 cg2d: Sum(rhs),rhsMax =  -1.14350751090342E-11  2.13959440773882E-01
 cg2d: Sum(rhs),rhsMax =  -1.14075415780235E-11  2.15040131543984E-01
 cg2d: Sum(rhs),rhsMax =  -1.13994369499437E-11  2.15985978612128E-01
 cg2d: Sum(rhs),rhsMax =  -1.14555032126873E-11  2.16796432525749E-01
 cg2d: Sum(rhs),rhsMax =  -1.14835918552103E-11  2.17471207942815E-01
 cg2d: Sum(rhs),rhsMax =  -1.14677156659582E-11  2.18010281323046E-01
 cg2d: Sum(rhs),rhsMax =  -1.14769305170626E-11  2.18413886907479E-01
 cg2d: Sum(rhs),rhsMax =  -1.15883969087349E-11  2.18682511110697E-01
 cg2d: Sum(rhs),rhsMax =  -1.16151532836284E-11  2.18816885449389E-01
 cg2d: Sum(rhs),rhsMax =  -1.15406573186760E-11  2.18817978203737E-01
 cg2d: Sum(rhs),rhsMax =  -1.14872555911916E-11  2.18686985090200E-01
 cg2d: Sum(rhs),rhsMax =  -1.14271925255593E-11  2.18425319223017E-01
 cg2d: Sum(rhs),rhsMax =  -1.13592468764523E-11  2.18034600669766E-01
 cg2d: Sum(rhs),rhsMax =  -1.13054010597580E-11  2.17516645992833E-01
 cg2d: Sum(rhs),rhsMax =  -1.12926334949748E-11  2.16873458258505E-01
 cg2d: Sum(rhs),rhsMax =  -1.12300169163859E-11  2.16107217611801E-01
 cg2d: Sum(rhs),rhsMax =  -1.11844977723763E-11  2.15220272625278E-01
 cg2d: Sum(rhs),rhsMax =  -1.11468612118415E-11  2.14215132539315E-01
 cg2d: Sum(rhs),rhsMax =  -1.11414211190208E-11  2.13094460508691E-01
 cg2d: Sum(rhs),rhsMax =  -1.11655129586552E-11  2.11861067445152E-01
 cg2d: Sum(rhs),rhsMax =  -1.13199449813806E-11  2.10517906446702E-01
 cg2d: Sum(rhs),rhsMax =  -1.13583586980326E-11  2.09068067513342E-01
 cg2d: Sum(rhs),rhsMax =  -1.13107301302762E-11  2.07514772132067E-01
 cg2d: Sum(rhs),rhsMax =  -1.13881126750925E-11  2.05861367191511E-01
 cg2d: Sum(rhs),rhsMax =  -1.14275255924667E-11  2.04111318074275E-01
 cg2d: Sum(rhs),rhsMax =  -1.14921405724999E-11  2.02268200323909E-01
 cg2d: Sum(rhs),rhsMax =  -1.15579767978602E-11  2.00335689604019E-01
 cg2d: Sum(rhs),rhsMax =  -1.16180398634924E-11  1.98317549798708E-01
 cg2d: Sum(rhs),rhsMax =  -1.16839871111551E-11  1.96217619190640E-01
 cg2d: Sum(rhs),rhsMax =  -1.18361986878313E-11  1.94039794837558E-01
 cg2d: Sum(rhs),rhsMax =  -1.20029541861300E-11  1.91788015399142E-01
 cg2d: Sum(rhs),rhsMax =  -1.21682663944966E-11  1.89466242852834E-01
 cg2d: Sum(rhs),rhsMax =  -1.23393517625914E-11  1.87078443289489E-01
 cg2d: Sum(rhs),rhsMax =  -1.25360832825550E-11  1.84628567486294E-01
 cg2d: Sum(rhs),rhsMax =  -1.26834098779227E-11  1.82120531831148E-01
 cg2d: Sum(rhs),rhsMax =  -1.29007915461443E-11  1.79558200127115E-01
 cg2d: Sum(rhs),rhsMax =  -1.30945254639414E-11  1.76945366728436E-01
 cg2d: Sum(rhs),rhsMax =  -1.32670541219682E-11  1.74285741498780E-01
 cg2d: Sum(rhs),rhsMax =  -1.34886546376833E-11  1.71582936986489E-01
 cg2d: Sum(rhs),rhsMax =  -1.37011513245966E-11  1.68840457912118E-01
 cg2d: Sum(rhs),rhsMax =  -1.39406264310082E-11  1.66061693156607E-01
 cg2d: Sum(rhs),rhsMax =  -1.42130751612513E-11  1.63249910294827E-01
 cg2d: Sum(rhs),rhsMax =  -1.44747547281554E-11  1.60408252614255E-01
 cg2d: Sum(rhs),rhsMax =  -1.47697409857983E-11  1.57539738457746E-01
 cg2d: Sum(rhs),rhsMax =  -1.50662815556757E-11  1.54647262647119E-01
 cg2d: Sum(rhs),rhsMax =  -1.53613788356211E-11  1.51733599683245E-01
 cg2d: Sum(rhs),rhsMax =  -1.56346047219813E-11  1.48801408366742E-01
 cg2d: Sum(rhs),rhsMax =  -1.59333657379079E-11  1.45853237445019E-01
 cg2d: Sum(rhs),rhsMax =  -1.62510005452532E-11  1.42891531867245E-01
 cg2d: Sum(rhs),rhsMax =  -1.65596425460990E-11  1.39918639231938E-01
 cg2d: Sum(rhs),rhsMax =  -1.68668412570128E-11  1.36936815981279E-01
 cg2d: Sum(rhs),rhsMax =  -1.72425407285459E-11  1.33948232937352E-01
 cg2d: Sum(rhs),rhsMax =  -1.75598424689838E-11  1.30954979875345E-01
 cg2d: Sum(rhs),rhsMax =  -1.78917991533467E-11  1.27959068839303E-01
 cg2d: Sum(rhs),rhsMax =  -1.82797110781507E-11  1.24962435937180E-01
 cg2d: Sum(rhs),rhsMax =  -1.86630710885538E-11  1.21966941535035E-01
 cg2d: Sum(rhs),rhsMax =  -1.90258919730013E-11  1.18974368892335E-01
 cg2d: Sum(rhs),rhsMax =  -1.94936289332759E-11  1.15986421212725E-01
 cg2d: Sum(rhs),rhsMax =  -1.99493754848845E-11  1.13004717297244E-01
 cg2d: Sum(rhs),rhsMax =  -2.04870564957105E-11  1.10030786102751E-01
 cg2d: Sum(rhs),rhsMax =  -2.09665618200461E-11  1.07231326763402E-01
 cg2d: Sum(rhs),rhsMax =  -2.13150608274759E-11  1.05294883830579E-01
 cg2d: Sum(rhs),rhsMax =  -2.16888729198672E-11  1.03340446696690E-01
 cg2d: Sum(rhs),rhsMax =  -2.20445883769571E-11  1.01367910231315E-01
 cg2d: Sum(rhs),rhsMax =  -2.24282814542676E-11  9.93771063884457E-02
 cg2d: Sum(rhs),rhsMax =  -2.28486118913906E-11  9.73678056309213E-02
 cg2d: Sum(rhs),rhsMax =  -2.32760477558713E-11  9.53397188202681E-02
 cg2d: Sum(rhs),rhsMax =  -2.37214692333509E-11  9.32924997326323E-02
 cg2d: Sum(rhs),rhsMax =  -2.41975328663102E-11  9.12257484486477E-02
 cg2d: Sum(rhs),rhsMax =  -2.47057929669836E-11  8.91390158009902E-02
 cg2d: Sum(rhs),rhsMax =  -2.52442511339268E-11  8.70318089033005E-02
 cg2d: Sum(rhs),rhsMax =  -2.58415511211751E-11  8.49035977126987E-02
 cg2d: Sum(rhs),rhsMax =  -2.64055444176847E-11  8.27538224949504E-02
 cg2d: Sum(rhs),rhsMax =  -2.70702349425278E-11  8.05819019887933E-02
 cg2d: Sum(rhs),rhsMax =  -2.77515788127403E-11  7.83872420116998E-02
 cg2d: Sum(rhs),rhsMax =  -2.84892109903012E-11  7.61692442195347E-02
 cg2d: Sum(rhs),rhsMax =  -2.92734725348964E-11  7.39273147790827E-02
 cg2d: Sum(rhs),rhsMax =  -3.01392244494991E-11  7.16608726671961E-02
 cg2d: Sum(rhs),rhsMax =  -3.10547143556050E-11  6.93693574129169E-02
 cg2d: Sum(rhs),rhsMax =  -3.20463655612002E-11  6.70522361660123E-02
 cg2d: Sum(rhs),rhsMax =  -3.31268346087654E-11  6.47090100487707E-02
 cg2d: Sum(rhs),rhsMax =  -3.43067796393370E-11  6.23392198163299E-02
 cg2d: Sum(rhs),rhsMax =  -3.55924179018530E-11  5.99424509058042E-02
 cg2d: Sum(rhs),rhsMax =  -3.70228292467800E-11  5.75183379887804E-02
 cg2d: Sum(rhs),rhsMax =  -3.85997900309576E-11  5.50665691512113E-02
 cg2d: Sum(rhs),rhsMax =  -4.03370670198910E-11  5.25868898107672E-02
 cg2d: Sum(rhs),rhsMax =  -4.22366586150247E-11  5.00791064410113E-02
 cg2d: Sum(rhs),rhsMax =  -4.44263514864929E-11  4.75430901273195E-02
 cg2d: Sum(rhs),rhsMax =  -4.69397853919418E-11  4.49787798695678E-02
 cg2d: Sum(rhs),rhsMax =  -4.97404339938612E-11  4.23861857524184E-02
 cg2d: Sum(rhs),rhsMax =  -5.30018251510000E-11  3.97653917367820E-02
 cg2d: Sum(rhs),rhsMax =  -5.67652591598744E-11  3.71165579717565E-02
 cg2d: Sum(rhs),rhsMax =  -6.11342088063793E-11  3.44399226008445E-02
 cg2d: Sum(rhs),rhsMax =  -6.62967458708863E-11  3.17358030830341E-02
 cg2d: Sum(rhs),rhsMax =  -7.24924564821094E-11  2.90045971072036E-02
 cg2d: Sum(rhs),rhsMax =  -8.00974842007918E-11  2.62467832590659E-02
 cg2d: Sum(rhs),rhsMax =  -8.95663543332148E-11  2.34629216748191E-02
 cg2d: Sum(rhs),rhsMax =  -1.01686770115350E-10  2.06536549723132E-02
 cg2d: Sum(rhs),rhsMax =  -1.17795995180359E-10  1.78197097731045E-02
 cg2d: Sum(rhs),rhsMax =  -1.40267797377192E-10  1.49618991101093E-02
 cg2d: Sum(rhs),rhsMax =  -1.73624226107449E-10  1.20811259295274E-02
 cg2d: Sum(rhs),rhsMax =  -1.87884818814155E-10  1.11623615946394E-02
 cg2d: Sum(rhs),rhsMax =  -1.80330084198488E-10  1.16274727272800E-02
 cg2d: Sum(rhs),rhsMax =  -1.73030367811577E-10  1.21169194521410E-02
 cg2d: Sum(rhs),rhsMax =  -1.66588610961416E-10  1.25903681880654E-02
 cg2d: Sum(rhs),rhsMax =  -1.43453887657685E-10  1.46248015404654E-02
 cg2d: Sum(rhs),rhsMax =  -1.24618648733588E-10  1.68436902989114E-02
 cg2d: Sum(rhs),rhsMax =  -1.10048470336466E-10  1.90808370678519E-02
 cg2d: Sum(rhs),rhsMax =  -9.84999859454661E-11  2.13283704651796E-02
 cg2d: Sum(rhs),rhsMax =  -8.91378082457095E-11  2.36067462015293E-02
 cg2d: Sum(rhs),rhsMax =  -8.13112910336145E-11  2.58902758211774E-02
 cg2d: Sum(rhs),rhsMax =  -7.46104289461869E-11  2.82110693179162E-02
 cg2d: Sum(rhs),rhsMax =  -6.89140966514401E-11  3.05429514288634E-02
 cg2d: Sum(rhs),rhsMax =  -6.39477359953844E-11  3.29058749522780E-02
 cg2d: Sum(rhs),rhsMax =  -5.96505067562703E-11  3.53221486393496E-02
 cg2d: Sum(rhs),rhsMax =  -5.59149393453140E-11  3.77804110986256E-02
 cg2d: Sum(rhs),rhsMax =  -5.26294563485408E-11  4.02301187769786E-02
 cg2d: Sum(rhs),rhsMax =  -4.97082375261471E-11  4.26703916986528E-02
 cg2d: Sum(rhs),rhsMax =  -4.71851446803839E-11  4.51002841889693E-02
 cg2d: Sum(rhs),rhsMax =  -4.48818759934966E-11  4.75187797757621E-02
 cg2d: Sum(rhs),rhsMax =  -4.27741175812457E-11  4.99247865903343E-02
 cg2d: Sum(rhs),rhsMax =  -4.08943989782529E-11  5.23171337625429E-02
 cg2d: Sum(rhs),rhsMax =  -3.91935373045271E-11  5.46945692668861E-02
 cg2d: Sum(rhs),rhsMax =  -3.76324527096017E-11  5.70557595941866E-02
 cg2d: Sum(rhs),rhsMax =  -3.60836915902496E-11  5.96188355374706E-02
 cg2d: Sum(rhs),rhsMax =  -3.46154216401828E-11  6.24575247230300E-02
 cg2d: Sum(rhs),rhsMax =  -3.32965877092306E-11  6.52602186146569E-02
 cg2d: Sum(rhs),rhsMax =  -3.20994342217773E-11  6.80239243749475E-02
 cg2d: Sum(rhs),rhsMax =  -3.10149683713234E-11  7.07456094515198E-02
 cg2d: Sum(rhs),rhsMax =  -3.00198754743519E-11  7.34221990343554E-02
 cg2d: Sum(rhs),rhsMax =  -2.90983903639130E-11  7.60505766768684E-02
 cg2d: Sum(rhs),rhsMax =  -2.82419643227172E-11  7.86275886658628E-02
 cg2d: Sum(rhs),rhsMax =  -2.74446021464314E-11  8.11500525068644E-02
 cg2d: Sum(rhs),rhsMax =  -2.67351696336959E-11  8.36147695168872E-02
 cg2d: Sum(rhs),rhsMax =  -2.60709231980627E-11  8.60185411913295E-02
 cg2d: Sum(rhs),rhsMax =  -2.54890553108567E-11  8.83581887226218E-02
 cg2d: Sum(rhs),rhsMax =  -2.49698040022395E-11  9.06305748042942E-02
 cg2d: Sum(rhs),rhsMax =  -2.44586573217020E-11  9.28326267078866E-02
 cg2d: Sum(rhs),rhsMax =  -2.40404363083258E-11  9.49613595575621E-02
 cg2d: Sum(rhs),rhsMax =  -2.36763941785512E-11  9.70138987629275E-02
 cg2d: Sum(rhs),rhsMax =  -2.32950325695924E-11  9.89875006850096E-02
 cg2d: Sum(rhs),rhsMax =  -2.29534169449153E-11  1.00879570784034E-01
 cg2d: Sum(rhs),rhsMax =  -2.26424434757178E-11  1.02687678723899E-01
 cg2d: Sum(rhs),rhsMax =  -2.22530882609817E-11  1.04409570183836E-01
 cg2d: Sum(rhs),rhsMax =  -2.18834950160840E-11  1.06043175338791E-01
 cg2d: Sum(rhs),rhsMax =  -2.14961382027923E-11  1.07586614176475E-01
 cg2d: Sum(rhs),rhsMax =  -2.12013739897543E-11  1.09038198998329E-01
 cg2d: Sum(rhs),rhsMax =  -2.08582040528427E-11  1.10396434548424E-01
 cg2d: Sum(rhs),rhsMax =  -2.05531147656757E-11  1.11660016249688E-01
 cg2d: Sum(rhs),rhsMax =  -2.02876604404878E-11  1.12827827044748E-01
 cg2d: Sum(rhs),rhsMax =  -2.00178762455039E-11  1.13898933252267E-01
(PID.TID 0000.0001)      cg2d_init_res =   4.95804283993024E-02
(PID.TID 0000.0001)      cg2d_iters(min,last) =      -1      35
(PID.TID 0000.0001)      cg2d_last_res =   6.32499777191550E-14
(PID.TID 0000.0001) // =======================================================
(PID.TID 0000.0001) // Begin MONITOR dynamic field statistics
(PID.TID 0000.0001) // =======================================================
(PID.TID 0000.0001) %MON time_tsnumber                =                  1440
(PID.TID 0000.0001) %MON time_secondsf                =   2.1600000000000E+04
(PID.TID 0000.0001) %MON dynstat_eta_max              =   2.2372933183140E-02
(PID.TID 0000.0001) %MON dynstat_eta_min              =  -1.7878061728454E-02
(PID.TID 0000.0001) %MON dynstat_eta_mean             =   4.7437862607641E-15
(PID.TID 0000.0001) %MON dynstat_eta_sd               =   1.3815673720765E-02
(PID.TID 0000.0001) %MON dynstat_eta_del2             =   1.1219721666763E-05
(PID.TID 0000.0001) %MON dynstat_uvel_max             =   7.6570773371085E-01
(PID.TID 0000.0001) %MON dynstat_uvel_min             =  -1.1338726670104E-01
(PID.TID 0000.0001) %MON dynstat_uvel_mean            =   1.0910696929735E-01
(PID.TID 0000.0001) %MON dynstat_uvel_sd              =   4.6675769649019E-02
(PID.TID 0000.0001) %MON dynstat_uvel_del2            =   1.6976013665983E-04
(PID.TID 0000.0001) %MON dynstat_vvel_max             =   0.0000000000000E+00
(PID.TID 0000.0001) %MON dynstat_vvel_min             =   0.0000000000000E+00
(PID.TID 0000.0001) %MON dynstat_vvel_mean            =   0.0000000000000E+00
(PID.TID 0000.0001) %MON dynstat_vvel_sd              =   0.0000000000000E+00
(PID.TID 0000.0001) %MON dynstat_vvel_del2            =   0.0000000000000E+00
(PID.TID 0000.0001) %MON dynstat_wvel_max             =   6.7354210112653E-03
(PID.TID 0000.0001) %MON dynstat_wvel_min             =  -1.1866087175335E-02
(PID.TID 0000.0001) %MON dynstat_wvel_mean            =   1.2665354211598E-20
(PID.TID 0000.0001) %MON dynstat_wvel_sd              =   6.9643403439318E-04
(PID.TID 0000.0001) %MON dynstat_wvel_del2            =   1.2900380707371E-05
(PID.TID 0000.0001) %MON dynstat_theta_max            =   1.5000000000005E+01
(PID.TID 0000.0001) %MON dynstat_theta_min            =   9.9999999999973E+00
(PID.TID 0000.0001) %MON dynstat_theta_mean           =   1.2567206752539E+01
(PID.TID 0000.0001) %MON dynstat_theta_sd             =   2.4757162075358E+00
(PID.TID 0000.0001) %MON dynstat_theta_del2           =   1.0866270882092E-03
(PID.TID 0000.0001) %MON dynstat_salt_max             =   3.5000000000000E+01
(PID.TID 0000.0001) %MON dynstat_salt_min             =   3.5000000000000E+01
(PID.TID 0000.0001) %MON dynstat_salt_mean            =   3.5000000000000E+01
(PID.TID 0000.0001) %MON dynstat_salt_sd              =   3.9790393202566E-13
(PID.TID 0000.0001) %MON dynstat_salt_del2            =   0.0000000000000E+00
(PID.TID 0000.0001) %MON dynstat_sst_max              =   1.5000000000000E+01
(PID.TID 0000.0001) %MON dynstat_sst_min              =   1.4999999999999E+01
(PID.TID 0000.0001) %MON dynstat_sst_mean             =   1.5000000000000E+01
(PID.TID 0000.0001) %MON dynstat_sst_sd               =   1.4322073346904E-13
(PID.TID 0000.0001) %MON dynstat_sst_del2             =   4.8341980809140E-15
(PID.TID 0000.0001) %MON dynstat_sss_max              =   3.5000000000000E+01
(PID.TID 0000.0001) %MON dynstat_sss_min              =   3.5000000000000E+01
(PID.TID 0000.0001) %MON dynstat_sss_mean             =   3.5000000000000E+01
(PID.TID 0000.0001) %MON dynstat_sss_sd               =   5.6843418860808E-14
(PID.TID 0000.0001) %MON dynstat_sss_del2             =   0.0000000000000E+00
(PID.TID 0000.0001) %MON forcing_qnet_max             =   0.0000000000000E+00
(PID.TID 0000.0001) %MON forcing_qnet_min             =   0.0000000000000E+00
(PID.TID 0000.0001) %MON forcing_qnet_mean            =   0.0000000000000E+00
(PID.TID 0000.0001) %MON forcing_qnet_sd              =   0.0000000000000E+00
(PID.TID 0000.0001) %MON forcing_qnet_del2            =   0.0000000000000E+00
(PID.TID 0000.0001) %MON forcing_qsw_max              =   0.0000000000000E+00
(PID.TID 0000.0001) %MON forcing_qsw_min              =   0.0000000000000E+00
(PID.TID 0000.0001) %MON forcing_qsw_mean             =   0.0000000000000E+00
(PID.TID 0000.0001) %MON forcing_qsw_sd               =   0.0000000000000E+00
(PID.TID 0000.0001) %MON forcing_qsw_del2             =   0.0000000000000E+00
(PID.TID 0000.0001) %MON forcing_empmr_max            =   0.0000000000000E+00
(PID.TID 0000.0001) %MON forcing_empmr_min            =   0.0000000000000E+00
(PID.TID 0000.0001) %MON forcing_empmr_mean           =   0.0000000000000E+00
(PID.TID 0000.0001) %MON forcing_empmr_sd             =   0.0000000000000E+00
(PID.TID 0000.0001) %MON forcing_empmr_del2           =   0.0000000000000E+00
(PID.TID 0000.0001) %MON forcing_fu_max               =   0.0000000000000E+00
(PID.TID 0000.0001) %MON forcing_fu_min               =   0.0000000000000E+00
(PID.TID 0000.0001) %MON forcing_fu_mean              =   0.0000000000000E+00
(PID.TID 0000.0001) %MON forcing_fu_sd                =   0.0000000000000E+00
(PID.TID 0000.0001) %MON forcing_fu_del2              =   0.0000000000000E+00
(PID.TID 0000.0001) %MON forcing_fv_max               =   0.0000000000000E+00
(PID.TID 0000.0001) %MON forcing_fv_min               =   0.0000000000000E+00
(PID.TID 0000.0001) %MON forcing_fv_mean              =   0.0000000000000E+00
(PID.TID 0000.0001) %MON forcing_fv_sd                =   0.0000000000000E+00
(PID.TID 0000.0001) %MON forcing_fv_del2              =   0.0000000000000E+00
(PID.TID 0000.0001) %MON advcfl_uvel_max              =   5.7428080028314E-02
(PID.TID 0000.0001) %MON advcfl_vvel_max              =   0.0000000000000E+00
(PID.TID 0000.0001) %MON advcfl_wvel_max              =   1.6349920608979E-01
(PID.TID 0000.0001) %MON advcfl_W_hf_max              =   1.6349920608979E-01
(PID.TID 0000.0001) %MON pe_b_mean                    =   4.8070774343359E-06
(PID.TID 0000.0001) %MON ke_max                       =   1.7364859272232E-01
(PID.TID 0000.0001) %MON ke_mean                      =   7.0529204121832E-03
(PID.TID 0000.0001) %MON ke_vol                       =   9.5121673331316E+10
(PID.TID 0000.0001) %MON vort_r_min                   =   0.0000000000000E+00
(PID.TID 0000.0001) %MON vort_r_max                   =   0.0000000000000E+00
(PID.TID 0000.0001) %MON vort_a_mean                  =   0.0000000000000E+00
(PID.TID 0000.0001) %MON vort_a_sd                    =   0.0000000000000E+00
(PID.TID 0000.0001) %MON vort_p_mean                  =   0.0000000000000E+00
(PID.TID 0000.0001) %MON vort_p_sd                    =   0.0000000000000E+00
(PID.TID 0000.0001) %MON surfExpan_theta_mean         =   3.7709237376265E-20
(PID.TID 0000.0001) %MON surfExpan_salt_mean          =   4.4785538711070E-19
(PID.TID 0000.0001) // =======================================================
(PID.TID 0000.0001) // End MONITOR dynamic field statistics
(PID.TID 0000.0001) // =======================================================
(PID.TID 0000.0001) // =======================================================
(PID.TID 0000.0001) // Begin OBCS MONITOR field statistics
(PID.TID 0000.0001) // =======================================================
(PID.TID 0000.0001) %MON obc_E_uVel_max               =   1.0505355776936E-01
(PID.TID 0000.0001) %MON obc_E_uVel_min               =   1.0505355776936E-01
(PID.TID 0000.0001) %MON obc_E_uVel_mean              =   1.0505355776936E-01
(PID.TID 0000.0001) %MON obc_E_uVel_sd                =  -6.9388939039072E-18
(PID.TID 0000.0001) %MON obc_E_uVel_Int               =   1.0505355776936E+05
(PID.TID 0000.0001) %MON obc_W_uVel_max               =   1.0505355776936E-01
(PID.TID 0000.0001) %MON obc_W_uVel_min               =   1.0505355776936E-01
(PID.TID 0000.0001) %MON obc_W_uVel_mean              =   1.0505355776936E-01
(PID.TID 0000.0001) %MON obc_W_uVel_sd                =  -6.9388939039072E-18
(PID.TID 0000.0001) %MON obc_W_uVel_Int               =   1.0505355776936E+05
(PID.TID 0000.0001) // =======================================================
(PID.TID 0000.0001) // End OBCS MONITOR field statistics
(PID.TID 0000.0001) // =======================================================
(PID.TID 0000.0001) %CHECKPOINT      1440 0000001440
 cg2d: Sum(rhs),rhsMax =  -1.98113747629236E-11  1.14872579839278E-01
 cg2d: Sum(rhs),rhsMax =  -1.95919946932577E-11  1.15748185390574E-01
 cg2d: Sum(rhs),rhsMax =  -1.94013693999295E-11  1.16525336969346E-01
 cg2d: Sum(rhs),rhsMax =  -1.92349469685382E-11  1.17203784988898E-01
 cg2d: Sum(rhs),rhsMax =  -1.90724103177331E-11  1.17783438159626E-01
 cg2d: Sum(rhs),rhsMax =  -1.89478432943702E-11  1.18264358531472E-01
 cg2d: Sum(rhs),rhsMax =  -1.88795645783557E-11  1.18646756663364E-01
 cg2d: Sum(rhs),rhsMax =  -1.87981852306507E-11  1.18930986936486E-01
 cg2d: Sum(rhs),rhsMax =  -1.87315718491732E-11  1.19117543012787E-01
 cg2d: Sum(rhs),rhsMax =  -1.87425630571170E-11  1.19207053476527E-01
 cg2d: Sum(rhs),rhsMax =  -1.87664328521464E-11  1.19200277700014E-01
 cg2d: Sum(rhs),rhsMax =  -1.87863058442872E-11  1.19125259734636E-01
 cg2d: Sum(rhs),rhsMax =  -1.87653226291218E-11  1.19539686226708E-01
 cg2d: Sum(rhs),rhsMax =  -1.87356796743643E-11  1.19882049209777E-01
 cg2d: Sum(rhs),rhsMax =  -1.87518889305238E-11  1.20152387759667E-01
 cg2d: Sum(rhs),rhsMax =  -1.87309057153584E-11  1.20350849794098E-01
 cg2d: Sum(rhs),rhsMax =  -1.87343474067347E-11  1.20477685160911E-01
 cg2d: Sum(rhs),rhsMax =  -1.86892723519350E-11  1.20533238239689E-01
 cg2d: Sum(rhs),rhsMax =  -1.86910487087744E-11  1.20517940139541E-01
 cg2d: Sum(rhs),rhsMax =  -1.86849424821389E-11  1.20432300631108E-01
 cg2d: Sum(rhs),rhsMax =  -1.86873849727931E-11  1.20276899988485E-01
 cg2d: Sum(rhs),rhsMax =  -1.87500015513820E-11  1.20052380904981E-01
 cg2d: Sum(rhs),rhsMax =  -1.87664328521464E-11  1.19759440682939E-01
 cg2d: Sum(rhs),rhsMax =  -1.88414839286111E-11  1.19398823649752E-01
 cg2d: Sum(rhs),rhsMax =  -1.89053217525270E-11  1.18971314062512E-01
 cg2d: Sum(rhs),rhsMax =  -1.89624982382952E-11  1.18477729616413E-01
 cg2d: Sum(rhs),rhsMax =  -1.90574223069007E-11  1.17918915647155E-01
 cg2d: Sum(rhs),rhsMax =  -1.91846538655227E-11  1.17295740096402E-01
 cg2d: Sum(rhs),rhsMax =  -1.92895699413498E-11  1.16609089283374E-01
 cg2d: Sum(rhs),rhsMax =  -1.94204652359531E-11  1.15859864501201E-01
 cg2d: Sum(rhs),rhsMax =  -1.95529148427909E-11  1.15048979401794E-01
 cg2d: Sum(rhs),rhsMax =  -1.97019067726956E-11  1.14177358105731E-01
 cg2d: Sum(rhs),rhsMax =  -1.98567828846308E-11  1.13245933946780E-01
 cg2d: Sum(rhs),rhsMax =  -2.00027772123690E-11  1.12255648711560E-01
 cg2d: Sum(rhs),rhsMax =  -2.01880734351789E-11  1.11207452211905E-01
 cg2d: Sum(rhs),rhsMax =  -2.03579375579466E-11  1.10102302002885E-01
 cg2d: Sum(rhs),rhsMax =  -2.05835348765504E-11  1.08941163099339E-01
 cg2d: Sum(rhs),rhsMax =  -2.08737471751874E-11  1.07725007593623E-01
 cg2d: Sum(rhs),rhsMax =  -2.11813899753110E-11  1.06454813989169E-01
 cg2d: Sum(rhs),rhsMax =  -2.13783435398796E-11  1.05131566182411E-01
 cg2d: Sum(rhs),rhsMax =  -2.16102691297237E-11  1.03756252056255E-01
 cg2d: Sum(rhs),rhsMax =  -2.18374207605621E-11  1.02329861725683E-01
 cg2d: Sum(rhs),rhsMax =  -2.20922169447135E-11  1.00853385568453E-01
 cg2d: Sum(rhs),rhsMax =  -2.23494556195192E-11  9.93278120423134E-02
 cg2d: Sum(rhs),rhsMax =  -2.26301200001444E-11  9.77541254135093E-02
 cg2d: Sum(rhs),rhsMax =  -2.28834728943639E-11  9.61333035616311E-02
 cg2d: Sum(rhs),rhsMax =  -2.31944463635614E-11  9.44663159067439E-02
 cg2d: Sum(rhs),rhsMax =  -2.35080843680180E-11  9.27541215483486E-02
 cg2d: Sum(rhs),rhsMax =  -2.38296049559494E-11  9.09976677244392E-02
 cg2d: Sum(rhs),rhsMax =  -2.41886510821132E-11  8.91978885438915E-02
 cg2d: Sum(rhs),rhsMax =  -2.45441444945982E-11  8.73557039473490E-02
 cg2d: Sum(rhs),rhsMax =  -2.49942289087812E-11  8.54720187772550E-02
 cg2d: Sum(rhs),rhsMax =  -2.56340504378727E-11  8.35477217998763E-02
 cg2d: Sum(rhs),rhsMax =  -2.62476707035830E-11  8.15836845039037E-02
 cg2d: Sum(rhs),rhsMax =  -2.68698396865830E-11  7.95807595192222E-02
 cg2d: Sum(rhs),rhsMax =  -2.75696132590042E-11  7.75397784398614E-02
 cg2d: Sum(rhs),rhsMax =  -2.83078005480775E-11  7.54615490014588E-02
 cg2d: Sum(rhs),rhsMax =  -2.91506818683729E-11  7.33468515597242E-02
 cg2d: Sum(rhs),rhsMax =  -3.00643954176394E-11  7.11964348864564E-02
 cg2d: Sum(rhs),rhsMax =  -3.10810266412886E-11  6.90110113856131E-02
 cg2d: Sum(rhs),rhsMax =  -3.21372928269170E-11  6.67912519187654E-02
 cg2d: Sum(rhs),rhsMax =  -3.32932570401567E-11  6.45377805044696E-02
 cg2d: Sum(rhs),rhsMax =  -3.45595774220442E-11  6.22511692108016E-02
 cg2d: Sum(rhs),rhsMax =  -3.59891005885515E-11  5.99319335877258E-02
 cg2d: Sum(rhs),rhsMax =  -3.74944519876408E-11  5.75805289846878E-02
 cg2d: Sum(rhs),rhsMax =  -3.91955357059715E-11  5.51973480687951E-02
 cg2d: Sum(rhs),rhsMax =  -4.10611544765516E-11  5.27827198040853E-02
 cg2d: Sum(rhs),rhsMax =  -4.31275570811351E-11  5.03369100586654E-02
 cg2d: Sum(rhs),rhsMax =  -4.54545845407495E-11  4.78601239444932E-02
 cg2d: Sum(rhs),rhsMax =  -4.80582240669492E-11  4.53525098511684E-02
 cg2d: Sum(rhs),rhsMax =  -5.09403630388761E-11  4.28141651536235E-02
 cg2d: Sum(rhs),rhsMax =  -5.42541012116260E-11  4.02451433091101E-02
 cg2d: Sum(rhs),rhsMax =  -5.80722692156144E-11  3.76454620997402E-02
 cg2d: Sum(rhs),rhsMax =  -6.24879870070316E-11  3.50151127352325E-02
 cg2d: Sum(rhs),rhsMax =  -6.76997902182563E-11  3.23540695109069E-02
 cg2d: Sum(rhs),rhsMax =  -7.39342753686145E-11  2.96622997174513E-02
 cg2d: Sum(rhs),rhsMax =  -8.14877262889091E-11  2.69397735206657E-02
 cg2d: Sum(rhs),rhsMax =  -9.08826694456799E-11  2.41864735665106E-02
 cg2d: Sum(rhs),rhsMax =  -1.02807928836768E-10  2.14024041118168E-02
 cg2d: Sum(rhs),rhsMax =  -1.18508869384470E-10  1.85875995345539E-02
 cg2d: Sum(rhs),rhsMax =  -1.40023270756018E-10  1.57421321178359E-02
 cg2d: Sum(rhs),rhsMax =  -1.71434755280586E-10  1.28661190411541E-02
 cg2d: Sum(rhs),rhsMax =  -1.81305526147924E-10  1.21720063103629E-02
 cg2d: Sum(rhs),rhsMax =  -1.55975565796496E-10  1.41559252342107E-02
 cg2d: Sum(rhs),rhsMax =  -1.36643363291000E-10  1.61666327810203E-02
 cg2d: Sum(rhs),rhsMax =  -1.21540777442419E-10  1.81904382724111E-02
 cg2d: Sum(rhs),rhsMax =  -1.09266040659861E-10  2.02434246531479E-02
 cg2d: Sum(rhs),rhsMax =  -9.90856285909558E-11  2.23391706408146E-02
 cg2d: Sum(rhs),rhsMax =  -9.06155150914856E-11  2.44682034157151E-02
 cg2d: Sum(rhs),rhsMax =  -8.34556868056779E-11  2.65940545203272E-02
 cg2d: Sum(rhs),rhsMax =  -7.74128539049457E-11  2.87171314013636E-02
 cg2d: Sum(rhs),rhsMax =  -7.21718240725977E-11  3.08378199065314E-02
 cg2d: Sum(rhs),rhsMax =  -6.76210198946592E-11  3.29564803874360E-02
 cg2d: Sum(rhs),rhsMax =  -6.36406483067731E-11  3.50734452234551E-02
 cg2d: Sum(rhs),rhsMax =  -6.00341998335807E-11  3.71890177523312E-02
 cg2d: Sum(rhs),rhsMax =  -5.68700642133990E-11  3.93034724572046E-02
 cg2d: Sum(rhs),rhsMax =  -5.40298916718029E-11  4.14170561280910E-02
 cg2d: Sum(rhs),rhsMax =  -5.14931430828369E-11  4.35299895808268E-02
 cg2d: Sum(rhs),rhsMax =  -4.91375828914897E-11  4.56424695432767E-02
 cg2d: Sum(rhs),rhsMax =  -4.70230521187887E-11  4.77546701301887E-02
 cg2d: Sum(rhs),rhsMax =  -4.50852688516079E-11  4.98667434381320E-02
 cg2d: Sum(rhs),rhsMax =  -4.32701652286482E-11  5.19788188402296E-02
 cg2d: Sum(rhs),rhsMax =  -4.16375822709369E-11  5.40910007116879E-02
 cg2d: Sum(rhs),rhsMax =  -3.94947408111079E-11  5.70989332457044E-02
 cg2d: Sum(rhs),rhsMax =  -3.74001940528501E-11  6.04969879945665E-02
 cg2d: Sum(rhs),rhsMax =  -3.54877238706308E-11  6.39029944656179E-02
 cg2d: Sum(rhs),rhsMax =  -3.37384564730314E-11  6.73151226056564E-02
 cg2d: Sum(rhs),rhsMax =  -3.22293303156584E-11  7.07314663445834E-02
 cg2d: Sum(rhs),rhsMax =  -3.07880387850901E-11  7.41500454723692E-02
 cg2d: Sum(rhs),rhsMax =  -2.95086177715120E-11  7.75688084757617E-02
 cg2d: Sum(rhs),rhsMax =  -2.82938117379672E-11  8.09856362197308E-02
 cg2d: Sum(rhs),rhsMax =  -2.72111222443527E-11  8.43983462796915E-02
 cg2d: Sum(rhs),rhsMax =  -2.62161403696837E-11  8.78046976724502E-02
 cg2d: Sum(rhs),rhsMax =  -2.52594611893642E-11  9.12023956909469E-02
 cg2d: Sum(rhs),rhsMax =  -2.43965958546255E-11  9.45890965436958E-02
 cg2d: Sum(rhs),rhsMax =  -2.36115571539131E-11  9.79624115291824E-02
 cg2d: Sum(rhs),rhsMax =  -2.28970176152643E-11  1.01319910521729E-01
 cg2d: Sum(rhs),rhsMax =  -2.21964668867258E-11  1.04659124666409E-01
 cg2d: Sum(rhs),rhsMax =  -2.15635287403870E-11  1.07977548226730E-01
 cg2d: Sum(rhs),rhsMax =  -2.09445794041585E-11  1.11272639644840E-01
 cg2d: Sum(rhs),rhsMax =  -2.04194439135108E-11  1.14541821978556E-01
 cg2d: Sum(rhs),rhsMax =  -1.99495975294894E-11  1.17782482964013E-01
 cg2d: Sum(rhs),rhsMax =  -1.94774196771164E-11  1.20991975014892E-01
 cg2d: Sum(rhs),rhsMax =  -1.90569782176908E-11  1.24167615503695E-01
 cg2d: Sum(rhs),rhsMax =  -1.86305415539323E-11  1.27306687675397E-01
 cg2d: Sum(rhs),rhsMax =  -1.82623915989666E-11  1.30406442519170E-01
 cg2d: Sum(rhs),rhsMax =  -1.78669301575951E-11  1.33464101872584E-01
 cg2d: Sum(rhs),rhsMax =  -1.75686132308783E-11  1.36476862959992E-01
 cg2d: Sum(rhs),rhsMax =  -1.72227787587076E-11  1.39441904479055E-01
 cg2d: Sum(rhs),rhsMax =  -1.69083635981337E-11  1.42356394249543E-01
 cg2d: Sum(rhs),rhsMax =  -1.66316960203972E-11  1.45217498346782E-01
 cg2d: Sum(rhs),rhsMax =  -1.63368207850567E-11  1.48022391557406E-01
 cg2d: Sum(rhs),rhsMax =  -1.60944590987810E-11  1.50768268896257E-01
 cg2d: Sum(rhs),rhsMax =  -1.58609791967024E-11  1.53452357885272E-01
 cg2d: Sum(rhs),rhsMax =  -1.56299417852779E-11  1.56071931256120E-01
 cg2d: Sum(rhs),rhsMax =  -1.54217749681607E-11  1.58624319701750E-01
 cg2d: Sum(rhs),rhsMax =  -1.52446943957329E-11  1.61106924309783E-01
 cg2d: Sum(rhs),rhsMax =  -1.51092471867287E-11  1.63517228352936E-01
 cg2d: Sum(rhs),rhsMax =  -1.49892320777667E-11  1.65852808129246E-01
 cg2d: Sum(rhs),rhsMax =  -1.48394629917448E-11  1.68111342609566E-01
 cg2d: Sum(rhs),rhsMax =  -1.47487577706329E-11  1.70290621713795E-01
 cg2d: Sum(rhs),rhsMax =  -1.46548329027496E-11  1.72388553106826E-01
 cg2d: Sum(rhs),rhsMax =  -1.45458090017314E-11  1.74403167475438E-01
 cg2d: Sum(rhs),rhsMax =  -1.44723122375012E-11  1.76332622316795E-01
 cg2d: Sum(rhs),rhsMax =  -1.43715039868653E-11  1.78175204319150E-01
 cg2d: Sum(rhs),rhsMax =  -1.42964529104006E-11  1.79929330474246E-01
 cg2d: Sum(rhs),rhsMax =  -1.43514089501195E-11  1.81593548100936E-01
 cg2d: Sum(rhs),rhsMax =  -1.43214329284547E-11  1.83166533981193E-01
 cg2d: Sum(rhs),rhsMax =  -1.42520439894156E-11  1.84647092824397E-01
 cg2d: Sum(rhs),rhsMax =  -1.41691103294761E-11  1.86034155277477E-01
 cg2d: Sum(rhs),rhsMax =  -1.41732181546672E-11  1.87326775696584E-01
 cg2d: Sum(rhs),rhsMax =  -1.41514577833846E-11  1.88524129880437E-01
 cg2d: Sum(rhs),rhsMax =  -1.41245903861886E-11  1.89625512931749E-01
 cg2d: Sum(rhs),rhsMax =  -1.40958356098508E-11  1.90630337388456E-01
 cg2d: Sum(rhs),rhsMax =  -1.40767397738273E-11  1.91538131737789E-01
 cg2d: Sum(rhs),rhsMax =  -1.39930289577705E-11  1.92348539394997E-01
 cg2d: Sum(rhs),rhsMax =  -1.39053213388252E-11  1.93061318117972E-01
 cg2d: Sum(rhs),rhsMax =  -1.37508893160998E-11  1.93676339898038E-01
 cg2d: Sum(rhs),rhsMax =  -1.36406441697545E-11  1.94193591269707E-01
 cg2d: Sum(rhs),rhsMax =  -1.35326194694585E-11  1.94613173943063E-01
 cg2d: Sum(rhs),rhsMax =  -1.34355859771063E-11  1.94935305630728E-01
 cg2d: Sum(rhs),rhsMax =  -1.32955868537010E-11  1.95160320919298E-01
 cg2d: Sum(rhs),rhsMax =  -1.32136523944837E-11  1.95288672022915E-01
 cg2d: Sum(rhs),rhsMax =  -1.32077682124532E-11  1.95320929271688E-01
 cg2d: Sum(rhs),rhsMax =  -1.31856747742631E-11  1.95257781115039E-01
 cg2d: Sum(rhs),rhsMax =  -1.31128441438477E-11  1.95100033553188E-01
 cg2d: Sum(rhs),rhsMax =  -1.30579991264312E-11  1.94848608977535E-01
 cg2d: Sum(rhs),rhsMax =  -1.29833921391764E-11  1.94504544253506E-01
 cg2d: Sum(rhs),rhsMax =  -1.29656285707824E-11  1.94068988036418E-01
 cg2d: Sum(rhs),rhsMax =  -1.29235511181491E-11  1.93543197359671E-01
 cg2d: Sum(rhs),rhsMax =  -1.29352084599077E-11  1.92928533614754E-01
 cg2d: Sum(rhs),rhsMax =  -1.29717347974179E-11  1.92226457989238E-01
 cg2d: Sum(rhs),rhsMax =  -1.30507826767712E-11  1.91438526435793E-01
 cg2d: Sum(rhs),rhsMax =  -1.31762378785538E-11  1.90566384451348E-01
 cg2d: Sum(rhs),rhsMax =  -1.32429622823338E-11  1.89611761807179E-01
 cg2d: Sum(rhs),rhsMax =  -1.33473232466486E-11  1.88576467355308E-01
 cg2d: Sum(rhs),rhsMax =  -1.34303679288905E-11  1.87462384015321E-01
 cg2d: Sum(rhs),rhsMax =  -1.35208511053975E-11  1.86271464014384E-01
 cg2d: Sum(rhs),rhsMax =  -1.36330946531871E-11  1.85005724399776E-01
 cg2d: Sum(rhs),rhsMax =  -1.37134748001699E-11  1.83667242822460E-01
 cg2d: Sum(rhs),rhsMax =  -1.38071776234483E-11  1.82258153626956E-01
 cg2d: Sum(rhs),rhsMax =  -1.39545042188161E-11  1.80780644028933E-01
 cg2d: Sum(rhs),rhsMax =  -1.40726319486362E-11  1.79236950282470E-01
 cg2d: Sum(rhs),rhsMax =  -1.42236222799852E-11  1.77629353694263E-01
 cg2d: Sum(rhs),rhsMax =  -1.43589584666870E-11  1.75960176327959E-01
 cg2d: Sum(rhs),rhsMax =  -1.44850798022844E-11  1.74231776243728E-01
 cg2d: Sum(rhs),rhsMax =  -1.46389567134975E-11  1.72446542135556E-01
 cg2d: Sum(rhs),rhsMax =  -1.48152601298079E-11  1.70606887260325E-01
 cg2d: Sum(rhs),rhsMax =  -1.49735779331195E-11  1.68715242667257E-01
 cg2d: Sum(rhs),rhsMax =  -1.51606505127688E-11  1.66774049480017E-01
 cg2d: Sum(rhs),rhsMax =  -1.53538293190536E-11  1.64785750499629E-01
 cg2d: Sum(rhs),rhsMax =  -1.55592205786093E-11  1.62752781267321E-01
 cg2d: Sum(rhs),rhsMax =  -1.57721613547324E-11  1.60677560642011E-01
 cg2d: Sum(rhs),rhsMax =  -1.59910973351884E-11  1.58562481104057E-01
 cg2d: Sum(rhs),rhsMax =  -1.62082569588051E-11  1.56409899006054E-01
 cg2d: Sum(rhs),rhsMax =  -1.64339652997114E-11  1.54222125083669E-01
 cg2d: Sum(rhs),rhsMax =  -1.66311409088848E-11  1.52001415502814E-01
 cg2d: Sum(rhs),rhsMax =  -1.68246527820770E-11  1.49749963703748E-01
 cg2d: Sum(rhs),rhsMax =  -1.70683467359822E-11  1.47469893282444E-01
 cg2d: Sum(rhs),rhsMax =  -1.72577507839833E-11  1.45163252111849E-01
 cg2d: Sum(rhs),rhsMax =  -1.75233161314736E-11  1.42832007855175E-01
 cg2d: Sum(rhs),rhsMax =  -1.77904357911984E-11  1.40478044963201E-01
 cg2d: Sum(rhs),rhsMax =  -1.80578885178306E-11  1.38103163184609E-01
 cg2d: Sum(rhs),rhsMax =  -1.82942549997733E-11  1.35709077554574E-01
 cg2d: Sum(rhs),rhsMax =  -1.85866877444596E-11  1.33297419700448E-01
 cg2d: Sum(rhs),rhsMax =  -1.88502546905056E-11  1.30869740357266E-01
 cg2d: Sum(rhs),rhsMax =  -1.91744398136962E-11  1.28427512860406E-01
 cg2d: Sum(rhs),rhsMax =  -1.94601001979322E-11  1.25972137344919E-01
 cg2d: Sum(rhs),rhsMax =  -1.97759586484381E-11  1.23504945339576E-01
 cg2d: Sum(rhs),rhsMax =  -2.01162420054857E-11  1.21027204458884E-01
 cg2d: Sum(rhs),rhsMax =  -2.04399830394664E-11  1.18540122898457E-01
 cg2d: Sum(rhs),rhsMax =  -2.08232320275670E-11  1.16044853458196E-01
 cg2d: Sum(rhs),rhsMax =  -2.11644035630343E-11  1.13542496819025E-01
 cg2d: Sum(rhs),rhsMax =  -2.15667483871584E-11  1.11034103977277E-01
 cg2d: Sum(rhs),rhsMax =  -2.19937401624293E-11  1.08520677675848E-01
 cg2d: Sum(rhs),rhsMax =  -2.24849028285234E-11  1.06003172742976E-01
 cg2d: Sum(rhs),rhsMax =  -2.29938290630116E-11  1.03482495369524E-01
 cg2d: Sum(rhs),rhsMax =  -2.35035324536170E-11  1.00959501470401E-01
 cg2d: Sum(rhs),rhsMax =  -2.40707453968980E-11  9.84349943050959E-02
 cg2d: Sum(rhs),rhsMax =  -2.45806708321084E-11  9.62498676835548E-02
 cg2d: Sum(rhs),rhsMax =  -2.50937048917876E-11  9.41251630304495E-02
 cg2d: Sum(rhs),rhsMax =  -2.56521470731741E-11  9.19743347454128E-02
 cg2d: Sum(rhs),rhsMax =  -2.62194710387575E-11  8.97978290669941E-02
 cg2d: Sum(rhs),rhsMax =  -2.68047806173399E-11  8.75961022725750E-02
 cg2d: Sum(rhs),rhsMax =  -2.74731348781643E-11  8.53696231089134E-02
 cg2d: Sum(rhs),rhsMax =  -2.81548118152841E-11  8.31188747239385E-02
 cg2d: Sum(rhs),rhsMax =  -2.88982171525731E-11  8.08443561950597E-02
 cg2d: Sum(rhs),rhsMax =  -2.97104563173889E-11  7.85465836146572E-02
 cg2d: Sum(rhs),rhsMax =  -3.05662162247700E-11  7.62260906669548E-02
 cg2d: Sum(rhs),rhsMax =  -3.14730463912838E-11  7.38834286103078E-02
 cg2d: Sum(rhs),rhsMax =  -3.24500426529539E-11  7.15191656327973E-02
 cg2d: Sum(rhs),rhsMax =  -3.35429461983949E-11  6.91338855222538E-02
 cg2d: Sum(rhs),rhsMax =  -3.46755957281175E-11  6.67281856595411E-02
 cg2d: Sum(rhs),rhsMax =  -3.59201557387223E-11  6.43026744214440E-02
 cg2d: Sum(rhs),rhsMax =  -3.73044928281274E-11  6.18579681475890E-02
 cg2d: Sum(rhs),rhsMax =  -3.88076237811674E-11  5.93946878896860E-02
 cg2d: Sum(rhs),rhsMax =  -4.04103417395163E-11  5.69134562121688E-02
 cg2d: Sum(rhs),rhsMax =  -4.21966905861382E-11  5.44148943416565E-02
 cg2d: Sum(rhs),rhsMax =  -4.41924274952044E-11  5.18996199615688E-02
 cg2d: Sum(rhs),rhsMax =  -4.63882265933080E-11  4.93682459153421E-02
 cg2d: Sum(rhs),rhsMax =  -4.88715734547895E-11  4.68213800196325E-02
 cg2d: Sum(rhs),rhsMax =  -5.16273690465141E-11  4.42596261059882E-02
 cg2d: Sum(rhs),rhsMax =  -5.47311085341562E-11  4.16835863088748E-02
 cg2d: Sum(rhs),rhsMax =  -5.82613957078593E-11  3.90938645045539E-02
 cg2d: Sum(rhs),rhsMax =  -6.24078566602293E-11  3.64910707428516E-02
 cg2d: Sum(rhs),rhsMax =  -6.71818156661175E-11  3.38758265669767E-02
 cg2d: Sum(rhs),rhsMax =  -7.28404003780270E-11  3.12487707807302E-02
 cg2d: Sum(rhs),rhsMax =  -7.94913024293464E-11  2.86105653950886E-02
 cg2d: Sum(rhs),rhsMax =  -8.75645111975132E-11  2.59619015044584E-02
 cg2d: Sum(rhs),rhsMax =  -9.74782476959035E-11  2.33035048670809E-02
 cg2d: Sum(rhs),rhsMax =  -1.10015663246088E-10  2.06361410046203E-02
 cg2d: Sum(rhs),rhsMax =  -1.26372690090193E-10  1.79606196910049E-02
 cg2d: Sum(rhs),rhsMax =  -1.48493661811244E-10  1.52777987614730E-02
 cg2d: Sum(rhs),rhsMax =  -1.80139902994370E-10  1.25885872261248E-02
 cg2d: Sum(rhs),rhsMax =  -2.29086749570229E-10  9.89394771339179E-03
 cg2d: Sum(rhs),rhsMax =  -2.24223306588556E-10  1.01053116033921E-02
 cg2d: Sum(rhs),rhsMax =  -2.11473782929517E-10  1.07116668277991E-02
 cg2d: Sum(rhs),rhsMax =  -2.00323896359933E-10  1.13048864526823E-02
 cg2d: Sum(rhs),rhsMax =  -1.89588192367474E-10  1.19409087034839E-02
 cg2d: Sum(rhs),rhsMax =  -1.79838421932033E-10  1.25900951649786E-02
 cg2d: Sum(rhs),rhsMax =  -1.71113123670352E-10  1.32277217310933E-02
 cg2d: Sum(rhs),rhsMax =  -1.63318802925971E-10  1.38535748090039E-02
 cg2d: Sum(rhs),rhsMax =  -1.56361368297553E-10  1.44677014514186E-02
 cg2d: Sum(rhs),rhsMax =  -1.49709467045511E-10  1.51103016148644E-02
 cg2d: Sum(rhs),rhsMax =  -1.28884902750315E-10  1.75464664846476E-02
 cg2d: Sum(rhs),rhsMax =  -1.12864495527276E-10  2.00347817162223E-02
 cg2d: Sum(rhs),rhsMax =  -1.00265462599225E-10  2.25571562521702E-02
 cg2d: Sum(rhs),rhsMax =  -8.99801344544926E-11  2.51200357436823E-02
 cg2d: Sum(rhs),rhsMax =  -8.14993628139860E-11  2.77274515440334E-02
 cg2d: Sum(rhs),rhsMax =  -7.44424522025611E-11  3.03498623485568E-02
 cg2d: Sum(rhs),rhsMax =  -6.85439482950301E-11  3.29548271593670E-02
 cg2d: Sum(rhs),rhsMax =  -6.35490549072415E-11  3.55405036654532E-02
 cg2d: Sum(rhs),rhsMax =  -5.92408344601836E-11  3.81050095524525E-02
 cg2d: Sum(rhs),rhsMax =  -5.55337997809602E-11  4.06464244616430E-02
 cg2d: Sum(rhs),rhsMax =  -5.22667464863957E-11  4.31627925693050E-02
 cg2d: Sum(rhs),rhsMax =  -4.94140284246214E-11  4.56521259038487E-02
 cg2d: Sum(rhs),rhsMax =  -4.68637351147549E-11  4.81124084563863E-02
 cg2d: Sum(rhs),rhsMax =  -4.45545822458371E-11  5.05416010452935E-02
 cg2d: Sum(rhs),rhsMax =  -4.25243174007051E-11  5.29376467772275E-02
 cg2d: Sum(rhs),rhsMax =  -4.06557010279585E-11  5.52984768401484E-02
 cg2d: Sum(rhs),rhsMax =  -3.89688281643430E-11  5.76220163134506E-02
 cg2d: Sum(rhs),rhsMax =  -3.74578146278282E-11  5.99061896775680E-02
 cg2d: Sum(rhs),rhsMax =  -3.60366181340055E-11  6.21489257599403E-02
 cg2d: Sum(rhs),rhsMax =  -3.47654127708097E-11  6.43481619616449E-02
 cg2d: Sum(rhs),rhsMax =  -3.35533822948264E-11  6.65018477551141E-02
 cg2d: Sum(rhs),rhsMax =  -3.24755777825203E-11  6.86079476089494E-02
 cg2d: Sum(rhs),rhsMax =  -3.14440695703411E-11  7.06644436414134E-02
 cg2d: Sum(rhs),rhsMax =  -3.05252489951613E-11  7.26693383975457E-02
 cg2d: Sum(rhs),rhsMax =  -2.96545010769478E-11  7.46206582470431E-02
 cg2d: Sum(rhs),rhsMax =  -2.88739032683338E-11  7.65164578444092E-02
 cg2d: Sum(rhs),rhsMax =  -2.81178413885641E-11  7.83548259974739E-02
 cg2d: Sum(rhs),rhsMax =  -2.74302802694137E-11  8.01338931378959E-02
 cg2d: Sum(rhs),rhsMax =  -2.67725841496258E-11  8.18518403942472E-02
 cg2d: Sum(rhs),rhsMax =  -2.61736188278405E-11  8.35069100617506E-02
 cg2d: Sum(rhs),rhsMax =  -2.56221710515092E-11  8.50974170731711E-02
 cg2d: Sum(rhs),rhsMax =  -2.50576226434873E-11  8.66217609301450E-02
 cg2d: Sum(rhs),rhsMax =  -2.45881093263733E-11  8.80784374733270E-02
 cg2d: Sum(rhs),rhsMax =  -2.41489050978316E-11  8.94660498582164E-02
 cg2d: Sum(rhs),rhsMax =  -2.37282415938012E-11  9.07833181826208E-02
 cg2d: Sum(rhs),rhsMax =  -2.33890684597782E-11  9.20290873225287E-02
 cg2d: Sum(rhs),rhsMax =  -2.30246932630962E-11  9.32023326983263E-02
 cg2d: Sum(rhs),rhsMax =  -2.27114993478494E-11  9.43021638787229E-02
 cg2d: Sum(rhs),rhsMax =  -2.24479324018034E-11  9.53278260923541E-02
 cg2d: Sum(rhs),rhsMax =  -2.21794804744491E-11  9.62786999050188E-02
 cg2d: Sum(rhs),rhsMax =  -2.19039231197371E-11  9.71542993911998E-02
 cg2d: Sum(rhs),rhsMax =  -2.16031637023661E-11  9.82363413481622E-02
 cg2d: Sum(rhs),rhsMax =  -2.12799777798978E-11  9.95222606380021E-02
 cg2d: Sum(rhs),rhsMax =  -2.09885442359337E-11  1.00750226475974E-01
 cg2d: Sum(rhs),rhsMax =  -2.07035499855124E-11  1.01918880926851E-01
 cg2d: Sum(rhs),rhsMax =  -2.04397609948614E-11  1.03026931668163E-01
 cg2d: Sum(rhs),rhsMax =  -2.02253769288063E-11  1.04073159072987E-01
 cg2d: Sum(rhs),rhsMax =  -2.00407468398112E-11  1.05056423211917E-01
 cg2d: Sum(rhs),rhsMax =  -1.98896454861597E-11  1.05975670465894E-01
 cg2d: Sum(rhs),rhsMax =  -1.97090122000532E-11  1.06829939446386E-01
 cg2d: Sum(rhs),rhsMax =  -1.95981009198931E-11  1.07618365930424E-01
 cg2d: Sum(rhs),rhsMax =  -1.94586569080002E-11  1.08340186640819E-01
 cg2d: Sum(rhs),rhsMax =  -1.93511873192165E-11  1.08994741749569E-01
 cg2d: Sum(rhs),rhsMax =  -1.92650340125056E-11  1.09581476068713E-01
 cg2d: Sum(rhs),rhsMax =  -1.91753279921159E-11  1.10099938976461E-01
 cg2d: Sum(rhs),rhsMax =  -1.90639726227460E-11  1.10549783198515E-01
 cg2d: Sum(rhs),rhsMax =  -1.90230053931373E-11  1.10930762616319E-01
 cg2d: Sum(rhs),rhsMax =  -1.89981363973857E-11  1.11242729301849E-01
 cg2d: Sum(rhs),rhsMax =  -1.89873672340468E-11  1.11485629981003E-01
 cg2d: Sum(rhs),rhsMax =  -1.89364079972165E-11  1.11659502075158E-01
 cg2d: Sum(rhs),rhsMax =  -1.89237514547358E-11  1.11764469537972E-01
 cg2d: Sum(rhs),rhsMax =  -1.88955517899103E-11  1.11800738544502E-01
 cg2d: Sum(rhs),rhsMax =  -1.89067650424590E-11  1.11768593035987E-01
 cg2d: Sum(rhs),rhsMax =  -1.89559479224499E-11  1.11668390092647E-01
 cg2d: Sum(rhs),rhsMax =  -1.89616100598755E-11  1.11500555058069E-01
 cg2d: Sum(rhs),rhsMax =  -1.89734894462390E-11  1.11265576397535E-01
 cg2d: Sum(rhs),rhsMax =  -1.90417681622534E-11  1.10964000067182E-01
 cg2d: Sum(rhs),rhsMax =  -1.90891746854049E-11  1.10596423370752E-01
 cg2d: Sum(rhs),rhsMax =  -1.91628934942401E-11  1.10163488282992E-01
 cg2d: Sum(rhs),rhsMax =  -1.92585947189627E-11  1.09665874234087E-01
 cg2d: Sum(rhs),rhsMax =  -1.93187688068974E-11  1.09104290417929E-01
 cg2d: Sum(rhs),rhsMax =  -1.94262383956811E-11  1.08479467764513E-01
 cg2d: Sum(rhs),rhsMax =  -1.95529148427909E-11  1.07792150792672E-01
 cg2d: Sum(rhs),rhsMax =  -1.96964666798749E-11  1.07043089628011E-01
 cg2d: Sum(rhs),rhsMax =  -1.99087413221832E-11  1.06233032477184E-01
 cg2d: Sum(rhs),rhsMax =  -2.00121030857758E-11  1.05362718918985E-01
 cg2d: Sum(rhs),rhsMax =  -2.00903738090119E-11  1.04432874326696E-01
 cg2d: Sum(rhs),rhsMax =  -2.01583194581190E-11  1.03444205689545E-01
 cg2d: Sum(rhs),rhsMax =  -2.02111660740911E-11  1.02397399031130E-01
 cg2d: Sum(rhs),rhsMax =  -2.02898808865370E-11  1.01293118517151E-01
 cg2d: Sum(rhs),rhsMax =  -2.03663752529337E-11  1.00132007254545E-01
 cg2d: Sum(rhs),rhsMax =  -2.04909422762967E-11  9.89146897368952E-02
 cg2d: Sum(rhs),rhsMax =  -2.05573336131692E-11  9.76417756410973E-02
 cg2d: Sum(rhs),rhsMax =  -2.07042161193272E-11  9.63138646539494E-02
 cg2d: Sum(rhs),rhsMax =  -2.09039452414572E-11  9.49315520109284E-02
 cg2d: Sum(rhs),rhsMax =  -2.11692885443426E-11  9.34954343803950E-02
 cg2d: Sum(rhs),rhsMax =  -2.14328554903886E-11  9.20061156267771E-02
 cg2d: Sum(rhs),rhsMax =  -2.19065876549962E-11  9.04642120977692E-02
 cg2d: Sum(rhs),rhsMax =  -2.22937224236830E-11  8.88703571420768E-02
 cg2d: Sum(rhs),rhsMax =  -2.27394769680700E-11  8.72252046912407E-02
 cg2d: Sum(rhs),rhsMax =  -2.32147634449120E-11  8.55294316548506E-02
 cg2d: Sum(rhs),rhsMax =  -2.37346808873440E-11  8.37837391848001E-02
 cg2d: Sum(rhs),rhsMax =  -2.42726949650773E-11  8.19888528985261E-02
 cg2d: Sum(rhs),rhsMax =  -2.48862042084852E-11  8.01455221752383E-02
 cg2d: Sum(rhs),rhsMax =  -2.55594434506179E-11  7.82545187410690E-02
 cg2d: Sum(rhs),rhsMax =  -2.62944110929197E-11  7.63166347758838E-02
 cg2d: Sum(rhs),rhsMax =  -2.70565791993249E-11  7.43326807961177E-02
 cg2d: Sum(rhs),rhsMax =  -2.79412049053462E-11  7.23034835029771E-02
 cg2d: Sum(rhs),rhsMax =  -2.88171708717755E-11  7.02298838187315E-02
 cg2d: Sum(rhs),rhsMax =  -2.97333269116962E-11  6.81127352723216E-02
 cg2d: Sum(rhs),rhsMax =  -3.07651681907828E-11  6.59529028113047E-02
 cg2d: Sum(rhs),rhsMax =  -3.18868265125616E-11  6.37512620537801E-02
 cg2d: Sum(rhs),rhsMax =  -3.31145111331921E-11  6.15086989358785E-02
 cg2d: Sum(rhs),rhsMax =  -3.44394512907797E-11  5.92261096601451E-02
 cg2d: Sum(rhs),rhsMax =  -3.59037244379579E-11  5.69044008106486E-02
 cg2d: Sum(rhs),rhsMax =  -3.75286468567992E-11  5.45444894751499E-02
 cg2d: Sum(rhs),rhsMax =  -3.93203247739393E-11  5.21473032054683E-02
 cg2d: Sum(rhs),rhsMax =  -4.13507006413738E-11  4.97137796576305E-02
 cg2d: Sum(rhs),rhsMax =  -4.36204405929175E-11  4.72448657786862E-02
 cg2d: Sum(rhs),rhsMax =  -4.61830573783573E-11  4.47415164404359E-02
 cg2d: Sum(rhs),rhsMax =  -4.90708029765585E-11  4.22046925171705E-02
 cg2d: Sum(rhs),rhsMax =  -5.23087684278778E-11  3.96353584050038E-02
 cg2d: Sum(rhs),rhsMax =  -5.60455570841611E-11  3.70344790574249E-02
 cg2d: Sum(rhs),rhsMax =  -6.03803673726588E-11  3.44030168055306E-02
 cg2d: Sum(rhs),rhsMax =  -6.55092091683684E-11  3.17419280681071E-02
 cg2d: Sum(rhs),rhsMax =  -7.16264270117506E-11  2.90521602155462E-02
 cg2d: Sum(rhs),rhsMax =  -7.90677523454519E-11  2.63346488747860E-02
 cg2d: Sum(rhs),rhsMax =  -8.83494943870744E-11  2.35903159580967E-02
 cg2d: Sum(rhs),rhsMax =  -1.00200236996528E-10  2.08200686649159E-02
 cg2d: Sum(rhs),rhsMax =  -1.15873505235342E-10  1.80247996458183E-02
 cg2d: Sum(rhs),rhsMax =  -1.37444649411789E-10  1.52053884424346E-02
 cg2d: Sum(rhs),rhsMax =  -1.69114555692573E-10  1.23627042182981E-02
 cg2d: Sum(rhs),rhsMax =  -2.13982942476321E-10  9.77405151847362E-03
 cg2d: Sum(rhs),rhsMax =  -2.33020380768778E-10  8.97836631841866E-03
 cg2d: Sum(rhs),rhsMax =  -2.14398387932135E-10  9.76290019772111E-03
 cg2d: Sum(rhs),rhsMax =  -1.96676785968464E-10  1.06464335647019E-02
 cg2d: Sum(rhs),rhsMax =  -1.68099867359217E-10  1.24619085049797E-02
 cg2d: Sum(rhs),rhsMax =  -1.46323619887312E-10  1.43217230288025E-02
 cg2d: Sum(rhs),rhsMax =  -1.29341648502646E-10  1.62073199238854E-02
 cg2d: Sum(rhs),rhsMax =  -1.15652931675925E-10  1.81305290715407E-02
 cg2d: Sum(rhs),rhsMax =  -1.04437347658859E-10  2.00842817682791E-02
 cg2d: Sum(rhs),rhsMax =  -9.50538536770296E-11  2.20904627988364E-02
 cg2d: Sum(rhs),rhsMax =  -8.71065441998553E-11  2.41418723266966E-02
 cg2d: Sum(rhs),rhsMax =  -8.03770383583924E-11  2.61946251557593E-02
 cg2d: Sum(rhs),rhsMax =  -7.46205319757109E-11  2.82486770383517E-02
 cg2d: Sum(rhs),rhsMax =  -6.88795687153743E-11  3.06423034138988E-02
 cg2d: Sum(rhs),rhsMax =  -6.33115782022742E-11  3.33805504220979E-02
 cg2d: Sum(rhs),rhsMax =  -5.84760018185193E-11  3.61831045520735E-02
 cg2d: Sum(rhs),rhsMax =  -5.42564881911289E-11  3.90193114480491E-02
 cg2d: Sum(rhs),rhsMax =  -5.05609998313616E-11  4.19127974704293E-02
 cg2d: Sum(rhs),rhsMax =  -4.72999417411302E-11  4.48667087631880E-02
 cg2d: Sum(rhs),rhsMax =  -4.43119985149565E-11  4.79402466430311E-02
 cg2d: Sum(rhs),rhsMax =  -4.16529033486768E-11  5.10455263091123E-02
 cg2d: Sum(rhs),rhsMax =  -3.92934573767434E-11  5.41505394692618E-02
 cg2d: Sum(rhs),rhsMax =  -3.72739616949502E-11  5.72539287282811E-02
 cg2d: Sum(rhs),rhsMax =  -3.54397622359670E-11  6.03542910732435E-02
 cg2d: Sum(rhs),rhsMax =  -3.37864181076952E-11  6.34501708098510E-02
 cg2d: Sum(rhs),rhsMax =  -3.23178150907211E-11  6.65400532177750E-02
 cg2d: Sum(rhs),rhsMax =  -3.09208214588352E-11  6.96223595135533E-02
 cg2d: Sum(rhs),rhsMax =  -2.96851432324274E-11  7.26954436120223E-02
 cg2d: Sum(rhs),rhsMax =  -2.85574897063157E-11  7.57575910616439E-02
 cg2d: Sum(rhs),rhsMax =  -2.75092171264646E-11  7.88070203834183E-02
 cg2d: Sum(rhs),rhsMax =  -2.65317767755846E-11  8.18418868788844E-02
 cg2d: Sum(rhs),rhsMax =  -2.56830112732587E-11  8.48602888011655E-02
 cg2d: Sum(rhs),rhsMax =  -2.48486786702529E-11  8.78602756107502E-02
 cg2d: Sum(rhs),rhsMax =  -2.40659714378921E-11  9.08398579497977E-02
 cg2d: Sum(rhs),rhsMax =  -2.33622010625822E-11  9.37970187806042E-02
 cg2d: Sum(rhs),rhsMax =  -2.27055041435165E-11  9.67297251044928E-02
 cg2d: Sum(rhs),rhsMax =  -2.20945484130652E-11  9.96359396586463E-02
 cg2d: Sum(rhs),rhsMax =  -2.15032436301499E-11  1.02513632014316E-01
 cg2d: Sum(rhs),rhsMax =  -2.09714468013544E-11  1.05360788566531E-01
 cg2d: Sum(rhs),rhsMax =  -2.04494199351757E-11  1.08175421007598E-01
 cg2d: Sum(rhs),rhsMax =  -2.00588434751126E-11  1.10955573004518E-01
 cg2d: Sum(rhs),rhsMax =  -1.96296312537925E-11  1.13699324943652E-01
 cg2d: Sum(rhs),rhsMax =  -1.92577065405430E-11  1.16404796751047E-01
 cg2d: Sum(rhs),rhsMax =  -1.89159798935634E-11  1.19070148931441E-01
 cg2d: Sum(rhs),rhsMax =  -1.85761406257257E-11  1.21693582081976E-01
 cg2d: Sum(rhs),rhsMax =  -1.82772685874966E-11  1.24273335220350E-01
 cg2d: Sum(rhs),rhsMax =  -1.79833925528783E-11  1.26807683315767E-01
 cg2d: Sum(rhs),rhsMax =  -1.76793024664335E-11  1.29294934427758E-01
 cg2d: Sum(rhs),rhsMax =  -1.74172898326219E-11  1.31733426843369E-01
 cg2d: Sum(rhs),rhsMax =  -1.71713754326674E-11  1.34121526547547E-01
 cg2d: Sum(rhs),rhsMax =  -1.69266822780401E-11  1.36457625305979E-01
 cg2d: Sum(rhs),rhsMax =  -1.66808789003881E-11  1.38740139555777E-01
 cg2d: Sum(rhs),rhsMax =  -1.64820379566777E-11  1.40967510221015E-01
 cg2d: Sum(rhs),rhsMax =  -1.62948543547259E-11  1.43138203494911E-01
 cg2d: Sum(rhs),rhsMax =  -1.60982338570648E-11  1.45250712562571E-01
 cg2d: Sum(rhs),rhsMax =  -1.59936508481451E-11  1.47303560185057E-01
 cg2d: Sum(rhs),rhsMax =  -1.58439927844256E-11  1.49295302029626E-01
 cg2d: Sum(rhs),rhsMax =  -1.57791557597875E-11  1.51224530612141E-01
 cg2d: Sum(rhs),rhsMax =  -1.56703539033742E-11  1.53089879713632E-01
 cg2d: Sum(rhs),rhsMax =  -1.55531143519738E-11  1.54890029141292E-01
 cg2d: Sum(rhs),rhsMax =  -1.54370960459005E-11  1.56623709720892E-01
 cg2d: Sum(rhs),rhsMax =  -1.53248524981109E-11  1.58289708426444E-01
 cg2d: Sum(rhs),rhsMax =  -1.51921808466682E-11  1.59886873571622E-01
 cg2d: Sum(rhs),rhsMax =  -1.51395562753009E-11  1.61414119994068E-01
 cg2d: Sum(rhs),rhsMax =  -1.50098822260247E-11  1.62870434184892E-01
 cg2d: Sum(rhs),rhsMax =  -1.48971945890253E-11  1.64254879314916E-01
 cg2d: Sum(rhs),rhsMax =  -1.47628576030456E-11  1.65566600098464E-01
 cg2d: Sum(rhs),rhsMax =  -1.46701539804894E-11  1.66804827432960E-01
 cg2d: Sum(rhs),rhsMax =  -1.45872203205499E-11  1.67968882723172E-01
 cg2d: Sum(rhs),rhsMax =  -1.46074263795981E-11  1.69058181784716E-01
 cg2d: Sum(rhs),rhsMax =  -1.46176404314247E-11  1.70072238209120E-01
 cg2d: Sum(rhs),rhsMax =  -1.45526923844841E-11  1.71010666073857E-01
 cg2d: Sum(rhs),rhsMax =  -1.44106948596345E-11  1.71873181846008E-01
 cg2d: Sum(rhs),rhsMax =  -1.42321709972748E-11  1.72659605359393E-01
 cg2d: Sum(rhs),rhsMax =  -1.40877309817711E-11  1.73369859789038E-01
 cg2d: Sum(rhs),rhsMax =  -1.39173117474911E-11  1.74003970556503E-01
 cg2d: Sum(rhs),rhsMax =  -1.37612143902288E-11  1.74562063143106E-01
 cg2d: Sum(rhs),rhsMax =  -1.36121114380217E-11  1.75044359839966E-01
 cg2d: Sum(rhs),rhsMax =  -1.35140787449473E-11  1.75451175519490E-01
 cg2d: Sum(rhs),rhsMax =  -1.33990596395961E-11  1.75782912566693E-01
 cg2d: Sum(rhs),rhsMax =  -1.33133504220950E-11  1.76040055155509E-01
 cg2d: Sum(rhs),rhsMax =  -1.32455157952904E-11  1.76223163090768E-01
 cg2d: Sum(rhs),rhsMax =  -1.31611388454189E-11  1.76332865424161E-01
 cg2d: Sum(rhs),rhsMax =  -1.31290534000073E-11  1.76369854187664E-01
 cg2d: Sum(rhs),rhsMax =  -1.30782051854794E-11  1.76334878397901E-01
 cg2d: Sum(rhs),rhsMax =  -1.30350175098215E-11  1.76228738541401E-01
 cg2d: Sum(rhs),rhsMax =  -1.30114807816994E-11  1.76052281713491E-01
 cg2d: Sum(rhs),rhsMax =  -1.30224719896432E-11  1.75806397529645E-01
 cg2d: Sum(rhs),rhsMax =  -1.30973010215030E-11  1.75492014891796E-01
 cg2d: Sum(rhs),rhsMax =  -1.31372690503895E-11  1.75110099606152E-01
 cg2d: Sum(rhs),rhsMax =  -1.32087674131753E-11  1.74661652698308E-01
 cg2d: Sum(rhs),rhsMax =  -1.32690525234125E-11  1.74147709443729E-01
 cg2d: Sum(rhs),rhsMax =  -1.33034694371759E-11  1.73569338965015E-01
 cg2d: Sum(rhs),rhsMax =  -1.33718591754928E-11  1.72927644215249E-01
(PID.TID 0000.0001)      cg2d_init_res =   1.41791616936048E-02
(PID.TID 0000.0001)      cg2d_iters(min,last) =      -1      34
(PID.TID 0000.0001)      cg2d_last_res =   6.53443717822605E-14
(PID.TID 0000.0001) // =======================================================
(PID.TID 0000.0001) // Begin MONITOR dynamic field statistics
(PID.TID 0000.0001) // =======================================================
(PID.TID 0000.0001) %MON time_tsnumber                =                  1920
(PID.TID 0000.0001) %MON time_secondsf                =   2.8800000000000E+04
(PID.TID 0000.0001) %MON dynstat_eta_max              =   2.8389767259857E-02
(PID.TID 0000.0001) %MON dynstat_eta_min              =  -2.8867762564058E-02
(PID.TID 0000.0001) %MON dynstat_eta_mean             =   4.7990120290442E-15
(PID.TID 0000.0001) %MON dynstat_eta_sd               =   2.0375940405189E-02
(PID.TID 0000.0001) %MON dynstat_eta_del2             =   1.1049796653910E-05
(PID.TID 0000.0001) %MON dynstat_uvel_max             =   7.1594253345763E-01
(PID.TID 0000.0001) %MON dynstat_uvel_min             =  -1.2145403122852E-01
(PID.TID 0000.0001) %MON dynstat_uvel_mean            =   1.0833415067205E-01
(PID.TID 0000.0001) %MON dynstat_uvel_sd              =   5.4454904798666E-02
(PID.TID 0000.0001) %MON dynstat_uvel_del2            =   1.8391565808561E-04
(PID.TID 0000.0001) %MON dynstat_vvel_max             =   0.0000000000000E+00
(PID.TID 0000.0001) %MON dynstat_vvel_min             =   0.0000000000000E+00
(PID.TID 0000.0001) %MON dynstat_vvel_mean            =   0.0000000000000E+00
(PID.TID 0000.0001) %MON dynstat_vvel_sd              =   0.0000000000000E+00
(PID.TID 0000.0001) %MON dynstat_vvel_del2            =   0.0000000000000E+00
(PID.TID 0000.0001) %MON dynstat_wvel_max             =   8.9519339572262E-03
(PID.TID 0000.0001) %MON dynstat_wvel_min             =  -1.2342898896205E-02
(PID.TID 0000.0001) %MON dynstat_wvel_mean            =   2.1012472529076E-20
(PID.TID 0000.0001) %MON dynstat_wvel_sd              =   7.2048219341142E-04
(PID.TID 0000.0001) %MON dynstat_wvel_del2            =   1.2817896681869E-05
(PID.TID 0000.0001) %MON dynstat_theta_max            =   1.5000000000007E+01
(PID.TID 0000.0001) %MON dynstat_theta_min            =   9.9999999999964E+00
(PID.TID 0000.0001) %MON dynstat_theta_mean           =   1.2567209372838E+01
(PID.TID 0000.0001) %MON dynstat_theta_sd             =   2.4722100603977E+00
(PID.TID 0000.0001) %MON dynstat_theta_del2           =   1.0171970810312E-03
(PID.TID 0000.0001) %MON dynstat_salt_max             =   3.5000000000000E+01
(PID.TID 0000.0001) %MON dynstat_salt_min             =   3.5000000000000E+01
(PID.TID 0000.0001) %MON dynstat_salt_mean            =   3.5000000000000E+01
(PID.TID 0000.0001) %MON dynstat_salt_sd              =   3.9790393202566E-13
(PID.TID 0000.0001) %MON dynstat_salt_del2            =   0.0000000000000E+00
(PID.TID 0000.0001) %MON dynstat_sst_max              =   1.5000000000000E+01
(PID.TID 0000.0001) %MON dynstat_sst_min              =   1.4999999999999E+01
(PID.TID 0000.0001) %MON dynstat_sst_mean             =   1.5000000000000E+01
(PID.TID 0000.0001) %MON dynstat_sst_sd               =   2.1989844102258E-13
(PID.TID 0000.0001) %MON dynstat_sst_del2             =   7.2046668650742E-15
(PID.TID 0000.0001) %MON dynstat_sss_max              =   3.5000000000000E+01
(PID.TID 0000.0001) %MON dynstat_sss_min              =   3.5000000000000E+01
(PID.TID 0000.0001) %MON dynstat_sss_mean             =   3.5000000000000E+01
(PID.TID 0000.0001) %MON dynstat_sss_sd               =   5.6843418860808E-14
(PID.TID 0000.0001) %MON dynstat_sss_del2             =   0.0000000000000E+00
(PID.TID 0000.0001) %MON forcing_qnet_max             =   0.0000000000000E+00
(PID.TID 0000.0001) %MON forcing_qnet_min             =   0.0000000000000E+00
(PID.TID 0000.0001) %MON forcing_qnet_mean            =   0.0000000000000E+00
(PID.TID 0000.0001) %MON forcing_qnet_sd              =   0.0000000000000E+00
(PID.TID 0000.0001) %MON forcing_qnet_del2            =   0.0000000000000E+00
(PID.TID 0000.0001) %MON forcing_qsw_max              =   0.0000000000000E+00
(PID.TID 0000.0001) %MON forcing_qsw_min              =   0.0000000000000E+00
(PID.TID 0000.0001) %MON forcing_qsw_mean             =   0.0000000000000E+00
(PID.TID 0000.0001) %MON forcing_qsw_sd               =   0.0000000000000E+00
(PID.TID 0000.0001) %MON forcing_qsw_del2             =   0.0000000000000E+00
(PID.TID 0000.0001) %MON forcing_empmr_max            =   0.0000000000000E+00
(PID.TID 0000.0001) %MON forcing_empmr_min            =   0.0000000000000E+00
(PID.TID 0000.0001) %MON forcing_empmr_mean           =   0.0000000000000E+00
(PID.TID 0000.0001) %MON forcing_empmr_sd             =   0.0000000000000E+00
(PID.TID 0000.0001) %MON forcing_empmr_del2           =   0.0000000000000E+00
(PID.TID 0000.0001) %MON forcing_fu_max               =   0.0000000000000E+00
(PID.TID 0000.0001) %MON forcing_fu_min               =   0.0000000000000E+00
(PID.TID 0000.0001) %MON forcing_fu_mean              =   0.0000000000000E+00
(PID.TID 0000.0001) %MON forcing_fu_sd                =   0.0000000000000E+00
(PID.TID 0000.0001) %MON forcing_fu_del2              =   0.0000000000000E+00
(PID.TID 0000.0001) %MON forcing_fv_max               =   0.0000000000000E+00
(PID.TID 0000.0001) %MON forcing_fv_min               =   0.0000000000000E+00
(PID.TID 0000.0001) %MON forcing_fv_mean              =   0.0000000000000E+00
(PID.TID 0000.0001) %MON forcing_fv_sd                =   0.0000000000000E+00
(PID.TID 0000.0001) %MON forcing_fv_del2              =   0.0000000000000E+00
(PID.TID 0000.0001) %MON advcfl_uvel_max              =   5.3695690009322E-02
(PID.TID 0000.0001) %MON advcfl_vvel_max              =   0.0000000000000E+00
(PID.TID 0000.0001) %MON advcfl_wvel_max              =   1.7793082222841E-01
(PID.TID 0000.0001) %MON advcfl_W_hf_max              =   1.8031376685498E-01
(PID.TID 0000.0001) %MON pe_b_mean                    =   1.0456162047402E-05
(PID.TID 0000.0001) %MON ke_max                       =   1.7723056513443E-01
(PID.TID 0000.0001) %MON ke_mean                      =   7.3656818475349E-03
(PID.TID 0000.0001) %MON ke_vol                       =   9.5121673331316E+10
(PID.TID 0000.0001) %MON vort_r_min                   =   0.0000000000000E+00
(PID.TID 0000.0001) %MON vort_r_max                   =   0.0000000000000E+00
(PID.TID 0000.0001) %MON vort_a_mean                  =   0.0000000000000E+00
(PID.TID 0000.0001) %MON vort_a_sd                    =   0.0000000000000E+00
(PID.TID 0000.0001) %MON vort_p_mean                  =   0.0000000000000E+00
(PID.TID 0000.0001) %MON vort_p_sd                    =   0.0000000000000E+00
(PID.TID 0000.0001) %MON surfExpan_theta_mean         =   2.7734911317173E-19
(PID.TID 0000.0001) %MON surfExpan_salt_mean          =   1.2363741624940E-18
(PID.TID 0000.0001) // =======================================================
(PID.TID 0000.0001) // End MONITOR dynamic field statistics
(PID.TID 0000.0001) // =======================================================
(PID.TID 0000.0001) // =======================================================
(PID.TID 0000.0001) // Begin OBCS MONITOR field statistics
(PID.TID 0000.0001) // =======================================================
(PID.TID 0000.0001) %MON obc_E_uVel_max               =   1.0505355776936E-01
(PID.TID 0000.0001) %MON obc_E_uVel_min               =   1.0505355776936E-01
(PID.TID 0000.0001) %MON obc_E_uVel_mean              =   1.0505355776936E-01
(PID.TID 0000.0001) %MON obc_E_uVel_sd                =  -6.9388939039072E-18
(PID.TID 0000.0001) %MON obc_E_uVel_Int               =   1.0505355776936E+05
(PID.TID 0000.0001) %MON obc_W_uVel_max               =   1.0505355776936E-01
(PID.TID 0000.0001) %MON obc_W_uVel_min               =   1.0505355776936E-01
(PID.TID 0000.0001) %MON obc_W_uVel_mean              =   1.0505355776936E-01
(PID.TID 0000.0001) %MON obc_W_uVel_sd                =  -6.9388939039072E-18
(PID.TID 0000.0001) %MON obc_W_uVel_Int               =   1.0505355776936E+05
(PID.TID 0000.0001) // =======================================================
(PID.TID 0000.0001) // End OBCS MONITOR field statistics
(PID.TID 0000.0001) // =======================================================
 cg2d: Sum(rhs),rhsMax =  -1.33929534129607E-11  1.72223762150290E-01
 cg2d: Sum(rhs),rhsMax =  -1.34400268692048E-11  1.71458863891699E-01
 cg2d: Sum(rhs),rhsMax =  -1.34937616635966E-11  1.70634154689072E-01
 cg2d: Sum(rhs),rhsMax =  -1.35533806400190E-11  1.69750873515212E-01
 cg2d: Sum(rhs),rhsMax =  -1.36447519949456E-11  1.68810292124486E-01
 cg2d: Sum(rhs),rhsMax =  -1.37214684059472E-11  1.67813713461720E-01
 cg2d: Sum(rhs),rhsMax =  -1.38348221767615E-11  1.66762469345645E-01
 cg2d: Sum(rhs),rhsMax =  -1.39745992555618E-11  1.65657917345322E-01
 cg2d: Sum(rhs),rhsMax =  -1.40671918558155E-11  1.64501436976520E-01
 cg2d: Sum(rhs),rhsMax =  -1.41885392324070E-11  1.63294425163499E-01
 cg2d: Sum(rhs),rhsMax =  -1.42705847139268E-11  1.62038291078263E-01
 cg2d: Sum(rhs),rhsMax =  -1.43879352876297E-11  1.60734450519694E-01
 cg2d: Sum(rhs),rhsMax =  -1.44971812332528E-11  1.59384320035623E-01
 cg2d: Sum(rhs),rhsMax =  -1.45992107292159E-11  1.57989311018027E-01
 cg2d: Sum(rhs),rhsMax =  -1.47073464518144E-11  1.56550823966964E-01
 cg2d: Sum(rhs),rhsMax =  -1.48162593305301E-11  1.55070243309011E-01
 cg2d: Sum(rhs),rhsMax =  -1.48976386782351E-11  1.53548932886347E-01
 cg2d: Sum(rhs),rhsMax =  -1.49867895871125E-11  1.51988232328894E-01
 cg2d: Sum(rhs),rhsMax =  -1.50919277075445E-11  1.50389454429550E-01
 cg2d: Sum(rhs),rhsMax =  -1.51701984307806E-11  1.48753883584907E-01
 cg2d: Sum(rhs),rhsMax =  -1.52656776108984E-11  1.47082775405218E-01
 cg2d: Sum(rhs),rhsMax =  -1.53562718097078E-11  1.45377357411862E-01
 cg2d: Sum(rhs),rhsMax =  -1.54328771984069E-11  1.43638830681870E-01
 cg2d: Sum(rhs),rhsMax =  -1.56102908377420E-11  1.41868372250060E-01
 cg2d: Sum(rhs),rhsMax =  -1.57680535295412E-11  1.40067138016706E-01
 cg2d: Sum(rhs),rhsMax =  -1.59053881176874E-11  1.38236265879738E-01
 cg2d: Sum(rhs),rhsMax =  -1.60867985599111E-11  1.36376878802979E-01
 cg2d: Sum(rhs),rhsMax =  -1.63083990756263E-11  1.34490087544822E-01
 cg2d: Sum(rhs),rhsMax =  -1.64417368608838E-11  1.32576992786078E-01
 cg2d: Sum(rhs),rhsMax =  -1.66116009836514E-11  1.30638686435704E-01
 cg2d: Sum(rhs),rhsMax =  -1.68510760900631E-11  1.28676252006445E-01
 cg2d: Sum(rhs),rhsMax =  -1.70568004165261E-11  1.26690763969520E-01
 cg2d: Sum(rhs),rhsMax =  -1.72420966393361E-11  1.24683286065314E-01
 cg2d: Sum(rhs),rhsMax =  -1.74803505004206E-11  1.22654868616146E-01
 cg2d: Sum(rhs),rhsMax =  -1.76900716297723E-11  1.20606544949288E-01
 cg2d: Sum(rhs),rhsMax =  -1.79151138368638E-11  1.18539327087228E-01
 cg2d: Sum(rhs),rhsMax =  -1.81719084224596E-11  1.16454200894977E-01
 cg2d: Sum(rhs),rhsMax =  -1.84011694770447E-11  1.14352120890638E-01
 cg2d: Sum(rhs),rhsMax =  -1.86880511066079E-11  1.12234004928667E-01
 cg2d: Sum(rhs),rhsMax =  -1.89556148555425E-11  1.10100728958048E-01
 cg2d: Sum(rhs),rhsMax =  -1.92574844959381E-11  1.07953122042424E-01
 cg2d: Sum(rhs),rhsMax =  -1.95288230031565E-11  1.05791961794192E-01
 cg2d: Sum(rhs),rhsMax =  -1.98786542782159E-11  1.03617970378739E-01
 cg2d: Sum(rhs),rhsMax =  -2.01940686395119E-11  1.01431811226838E-01
 cg2d: Sum(rhs),rhsMax =  -2.05612193937554E-11  9.92340865893258E-02
 cg2d: Sum(rhs),rhsMax =  -2.09394723782452E-11  9.70253359817844E-02
 cg2d: Sum(rhs),rhsMax =  -2.12991846382238E-11  9.48060356347799E-02
 cg2d: Sum(rhs),rhsMax =  -2.17056372875390E-11  9.25765990669410E-02
 cg2d: Sum(rhs),rhsMax =  -2.21432872038463E-11  9.03373788967363E-02
 cg2d: Sum(rhs),rhsMax =  -2.26237917289041E-11  8.80886700008943E-02
 cg2d: Sum(rhs),rhsMax =  -2.31905605829752E-11  8.58307141095488E-02
 cg2d: Sum(rhs),rhsMax =  -2.37480035636395E-11  8.35637058956266E-02
 cg2d: Sum(rhs),rhsMax =  -2.43864928251014E-11  8.12878005635095E-02
 cg2d: Sum(rhs),rhsMax =  -2.50528486844814E-11  7.90031228754823E-02
 cg2d: Sum(rhs),rhsMax =  -2.57277532611511E-11  7.67097774603740E-02
 cg2d: Sum(rhs),rhsMax =  -2.65186761438940E-11  7.44078601460087E-02
 cg2d: Sum(rhs),rhsMax =  -2.73194800115562E-11  7.20974699516213E-02
 cg2d: Sum(rhs),rhsMax =  -2.81683565361845E-11  6.97787212780235E-02
 cg2d: Sum(rhs),rhsMax =  -2.91000556984500E-11  6.74517557553530E-02
 cg2d: Sum(rhs),rhsMax =  -3.01144664760500E-11  6.51167531485221E-02
 cg2d: Sum(rhs),rhsMax =  -3.12139203373363E-11  6.27739406989192E-02
 cg2d: Sum(rhs),rhsMax =  -3.23447935102195E-11  6.04236003530917E-02
 cg2d: Sum(rhs),rhsMax =  -3.36127792266439E-11  5.80660733882747E-02
 cg2d: Sum(rhs),rhsMax =  -3.49812401267968E-11  5.57017620722699E-02
 cg2d: Sum(rhs),rhsMax =  -3.64965835331077E-11  5.33311281667493E-02
 cg2d: Sum(rhs),rhsMax =  -3.81058518073019E-11  5.09546882621527E-02
 cg2d: Sum(rhs),rhsMax =  -3.99276167684093E-11  4.85730061304238E-02
 cg2d: Sum(rhs),rhsMax =  -4.19116963357169E-11  4.61866825184463E-02
 cg2d: Sum(rhs),rhsMax =  -4.41445768828430E-11  4.37963429412624E-02
 cg2d: Sum(rhs),rhsMax =  -4.65900651391848E-11  4.14026241690674E-02
 cg2d: Sum(rhs),rhsMax =  -4.94116969562697E-11  3.90061601925051E-02
 cg2d: Sum(rhs),rhsMax =  -5.25637311454830E-11  3.66075684881758E-02
 cg2d: Sum(rhs),rhsMax =  -5.61711788193975E-11  3.42074373870272E-02
 cg2d: Sum(rhs),rhsMax =  -6.03518346409260E-11  3.18063152754262E-02
 cg2d: Sum(rhs),rhsMax =  -6.52580212090470E-11  2.94047022401443E-02
 cg2d: Sum(rhs),rhsMax =  -7.10262959557895E-11  2.70030446152843E-02
 cg2d: Sum(rhs),rhsMax =  -7.79027953257128E-11  2.46017327138367E-02
 cg2d: Sum(rhs),rhsMax =  -8.62628857234427E-11  2.22011018418643E-02
 cg2d: Sum(rhs),rhsMax =  -9.66485780296011E-11  1.98014365117326E-02
 cg2d: Sum(rhs),rhsMax =  -1.09918074642223E-10  1.74029776013045E-02
 cg2d: Sum(rhs),rhsMax =  -1.27406640793026E-10  1.50059320541172E-02
 cg2d: Sum(rhs),rhsMax =  -1.51482715260443E-10  1.26104846219850E-02
 cg2d: Sum(rhs),rhsMax =  -1.74391001639407E-10  1.09451120385233E-02
 cg2d: Sum(rhs),rhsMax =  -1.62436737671801E-10  1.17457395201481E-02
 cg2d: Sum(rhs),rhsMax =  -1.52061668812209E-10  1.25383282358257E-02
 cg2d: Sum(rhs),rhsMax =  -1.43012046649460E-10  1.33222719405827E-02
 cg2d: Sum(rhs),rhsMax =  -1.35078170870884E-10  1.40970357303722E-02
 cg2d: Sum(rhs),rhsMax =  -1.28052790593358E-10  1.48622521453027E-02
 cg2d: Sum(rhs),rhsMax =  -1.21768817251677E-10  1.56174241535526E-02
 cg2d: Sum(rhs),rhsMax =  -1.16114784454169E-10  1.63620030261254E-02
 cg2d: Sum(rhs),rhsMax =  -1.11066267294291E-10  1.70954838055997E-02
 cg2d: Sum(rhs),rhsMax =  -9.97558702309220E-11  1.90194204444519E-02
 cg2d: Sum(rhs),rhsMax =  -8.90045814827545E-11  2.12987111737361E-02
 cg2d: Sum(rhs),rhsMax =  -8.03042077279770E-11  2.35907813317839E-02
 cg2d: Sum(rhs),rhsMax =  -7.31156246658315E-11  2.58810688620124E-02
 cg2d: Sum(rhs),rhsMax =  -6.71804833984879E-11  2.81469239853938E-02
 cg2d: Sum(rhs),rhsMax =  -6.21898088581929E-11  3.03869527049947E-02
 cg2d: Sum(rhs),rhsMax =  -5.79472025918903E-11  3.25997514007039E-02
 cg2d: Sum(rhs),rhsMax =  -5.42468292508147E-11  3.47839122002276E-02
 cg2d: Sum(rhs),rhsMax =  -5.09858821828857E-11  3.69380296601521E-02
 cg2d: Sum(rhs),rhsMax =  -4.81553685816039E-11  3.90607084919717E-02
 cg2d: Sum(rhs),rhsMax =  -4.56540361071234E-11  4.11505719825562E-02
 cg2d: Sum(rhs),rhsMax =  -4.34221547607194E-11  4.32062707093688E-02
 cg2d: Sum(rhs),rhsMax =  -4.14072109933272E-11  4.52264910904592E-02
 cg2d: Sum(rhs),rhsMax =  -3.96177535222364E-11  4.72099632808474E-02
 cg2d: Sum(rhs),rhsMax =  -3.79647424608720E-11  4.91554679446888E-02
 cg2d: Sum(rhs),rhsMax =  -3.65321106698957E-11  5.10618414679381E-02
 cg2d: Sum(rhs),rhsMax =  -3.51447759783241E-11  5.29279792525437E-02
 cg2d: Sum(rhs),rhsMax =  -3.39251959857734E-11  5.47528368412953E-02
 cg2d: Sum(rhs),rhsMax =  -3.28380656000604E-11  5.65354287589688E-02
 cg2d: Sum(rhs),rhsMax =  -3.17611492661740E-11  5.82748251121705E-02
 cg2d: Sum(rhs),rhsMax =  -3.08261194348347E-11  5.99701461562607E-02
 cg2d: Sum(rhs),rhsMax =  -2.99366087475050E-11  6.16205551998267E-02
 cg2d: Sum(rhs),rhsMax =  -2.91447976863424E-11  6.32252503662720E-02
 cg2d: Sum(rhs),rhsMax =  -2.84101631109479E-11  6.47834558267995E-02
 cg2d: Sum(rhs),rhsMax =  -2.77190492781187E-11  6.62944131974504E-02
 cg2d: Sum(rhs),rhsMax =  -2.70828914850085E-11  6.77573738232702E-02
 cg2d: Sum(rhs),rhsMax =  -2.65253374820418E-11  6.91715926031918E-02
 cg2d: Sum(rhs),rhsMax =  -2.58687515852785E-11  7.05363239081662E-02
 cg2d: Sum(rhs),rhsMax =  -2.53218557233481E-11  7.18508199954002E-02
 cg2d: Sum(rhs),rhsMax =  -2.47957210319782E-11  7.31143321211556E-02
 cg2d: Sum(rhs),rhsMax =  -2.42060815835998E-11  7.46229518207073E-02
 cg2d: Sum(rhs),rhsMax =  -2.36369812611770E-11  7.62790671868927E-02
 cg2d: Sum(rhs),rhsMax =  -2.31016317187027E-11  7.78920073366109E-02
 cg2d: Sum(rhs),rhsMax =  -2.25395258013350E-11  7.94606971563730E-02
 cg2d: Sum(rhs),rhsMax =  -2.20634621683757E-11  8.09841090393690E-02
 cg2d: Sum(rhs),rhsMax =  -2.16368034600123E-11  8.24612599437879E-02
 cg2d: Sum(rhs),rhsMax =  -2.12051487480380E-11  8.38912068730400E-02
 cg2d: Sum(rhs),rhsMax =  -2.08316697225541E-11  8.52730411010651E-02
 cg2d: Sum(rhs),rhsMax =  -2.04605221654219E-11  8.66058815750254E-02
 cg2d: Sum(rhs),rhsMax =  -2.01608729710756E-11  8.78888680053452E-02
 cg2d: Sum(rhs),rhsMax =  -1.98292493536201E-11  8.91211541924314E-02
 cg2d: Sum(rhs),rhsMax =  -1.95625737831051E-11  9.03019021354635E-02
 cg2d: Sum(rhs),rhsMax =  -1.92701410384188E-11  9.14302774206559E-02
 cg2d: Sum(rhs),rhsMax =  -1.90092386276319E-11  9.25054462977064E-02
 cg2d: Sum(rhs),rhsMax =  -1.87806437068616E-11  9.35265747309226E-02
 cg2d: Sum(rhs),rhsMax =  -1.86458626316721E-11  9.44928295661186E-02
 cg2d: Sum(rhs),rhsMax =  -1.84373627476475E-11  9.54033818074070E-02
 cg2d: Sum(rhs),rhsMax =  -1.82834858364345E-11  9.62574118148280E-02
 cg2d: Sum(rhs),rhsMax =  -1.81713533109473E-11  9.70541161259405E-02
 cg2d: Sum(rhs),rhsMax =  -1.80233605817648E-11  9.77927154992105E-02
 cg2d: Sum(rhs),rhsMax =  -1.79017911605683E-11  9.84724636878627E-02
 cg2d: Sum(rhs),rhsMax =  -1.77950987279019E-11  9.90926564261231E-02
 cg2d: Sum(rhs),rhsMax =  -1.77448056248863E-11  9.96526401150859E-02
 cg2d: Sum(rhs),rhsMax =  -1.76340053670287E-11  1.00151819742255E-01
 cg2d: Sum(rhs),rhsMax =  -1.75573999783296E-11  1.00589665646422E-01
 cg2d: Sum(rhs),rhsMax =  -1.74839032140994E-11  1.00965718838702E-01
 cg2d: Sum(rhs),rhsMax =  -1.74131820074308E-11  1.01279594700987E-01
 cg2d: Sum(rhs),rhsMax =  -1.73537850756134E-11  1.01530984973728E-01
 cg2d: Sum(rhs),rhsMax =  -1.72916125862344E-11  1.01719658108521E-01
 cg2d: Sum(rhs),rhsMax =  -1.72668546127852E-11  1.01845458120299E-01
 cg2d: Sum(rhs),rhsMax =  -1.72378777918425E-11  1.01908302079862E-01
 cg2d: Sum(rhs),rhsMax =  -1.72500902451134E-11  1.01908176486377E-01
 cg2d: Sum(rhs),rhsMax =  -1.72668546127852E-11  1.01845132785604E-01
 cg2d: Sum(rhs),rhsMax =  -1.72772907092167E-11  1.01719282273726E-01
 cg2d: Sum(rhs),rhsMax =  -1.73235870093436E-11  1.01530790635927E-01
 cg2d: Sum(rhs),rhsMax =  -1.73808745174142E-11  1.01279872260631E-01
 cg2d: Sum(rhs),rhsMax =  -1.74115166728939E-11  1.00966784581619E-01
 cg2d: Sum(rhs),rhsMax =  -1.73848713203029E-11  1.00591822572235E-01
 cg2d: Sum(rhs),rhsMax =  -1.74297243304977E-11  1.00155313485389E-01
 cg2d: Sum(rhs),rhsMax =  -1.74228409477450E-11  9.96576119128944E-02
 cg2d: Sum(rhs),rhsMax =  -1.74462666535646E-11  9.90990952276548E-02
 cg2d: Sum(rhs),rhsMax =  -1.74461556312622E-11  9.84801594726682E-02
 cg2d: Sum(rhs),rhsMax =  -1.74632530658414E-11  9.78012157487063E-02
 cg2d: Sum(rhs),rhsMax =  -1.74630310212365E-11  9.70626871559319E-02
 cg2d: Sum(rhs),rhsMax =  -1.75756076359335E-11  9.62650063612427E-02
 cg2d: Sum(rhs),rhsMax =  -1.77007297708087E-11  9.54086138386546E-02
 cg2d: Sum(rhs),rhsMax =  -1.80353509904307E-11  9.44939568156376E-02
 cg2d: Sum(rhs),rhsMax =  -1.82284187744131E-11  9.35214889374899E-02
 cg2d: Sum(rhs),rhsMax =  -1.84348092346909E-11  9.24916706344913E-02
 cg2d: Sum(rhs),rhsMax =  -1.86896054188423E-11  9.14049701336631E-02
 cg2d: Sum(rhs),rhsMax =  -1.89844806541828E-11  9.02618650293914E-02
 cg2d: Sum(rhs),rhsMax =  -1.93043359075773E-11  8.90628443692644E-02
 cg2d: Sum(rhs),rhsMax =  -1.96780369776661E-11  8.78084109947165E-02
 cg2d: Sum(rhs),rhsMax =  -2.00387484383668E-11  8.64990841310147E-02
 cg2d: Sum(rhs),rhsMax =  -2.04289918315226E-11  8.51354019598929E-02
 cg2d: Sum(rhs),rhsMax =  -2.08251194067088E-11  8.37179240550735E-02
 cg2d: Sum(rhs),rhsMax =  -2.12830864043667E-11  8.22472335903380E-02
 cg2d: Sum(rhs),rhsMax =  -2.17624807063999E-11  8.07239392650364E-02
 cg2d: Sum(rhs),rhsMax =  -2.22661888926723E-11  7.91486769308299E-02
 cg2d: Sum(rhs),rhsMax =  -2.28038699034983E-11  7.75221109877273E-02
 cg2d: Sum(rhs),rhsMax =  -2.33949526418087E-11  7.58449354657888E-02
 cg2d: Sum(rhs),rhsMax =  -2.40660824601946E-11  7.41178749832829E-02
 cg2d: Sum(rhs),rhsMax =  -2.47365461447657E-11  7.23416856969606E-02
 cg2d: Sum(rhs),rhsMax =  -2.54466447913160E-11  7.05171562991699E-02
 cg2d: Sum(rhs),rhsMax =  -2.61617394414770E-11  6.86451091528315E-02
 cg2d: Sum(rhs),rhsMax =  -2.69855249257489E-11  6.67264015713647E-02
 cg2d: Sum(rhs),rhsMax =  -2.78321810043280E-11  6.47619272336493E-02
 cg2d: Sum(rhs),rhsMax =  -2.87944112997707E-11  6.27526176794526E-02
 cg2d: Sum(rhs),rhsMax =  -2.97980529140318E-11  6.06994437523148E-02
 cg2d: Sum(rhs),rhsMax =  -3.09323677782913E-11  5.86034168109254E-02
 cg2d: Sum(rhs),rhsMax =  -3.21245252621338E-11  5.64655894982893E-02
 cg2d: Sum(rhs),rhsMax =  -3.34864358464415E-11  5.42870558436684E-02
 cg2d: Sum(rhs),rhsMax =  -3.49676954058964E-11  5.20689504784086E-02
 cg2d: Sum(rhs),rhsMax =  -3.66298102960627E-11  4.98124467761736E-02
 cg2d: Sum(rhs),rhsMax =  -3.84564602384785E-11  4.75187537808075E-02
 cg2d: Sum(rhs),rhsMax =  -4.05225852873059E-11  4.51891118614663E-02
 cg2d: Sum(rhs),rhsMax =  -4.28591606649320E-11  4.28247871208711E-02
 cg2d: Sum(rhs),rhsMax =  -4.54833948282385E-11  4.04270646828735E-02
 cg2d: Sum(rhs),rhsMax =  -4.84897677566209E-11  3.79972411203158E-02
 cg2d: Sum(rhs),rhsMax =  -5.19345677574279E-11  3.55366163307708E-02
 cg2d: Sum(rhs),rhsMax =  -5.58787460747112E-11  3.30464852572638E-02
 cg2d: Sum(rhs),rhsMax =  -6.05706595990796E-11  3.05281298748351E-02
 cg2d: Sum(rhs),rhsMax =  -6.61686261338446E-11  2.79828119483397E-02
 cg2d: Sum(rhs),rhsMax =  -7.29307725322315E-11  2.54117670109939E-02
 cg2d: Sum(rhs),rhsMax =  -8.13289435797060E-11  2.28161998711333E-02
 cg2d: Sum(rhs),rhsMax =  -9.19625486872633E-11  2.01972819304027E-02
 cg2d: Sum(rhs),rhsMax =  -1.05935038519078E-10  1.75561504764163E-02
 cg2d: Sum(rhs),rhsMax =  -1.24971422099662E-10  1.48939099779393E-02
 cg2d: Sum(rhs),rhsMax =  -1.37707623082406E-10  1.35212805841310E-02
 cg2d: Sum(rhs),rhsMax =  -1.47096834712812E-10  1.26611232078310E-02
 cg2d: Sum(rhs),rhsMax =  -1.57988719329261E-10  1.17951055755001E-02
 cg2d: Sum(rhs),rhsMax =  -1.70644415264931E-10  1.09237588712199E-02
 cg2d: Sum(rhs),rhsMax =  -1.85629622784234E-10  1.00476618367059E-02
 cg2d: Sum(rhs),rhsMax =  -2.00146454965022E-10  9.32250118178609E-03
 cg2d: Sum(rhs),rhsMax =  -1.80785830750096E-10  1.03278218865565E-02
 cg2d: Sum(rhs),rhsMax =  -1.62783453383497E-10  1.14760851464384E-02
 cg2d: Sum(rhs),rhsMax =  -1.38515976466635E-10  1.34926768900321E-02
 cg2d: Sum(rhs),rhsMax =  -1.18599241538675E-10  1.57623906856551E-02
 cg2d: Sum(rhs),rhsMax =  -1.03451025523782E-10  1.80839879018050E-02
 cg2d: Sum(rhs),rhsMax =  -9.15459930084239E-11  2.04597538768404E-02
 cg2d: Sum(rhs),rhsMax =  -8.18517476020020E-11  2.28973297660684E-02
 cg2d: Sum(rhs),rhsMax =  -7.39649452796698E-11  2.53665430501970E-02
 cg2d: Sum(rhs),rhsMax =  -6.73662237105077E-11  2.78899345391400E-02
 cg2d: Sum(rhs),rhsMax =  -6.17388362655902E-11  3.04567944600119E-02
 cg2d: Sum(rhs),rhsMax =  -5.69603253453010E-11  3.30505213848532E-02
 cg2d: Sum(rhs),rhsMax =  -5.27774490777233E-11  3.57102358030907E-02
 cg2d: Sum(rhs),rhsMax =  -4.91152674086948E-11  3.84007242213033E-02
 cg2d: Sum(rhs),rhsMax =  -4.58825200055912E-11  4.11483331014252E-02
 cg2d: Sum(rhs),rhsMax =  -4.29767332832398E-11  4.39956866860582E-02
 cg2d: Sum(rhs),rhsMax =  -4.03935773718445E-11  4.68429619229302E-02
 cg2d: Sum(rhs),rhsMax =  -3.81497056167746E-11  4.96839256635019E-02
 cg2d: Sum(rhs),rhsMax =  -3.62140317733406E-11  5.25171045186369E-02
 cg2d: Sum(rhs),rhsMax =  -3.44529960116802E-11  5.53410113638235E-02
 cg2d: Sum(rhs),rhsMax =  -3.28687077555401E-11  5.81541481788897E-02
 cg2d: Sum(rhs),rhsMax =  -3.14022141623127E-11  6.09550091825682E-02
 cg2d: Sum(rhs),rhsMax =  -3.00984792644954E-11  6.37420842583656E-02
 cg2d: Sum(rhs),rhsMax =  -2.88915558144254E-11  6.65138626372688E-02
 cg2d: Sum(rhs),rhsMax =  -2.78003176035213E-11  6.92688367688969E-02
 cg2d: Sum(rhs),rhsMax =  -2.68134403569320E-11  7.20055063193221E-02
 cg2d: Sum(rhs),rhsMax =  -2.58970622724064E-11  7.47223821942409E-02
 cg2d: Sum(rhs),rhsMax =  -2.50672815838016E-11  7.74179904736787E-02
 cg2d: Sum(rhs),rhsMax =  -2.42668107830468E-11  8.00908761264166E-02
 cg2d: Sum(rhs),rhsMax =  -2.35504948875587E-11  8.27396064316855E-02
 cg2d: Sum(rhs),rhsMax =  -2.28863594742279E-11  8.53627739740942E-02
 cg2d: Sum(rhs),rhsMax =  -2.22533103055866E-11  8.79589991247988E-02
 cg2d: Sum(rhs),rhsMax =  -2.16435758204625E-11  9.05269319518313E-02
 cg2d: Sum(rhs),rhsMax =  -2.11113349024572E-11  9.30652535204736E-02
 cg2d: Sum(rhs),rhsMax =  -2.05713224232795E-11  9.55726765717292E-02
 cg2d: Sum(rhs),rhsMax =  -2.01140215594364E-11  9.80479455955371E-02
 cg2d: Sum(rhs),rhsMax =  -1.97117877576147E-11  1.00489836339971E-01
 cg2d: Sum(rhs),rhsMax =  -1.92437177304328E-11  1.02897154831852E-01
 cg2d: Sum(rhs),rhsMax =  -1.88933313438611E-11  1.05268735991045E-01
 cg2d: Sum(rhs),rhsMax =  -1.86123338963284E-11  1.07603441942427E-01
 cg2d: Sum(rhs),rhsMax =  -1.83011383825260E-11  1.09900160141854E-01
 cg2d: Sum(rhs),rhsMax =  -1.80222503587402E-11  1.12157801439752E-01
 cg2d: Sum(rhs),rhsMax =  -1.77206027629495E-11  1.14375298208049E-01
 cg2d: Sum(rhs),rhsMax =  -1.74896763738275E-11  1.16551602653088E-01
 cg2d: Sum(rhs),rhsMax =  -1.72427627731508E-11  1.18685685427076E-01
 cg2d: Sum(rhs),rhsMax =  -1.69775304925679E-11  1.20776534640809E-01
 cg2d: Sum(rhs),rhsMax =  -1.67907909798259E-11  1.22823155361999E-01
 cg2d: Sum(rhs),rhsMax =  -1.65670810403640E-11  1.24824569649718E-01
 cg2d: Sum(rhs),rhsMax =  -1.63972169175963E-11  1.26779817155708E-01
 cg2d: Sum(rhs),rhsMax =  -1.61816116062141E-11  1.28687956293348E-01
 cg2d: Sum(rhs),rhsMax =  -1.60047530783913E-11  1.30548065938816E-01
 cg2d: Sum(rhs),rhsMax =  -1.58849600140343E-11  1.32359247601081E-01
 cg2d: Sum(rhs),rhsMax =  -1.57764912245284E-11  1.34120627968023E-01
 cg2d: Sum(rhs),rhsMax =  -1.56410440155241E-11  1.35831361711461E-01
 cg2d: Sum(rhs),rhsMax =  -1.55145896130193E-11  1.37490634416989E-01
 cg2d: Sum(rhs),rhsMax =  -1.53820289838791E-11  1.39097665497447E-01
 cg2d: Sum(rhs),rhsMax =  -1.52530210684176E-11  1.40651710951941E-01
 cg2d: Sum(rhs),rhsMax =  -1.51120227442902E-11  1.42152065847898E-01
 cg2d: Sum(rhs),rhsMax =  -1.49853462971805E-11  1.43598066425876E-01
 cg2d: Sum(rhs),rhsMax =  -1.48449030845654E-11  1.44989091757839E-01
 cg2d: Sum(rhs),rhsMax =  -1.47385437188063E-11  1.46324564926762E-01
 cg2d: Sum(rhs),rhsMax =  -1.46095358033449E-11  1.47603953733965E-01
 cg2d: Sum(rhs),rhsMax =  -1.45213840951897E-11  1.48826770976666E-01
 cg2d: Sum(rhs),rhsMax =  -1.43577372213599E-11  1.49992574370947E-01
 cg2d: Sum(rhs),rhsMax =  -1.42669209779456E-11  1.51100966218382E-01
 cg2d: Sum(rhs),rhsMax =  -1.41235911854665E-11  1.52151592928015E-01
 cg2d: Sum(rhs),rhsMax =  -1.40231160017379E-11  1.53144144514291E-01
 cg2d: Sum(rhs),rhsMax =  -1.40608635845751E-11  1.54078354185066E-01
 cg2d: Sum(rhs),rhsMax =  -1.40866207587464E-11  1.54953998083673E-01
 cg2d: Sum(rhs),rhsMax =  -1.40373268564531E-11  1.55770895284611E-01
 cg2d: Sum(rhs),rhsMax =  -1.39629419138032E-11  1.56528908081238E-01
 cg2d: Sum(rhs),rhsMax =  -1.38045130881892E-11  1.57227942572135E-01
 cg2d: Sum(rhs),rhsMax =  -1.36486377755318E-11  1.57867949522561E-01
 cg2d: Sum(rhs),rhsMax =  -1.34779964966469E-11  1.58448925450745E-01
 cg2d: Sum(rhs),rhsMax =  -1.32986954781700E-11  1.58970913866105E-01
 cg2d: Sum(rhs),rhsMax =  -1.31434862993274E-11  1.59434006568327E-01
 cg2d: Sum(rhs),rhsMax =  -1.30200294989891E-11  1.59838344902856E-01
 cg2d: Sum(rhs),rhsMax =  -1.28731469928312E-11  1.60184120860183E-01
 cg2d: Sum(rhs),rhsMax =  -1.27463595234190E-11  1.60471577890606E-01
 cg2d: Sum(rhs),rhsMax =  -1.26165744518403E-11  1.60701011328671E-01
 cg2d: Sum(rhs),rhsMax =  -1.25182086918585E-11  1.60872768377128E-01
 cg2d: Sum(rhs),rhsMax =  -1.25714993970405E-11  1.60987247493351E-01
 cg2d: Sum(rhs),rhsMax =  -1.24951160529463E-11  1.61044897098484E-01
 cg2d: Sum(rhs),rhsMax =  -1.24219523556235E-11  1.61046213556012E-01
 cg2d: Sum(rhs),rhsMax =  -1.24114052368895E-11  1.60991738427473E-01
 cg2d: Sum(rhs),rhsMax =  -1.23600019108494E-11  1.60882055045258E-01
 cg2d: Sum(rhs),rhsMax =  -1.23624444015036E-11  1.60717784421616E-01
 cg2d: Sum(rhs),rhsMax =  -1.23971943821743E-11  1.60499580549930E-01
 cg2d: Sum(rhs),rhsMax =  -1.24671384327257E-11  1.60228125309167E-01
 cg2d: Sum(rhs),rhsMax =  -1.24954491198537E-11  1.59904123137910E-01
 cg2d: Sum(rhs),rhsMax =  -1.25377486170919E-11  1.59528295672773E-01
 cg2d: Sum(rhs),rhsMax =  -1.26108012921122E-11  1.59101376563663E-01
 cg2d: Sum(rhs),rhsMax =  -1.26485488749495E-11  1.58624106685588E-01
 cg2d: Sum(rhs),rhsMax =  -1.26955113088911E-11  1.58097229958094E-01
 cg2d: Sum(rhs),rhsMax =  -1.27388100068515E-11  1.57521489966226E-01
 cg2d: Sum(rhs),rhsMax =  -1.27953203588049E-11  1.56897627498660E-01
 cg2d: Sum(rhs),rhsMax =  -1.28320687409200E-11  1.56226379116437E-01
 cg2d: Sum(rhs),rhsMax =  -1.28564936474618E-11  1.55508476777582E-01
 cg2d: Sum(rhs),rhsMax =  -1.28604904503504E-11  1.54744648473868E-01
 cg2d: Sum(rhs),rhsMax =  -1.29136701332300E-11  1.53935619772609E-01
 cg2d: Sum(rhs),rhsMax =  -1.29445343333146E-11  1.53082116099931E-01
 cg2d: Sum(rhs),rhsMax =  -1.30023769528975E-11  1.52184865558053E-01
 cg2d: Sum(rhs),rhsMax =  -1.30309096846304E-11  1.51244602036331E-01
 cg2d: Sum(rhs),rhsMax =  -1.30666588660233E-11  1.50262068339527E-01
 cg2d: Sum(rhs),rhsMax =  -1.30920829732872E-11  1.49238019173813E-01
 cg2d: Sum(rhs),rhsMax =  -1.31405997194634E-11  1.48173223646512E-01
 cg2d: Sum(rhs),rhsMax =  -1.31725741425726E-11  1.47068467193256E-01
 cg2d: Sum(rhs),rhsMax =  -1.32304167621555E-11  1.45924552727743E-01
 cg2d: Sum(rhs),rhsMax =  -1.32516220219259E-11  1.44742300910648E-01
 cg2d: Sum(rhs),rhsMax =  -1.33036914817808E-11  1.43522549519149E-01
 cg2d: Sum(rhs),rhsMax =  -1.34027233755774E-11  1.42266151953360E-01
 cg2d: Sum(rhs),rhsMax =  -1.33884014985597E-11  1.40973974950451E-01
 cg2d: Sum(rhs),rhsMax =  -1.33875133201400E-11  1.39646895622044E-01
 cg2d: Sum(rhs),rhsMax =  -1.34353639325013E-11  1.38285797944714E-01
 cg2d: Sum(rhs),rhsMax =  -1.34149358288482E-11  1.36891568876635E-01
 cg2d: Sum(rhs),rhsMax =  -1.34775524074371E-11  1.35465094186488E-01
 cg2d: Sum(rhs),rhsMax =  -1.34965372211582E-11  1.34007254135880E-01
 cg2d: Sum(rhs),rhsMax =  -1.35372824061619E-11  1.32518919171855E-01
 cg2d: Sum(rhs),rhsMax =  -1.35568223313953E-11  1.31000945730068E-01
 cg2d: Sum(rhs),rhsMax =  -1.35895739106218E-11  1.29454172211751E-01
 cg2d: Sum(rhs),rhsMax =  -1.37208022721325E-11  1.27879415150211E-01
 cg2d: Sum(rhs),rhsMax =  -1.38237199465152E-11  1.26277465645287E-01
 cg2d: Sum(rhs),rhsMax =  -1.39711575641854E-11  1.24649086096202E-01
 cg2d: Sum(rhs),rhsMax =  -1.40986111674124E-11  1.22995007266376E-01
 cg2d: Sum(rhs),rhsMax =  -1.42212908116335E-11  1.21315925723998E-01
 cg2d: Sum(rhs),rhsMax =  -1.43789424811303E-11  1.19612501714790E-01
 cg2d: Sum(rhs),rhsMax =  -1.45349288160901E-11  1.17885357533981E-01
 cg2d: Sum(rhs),rhsMax =  -1.46721523819338E-11  1.16135076467552E-01
 cg2d: Sum(rhs),rhsMax =  -1.48300260960355E-11  1.14362202370167E-01
 cg2d: Sum(rhs),rhsMax =  -1.49901202561864E-11  1.12567239935599E-01
 cg2d: Sum(rhs),rhsMax =  -1.51958445826494E-11  1.10750655695529E-01
 cg2d: Sum(rhs),rhsMax =  -1.54027901544396E-11  1.08912879752321E-01
 cg2d: Sum(rhs),rhsMax =  -1.55875312657372E-11  1.07054308213999E-01
 cg2d: Sum(rhs),rhsMax =  -1.58070223577056E-11  1.05175306304233E-01
 cg2d: Sum(rhs),rhsMax =  -1.60172985985696E-11  1.03276212035073E-01
 cg2d: Sum(rhs),rhsMax =  -1.62441171625005E-11  1.01357340332105E-01
 cg2d: Sum(rhs),rhsMax =  -1.65074620639416E-11  9.94189874855030E-02
 cg2d: Sum(rhs),rhsMax =  -1.68074443251953E-11  9.74614357889559E-02
 cg2d: Sum(rhs),rhsMax =  -1.70633507323714E-11  9.54849582327291E-02
 cg2d: Sum(rhs),rhsMax =  -1.73618897036931E-11  9.34898231016003E-02
 cg2d: Sum(rhs),rhsMax =  -1.76560988052188E-11  9.14762984275294E-02
 cg2d: Sum(rhs),rhsMax =  -1.79666281852064E-11  8.94446561693893E-02
 cg2d: Sum(rhs),rhsMax =  -1.83117965235624E-11  8.73951759988031E-02
 cg2d: Sum(rhs),rhsMax =  -1.86800575008306E-11  8.53281486215826E-02
 cg2d: Sum(rhs),rhsMax =  -1.90713000947085E-11  8.32438785638592E-02
 cg2d: Sum(rhs),rhsMax =  -1.94615434878642E-11  8.11426863473269E-02
 cg2d: Sum(rhs),rhsMax =  -1.98855376609686E-11  7.90249099719587E-02
 cg2d: Sum(rhs),rhsMax =  -2.03320693614728E-11  7.68909056216944E-02
 cg2d: Sum(rhs),rhsMax =  -2.08159045556044E-11  7.47410475132302E-02
 cg2d: Sum(rhs),rhsMax =  -2.13513651203812E-11  7.25757268239504E-02
 cg2d: Sum(rhs),rhsMax =  -2.19753104602205E-11  7.03953496653228E-02
 cg2d: Sum(rhs),rhsMax =  -2.26437757433473E-11  6.82003341146340E-02
 cg2d: Sum(rhs),rhsMax =  -2.33497665647064E-11  6.59911063809310E-02
 cg2d: Sum(rhs),rhsMax =  -2.41049402660565E-11  6.37680962591589E-02
 cg2d: Sum(rhs),rhsMax =  -2.49333886870318E-11  6.15317321197944E-02
 cg2d: Sum(rhs),rhsMax =  -2.58383314744037E-11  5.92824357355219E-02
 cg2d: Sum(rhs),rhsMax =  -2.68183253382404E-11  5.70206173809896E-02
 cg2d: Sum(rhs),rhsMax =  -2.78848055756953E-11  5.47466716809036E-02
 cg2d: Sum(rhs),rhsMax =  -2.90567570004896E-11  5.24609747178471E-02
 cg2d: Sum(rhs),rhsMax =  -3.02767810822502E-11  5.01638829098931E-02
 cg2d: Sum(rhs),rhsMax =  -3.17115222969733E-11  4.78557341224882E-02
 cg2d: Sum(rhs),rhsMax =  -3.32532890112702E-11  4.55368513949620E-02
 cg2d: Sum(rhs),rhsMax =  -3.49559270418354E-11  4.32075494706874E-02
 cg2d: Sum(rhs),rhsMax =  -3.68974850672998E-11  4.08681441994888E-02
 cg2d: Sum(rhs),rhsMax =  -3.90805166006203E-11  3.85189646294058E-02
 cg2d: Sum(rhs),rhsMax =  -4.15460998937078E-11  3.61603673613617E-02
 cg2d: Sum(rhs),rhsMax =  -4.43645120640213E-11  3.37927525118168E-02
 cg2d: Sum(rhs),rhsMax =  -4.76917394465204E-11  3.14165804297098E-02
 cg2d: Sum(rhs),rhsMax =  -5.15403275613835E-11  2.90323881648981E-02
 cg2d: Sum(rhs),rhsMax =  -5.61165558465859E-11  2.66408046046887E-02
 cg2d: Sum(rhs),rhsMax =  -6.16016126997465E-11  2.42425631975546E-02
 cg2d: Sum(rhs),rhsMax =  -6.83251788480277E-11  2.18385112761111E-02
 cg2d: Sum(rhs),rhsMax =  -7.67181318472865E-11  1.94296151729612E-02
 cg2d: Sum(rhs),rhsMax =  -8.74940120354495E-11  1.70169605813287E-02
 cg2d: Sum(rhs),rhsMax =  -1.01875258229356E-10  1.46017479268273E-02
 cg2d: Sum(rhs),rhsMax =  -1.17487866657662E-10  1.26542817449631E-02
 cg2d: Sum(rhs),rhsMax =  -1.09084546950911E-10  1.36136310164268E-02
 cg2d: Sum(rhs),rhsMax =  -1.01836789001553E-10  1.45657976813148E-02
 cg2d: Sum(rhs),rhsMax =  -9.55628909338202E-11  1.55105373586900E-02
 cg2d: Sum(rhs),rhsMax =  -9.00150509686171E-11  1.64475484918983E-02
 cg2d: Sum(rhs),rhsMax =  -8.51602122153849E-11  1.73764984966016E-02
 cg2d: Sum(rhs),rhsMax =  -8.07609534803078E-11  1.82970113670524E-02
 cg2d: Sum(rhs),rhsMax =  -7.68349828206283E-11  1.92139415193027E-02
 cg2d: Sum(rhs),rhsMax =  -7.31700255940382E-11  2.01639919810003E-02
 cg2d: Sum(rhs),rhsMax =  -6.97278901284903E-11  2.11361616857576E-02
 cg2d: Sum(rhs),rhsMax =  -6.63256116695266E-11  2.21893974245298E-02
 cg2d: Sum(rhs),rhsMax =  -6.32679464374064E-11  2.32430116476638E-02
 cg2d: Sum(rhs),rhsMax =  -6.04927219427509E-11  2.42838009482570E-02
 cg2d: Sum(rhs),rhsMax =  -5.59330359806154E-11  2.62300522132175E-02
 cg2d: Sum(rhs),rhsMax =  -5.21344079018604E-11  2.81579565164016E-02
 cg2d: Sum(rhs),rhsMax =  -4.87320184205942E-11  3.00587517195031E-02
 cg2d: Sum(rhs),rhsMax =  -4.58736382213942E-11  3.19317209419880E-02
 cg2d: Sum(rhs),rhsMax =  -4.32496261026927E-11  3.37761138375690E-02
 cg2d: Sum(rhs),rhsMax =  -4.09410283452871E-11  3.55911444635084E-02
 cg2d: Sum(rhs),rhsMax =  -3.89217547080989E-11  3.73759910898463E-02
 cg2d: Sum(rhs),rhsMax =  -3.70501407331858E-11  3.91297982171800E-02
 cg2d: Sum(rhs),rhsMax =  -3.54209994668508E-11  4.08516808970905E-02
 cg2d: Sum(rhs),rhsMax =  -3.39180905584158E-11  4.25407312504572E-02
 cg2d: Sum(rhs),rhsMax =  -3.25973692483217E-11  4.41960268790097E-02
 cg2d: Sum(rhs),rhsMax =  -3.13552517283711E-11  4.58166406915601E-02
 cg2d: Sum(rhs),rhsMax =  -3.02611269376030E-11  4.74016515305266E-02
 cg2d: Sum(rhs),rhsMax =  -2.92221802311587E-11  4.89501549264506E-02
 cg2d: Sum(rhs),rhsMax =  -2.82665002515614E-11  5.04612733087897E-02
 cg2d: Sum(rhs),rhsMax =  -2.74271716449448E-11  5.19341650712647E-02
 cg2d: Sum(rhs),rhsMax =  -2.66198174614374E-11  5.33680320173171E-02
 cg2d: Sum(rhs),rhsMax =  -2.59376964351077E-11  5.47621248767904E-02
 cg2d: Sum(rhs),rhsMax =  -2.52264875655328E-11  5.61157467675368E-02
 cg2d: Sum(rhs),rhsMax =  -2.44255726755682E-11  5.79005942863929E-02
 cg2d: Sum(rhs),rhsMax =  -2.36380914842016E-11  5.96740614964390E-02
 cg2d: Sum(rhs),rhsMax =  -2.29536389895202E-11  6.14121742515727E-02
 cg2d: Sum(rhs),rhsMax =  -2.22815099704121E-11  6.31138890288028E-02
 cg2d: Sum(rhs),rhsMax =  -2.16491269355856E-11  6.47781299453778E-02
 cg2d: Sum(rhs),rhsMax =  -2.10635953123983E-11  6.64037929444653E-02
 cg2d: Sum(rhs),rhsMax =  -2.04652961244278E-11  6.79897516194725E-02
 cg2d: Sum(rhs),rhsMax =  -1.99282812474166E-11  6.95348645156511E-02
 cg2d: Sum(rhs),rhsMax =  -1.94302351985698E-11  7.10379836380534E-02
 cg2d: Sum(rhs),rhsMax =  -1.89742666023562E-11  7.24979638027301E-02
 cg2d: Sum(rhs),rhsMax =  -1.85493842508322E-11  7.39136724025142E-02
 cg2d: Sum(rhs),rhsMax =  -1.81724635339719E-11  7.52839991262913E-02
 cg2d: Sum(rhs),rhsMax =  -1.77808878731867E-11  7.66078651737641E-02
 cg2d: Sum(rhs),rhsMax =  -1.74559255938789E-11  7.78842315471892E-02
 cg2d: Sum(rhs),rhsMax =  -1.71666014736616E-11  7.91121060770831E-02
 cg2d: Sum(rhs),rhsMax =  -1.68680625023399E-11  8.02905489240584E-02
 cg2d: Sum(rhs),rhsMax =  -1.65825131404063E-11  8.14186764154165E-02
 cg2d: Sum(rhs),rhsMax =  -1.63221658411317E-11  8.24956631915057E-02
 cg2d: Sum(rhs),rhsMax =  -1.60563784490364E-11  8.35207427488068E-02
 cg2d: Sum(rhs),rhsMax =  -1.58323354426670E-11  8.44932065653693E-02
 cg2d: Sum(rhs),rhsMax =  -1.56199497780563E-11  8.54124020749687E-02
 cg2d: Sum(rhs),rhsMax =  -1.54194434998089E-11  8.62777298102169E-02
 cg2d: Sum(rhs),rhsMax =  -1.52434731504059E-11  8.70886400301064E-02
 cg2d: Sum(rhs),rhsMax =  -1.50895962391928E-11  8.78446291971287E-02
 cg2d: Sum(rhs),rhsMax =  -1.49676937510890E-11  8.85452366129307E-02
 cg2d: Sum(rhs),rhsMax =  -1.48605572292126E-11  8.91900414711195E-02
 cg2d: Sum(rhs),rhsMax =  -1.47455381238615E-11  8.97786605210823E-02
 cg2d: Sum(rhs),rhsMax =  -1.46944678647287E-11  9.03107464588212E-02
 cg2d: Sum(rhs),rhsMax =  -1.46015421975676E-11  9.07859870852227E-02
 cg2d: Sum(rhs),rhsMax =  -1.45622403024959E-11  9.12041051970994E-02
 cg2d: Sum(rhs),rhsMax =  -1.44917411404322E-11  9.15648591061987E-02
 cg2d: Sum(rhs),rhsMax =  -1.44162459747577E-11  9.18680436209620E-02
 cg2d: Sum(rhs),rhsMax =  -1.43746126113342E-11  9.21134912675183E-02
 cg2d: Sum(rhs),rhsMax =  -1.43505207716998E-11  9.23010736202000E-02
 cg2d: Sum(rhs),rhsMax =  -1.43208778169424E-11  9.24307024313568E-02
 cg2d: Sum(rhs),rhsMax =  -1.43316469802812E-11  9.25023303556276E-02
 cg2d: Sum(rhs),rhsMax =  -1.43155487464242E-11  9.25159510989896E-02
 cg2d: Sum(rhs),rhsMax =  -1.43075551406469E-11  9.24715988848579E-02
 cg2d: Sum(rhs),rhsMax =  -1.42656997326185E-11  9.23693471766396E-02
 cg2d: Sum(rhs),rhsMax =  -1.42136302727636E-11  9.22093065566869E-02
 cg2d: Sum(rhs),rhsMax =  -1.42862388585741E-11  9.19916219157981E-02
 cg2d: Sum(rhs),rhsMax =  -1.43136613672823E-11  9.17164690854519E-02
 cg2d: Sum(rhs),rhsMax =  -1.42862388585741E-11  9.13840510813897E-02
 cg2d: Sum(rhs),rhsMax =  -1.42087452914552E-11  9.09945941675235E-02
 cg2d: Sum(rhs),rhsMax =  -1.43011158471040E-11  9.05483439777893E-02
 cg2d: Sum(rhs),rhsMax =  -1.44108058819370E-11  9.00455619440141E-02
 cg2d: Sum(rhs),rhsMax =  -1.45007339469316E-11  8.94865222724596E-02
 cg2d: Sum(rhs),rhsMax =  -1.46150869184680E-11  8.88715096617409E-02
 cg2d: Sum(rhs),rhsMax =  -1.47295509123069E-11  8.82008179257424E-02
 cg2d: Sum(rhs),rhsMax =  -1.48990819681671E-11  8.74747496288953E-02
 cg2d: Sum(rhs),rhsMax =  -1.50821577449278E-11  8.66936167630621E-02
 cg2d: Sum(rhs),rhsMax =  -1.52903245620450E-11  8.58577424279411E-02
 cg2d: Sum(rhs),rhsMax =  -1.55591095563068E-11  8.49674634150959E-02
 cg2d: Sum(rhs),rhsMax =  -1.58426605167961E-11  8.40231335429844E-02
 cg2d: Sum(rhs),rhsMax =  -1.61812785393067E-11  8.30251275495777E-02
 cg2d: Sum(rhs),rhsMax =  -1.64158686644100E-11  8.19738453138386E-02
 cg2d: Sum(rhs),rhsMax =  -1.67058589184421E-11  8.08697161500277E-02
 cg2d: Sum(rhs),rhsMax =  -1.70097269602820E-11  7.97132030513490E-02
 cg2d: Sum(rhs),rhsMax =  -1.73672187742113E-11  7.85048066240312E-02
(PID.TID 0000.0001)      cg2d_init_res =   8.48138745788993E-02
(PID.TID 0000.0001)      cg2d_iters(min,last) =      -1      36
(PID.TID 0000.0001)      cg2d_last_res =   6.47002360610825E-14
(PID.TID 0000.0001) // =======================================================
(PID.TID 0000.0001) // Begin MONITOR dynamic field statistics
(PID.TID 0000.0001) // =======================================================
(PID.TID 0000.0001) %MON time_tsnumber                =                  2400
(PID.TID 0000.0001) %MON time_secondsf                =   3.6000000000000E+04
(PID.TID 0000.0001) %MON dynstat_eta_max              =   1.3934925361425E-02
(PID.TID 0000.0001) %MON dynstat_eta_min              =  -1.2873650496066E-02
(PID.TID 0000.0001) %MON dynstat_eta_mean             =   2.8474446338188E-15
(PID.TID 0000.0001) %MON dynstat_eta_sd               =   9.5766219548350E-03
(PID.TID 0000.0001) %MON dynstat_eta_del2             =   1.2554743930715E-05
(PID.TID 0000.0001) %MON dynstat_uvel_max             =   6.6437120017194E-01
(PID.TID 0000.0001) %MON dynstat_uvel_min             =  -9.4974191294140E-02
(PID.TID 0000.0001) %MON dynstat_uvel_mean            =   1.0655887179496E-01
(PID.TID 0000.0001) %MON dynstat_uvel_sd              =   6.1051073500789E-02
(PID.TID 0000.0001) %MON dynstat_uvel_del2            =   1.8266189109715E-04
(PID.TID 0000.0001) %MON dynstat_vvel_max             =   0.0000000000000E+00
(PID.TID 0000.0001) %MON dynstat_vvel_min             =   0.0000000000000E+00
(PID.TID 0000.0001) %MON dynstat_vvel_mean            =   0.0000000000000E+00
(PID.TID 0000.0001) %MON dynstat_vvel_sd              =   0.0000000000000E+00
(PID.TID 0000.0001) %MON dynstat_vvel_del2            =   0.0000000000000E+00
(PID.TID 0000.0001) %MON dynstat_wvel_max             =   9.9299603762329E-03
(PID.TID 0000.0001) %MON dynstat_wvel_min             =  -1.0685155795712E-02
(PID.TID 0000.0001) %MON dynstat_wvel_mean            =   4.8136665224415E-21
(PID.TID 0000.0001) %MON dynstat_wvel_sd              =   6.8681394687627E-04
(PID.TID 0000.0001) %MON dynstat_wvel_del2            =   1.1853018517220E-05
(PID.TID 0000.0001) %MON dynstat_theta_max            =   1.5000000000008E+01
(PID.TID 0000.0001) %MON dynstat_theta_min            =   9.9999999999955E+00
(PID.TID 0000.0001) %MON dynstat_theta_mean           =   1.2567203497099E+01
(PID.TID 0000.0001) %MON dynstat_theta_sd             =   2.4687718626618E+00
(PID.TID 0000.0001) %MON dynstat_theta_del2           =   1.1278904447715E-03
(PID.TID 0000.0001) %MON dynstat_salt_max             =   3.5000000000000E+01
(PID.TID 0000.0001) %MON dynstat_salt_min             =   3.5000000000000E+01
(PID.TID 0000.0001) %MON dynstat_salt_mean            =   3.5000000000000E+01
(PID.TID 0000.0001) %MON dynstat_salt_sd              =   3.9790393202566E-13
(PID.TID 0000.0001) %MON dynstat_salt_del2            =   0.0000000000000E+00
(PID.TID 0000.0001) %MON dynstat_sst_max              =   1.5000000000000E+01
(PID.TID 0000.0001) %MON dynstat_sst_min              =   1.4999999999999E+01
(PID.TID 0000.0001) %MON dynstat_sst_mean             =   1.5000000000000E+01
(PID.TID 0000.0001) %MON dynstat_sst_sd               =   2.6767375465771E-13
(PID.TID 0000.0001) %MON dynstat_sst_del2             =   8.4704921639993E-15
(PID.TID 0000.0001) %MON dynstat_sss_max              =   3.5000000000000E+01
(PID.TID 0000.0001) %MON dynstat_sss_min              =   3.5000000000000E+01
(PID.TID 0000.0001) %MON dynstat_sss_mean             =   3.5000000000000E+01
(PID.TID 0000.0001) %MON dynstat_sss_sd               =   5.6843418860808E-14
(PID.TID 0000.0001) %MON dynstat_sss_del2             =   0.0000000000000E+00
(PID.TID 0000.0001) %MON forcing_qnet_max             =   0.0000000000000E+00
(PID.TID 0000.0001) %MON forcing_qnet_min             =   0.0000000000000E+00
(PID.TID 0000.0001) %MON forcing_qnet_mean            =   0.0000000000000E+00
(PID.TID 0000.0001) %MON forcing_qnet_sd              =   0.0000000000000E+00
(PID.TID 0000.0001) %MON forcing_qnet_del2            =   0.0000000000000E+00
(PID.TID 0000.0001) %MON forcing_qsw_max              =   0.0000000000000E+00
(PID.TID 0000.0001) %MON forcing_qsw_min              =   0.0000000000000E+00
(PID.TID 0000.0001) %MON forcing_qsw_mean             =   0.0000000000000E+00
(PID.TID 0000.0001) %MON forcing_qsw_sd               =   0.0000000000000E+00
(PID.TID 0000.0001) %MON forcing_qsw_del2             =   0.0000000000000E+00
(PID.TID 0000.0001) %MON forcing_empmr_max            =   0.0000000000000E+00
(PID.TID 0000.0001) %MON forcing_empmr_min            =   0.0000000000000E+00
(PID.TID 0000.0001) %MON forcing_empmr_mean           =   0.0000000000000E+00
(PID.TID 0000.0001) %MON forcing_empmr_sd             =   0.0000000000000E+00
(PID.TID 0000.0001) %MON forcing_empmr_del2           =   0.0000000000000E+00
(PID.TID 0000.0001) %MON forcing_fu_max               =   0.0000000000000E+00
(PID.TID 0000.0001) %MON forcing_fu_min               =   0.0000000000000E+00
(PID.TID 0000.0001) %MON forcing_fu_mean              =   0.0000000000000E+00
(PID.TID 0000.0001) %MON forcing_fu_sd                =   0.0000000000000E+00
(PID.TID 0000.0001) %MON forcing_fu_del2              =   0.0000000000000E+00
(PID.TID 0000.0001) %MON forcing_fv_max               =   0.0000000000000E+00
(PID.TID 0000.0001) %MON forcing_fv_min               =   0.0000000000000E+00
(PID.TID 0000.0001) %MON forcing_fv_mean              =   0.0000000000000E+00
(PID.TID 0000.0001) %MON forcing_fv_sd                =   0.0000000000000E+00
(PID.TID 0000.0001) %MON forcing_fv_del2              =   0.0000000000000E+00
(PID.TID 0000.0001) %MON advcfl_uvel_max              =   4.9827840012896E-02
(PID.TID 0000.0001) %MON advcfl_vvel_max              =   0.0000000000000E+00
(PID.TID 0000.0001) %MON advcfl_wvel_max              =   1.5647572572353E-01
(PID.TID 0000.0001) %MON advcfl_W_hf_max              =   1.5647572572353E-01
(PID.TID 0000.0001) %MON pe_b_mean                    =   2.3097324131487E-06
(PID.TID 0000.0001) %MON ke_max                       =   1.6972683613456E-01
(PID.TID 0000.0001) %MON ke_mean                      =   7.5579906443099E-03
(PID.TID 0000.0001) %MON ke_vol                       =   9.5121673331316E+10
(PID.TID 0000.0001) %MON vort_r_min                   =   0.0000000000000E+00
(PID.TID 0000.0001) %MON vort_r_max                   =   0.0000000000000E+00
(PID.TID 0000.0001) %MON vort_a_mean                  =   0.0000000000000E+00
(PID.TID 0000.0001) %MON vort_a_sd                    =   0.0000000000000E+00
(PID.TID 0000.0001) %MON vort_p_mean                  =   0.0000000000000E+00
(PID.TID 0000.0001) %MON vort_p_sd                    =   0.0000000000000E+00
(PID.TID 0000.0001) %MON surfExpan_theta_mean         =   7.3556290190739E-19
(PID.TID 0000.0001) %MON surfExpan_salt_mean          =   6.1452090539099E-20
(PID.TID 0000.0001) // =======================================================
(PID.TID 0000.0001) // End MONITOR dynamic field statistics
(PID.TID 0000.0001) // =======================================================
(PID.TID 0000.0001) // =======================================================
(PID.TID 0000.0001) // Begin OBCS MONITOR field statistics
(PID.TID 0000.0001) // =======================================================
(PID.TID 0000.0001) %MON obc_E_uVel_max               =   1.0505355776936E-01
(PID.TID 0000.0001) %MON obc_E_uVel_min               =   1.0505355776936E-01
(PID.TID 0000.0001) %MON obc_E_uVel_mean              =   1.0505355776936E-01
(PID.TID 0000.0001) %MON obc_E_uVel_sd                =  -6.9388939039072E-18
(PID.TID 0000.0001) %MON obc_E_uVel_Int               =   1.0505355776936E+05
(PID.TID 0000.0001) %MON obc_W_uVel_max               =   1.0505355776936E-01
(PID.TID 0000.0001) %MON obc_W_uVel_min               =   1.0505355776936E-01
(PID.TID 0000.0001) %MON obc_W_uVel_mean              =   1.0505355776936E-01
(PID.TID 0000.0001) %MON obc_W_uVel_sd                =  -6.9388939039072E-18
(PID.TID 0000.0001) %MON obc_W_uVel_Int               =   1.0505355776936E+05
(PID.TID 0000.0001) // =======================================================
(PID.TID 0000.0001) // End OBCS MONITOR field statistics
(PID.TID 0000.0001) // =======================================================
 cg2d: Sum(rhs),rhsMax =  -1.77242664989308E-11  7.72450684683410E-02
 cg2d: Sum(rhs),rhsMax =  -1.80347958789184E-11  7.59345738727054E-02
 cg2d: Sum(rhs),rhsMax =  -1.84496862232209E-11  7.45739537246189E-02
 cg2d: Sum(rhs),rhsMax =  -1.88754567531646E-11  7.31638855727704E-02
 cg2d: Sum(rhs),rhsMax =  -1.93033367068551E-11  7.17050938034531E-02
 cg2d: Sum(rhs),rhsMax =  -1.98419058961008E-11  7.01983489078445E-02
 cg2d: Sum(rhs),rhsMax =  -2.03451699931634E-11  6.86444658825587E-02
 cg2d: Sum(rhs),rhsMax =  -2.09389172667329E-11  6.70443017050054E-02
 cg2d: Sum(rhs),rhsMax =  -2.14901429984593E-11  6.53987519560726E-02
 cg2d: Sum(rhs),rhsMax =  -2.20947704576702E-11  6.37087466944704E-02
 cg2d: Sum(rhs),rhsMax =  -2.27369234551134E-11  6.19752456277841E-02
 cg2d: Sum(rhs),rhsMax =  -2.34621211347985E-11  6.01992326561676E-02
 cg2d: Sum(rhs),rhsMax =  -2.42695863406084E-11  5.83817099505391E-02
 cg2d: Sum(rhs),rhsMax =  -2.50801601708872E-11  5.65236917131631E-02
 cg2d: Sum(rhs),rhsMax =  -2.60361732173919E-11  5.46261978091655E-02
 cg2d: Sum(rhs),rhsMax =  -2.70340416719250E-11  5.26902475119906E-02
 cg2d: Sum(rhs),rhsMax =  -2.81552559044940E-11  5.07168536461757E-02
 cg2d: Sum(rhs),rhsMax =  -2.93716162502733E-11  4.87070174433465E-02
 cg2d: Sum(rhs),rhsMax =  -3.07212033590076E-11  4.66617244422364E-02
 cg2d: Sum(rhs),rhsMax =  -3.22304405386831E-11  4.45819417559311E-02
 cg2d: Sum(rhs),rhsMax =  -3.39145378447370E-11  4.24686169967148E-02
 cg2d: Sum(rhs),rhsMax =  -3.58030272096244E-11  4.03226790809500E-02
 cg2d: Sum(rhs),rhsMax =  -3.79452025356386E-11  3.81450410481990E-02
 cg2d: Sum(rhs),rhsMax =  -4.03542754767727E-11  3.59366049239698E-02
 cg2d: Sum(rhs),rhsMax =  -4.31007451950904E-11  3.36982685188125E-02
 cg2d: Sum(rhs),rhsMax =  -4.62870852757646E-11  3.14309338921014E-02
 cg2d: Sum(rhs),rhsMax =  -5.00078867204934E-11  2.91355170843862E-02
 cg2d: Sum(rhs),rhsMax =  -5.43634026684003E-11  2.68129585967649E-02
 cg2d: Sum(rhs),rhsMax =  -5.96888094506198E-11  2.44642339934508E-02
 cg2d: Sum(rhs),rhsMax =  -6.61574128812958E-11  2.20903638980938E-02
 cg2d: Sum(rhs),rhsMax =  -7.23445747752294E-11  2.02350308566268E-02
 cg2d: Sum(rhs),rhsMax =  -7.58925144950240E-11  1.93052631001003E-02
 cg2d: Sum(rhs),rhsMax =  -7.97896193560632E-11  1.83745869600671E-02
 cg2d: Sum(rhs),rhsMax =  -8.42317326998909E-11  1.74363370794284E-02
 cg2d: Sum(rhs),rhsMax =  -8.91844376127437E-11  1.64908998758943E-02
 cg2d: Sum(rhs),rhsMax =  -9.47393830053045E-11  1.55386837741077E-02
 cg2d: Sum(rhs),rhsMax =  -1.01086916615145E-10  1.45799621324680E-02
 cg2d: Sum(rhs),rhsMax =  -1.08280967525687E-10  1.36150501053212E-02
 cg2d: Sum(rhs),rhsMax =  -1.16617535073082E-10  1.26443992198062E-02
 cg2d: Sum(rhs),rhsMax =  -1.26452834314783E-10  1.16685080319412E-02
 cg2d: Sum(rhs),rhsMax =  -1.38156486251262E-10  1.06878830617630E-02
 cg2d: Sum(rhs),rhsMax =  -1.30969457501351E-10  1.12794563438864E-02
 cg2d: Sum(rhs),rhsMax =  -1.10823128451898E-10  1.33378631235876E-02
 cg2d: Sum(rhs),rhsMax =  -9.57373069709888E-11  1.54486157373570E-02
 cg2d: Sum(rhs),rhsMax =  -8.41063885204107E-11  1.76085829311102E-02
 cg2d: Sum(rhs),rhsMax =  -7.47959472136017E-11  1.98327694770583E-02
 cg2d: Sum(rhs),rhsMax =  -6.72331079698552E-11  2.20899878283471E-02
 cg2d: Sum(rhs),rhsMax =  -6.09672312634757E-11  2.43870938283635E-02
 cg2d: Sum(rhs),rhsMax =  -5.56485968417064E-11  2.67339711310197E-02
 cg2d: Sum(rhs),rhsMax =  -5.12212494641062E-11  2.90998257382627E-02
 cg2d: Sum(rhs),rhsMax =  -4.73155958857774E-11  3.15193370516109E-02
 cg2d: Sum(rhs),rhsMax =  -4.39457359391326E-11  3.39654715882029E-02
 cg2d: Sum(rhs),rhsMax =  -4.09789979727293E-11  3.64539685454796E-02
 cg2d: Sum(rhs),rhsMax =  -3.83600928799410E-11  3.90231475300941E-02
 cg2d: Sum(rhs),rhsMax =  -3.60039775770815E-11  4.16008863380317E-02
 cg2d: Sum(rhs),rhsMax =  -3.39862582521278E-11  4.41717095898794E-02
 cg2d: Sum(rhs),rhsMax =  -3.22420978804416E-11  4.67346140964240E-02
 cg2d: Sum(rhs),rhsMax =  -3.05911962428240E-11  4.92885538338402E-02
 cg2d: Sum(rhs),rhsMax =  -2.91655588569029E-11  5.18324350698458E-02
 cg2d: Sum(rhs),rhsMax =  -2.78648215612520E-11  5.43651149004696E-02
 cg2d: Sum(rhs),rhsMax =  -2.67036392997966E-11  5.68854032208375E-02
 cg2d: Sum(rhs),rhsMax =  -2.56527021846864E-11  5.93920679428253E-02
 cg2d: Sum(rhs),rhsMax =  -2.46737075215719E-11  6.18838430788701E-02
 cg2d: Sum(rhs),rhsMax =  -2.37890818155506E-11  6.43594391473153E-02
 cg2d: Sum(rhs),rhsMax =  -2.29777308291546E-11  6.68175552326416E-02
 cg2d: Sum(rhs),rhsMax =  -2.21991314219849E-11  6.92568919265235E-02
 cg2d: Sum(rhs),rhsMax =  -2.14959161581874E-11  7.16761643900140E-02
 cg2d: Sum(rhs),rhsMax =  -2.08505435139728E-11  7.40741147590943E-02
 cg2d: Sum(rhs),rhsMax =  -2.02660110915076E-11  7.64495232319597E-02
 cg2d: Sum(rhs),rhsMax =  -1.97101224230778E-11  7.88012172290914E-02
 cg2d: Sum(rhs),rhsMax =  -1.91850979547326E-11  8.11280781860214E-02
 cg2d: Sum(rhs),rhsMax =  -1.86907156418670E-11  8.34290457147593E-02
 cg2d: Sum(rhs),rhsMax =  -1.82434067852455E-11  8.57031190541246E-02
 cg2d: Sum(rhs),rhsMax =  -1.78017600660496E-11  8.79493559085100E-02
 cg2d: Sum(rhs),rhsMax =  -1.74843473033093E-11  9.01668689447129E-02
 cg2d: Sum(rhs),rhsMax =  -1.71586078678843E-11  9.23548203498273E-02
 cg2d: Sum(rhs),rhsMax =  -1.68577374282108E-11  9.45124149590848E-02
 cg2d: Sum(rhs),rhsMax =  -1.65636393489876E-11  9.66388925279035E-02
 cg2d: Sum(rhs),rhsMax =  -1.63076219195091E-11  9.87335197423109E-02
 cg2d: Sum(rhs),rhsMax =  -1.60464974641172E-11  1.00795582536381E-01
 cg2d: Sum(rhs),rhsMax =  -1.58101309821745E-11  1.02824379218958E-01
 cg2d: Sum(rhs),rhsMax =  -1.55784274369353E-11  1.04819214812723E-01
 cg2d: Sum(rhs),rhsMax =  -1.53704826644230E-11  1.06779396885508E-01
 cg2d: Sum(rhs),rhsMax =  -1.51573198436949E-11  1.08704233023831E-01
 cg2d: Sum(rhs),rhsMax =  -1.49293910567394E-11  1.10593029964145E-01
 cg2d: Sum(rhs),rhsMax =  -1.47620804469284E-11  1.12445094267150E-01
 cg2d: Sum(rhs),rhsMax =  -1.46043177551292E-11  1.14259734322105E-01
 cg2d: Sum(rhs),rhsMax =  -1.44192435769241E-11  1.16036263390109E-01
 cg2d: Sum(rhs),rhsMax =  -1.42773570743771E-11  1.17774003347597E-01
 cg2d: Sum(rhs),rhsMax =  -1.41678890841490E-11  1.19472288775152E-01
 cg2d: Sum(rhs),rhsMax =  -1.40648603874638E-11  1.21130471051114E-01
 cg2d: Sum(rhs),rhsMax =  -1.39162015244665E-11  1.22747922151053E-01
 cg2d: Sum(rhs),rhsMax =  -1.38352662659713E-11  1.24324037913691E-01
 cg2d: Sum(rhs),rhsMax =  -1.36880506929060E-11  1.25858240608868E-01
 cg2d: Sum(rhs),rhsMax =  -1.36037847653370E-11  1.27349980724546E-01
 cg2d: Sum(rhs),rhsMax =  -1.35047528715404E-11  1.28798737967270E-01
 cg2d: Sum(rhs),rhsMax =  -1.33938415913804E-11  1.30204021536505E-01
 cg2d: Sum(rhs),rhsMax =  -1.32910349393001E-11  1.31565369786249E-01
 cg2d: Sum(rhs),rhsMax =  -1.31851196627508E-11  1.32882349422628E-01
 cg2d: Sum(rhs),rhsMax =  -1.31007427128793E-11  1.34154554402072E-01
 cg2d: Sum(rhs),rhsMax =  -1.29806165816149E-11  1.35381604691008E-01
 cg2d: Sum(rhs),rhsMax =  -1.29162236461866E-11  1.36563145027060E-01
 cg2d: Sum(rhs),rhsMax =  -1.28179689085073E-11  1.37698843784658E-01
 cg2d: Sum(rhs),rhsMax =  -1.26649801757139E-11  1.38788392015568E-01
 cg2d: Sum(rhs),rhsMax =  -1.25646160142878E-11  1.39831502672525E-01
 cg2d: Sum(rhs),rhsMax =  -1.24396049017150E-11  1.40827909988017E-01
 cg2d: Sum(rhs),rhsMax =  -1.23757670777991E-11  1.41777368954604E-01
 cg2d: Sum(rhs),rhsMax =  -1.22531984558805E-11  1.42679654779444E-01
 cg2d: Sum(rhs),rhsMax =  -1.21772592009961E-11  1.43534562231931E-01
 cg2d: Sum(rhs),rhsMax =  -1.21517240714297E-11  1.44341904777773E-01
 cg2d: Sum(rhs),rhsMax =  -1.21717080858730E-11  1.45101513406243E-01
 cg2d: Sum(rhs),rhsMax =  -1.22197807428392E-11  1.45813235086921E-01
 cg2d: Sum(rhs),rhsMax =  -1.22062360219388E-11  1.46476930835280E-01
 cg2d: Sum(rhs),rhsMax =  -1.22604149055405E-11  1.47092473415591E-01
 cg2d: Sum(rhs),rhsMax =  -1.22015730852354E-11  1.47659744768168E-01
 cg2d: Sum(rhs),rhsMax =  -1.21308518785668E-11  1.48178633305454E-01
 cg2d: Sum(rhs),rhsMax =  -1.20624621402499E-11  1.48649031273873E-01
 cg2d: Sum(rhs),rhsMax =  -1.19768639450513E-11  1.49070832423246E-01
 cg2d: Sum(rhs),rhsMax =  -1.18601795051632E-11  1.49443930244527E-01
 cg2d: Sum(rhs),rhsMax =  -1.17346132810781E-11  1.49768217075973E-01
 cg2d: Sum(rhs),rhsMax =  -1.16511245096262E-11  1.50043584388518E-01
 cg2d: Sum(rhs),rhsMax =  -1.15820686374946E-11  1.50269924438921E-01
 cg2d: Sum(rhs),rhsMax =  -1.14342979529169E-11  1.50447133473487E-01
 cg2d: Sum(rhs),rhsMax =  -1.13943299240304E-11  1.50575116578654E-01
 cg2d: Sum(rhs),rhsMax =  -1.13151710223747E-11  1.50653794168553E-01
 cg2d: Sum(rhs),rhsMax =  -1.12583276035139E-11  1.50683109979338E-01
 cg2d: Sum(rhs),rhsMax =  -1.12481135516873E-11  1.50663040270851E-01
 cg2d: Sum(rhs),rhsMax =  -1.11687326054266E-11  1.50593603797262E-01
 cg2d: Sum(rhs),rhsMax =  -1.10808029418763E-11  1.50474872110198E-01
 cg2d: Sum(rhs),rhsMax =  -1.11345377362682E-11  1.50306979595241E-01
 cg2d: Sum(rhs),rhsMax =  -1.11651798917478E-11  1.50090132601338E-01
 cg2d: Sum(rhs),rhsMax =  -1.11987086270915E-11  1.49824617028241E-01
 cg2d: Sum(rhs),rhsMax =  -1.11926024004561E-11  1.49510803793186E-01
 cg2d: Sum(rhs),rhsMax =  -1.12221343329111E-11  1.49149151700040E-01
 cg2d: Sum(rhs),rhsMax =  -1.12314602063179E-11  1.48740207383531E-01
 cg2d: Sum(rhs),rhsMax =  -1.12020392961654E-11  1.48284602140579E-01
 cg2d: Sum(rhs),rhsMax =  -1.11877174191477E-11  1.47783045693109E-01
 cg2d: Sum(rhs),rhsMax =  -1.11555209514336E-11  1.47236317091619E-01
 cg2d: Sum(rhs),rhsMax =  -1.11284315096327E-11  1.46645253140742E-01
 cg2d: Sum(rhs),rhsMax =  -1.11286535542376E-11  1.46010734875447E-01
 cg2d: Sum(rhs),rhsMax =  -1.11045617146033E-11  1.45333672727302E-01
 cg2d: Sum(rhs),rhsMax =  -1.10218500992687E-11  1.44614991082366E-01
 cg2d: Sum(rhs),rhsMax =  -1.10110809359298E-11  1.43855612954668E-01
 cg2d: Sum(rhs),rhsMax =  -1.10066400438313E-11  1.43056445468194E-01
 cg2d: Sum(rhs),rhsMax =  -1.10443876266686E-11  1.42218366771191E-01
 cg2d: Sum(rhs),rhsMax =  -1.10387254892430E-11  1.41342214867610E-01
 cg2d: Sum(rhs),rhsMax =  -1.10297326827435E-11  1.40428778873612E-01
 cg2d: Sum(rhs),rhsMax =  -1.10532694108656E-11  1.39478792846632E-01
 cg2d: Sum(rhs),rhsMax =  -1.10471631842302E-11  1.38492932387389E-01
 cg2d: Sum(rhs),rhsMax =  -1.10862430346970E-11  1.37471813936998E-01
 cg2d: Sum(rhs),rhsMax =  -1.11139986103126E-11  1.36415996640401E-01
 cg2d: Sum(rhs),rhsMax =  -1.11790576795556E-11  1.35325986534899E-01
 cg2d: Sum(rhs),rhsMax =  -1.12160281062756E-11  1.34202242728871E-01
 cg2d: Sum(rhs),rhsMax =  -1.12285736264539E-11  1.33045185157592E-01
 cg2d: Sum(rhs),rhsMax =  -1.12189146861397E-11  1.31855203456537E-01
 cg2d: Sum(rhs),rhsMax =  -1.12517772876686E-11  1.30632666467256E-01
 cg2d: Sum(rhs),rhsMax =  -1.12470033286627E-11  1.29377931888679E-01
 cg2d: Sum(rhs),rhsMax =  -1.12586606704212E-11  1.28091355607127E-01
 cg2d: Sum(rhs),rhsMax =  -1.13264952972258E-11  1.26773300312922E-01
 cg2d: Sum(rhs),rhsMax =  -1.13710152405133E-11  1.25424142961594E-01
 cg2d: Sum(rhs),rhsMax =  -1.14405152018549E-11  1.24044280802366E-01
 cg2d: Sum(rhs),rhsMax =  -1.15216725049549E-11  1.22634135837046E-01
 cg2d: Sum(rhs),rhsMax =  -1.15784049015133E-11  1.21194157586315E-01
 cg2d: Sum(rhs),rhsMax =  -1.16429088592440E-11  1.19724824133736E-01
 cg2d: Sum(rhs),rhsMax =  -1.16774367953099E-11  1.18226641511573E-01
 cg2d: Sum(rhs),rhsMax =  -1.17337251026584E-11  1.16700141576790E-01
 cg2d: Sum(rhs),rhsMax =  -1.17870158078404E-11  1.15145878592190E-01
 cg2d: Sum(rhs),rhsMax =  -1.19048104707531E-11  1.13564424773551E-01
 cg2d: Sum(rhs),rhsMax =  -1.20170540185427E-11  1.11956365087938E-01
 cg2d: Sum(rhs),rhsMax =  -1.21541665620839E-11  1.10322291595358E-01
 cg2d: Sum(rhs),rhsMax =  -1.22619692177750E-11  1.08662797610075E-01
 cg2d: Sum(rhs),rhsMax =  -1.23927534900758E-11  1.06978471934369E-01
 cg2d: Sum(rhs),rhsMax =  -1.25280896767777E-11  1.05269893408371E-01
 cg2d: Sum(rhs),rhsMax =  -1.27278187989077E-11  1.03537625948917E-01
 cg2d: Sum(rhs),rhsMax =  -1.28501653762214E-11  1.01782214218101E-01
 cg2d: Sum(rhs),rhsMax =  -1.30203625658964E-11  1.00004180029882E-01
 cg2d: Sum(rhs),rhsMax =  -1.31403776748584E-11  9.82040195687653E-02
 cg2d: Sum(rhs),rhsMax =  -1.33241195854339E-11  9.63822014641534E-02
 cg2d: Sum(rhs),rhsMax =  -1.35400579637235E-11  9.45391657387533E-02
 cg2d: Sum(rhs),rhsMax =  -1.37354572160575E-11  9.26753236302413E-02
 cg2d: Sum(rhs),rhsMax =  -1.39330769144408E-11  9.07910582661448E-02
 cg2d: Sum(rhs),rhsMax =  -1.41282541221699E-11  8.88867261649454E-02
 cg2d: Sum(rhs),rhsMax =  -1.43769440796859E-11  8.69626595264757E-02
 cg2d: Sum(rhs),rhsMax =  -1.46238576803626E-11  8.50191692382484E-02
 cg2d: Sum(rhs),rhsMax =  -1.48735468386008E-11  8.30565486429155E-02
 cg2d: Sum(rhs),rhsMax =  -1.51370027623443E-11  8.10750779197651E-02
 cg2d: Sum(rhs),rhsMax =  -1.54067869573282E-11  7.90750290182438E-02
 cg2d: Sum(rhs),rhsMax =  -1.57417412438576E-11  7.70566710729002E-02
 cg2d: Sum(rhs),rhsMax =  -1.60985669239722E-11  7.50202762149470E-02
 cg2d: Sum(rhs),rhsMax =  -1.65267799445701E-11  7.29661256761021E-02
 cg2d: Sum(rhs),rhsMax =  -1.69579905673345E-11  7.08945160591846E-02
 cg2d: Sum(rhs),rhsMax =  -1.74174008549244E-11  6.88057656293804E-02
 cg2d: Sum(rhs),rhsMax =  -1.79198877958697E-11  6.67002204616243E-02
 cg2d: Sum(rhs),rhsMax =  -1.84472437325667E-11  6.45782602646801E-02
 cg2d: Sum(rhs),rhsMax =  -1.90507609687529E-11  6.24403036932911E-02
 cg2d: Sum(rhs),rhsMax =  -1.96873628510730E-11  6.02868129580872E-02
 cg2d: Sum(rhs),rhsMax =  -2.03548289334776E-11  5.81182975567756E-02
 cg2d: Sum(rhs),rhsMax =  -2.10816919476997E-11  5.59353169592258E-02
 cg2d: Sum(rhs),rhsMax =  -2.18998152945460E-11  5.37384821157527E-02
 cg2d: Sum(rhs),rhsMax =  -2.28015384351465E-11  5.15284557222752E-02
 cg2d: Sum(rhs),rhsMax =  -2.37421193816090E-11  4.93059512189756E-02
 cg2d: Sum(rhs),rhsMax =  -2.47825093779852E-11  4.70717305618052E-02
 cg2d: Sum(rhs),rhsMax =  -2.59896548726601E-11  4.48266008722213E-02
 cg2d: Sum(rhs),rhsMax =  -2.72870614992371E-11  4.25714101341215E-02
 cg2d: Sum(rhs),rhsMax =  -2.87363466355828E-11  4.03070421706763E-02
 cg2d: Sum(rhs),rhsMax =  -3.03570502069306E-11  3.80344111378901E-02
 cg2d: Sum(rhs),rhsMax =  -3.22022408738576E-11  3.57544558428900E-02
 cg2d: Sum(rhs),rhsMax =  -3.43522987833467E-11  3.34681341830272E-02
 cg2d: Sum(rhs),rhsMax =  -3.68436392506055E-11  3.11764179709959E-02
 cg2d: Sum(rhs),rhsMax =  -3.97050170519719E-11  2.88802883744413E-02
 cg2d: Sum(rhs),rhsMax =  -4.30765423331536E-11  2.65807321468263E-02
 cg2d: Sum(rhs),rhsMax =  -4.71158667636473E-11  2.42787387599980E-02
 cg2d: Sum(rhs),rhsMax =  -5.19813636579158E-11  2.19752984765257E-02
 cg2d: Sum(rhs),rhsMax =  -5.79846171078202E-11  1.96714013236313E-02
 cg2d: Sum(rhs),rhsMax =  -6.55909215829809E-11  1.73680368604160E-02
 cg2d: Sum(rhs),rhsMax =  -7.55511764261030E-11  1.50661945723986E-02
 cg2d: Sum(rhs),rhsMax =  -7.71677444166841E-11  1.47221071727097E-02
 cg2d: Sum(rhs),rhsMax =  -7.18315129599745E-11  1.57952595911647E-02
 cg2d: Sum(rhs),rhsMax =  -6.72215338948234E-11  1.68604082376268E-02
 cg2d: Sum(rhs),rhsMax =  -6.31470153944491E-11  1.79171979318675E-02
 cg2d: Sum(rhs),rhsMax =  -5.95407056991348E-11  1.89901773485440E-02
 cg2d: Sum(rhs),rhsMax =  -5.62596080833089E-11  2.00660398996003E-02
 cg2d: Sum(rhs),rhsMax =  -5.32936472730228E-11  2.11319280014192E-02
 cg2d: Sum(rhs),rhsMax =  -5.07177633224387E-11  2.21875211230722E-02
 cg2d: Sum(rhs),rhsMax =  -4.83469930756542E-11  2.32325063353024E-02
 cg2d: Sum(rhs),rhsMax =  -4.61732874157406E-11  2.42665602083655E-02
 cg2d: Sum(rhs),rhsMax =  -4.42820224932916E-11  2.52893453653005E-02
 cg2d: Sum(rhs),rhsMax =  -4.25212087762361E-11  2.63005063300208E-02
 cg2d: Sum(rhs),rhsMax =  -4.09348110963492E-11  2.73010284189388E-02
 cg2d: Sum(rhs),rhsMax =  -3.93894916683735E-11  2.83735068080440E-02
 cg2d: Sum(rhs),rhsMax =  -3.78544973145267E-11  2.94482159479392E-02
 cg2d: Sum(rhs),rhsMax =  -3.65238950195135E-11  3.05083324547322E-02
 cg2d: Sum(rhs),rhsMax =  -3.52901041722475E-11  3.15534389033437E-02
 cg2d: Sum(rhs),rhsMax =  -3.40724115588387E-11  3.25830948937577E-02
 cg2d: Sum(rhs),rhsMax =  -3.29734017867622E-11  3.35968361919017E-02
 cg2d: Sum(rhs),rhsMax =  -3.19159143558068E-11  3.45941746302910E-02
 cg2d: Sum(rhs),rhsMax =  -3.09547942833888E-11  3.55746050285028E-02
 cg2d: Sum(rhs),rhsMax =  -3.00802716068915E-11  3.65598712923849E-02
 cg2d: Sum(rhs),rhsMax =  -2.92237345433932E-11  3.75389952526741E-02
 cg2d: Sum(rhs),rhsMax =  -2.83498780007108E-11  3.84992168221050E-02
 cg2d: Sum(rhs),rhsMax =  -2.75298672747226E-11  3.96106921170743E-02
 cg2d: Sum(rhs),rhsMax =  -2.65596433735027E-11  4.10052798187727E-02
 cg2d: Sum(rhs),rhsMax =  -2.53138621175708E-11  4.28184822243843E-02
 cg2d: Sum(rhs),rhsMax =  -2.41998643346619E-11  4.46620944324960E-02
 cg2d: Sum(rhs),rhsMax =  -2.31965557873082E-11  4.64732425167073E-02
 cg2d: Sum(rhs),rhsMax =  -2.23011609179480E-11  4.82507100548056E-02
 cg2d: Sum(rhs),rhsMax =  -2.14334106019010E-11  4.99932969475753E-02
 cg2d: Sum(rhs),rhsMax =  -2.07247552452827E-11  5.16998272159803E-02
 cg2d: Sum(rhs),rhsMax =  -2.00411909290210E-11  5.33691564026619E-02
 cg2d: Sum(rhs),rhsMax =  -1.93993709984852E-11  5.50001783243408E-02
 cg2d: Sum(rhs),rhsMax =  -1.87947435392744E-11  5.65918309763637E-02
 cg2d: Sum(rhs),rhsMax =  -1.82274195736909E-11  5.81431014543978E-02
 cg2d: Sum(rhs),rhsMax =  -1.77388104205534E-11  5.96530298159181E-02
 cg2d: Sum(rhs),rhsMax =  -1.72460934422247E-11  6.11207118524636E-02
 cg2d: Sum(rhs),rhsMax =  -1.67684754970310E-11  6.25453007806451E-02
 cg2d: Sum(rhs),rhsMax =  -1.63341562497976E-11  6.39260078852911E-02
 cg2d: Sum(rhs),rhsMax =  -1.59492419271601E-11  6.52621021632366E-02
 cg2d: Sum(rhs),rhsMax =  -1.55422341663325E-11  6.65529090239121E-02
 cg2d: Sum(rhs),rhsMax =  -1.52137191733459E-11  6.77978081068395E-02
 cg2d: Sum(rhs),rhsMax =  -1.48849821357544E-11  6.89962302804794E-02
 cg2d: Sum(rhs),rhsMax =  -1.45798928485874E-11  7.01476538951523E-02
 cg2d: Sum(rhs),rhsMax =  -1.43125511442577E-11  7.12516003756756E-02
 cg2d: Sum(rhs),rhsMax =  -1.40062406117636E-11  7.23076292674700E-02
 cg2d: Sum(rhs),rhsMax =  -1.38100642033123E-11  7.33153328690809E-02
 cg2d: Sum(rhs),rhsMax =  -1.35854660854307E-11  7.42743306150886E-02
 cg2d: Sum(rhs),rhsMax =  -1.33886235431646E-11  7.51842634037980E-02
 cg2d: Sum(rhs),rhsMax =  -1.32114319484344E-11  7.60447880959264E-02
 cg2d: Sum(rhs),rhsMax =  -1.30075950011133E-11  7.68555723825757E-02
 cg2d: Sum(rhs),rhsMax =  -1.28059784998413E-11  7.76162902595310E-02
 cg2d: Sum(rhs),rhsMax =  -1.26333388195121E-11  7.83266183143598E-02
 cg2d: Sum(rhs),rhsMax =  -1.24907861831502E-11  7.89862329886168E-02
 cg2d: Sum(rhs),rhsMax =  -1.23614452007814E-11  7.95948089281394E-02
 cg2d: Sum(rhs),rhsMax =  -1.22358789766963E-11  8.01520184771793E-02
 cg2d: Sum(rhs),rhsMax =  -1.21157528454319E-11  8.06575323119552E-02
 cg2d: Sum(rhs),rhsMax =  -1.20420340365968E-11  8.11110211517744E-02
 cg2d: Sum(rhs),rhsMax =  -1.19625420680336E-11  8.15121584367296E-02
 cg2d: Sum(rhs),rhsMax =  -1.18903775714330E-11  8.18606238245980E-02
 cg2d: Sum(rhs),rhsMax =  -1.18538512339228E-11  8.21561073074293E-02
 cg2d: Sum(rhs),rhsMax =  -1.18240972568628E-11  8.23983138606703E-02
 cg2d: Sum(rhs),rhsMax =  -1.17955645251300E-11  8.25869683970510E-02
 cg2d: Sum(rhs),rhsMax =  -1.18164367179929E-11  8.27218208694558E-02
 cg2d: Sum(rhs),rhsMax =  -1.18342002863869E-11  8.28026514028775E-02
 cg2d: Sum(rhs),rhsMax =  -1.18234311230481E-11  8.28292753586164E-02
 cg2d: Sum(rhs),rhsMax =  -1.17807985589025E-11  8.28015482849645E-02
 cg2d: Sum(rhs),rhsMax =  -1.17700293955636E-11  8.27193706045443E-02
 cg2d: Sum(rhs),rhsMax =  -1.18379750446707E-11  8.25826919685088E-02
 cg2d: Sum(rhs),rhsMax =  -1.18191012532520E-11  8.23915152570011E-02
 cg2d: Sum(rhs),rhsMax =  -1.18834941886803E-11  8.21459001189751E-02
 cg2d: Sum(rhs),rhsMax =  -1.19596554881696E-11  8.18459659263919E-02
 cg2d: Sum(rhs),rhsMax =  -1.20529142222381E-11  8.14918940046770E-02
 cg2d: Sum(rhs),rhsMax =  -1.21581633649726E-11  8.10839289979721E-02
 cg2d: Sum(rhs),rhsMax =  -1.22580834371888E-11  8.06223792325301E-02
 cg2d: Sum(rhs),rhsMax =  -1.23923094008660E-11  8.01076159663146E-02
 cg2d: Sum(rhs),rhsMax =  -1.25737198430897E-11  7.95400714101049E-02
 cg2d: Sum(rhs),rhsMax =  -1.27328148025185E-11  7.89202354985132E-02
 cg2d: Sum(rhs),rhsMax =  -1.29251054303836E-11  7.82486514206578E-02
 cg2d: Sum(rhs),rhsMax =  -1.31118449431256E-11  7.75259099833289E-02
 cg2d: Sum(rhs),rhsMax =  -1.33700828186534E-11  7.67526429485212E-02
 cg2d: Sum(rhs),rhsMax =  -1.36886058044183E-11  7.59295155555072E-02
 cg2d: Sum(rhs),rhsMax =  -1.38652422876362E-11  7.50572184984080E-02
 cg2d: Sum(rhs),rhsMax =  -1.40729650155436E-11  7.41364596778563E-02
 cg2d: Sum(rhs),rhsMax =  -1.43035583377582E-11  7.31679560697711E-02
 cg2d: Sum(rhs),rhsMax =  -1.45925493910681E-11  7.21524260415189E-02
 cg2d: Sum(rhs),rhsMax =  -1.48604462069102E-11  7.10905825567354E-02
 cg2d: Sum(rhs),rhsMax =  -1.51491041933127E-11  6.99831275432152E-02
 cg2d: Sum(rhs),rhsMax =  -1.54750656733427E-11  6.88307476230662E-02
 cg2d: Sum(rhs),rhsMax =  -1.58486557211290E-11  6.76341114038734E-02
 cg2d: Sum(rhs),rhsMax =  -1.62159174976750E-11  6.63938684443182E-02
 cg2d: Sum(rhs),rhsMax =  -1.65631952597778E-11  6.51106499101498E-02
 cg2d: Sum(rhs),rhsMax =  -1.70256031495342E-11  6.37850708362166E-02
 cg2d: Sum(rhs),rhsMax =  -1.75137682134618E-11  6.24177338138889E-02
 cg2d: Sum(rhs),rhsMax =  -1.79986026083157E-11  6.10092338482529E-02
 cg2d: Sum(rhs),rhsMax =  -1.85086390658284E-11  5.95601640808558E-02
 cg2d: Sum(rhs),rhsMax =  -1.90177873449215E-11  5.80711220190309E-02
 cg2d: Sum(rhs),rhsMax =  -1.95309324269033E-11  5.65427158459711E-02
 cg2d: Sum(rhs),rhsMax =  -2.01464400717555E-11  5.49755704913971E-02
 cg2d: Sum(rhs),rhsMax =  -2.07872608015691E-11  5.33703331483104E-02
 cg2d: Sum(rhs),rhsMax =  -2.15172324402602E-11  5.17276779733070E-02
 cg2d: Sum(rhs),rhsMax =  -2.22913909553313E-11  5.00483097493837E-02
 cg2d: Sum(rhs),rhsMax =  -2.31241692461026E-11  4.83329663770788E-02
 cg2d: Sum(rhs),rhsMax =  -2.40546471630410E-11  4.65824201547380E-02
 cg2d: Sum(rhs),rhsMax =  -2.50750531449739E-11  4.47974779010189E-02
 cg2d: Sum(rhs),rhsMax =  -2.61808352775006E-11  4.29789800547004E-02
 cg2d: Sum(rhs),rhsMax =  -2.74171796377232E-11  4.11277989544937E-02
 cg2d: Sum(rhs),rhsMax =  -2.88218338084789E-11  3.92448365504584E-02
 cg2d: Sum(rhs),rhsMax =  -3.03765901321640E-11  3.73310218202044E-02
 cg2d: Sum(rhs),rhsMax =  -3.21034310246660E-11  3.53873081730178E-02
 cg2d: Sum(rhs),rhsMax =  -3.40676375998328E-11  3.34146711133887E-02
 cg2d: Sum(rhs),rhsMax =  -3.63195029606800E-11  3.14141063959069E-02
 cg2d: Sum(rhs),rhsMax =  -3.76412234714962E-11  3.03598363240213E-02
 cg2d: Sum(rhs),rhsMax =  -3.89551724211401E-11  2.93905241528590E-02
 cg2d: Sum(rhs),rhsMax =  -4.03219679867561E-11  2.84084331803091E-02
 cg2d: Sum(rhs),rhsMax =  -4.18904910759466E-11  2.74140469982737E-02
 cg2d: Sum(rhs),rhsMax =  -4.35194102976766E-11  2.64078595307183E-02
 cg2d: Sum(rhs),rhsMax =  -4.53365123220806E-11  2.53903778580102E-02
 cg2d: Sum(rhs),rhsMax =  -4.73107109044690E-11  2.43621209107087E-02
 cg2d: Sum(rhs),rhsMax =  -4.95145036083500E-11  2.33236133432377E-02
 cg2d: Sum(rhs),rhsMax =  -5.19125853415403E-11  2.22753791897892E-02
 cg2d: Sum(rhs),rhsMax =  -5.45438139099019E-11  2.12179371140514E-02
 cg2d: Sum(rhs),rhsMax =  -5.75393066526431E-11  2.01517972306101E-02
 cg2d: Sum(rhs),rhsMax =  -6.08573746951890E-11  1.90869746400704E-02
 cg2d: Sum(rhs),rhsMax =  -6.44903574986699E-11  1.80348954143800E-02
 cg2d: Sum(rhs),rhsMax =  -6.85868029037806E-11  1.69759550007013E-02
 cg2d: Sum(rhs),rhsMax =  -7.33054172918912E-11  1.59105414425587E-02
 cg2d: Sum(rhs),rhsMax =  -7.87077625297172E-11  1.48390271046212E-02
 cg2d: Sum(rhs),rhsMax =  -8.49612047382209E-11  1.37617744726533E-02
 cg2d: Sum(rhs),rhsMax =  -9.23512377681845E-11  1.26791419289298E-02
 cg2d: Sum(rhs),rhsMax =  -9.16699494091233E-11  1.27780678080075E-02
 cg2d: Sum(rhs),rhsMax =  -7.97050758727380E-11  1.47041608472371E-02
 cg2d: Sum(rhs),rhsMax =  -7.04036273724284E-11  1.66683559028875E-02
 cg2d: Sum(rhs),rhsMax =  -6.29143404040633E-11  1.86720352629511E-02
 cg2d: Sum(rhs),rhsMax =  -5.67780267246576E-11  2.07231846536547E-02
 cg2d: Sum(rhs),rhsMax =  -5.16762188595976E-11  2.27947908429345E-02
 cg2d: Sum(rhs),rhsMax =  -4.73645567211634E-11  2.49136854529660E-02
 cg2d: Sum(rhs),rhsMax =  -4.36825020599940E-11  2.70557590312431E-02
 cg2d: Sum(rhs),rhsMax =  -4.04858369051908E-11  2.92263910392570E-02
 cg2d: Sum(rhs),rhsMax =  -3.77166076148683E-11  3.14385184666762E-02
 cg2d: Sum(rhs),rhsMax =  -3.52489148980339E-11  3.36954816304219E-02
 cg2d: Sum(rhs),rhsMax =  -3.30087068789453E-11  3.60124561460090E-02
 cg2d: Sum(rhs),rhsMax =  -3.10640402290119E-11  3.83246554306891E-02
 cg2d: Sum(rhs),rhsMax =  -2.93918223093215E-11  4.06313104282308E-02
 cg2d: Sum(rhs),rhsMax =  -2.79083423038173E-11  4.29316300175497E-02
 cg2d: Sum(rhs),rhsMax =  -2.65560906598239E-11  4.52247946861416E-02
 cg2d: Sum(rhs),rhsMax =  -2.53701504249193E-11  4.75099517800222E-02
 cg2d: Sum(rhs),rhsMax =  -2.42758035895463E-11  4.97862124478960E-02
 cg2d: Sum(rhs),rhsMax =  -2.32789343357354E-11  5.20526503251598E-02
 cg2d: Sum(rhs),rhsMax =  -2.23792095965791E-11  5.43083019331801E-02
 cg2d: Sum(rhs),rhsMax =  -2.15510942425112E-11  5.65521687144367E-02
 cg2d: Sum(rhs),rhsMax =  -2.07894812476184E-11  5.87832205795653E-02
 cg2d: Sum(rhs),rhsMax =  -2.00838234931666E-11  6.10004008055752E-02
 cg2d: Sum(rhs),rhsMax =  -1.94307903100821E-11  6.32026320946657E-02
 cg2d: Sum(rhs),rhsMax =  -1.88522530919499E-11  6.53888235800059E-02
 cg2d: Sum(rhs),rhsMax =  -1.83086878990935E-11  6.75578785437721E-02
 cg2d: Sum(rhs),rhsMax =  -1.77652337285394E-11  6.97087025702849E-02
 cg2d: Sum(rhs),rhsMax =  -1.72921676977467E-11  7.18402119159199E-02
 cg2d: Sum(rhs),rhsMax =  -1.68581815174207E-11  7.39513418006132E-02
 cg2d: Sum(rhs),rhsMax =  -1.64059876794909E-11  7.60410543431284E-02
 cg2d: Sum(rhs),rhsMax =  -1.60080837474652E-11  7.81083458772493E-02
 cg2d: Sum(rhs),rhsMax =  -1.56523682903753E-11  8.01522534080664E-02
 cg2d: Sum(rhs),rhsMax =  -1.53659307500220E-11  8.21718600003073E-02
 cg2d: Sum(rhs),rhsMax =  -1.51105794543582E-11  8.41662989342181E-02
 cg2d: Sum(rhs),rhsMax =  -1.48174805758572E-11  8.61347565175224E-02
 cg2d: Sum(rhs),rhsMax =  -1.45974343723765E-11  8.80764735015494E-02
 cg2d: Sum(rhs),rhsMax =  -1.43443035227619E-11  8.99907451169037E-02
 cg2d: Sum(rhs),rhsMax =  -1.41370248840644E-11  9.18769198000465E-02
 cg2d: Sum(rhs),rhsMax =  -1.39471767468535E-11  9.37343967377317E-02
 cg2d: Sum(rhs),rhsMax =  -1.37538869182663E-11  9.55626224015616E-02
 cg2d: Sum(rhs),rhsMax =  -1.35592648220495E-11  9.73610862735494E-02
 cg2d: Sum(rhs),rhsMax =  -1.33926203460533E-11  9.91293159880725E-02
 cg2d: Sum(rhs),rhsMax =  -1.32132083052738E-11  1.00866872098306E-01
 cg2d: Sum(rhs),rhsMax =  -1.30349064875190E-11  1.02573342668508E-01
 cg2d: Sum(rhs),rhsMax =  -1.28933530518793E-11  1.04248337868615E-01
 cg2d: Sum(rhs),rhsMax =  -1.27101662528162E-11  1.05891484716257E-01
 cg2d: Sum(rhs),rhsMax =  -1.25931487460207E-11  1.07502422077809E-01
 cg2d: Sum(rhs),rhsMax =  -1.24553700686647E-11  1.09080796008753E-01
 cg2d: Sum(rhs),rhsMax =  -1.23927534900758E-11  1.10626255487778E-01
 cg2d: Sum(rhs),rhsMax =  -1.23708820964907E-11  1.12138448580780E-01
 cg2d: Sum(rhs),rhsMax =  -1.22465371177327E-11  1.13617019060863E-01
 cg2d: Sum(rhs),rhsMax =  -1.22450938278007E-11  1.15061603508759E-01
 cg2d: Sum(rhs),rhsMax =  -1.22115650924570E-11  1.16471828922325E-01
 cg2d: Sum(rhs),rhsMax =  -1.21865850744030E-11  1.17847310870802E-01
 cg2d: Sum(rhs),rhsMax =  -1.21379573059244E-11  1.19187652238992E-01
 cg2d: Sum(rhs),rhsMax =  -1.20745635712183E-11  1.20492442609747E-01
 cg2d: Sum(rhs),rhsMax =  -1.20297105610234E-11  1.21761258337735E-01
 cg2d: Sum(rhs),rhsMax =  -1.19201315484929E-11  1.22993663361894E-01
 cg2d: Sum(rhs),rhsMax =  -1.18801635196064E-11  1.24189210789439E-01
 cg2d: Sum(rhs),rhsMax =  -1.18492993195218E-11  1.25347445261380E-01
 cg2d: Sum(rhs),rhsMax =  -1.17938991905930E-11  1.26467906079371E-01
 cg2d: Sum(rhs),rhsMax =  -1.17378329278495E-11  1.27550131037569E-01
 cg2d: Sum(rhs),rhsMax =  -1.16784359960320E-11  1.28593660863083E-01
 cg2d: Sum(rhs),rhsMax =  -1.16017195850304E-11  1.29598044134457E-01
 cg2d: Sum(rhs),rhsMax =  -1.15326637128987E-11  1.30562842498047E-01
 cg2d: Sum(rhs),rhsMax =  -1.14924736394073E-11  1.31487635986502E-01
 cg2d: Sum(rhs),rhsMax =  -1.14205311874116E-11  1.32372028183991E-01
 cg2d: Sum(rhs),rhsMax =  -1.13948850355428E-11  1.33215651021392E-01
 cg2d: Sum(rhs),rhsMax =  -1.13580256311252E-11  1.34018168968814E-01
 cg2d: Sum(rhs),rhsMax =  -1.12846398891975E-11  1.34779282411276E-01
 cg2d: Sum(rhs),rhsMax =  -1.12946318964191E-11  1.35498730030565E-01
 cg2d: Sum(rhs),rhsMax =  -1.12979625654930E-11  1.36176290068580E-01
 cg2d: Sum(rhs),rhsMax =  -1.12566622689769E-11  1.36811780411269E-01
 cg2d: Sum(rhs),rhsMax =  -1.12558851128597E-11  1.37405057503189E-01
 cg2d: Sum(rhs),rhsMax =  -1.12743148150685E-11  1.37956014175496E-01
 cg2d: Sum(rhs),rhsMax =  -1.13099529741589E-11  1.38464576538933E-01
 cg2d: Sum(rhs),rhsMax =  -1.13330456130711E-11  1.38930700152531E-01
 cg2d: Sum(rhs),rhsMax =  -1.13196119144732E-11  1.39354365714972E-01
 cg2d: Sum(rhs),rhsMax =  -1.13601350548720E-11  1.39735574564524E-01
 cg2d: Sum(rhs),rhsMax =  -1.13501430476504E-11  1.40074344317347E-01
 cg2d: Sum(rhs),rhsMax =  -1.13679066160444E-11  1.40370704868807E-01
 cg2d: Sum(rhs),rhsMax =  -1.14105391801900E-11  1.40624695003513E-01
 cg2d: Sum(rhs),rhsMax =  -1.14391829342253E-11  1.40836359812331E-01
 cg2d: Sum(rhs),rhsMax =  -1.15052412041905E-11  1.41005749053924E-01
 cg2d: Sum(rhs),rhsMax =  -1.14425136032992E-11  1.41132916542494E-01
 cg2d: Sum(rhs),rhsMax =  -1.14047660204619E-11  1.41217920544882E-01
 cg2d: Sum(rhs),rhsMax =  -1.13791198685931E-11  1.41260825073391E-01
 cg2d: Sum(rhs),rhsMax =  -1.13679066160444E-11  1.41261702014072E-01
 cg2d: Sum(rhs),rhsMax =  -1.13524745160021E-11  1.41220633877004E-01
 cg2d: Sum(rhs),rhsMax =  -1.12860831791295E-11  1.41137716964017E-01
 cg2d: Sum(rhs),rhsMax =  -1.12403419905149E-11  1.41013064705928E-01
 cg2d: Sum(rhs),rhsMax =  -1.11869402630305E-11  1.40846810907950E-01
 cg2d: Sum(rhs),rhsMax =  -1.11387565837617E-11  1.40639112648222E-01
 cg2d: Sum(rhs),rhsMax =  -1.11396447621814E-11  1.40390152598209E-01
 cg2d: Sum(rhs),rhsMax =  -1.11162190563618E-11  1.40100140539720E-01
 cg2d: Sum(rhs),rhsMax =  -1.10546016784951E-11  1.39769313924665E-01
 cg2d: Sum(rhs),rhsMax =  -1.10571551914518E-11  1.39397937362445E-01
 cg2d: Sum(rhs),rhsMax =  -1.10306208611632E-11  1.38986300974181E-01
 cg2d: Sum(rhs),rhsMax =  -1.09725561969753E-11  1.38534717617192E-01
 cg2d: Sum(rhs),rhsMax =  -1.09667830372473E-11  1.38043519050437E-01
 cg2d: Sum(rhs),rhsMax =  -1.09405817738661E-11  1.37513051177368E-01
 cg2d: Sum(rhs),rhsMax =  -1.09399156400514E-11  1.36943668562534E-01
 cg2d: Sum(rhs),rhsMax =  -1.09142694881825E-11  1.36335728468391E-01
 cg2d: Sum(rhs),rhsMax =  -1.09237063838918E-11  1.35689584693291E-01
 cg2d: Sum(rhs),rhsMax =  -1.09400266623538E-11  1.35005581492387E-01
 cg2d: Sum(rhs),rhsMax =  -1.09593445429823E-11  1.34284047982563E-01
 cg2d: Sum(rhs),rhsMax =  -1.09635633904759E-11  1.33525293247324E-01
 cg2d: Sum(rhs),rhsMax =  -1.09647846358030E-11  1.32729602420354E-01
 cg2d: Sum(rhs),rhsMax =  -1.10126352481643E-11  1.31897233988663E-01
 cg2d: Sum(rhs),rhsMax =  -1.10035314193624E-11  1.31028418505048E-01
 cg2d: Sum(rhs),rhsMax =  -1.10782494289197E-11  1.30123358828990E-01
 cg2d: Sum(rhs),rhsMax =  -1.10739195591236E-11  1.29182231970552E-01
 cg2d: Sum(rhs),rhsMax =  -1.11312070671943E-11  1.28205192563169E-01
 cg2d: Sum(rhs),rhsMax =  -1.11582965089951E-11  1.27192377856585E-01
 cg2d: Sum(rhs),rhsMax =  -1.11969322702521E-11  1.26143914105994E-01
 cg2d: Sum(rhs),rhsMax =  -1.12490017301070E-11  1.25059924172716E-01
 cg2d: Sum(rhs),rhsMax =  -1.12918563388575E-11  1.23940536094732E-01
 cg2d: Sum(rhs),rhsMax =  -1.13369313936573E-11  1.22785892320006E-01
 cg2d: Sum(rhs),rhsMax =  -1.13935527679132E-11  1.21596159229930E-01
 cg2d: Sum(rhs),rhsMax =  -1.14166454068254E-11  1.20371536580618E-01
 cg2d: Sum(rhs),rhsMax =  -1.14754872271305E-11  1.19112266427138E-01
 cg2d: Sum(rhs),rhsMax =  -1.14954712415738E-11  1.17818641095923E-01
 cg2d: Sum(rhs),rhsMax =  -1.15247811294239E-11  1.16491009759188E-01
 cg2d: Sum(rhs),rhsMax =  -1.15568665748356E-11  1.15129783152968E-01
 cg2d: Sum(rhs),rhsMax =  -1.16130438598816E-11  1.13735436177712E-01
 cg2d: Sum(rhs),rhsMax =  -1.16539000671878E-11  1.12308508126467E-01
 cg2d: Sum(rhs),rhsMax =  -1.17059695270427E-11  1.10849600397853E-01
 cg2d: Sum(rhs),rhsMax =  -1.17819087819271E-11  1.09359371683098E-01
 cg2d: Sum(rhs),rhsMax =  -1.19111387419935E-11  1.07838530764154E-01
 cg2d: Sum(rhs),rhsMax =  -1.20105037026974E-11  1.06287827207810E-01
 cg2d: Sum(rhs),rhsMax =  -1.21692655952188E-11  1.04708040393241E-01
 cg2d: Sum(rhs),rhsMax =  -1.22795107415641E-11  1.03099967410982E-01
 cg2d: Sum(rhs),rhsMax =  -1.24109611476797E-11  1.01464410453856E-01
(PID.TID 0000.0001)      cg2d_init_res =   9.40107590526644E-02
(PID.TID 0000.0001)      cg2d_iters(min,last) =      -1      36
(PID.TID 0000.0001)      cg2d_last_res =   5.93140852156733E-14
(PID.TID 0000.0001) // =======================================================
(PID.TID 0000.0001) // Begin MONITOR dynamic field statistics
(PID.TID 0000.0001) // =======================================================
(PID.TID 0000.0001) %MON time_tsnumber                =                  2880
(PID.TID 0000.0001) %MON time_secondsf                =   4.3200000000000E+04
(PID.TID 0000.0001) %MON dynstat_eta_max              =   1.6644277929110E-02
(PID.TID 0000.0001) %MON dynstat_eta_min              =  -1.6140702128652E-02
(PID.TID 0000.0001) %MON dynstat_eta_mean             =   2.6127351186281E-15
(PID.TID 0000.0001) %MON dynstat_eta_sd               =   1.0638327487591E-02
(PID.TID 0000.0001) %MON dynstat_eta_del2             =   1.2007328936940E-05
(PID.TID 0000.0001) %MON dynstat_uvel_max             =   7.5951146568598E-01
(PID.TID 0000.0001) %MON dynstat_uvel_min             =  -7.5870266016191E-02
(PID.TID 0000.0001) %MON dynstat_uvel_mean            =   1.0998840439817E-01
(PID.TID 0000.0001) %MON dynstat_uvel_sd              =   6.7385991792995E-02
(PID.TID 0000.0001) %MON dynstat_uvel_del2            =   1.7058970685775E-04
(PID.TID 0000.0001) %MON dynstat_vvel_max             =   0.0000000000000E+00
(PID.TID 0000.0001) %MON dynstat_vvel_min             =   0.0000000000000E+00
(PID.TID 0000.0001) %MON dynstat_vvel_mean            =   0.0000000000000E+00
(PID.TID 0000.0001) %MON dynstat_vvel_sd              =   0.0000000000000E+00
(PID.TID 0000.0001) %MON dynstat_vvel_del2            =   0.0000000000000E+00
(PID.TID 0000.0001) %MON dynstat_wvel_max             =   4.6423022159948E-03
(PID.TID 0000.0001) %MON dynstat_wvel_min             =  -9.7142596073605E-03
(PID.TID 0000.0001) %MON dynstat_wvel_mean            =  -2.0371850801813E-20
(PID.TID 0000.0001) %MON dynstat_wvel_sd              =   6.1515514425315E-04
(PID.TID 0000.0001) %MON dynstat_wvel_del2            =   9.7639818834827E-06
(PID.TID 0000.0001) %MON dynstat_theta_max            =   1.5000000000009E+01
(PID.TID 0000.0001) %MON dynstat_theta_min            =   9.9999999999949E+00
(PID.TID 0000.0001) %MON dynstat_theta_mean           =   1.2566944473072E+01
(PID.TID 0000.0001) %MON dynstat_theta_sd             =   2.4653023814384E+00
(PID.TID 0000.0001) %MON dynstat_theta_del2           =   1.1361596943251E-03
(PID.TID 0000.0001) %MON dynstat_salt_max             =   3.5000000000000E+01
(PID.TID 0000.0001) %MON dynstat_salt_min             =   3.5000000000000E+01
(PID.TID 0000.0001) %MON dynstat_salt_mean            =   3.5000000000000E+01
(PID.TID 0000.0001) %MON dynstat_salt_sd              =   3.9790393202566E-13
(PID.TID 0000.0001) %MON dynstat_salt_del2            =   0.0000000000000E+00
(PID.TID 0000.0001) %MON dynstat_sst_max              =   1.5000000000000E+01
(PID.TID 0000.0001) %MON dynstat_sst_min              =   1.4999999999998E+01
(PID.TID 0000.0001) %MON dynstat_sst_mean             =   1.5000000000000E+01
(PID.TID 0000.0001) %MON dynstat_sst_sd               =   3.5621968889918E-13
(PID.TID 0000.0001) %MON dynstat_sst_del2             =   1.2900579105131E-14
(PID.TID 0000.0001) %MON dynstat_sss_max              =   3.5000000000000E+01
(PID.TID 0000.0001) %MON dynstat_sss_min              =   3.5000000000000E+01
(PID.TID 0000.0001) %MON dynstat_sss_mean             =   3.5000000000000E+01
(PID.TID 0000.0001) %MON dynstat_sss_sd               =   5.6843418860808E-14
(PID.TID 0000.0001) %MON dynstat_sss_del2             =   0.0000000000000E+00
(PID.TID 0000.0001) %MON forcing_qnet_max             =   0.0000000000000E+00
(PID.TID 0000.0001) %MON forcing_qnet_min             =   0.0000000000000E+00
(PID.TID 0000.0001) %MON forcing_qnet_mean            =   0.0000000000000E+00
(PID.TID 0000.0001) %MON forcing_qnet_sd              =   0.0000000000000E+00
(PID.TID 0000.0001) %MON forcing_qnet_del2            =   0.0000000000000E+00
(PID.TID 0000.0001) %MON forcing_qsw_max              =   0.0000000000000E+00
(PID.TID 0000.0001) %MON forcing_qsw_min              =   0.0000000000000E+00
(PID.TID 0000.0001) %MON forcing_qsw_mean             =   0.0000000000000E+00
(PID.TID 0000.0001) %MON forcing_qsw_sd               =   0.0000000000000E+00
(PID.TID 0000.0001) %MON forcing_qsw_del2             =   0.0000000000000E+00
(PID.TID 0000.0001) %MON forcing_empmr_max            =   0.0000000000000E+00
(PID.TID 0000.0001) %MON forcing_empmr_min            =   0.0000000000000E+00
(PID.TID 0000.0001) %MON forcing_empmr_mean           =   0.0000000000000E+00
(PID.TID 0000.0001) %MON forcing_empmr_sd             =   0.0000000000000E+00
(PID.TID 0000.0001) %MON forcing_empmr_del2           =   0.0000000000000E+00
(PID.TID 0000.0001) %MON forcing_fu_max               =   0.0000000000000E+00
(PID.TID 0000.0001) %MON forcing_fu_min               =   0.0000000000000E+00
(PID.TID 0000.0001) %MON forcing_fu_mean              =   0.0000000000000E+00
(PID.TID 0000.0001) %MON forcing_fu_sd                =   0.0000000000000E+00
(PID.TID 0000.0001) %MON forcing_fu_del2              =   0.0000000000000E+00
(PID.TID 0000.0001) %MON forcing_fv_max               =   0.0000000000000E+00
(PID.TID 0000.0001) %MON forcing_fv_min               =   0.0000000000000E+00
(PID.TID 0000.0001) %MON forcing_fv_mean              =   0.0000000000000E+00
(PID.TID 0000.0001) %MON forcing_fv_sd                =   0.0000000000000E+00
(PID.TID 0000.0001) %MON forcing_fv_del2              =   0.0000000000000E+00
(PID.TID 0000.0001) %MON advcfl_uvel_max              =   5.6963359926448E-02
(PID.TID 0000.0001) %MON advcfl_vvel_max              =   0.0000000000000E+00
(PID.TID 0000.0001) %MON advcfl_wvel_max              =   1.3151142653006E-01
(PID.TID 0000.0001) %MON advcfl_W_hf_max              =   1.3327269781099E-01
(PID.TID 0000.0001) %MON pe_b_mean                    =   2.8502548447118E-06
(PID.TID 0000.0001) %MON ke_max                       =   2.0499132802586E-01
(PID.TID 0000.0001) %MON ke_mean                      =   8.3447614138890E-03
(PID.TID 0000.0001) %MON ke_vol                       =   9.5121673331316E+10
(PID.TID 0000.0001) %MON vort_r_min                   =   0.0000000000000E+00
(PID.TID 0000.0001) %MON vort_r_max                   =   0.0000000000000E+00
(PID.TID 0000.0001) %MON vort_a_mean                  =   0.0000000000000E+00
(PID.TID 0000.0001) %MON vort_a_sd                    =   0.0000000000000E+00
(PID.TID 0000.0001) %MON vort_p_mean                  =   0.0000000000000E+00
(PID.TID 0000.0001) %MON vort_p_sd                    =   0.0000000000000E+00
(PID.TID 0000.0001) %MON surfExpan_theta_mean         =  -1.8528736389819E-18
(PID.TID 0000.0001) %MON surfExpan_salt_mean          =  -1.2569745792088E-18
(PID.TID 0000.0001) // =======================================================
(PID.TID 0000.0001) // End MONITOR dynamic field statistics
(PID.TID 0000.0001) // =======================================================
(PID.TID 0000.0001) // =======================================================
(PID.TID 0000.0001) // Begin OBCS MONITOR field statistics
(PID.TID 0000.0001) // =======================================================
(PID.TID 0000.0001) %MON obc_E_uVel_max               =   1.0505355776936E-01
(PID.TID 0000.0001) %MON obc_E_uVel_min               =   1.0505355776936E-01
(PID.TID 0000.0001) %MON obc_E_uVel_mean              =   1.0505355776936E-01
(PID.TID 0000.0001) %MON obc_E_uVel_sd                =  -6.9388939039072E-18
(PID.TID 0000.0001) %MON obc_E_uVel_Int               =   1.0505355776936E+05
(PID.TID 0000.0001) %MON obc_W_uVel_max               =   1.0505355776936E-01
(PID.TID 0000.0001) %MON obc_W_uVel_min               =   1.0505355776936E-01
(PID.TID 0000.0001) %MON obc_W_uVel_mean              =   1.0505355776936E-01
(PID.TID 0000.0001) %MON obc_W_uVel_sd                =  -6.9388939039072E-18
(PID.TID 0000.0001) %MON obc_W_uVel_Int               =   1.0505355776936E+05
(PID.TID 0000.0001) // =======================================================
(PID.TID 0000.0001) // End OBCS MONITOR field statistics
(PID.TID 0000.0001) // =======================================================
(PID.TID 0000.0001) %CHECKPOINT      2880 0000002880
 cg2d: Sum(rhs),rhsMax =  -1.25592869437696E-11  9.98021643771099E-02
 cg2d: Sum(rhs),rhsMax =  -1.27012844686192E-11  9.81140051108212E-02
 cg2d: Sum(rhs),rhsMax =  -1.28762556173001E-11  9.64006795689179E-02
 cg2d: Sum(rhs),rhsMax =  -1.30386812458028E-11  9.46628976179839E-02
 cg2d: Sum(rhs),rhsMax =  -1.32196475988167E-11  9.29013265503274E-02
 cg2d: Sum(rhs),rhsMax =  -1.34295907727733E-11  9.11165883608726E-02
 cg2d: Sum(rhs),rhsMax =  -1.36064493005961E-11  8.93092599589604E-02
 cg2d: Sum(rhs),rhsMax =  -1.37787559140179E-11  8.74798762704770E-02
 cg2d: Sum(rhs),rhsMax =  -1.40123468383990E-11  8.56289360152836E-02
 cg2d: Sum(rhs),rhsMax =  -1.42296174843182E-11  8.37569097861121E-02
 cg2d: Sum(rhs),rhsMax =  -1.44553258252245E-11  8.18642499255574E-02
 cg2d: Sum(rhs),rhsMax =  -1.46775924747544E-11  7.99514016018385E-02
 cg2d: Sum(rhs),rhsMax =  -1.49892320777667E-11  7.80188143999547E-02
 cg2d: Sum(rhs),rhsMax =  -1.52651224993861E-11  7.60669538345130E-02
 cg2d: Sum(rhs),rhsMax =  -1.56361590342158E-11  7.40963120949659E-02
 cg2d: Sum(rhs),rhsMax =  -1.60020885431322E-11  7.21074174453390E-02
 cg2d: Sum(rhs),rhsMax =  -1.64360747234582E-11  7.01008418293181E-02
 cg2d: Sum(rhs),rhsMax =  -1.68621783203093E-11  6.80772063651638E-02
 cg2d: Sum(rhs),rhsMax =  -1.73369096856391E-11  6.60371845602366E-02
 cg2d: Sum(rhs),rhsMax =  -1.78557169050464E-11  6.39815032227075E-02
 cg2d: Sum(rhs),rhsMax =  -1.83817405741138E-11  6.19109411883460E-02
 cg2d: Sum(rhs),rhsMax =  -1.89672721973011E-11  5.98263261028550E-02
 cg2d: Sum(rhs),rhsMax =  -1.96139771091453E-11  5.77285295961961E-02
 cg2d: Sum(rhs),rhsMax =  -2.03180805513625E-11  5.56184612486584E-02
 cg2d: Sum(rhs),rhsMax =  -2.10556017066210E-11  5.34970617765775E-02
 cg2d: Sum(rhs),rhsMax =  -2.18546292174437E-11  5.13652958641775E-02
 cg2d: Sum(rhs),rhsMax =  -2.27553531573221E-11  4.92241450201887E-02
 cg2d: Sum(rhs),rhsMax =  -2.37245778578199E-11  4.70746007812822E-02
 cg2d: Sum(rhs),rhsMax =  -2.47822873333803E-11  4.49176585286854E-02
 cg2d: Sum(rhs),rhsMax =  -2.59477994646318E-11  4.27543120892254E-02
 cg2d: Sum(rhs),rhsMax =  -2.72329936379379E-11  4.05855492123818E-02
 cg2d: Sum(rhs),rhsMax =  -2.86864976217771E-11  3.84123479447868E-02
 cg2d: Sum(rhs),rhsMax =  -3.03078673269397E-11  3.62356738686694E-02
 cg2d: Sum(rhs),rhsMax =  -3.21573878636627E-11  3.40564781383784E-02
 cg2d: Sum(rhs),rhsMax =  -3.43153283566267E-11  3.18756961871917E-02
 cg2d: Sum(rhs),rhsMax =  -3.67763597353132E-11  2.96942470417808E-02
 cg2d: Sum(rhs),rhsMax =  -3.96286337078777E-11  2.75130331503902E-02
 cg2d: Sum(rhs),rhsMax =  -4.30021573905037E-11  2.53329406509421E-02
 cg2d: Sum(rhs),rhsMax =  -4.69833061345071E-11  2.31548400343477E-02
 cg2d: Sum(rhs),rhsMax =  -5.17647591458115E-11  2.09795871891279E-02
 cg2d: Sum(rhs),rhsMax =  -5.76568237597996E-11  1.88080248389212E-02
 cg2d: Sum(rhs),rhsMax =  -6.50963172255103E-11  1.66409843999768E-02
 cg2d: Sum(rhs),rhsMax =  -6.95176138876263E-11  1.55573718505842E-02
 cg2d: Sum(rhs),rhsMax =  -6.46270814641525E-11  1.67043357062700E-02
 cg2d: Sum(rhs),rhsMax =  -6.04100311440980E-11  1.78423859877958E-02
 cg2d: Sum(rhs),rhsMax =  -5.67719274369161E-11  1.89711355916037E-02
 cg2d: Sum(rhs),rhsMax =  -5.34894351034154E-11  2.01103627642828E-02
 cg2d: Sum(rhs),rhsMax =  -5.05440966858117E-11  2.12569748796640E-02
 cg2d: Sum(rhs),rhsMax =  -4.78848072305027E-11  2.23926758561207E-02
 cg2d: Sum(rhs),rhsMax =  -4.55112059150053E-11  2.35170994680653E-02
 cg2d: Sum(rhs),rhsMax =  -4.34074998167944E-11  2.46298751329862E-02
 cg2d: Sum(rhs),rhsMax =  -4.14945855453652E-11  2.57306241983680E-02
 cg2d: Sum(rhs),rhsMax =  -3.97403221441550E-11  2.68189807140538E-02
 cg2d: Sum(rhs),rhsMax =  -3.81618070477430E-11  2.78945513730244E-02
 cg2d: Sum(rhs),rhsMax =  -3.67160746250761E-11  2.89569187440295E-02
 cg2d: Sum(rhs),rhsMax =  -3.53801432595446E-11  3.00056536838876E-02
 cg2d: Sum(rhs),rhsMax =  -3.41623396238333E-11  3.10403177510372E-02
 cg2d: Sum(rhs),rhsMax =  -3.29798410803051E-11  3.20894086217937E-02
 cg2d: Sum(rhs),rhsMax =  -3.18499671081440E-11  3.31320814481416E-02
 cg2d: Sum(rhs),rhsMax =  -3.07948111455403E-11  3.41590784202952E-02
 cg2d: Sum(rhs),rhsMax =  -2.98197022630120E-11  3.51699403154527E-02
 cg2d: Sum(rhs),rhsMax =  -2.88685741978156E-11  3.61727111011099E-02
 cg2d: Sum(rhs),rhsMax =  -2.80236944760759E-11  3.71779717757610E-02
 cg2d: Sum(rhs),rhsMax =  -2.72606381912510E-11  3.81652518398224E-02
 cg2d: Sum(rhs),rhsMax =  -2.64814836725691E-11  3.91597122696207E-02
 cg2d: Sum(rhs),rhsMax =  -2.57831533900799E-11  4.01417456337482E-02
 cg2d: Sum(rhs),rhsMax =  -2.50867104867325E-11  4.11039965603549E-02
 cg2d: Sum(rhs),rhsMax =  -2.44350095712775E-11  4.20461242284077E-02
 cg2d: Sum(rhs),rhsMax =  -2.38546959963060E-11  4.29678287894281E-02
 cg2d: Sum(rhs),rhsMax =  -2.33362218438060E-11  4.38688483774116E-02
 cg2d: Sum(rhs),rhsMax =  -2.27999841229121E-11  4.47489588371839E-02
 cg2d: Sum(rhs),rhsMax =  -2.22788454351530E-11  4.56079729310862E-02
 cg2d: Sum(rhs),rhsMax =  -2.18510765037649E-11  4.64457399584829E-02
 cg2d: Sum(rhs),rhsMax =  -2.14378514939995E-11  4.72621437863575E-02
 cg2d: Sum(rhs),rhsMax =  -2.10004236222971E-11  4.80570961952516E-02
 cg2d: Sum(rhs),rhsMax =  -2.06534789271018E-11  4.88305339948342E-02
 cg2d: Sum(rhs),rhsMax =  -2.02893257750247E-11  4.95823957372591E-02
 cg2d: Sum(rhs),rhsMax =  -1.97808436297464E-11  5.07484740769448E-02
 cg2d: Sum(rhs),rhsMax =  -1.92307281210446E-11  5.21002377311141E-02
 cg2d: Sum(rhs),rhsMax =  -1.87502235959869E-11  5.34128815098569E-02
 cg2d: Sum(rhs),rhsMax =  -1.82437398521529E-11  5.46857146362625E-02
 cg2d: Sum(rhs),rhsMax =  -1.77530212752686E-11  5.59180655217086E-02
 cg2d: Sum(rhs),rhsMax =  -1.72653003005507E-11  5.71092826205389E-02
 cg2d: Sum(rhs),rhsMax =  -1.68700609037842E-11  5.82587353406035E-02
 cg2d: Sum(rhs),rhsMax =  -1.64507296673833E-11  5.93658149673617E-02
 cg2d: Sum(rhs),rhsMax =  -1.60994551023919E-11  6.04299355847797E-02
 cg2d: Sum(rhs),rhsMax =  -1.57552859647581E-11  6.14505350035852E-02
 cg2d: Sum(rhs),rhsMax =  -1.54839474575397E-11  6.24270757311023E-02
 cg2d: Sum(rhs),rhsMax =  -1.51800794156998E-11  6.33590460404699E-02
 cg2d: Sum(rhs),rhsMax =  -1.48988599235622E-11  6.42459612033879E-02
 cg2d: Sum(rhs),rhsMax =  -1.46790357646864E-11  6.50873649585905E-02
 cg2d: Sum(rhs),rhsMax =  -1.44640965871190E-11  6.58828312434246E-02
 cg2d: Sum(rhs),rhsMax =  -1.42509337663910E-11  6.66319662371809E-02
 cg2d: Sum(rhs),rhsMax =  -1.40163436412877E-11  6.73344107186706E-02
 cg2d: Sum(rhs),rhsMax =  -1.38302702623605E-11  6.79898426931500E-02
 cg2d: Sum(rhs),rhsMax =  -1.36441968834333E-11  6.85979801975056E-02
 cg2d: Sum(rhs),rhsMax =  -1.34346977986866E-11  6.91585841462096E-02
 cg2d: Sum(rhs),rhsMax =  -1.32454047729880E-11  6.96714610376802E-02
 cg2d: Sum(rhs),rhsMax =  -1.31181732143659E-11  7.01364653053524E-02
 cg2d: Sum(rhs),rhsMax =  -1.29815047600346E-11  7.05535010737837E-02
 cg2d: Sum(rhs),rhsMax =  -1.28612676064677E-11  7.09225230706349E-02
 cg2d: Sum(rhs),rhsMax =  -1.27591270882021E-11  7.12435364299722E-02
 cg2d: Sum(rhs),rhsMax =  -1.26264554367594E-11  7.15165952757780E-02
 cg2d: Sum(rhs),rhsMax =  -1.25324195465737E-11  7.17417998604627E-02
 cg2d: Sum(rhs),rhsMax =  -1.24759091946203E-11  7.19192921923322E-02
 cg2d: Sum(rhs),rhsMax =  -1.23648868921578E-11  7.20492501827400E-02
 cg2d: Sum(rhs),rhsMax =  -1.23613341784790E-11  7.21318804515204E-02
 cg2d: Sum(rhs),rhsMax =  -1.23154819675619E-11  7.21674100755852E-02
 cg2d: Sum(rhs),rhsMax =  -1.23590027101272E-11  7.21560775411752E-02
 cg2d: Sum(rhs),rhsMax =  -1.24229515563457E-11  7.20981234240449E-02
 cg2d: Sum(rhs),rhsMax =  -1.24620314068125E-11  7.19937813023840E-02
 cg2d: Sum(rhs),rhsMax =  -1.26055832438965E-11  7.18432694894623E-02
 cg2d: Sum(rhs),rhsMax =  -1.27103882974211E-11  7.16467841428862E-02
 cg2d: Sum(rhs),rhsMax =  -1.28339561200619E-11  7.14044942663842E-02
 cg2d: Sum(rhs),rhsMax =  -1.29433130879875E-11  7.11165390357293E-02
 cg2d: Sum(rhs),rhsMax =  -1.30438992940185E-11  7.07830277546975E-02
 cg2d: Sum(rhs),rhsMax =  -1.31747945886218E-11  7.04040425921077E-02
 cg2d: Sum(rhs),rhsMax =  -1.33022481918488E-11  6.99796440409180E-02
 cg2d: Sum(rhs),rhsMax =  -1.34325883749398E-11  6.95098788806347E-02
 cg2d: Sum(rhs),rhsMax =  -1.36282096718787E-11  6.89947902217653E-02
 cg2d: Sum(rhs),rhsMax =  -1.38082878464729E-11  6.84344290421340E-02
 cg2d: Sum(rhs),rhsMax =  -1.40391032132925E-11  6.78288664985411E-02
 cg2d: Sum(rhs),rhsMax =  -1.42428291383112E-11  6.71782062217929E-02
 cg2d: Sum(rhs),rhsMax =  -1.44564360482491E-11  6.64825957857466E-02
 cg2d: Sum(rhs),rhsMax =  -1.46721523819338E-11  6.57422365846433E-02
 cg2d: Sum(rhs),rhsMax =  -1.48738799055081E-11  6.49573914468189E-02
 cg2d: Sum(rhs),rhsMax =  -1.51189061270429E-11  6.41283894752645E-02
 cg2d: Sum(rhs),rhsMax =  -1.53920209911007E-11  6.32556278673714E-02
 cg2d: Sum(rhs),rhsMax =  -1.56690216357447E-11  6.23395705472980E-02
 cg2d: Sum(rhs),rhsMax =  -1.59664503840418E-11  6.13807437526254E-02
 cg2d: Sum(rhs),rhsMax =  -1.62984070684047E-11  6.03797289083622E-02
 cg2d: Sum(rhs),rhsMax =  -1.66530123024700E-11  5.93371534221268E-02
 cg2d: Sum(rhs),rhsMax =  -1.70221614581578E-11  5.82536800108488E-02
 cg2d: Sum(rhs),rhsMax =  -1.74582570622306E-11  5.71299953329868E-02
 cg2d: Sum(rhs),rhsMax =  -1.79117831677900E-11  5.59667987238103E-02
 cg2d: Sum(rhs),rhsMax =  -1.83613124704607E-11  5.47647917986306E-02
 cg2d: Sum(rhs),rhsMax =  -1.89005477935211E-11  5.35246695964229E-02
 cg2d: Sum(rhs),rhsMax =  -1.93969285078310E-11  5.22471137980568E-02
 cg2d: Sum(rhs),rhsMax =  -1.99240623999231E-11  5.09327883758159E-02
 cg2d: Sum(rhs),rhsMax =  -2.05326866620226E-11  4.95823378171594E-02
 cg2d: Sum(rhs),rhsMax =  -2.11326511845300E-11  4.81963879596500E-02
 cg2d: Sum(rhs),rhsMax =  -2.16509032924250E-11  4.72401740754332E-02
 cg2d: Sum(rhs),rhsMax =  -2.20482521129384E-11  4.63718821136608E-02
 cg2d: Sum(rhs),rhsMax =  -2.25710561352344E-11  4.54819521261669E-02
 cg2d: Sum(rhs),rhsMax =  -2.30537811063414E-11  4.45706199938951E-02
 cg2d: Sum(rhs),rhsMax =  -2.36202168935051E-11  4.36381391604493E-02
 cg2d: Sum(rhs),rhsMax =  -2.41944242418413E-11  4.26847723379862E-02
 cg2d: Sum(rhs),rhsMax =  -2.48164822025387E-11  4.17107888003737E-02
 cg2d: Sum(rhs),rhsMax =  -2.54898324669739E-11  4.07165007540282E-02
 cg2d: Sum(rhs),rhsMax =  -2.62276866891398E-11  3.97022681487944E-02
 cg2d: Sum(rhs),rhsMax =  -2.69867461710760E-11  3.86736257048390E-02
 cg2d: Sum(rhs),rhsMax =  -2.77629030875914E-11  3.76590688517641E-02
 cg2d: Sum(rhs),rhsMax =  -2.86004553373687E-11  3.66269614356983E-02
 cg2d: Sum(rhs),rhsMax =  -2.94894109131860E-11  3.56178055195590E-02
 cg2d: Sum(rhs),rhsMax =  -3.04238856330130E-11  3.46091018122092E-02
 cg2d: Sum(rhs),rhsMax =  -3.14509529530937E-11  3.35849222554601E-02
 cg2d: Sum(rhs),rhsMax =  -3.25189875027831E-11  3.25456051118040E-02
 cg2d: Sum(rhs),rhsMax =  -3.36830563441026E-11  3.14914925689252E-02
 cg2d: Sum(rhs),rhsMax =  -3.49821283052165E-11  3.04229338311185E-02
 cg2d: Sum(rhs),rhsMax =  -3.63425955995922E-11  2.93402933252343E-02
 cg2d: Sum(rhs),rhsMax =  -3.77744502344513E-11  2.82439513833031E-02
 cg2d: Sum(rhs),rhsMax =  -3.94085875043970E-11  2.71343137393164E-02
 cg2d: Sum(rhs),rhsMax =  -4.11567446789718E-11  2.60118191984608E-02
 cg2d: Sum(rhs),rhsMax =  -4.31055191540963E-11  2.48769368614904E-02
 cg2d: Sum(rhs),rhsMax =  -4.52095583192147E-11  2.37301707253049E-02
 cg2d: Sum(rhs),rhsMax =  -4.76124140114109E-11  2.25720541003889E-02
 cg2d: Sum(rhs),rhsMax =  -5.03155850317683E-11  2.14031475213452E-02
 cg2d: Sum(rhs),rhsMax =  -5.32959787413745E-11  2.02330576691788E-02
 cg2d: Sum(rhs),rhsMax =  -5.65823776721430E-11  1.90737945626842E-02
 cg2d: Sum(rhs),rhsMax =  -6.03458116810174E-11  1.79059244137978E-02
 cg2d: Sum(rhs),rhsMax =  -6.46611523005824E-11  1.67300513849868E-02
 cg2d: Sum(rhs),rhsMax =  -6.96656204945967E-11  1.55467266143354E-02
 cg2d: Sum(rhs),rhsMax =  -7.55127904650266E-11  1.43564612405140E-02
 cg2d: Sum(rhs),rhsMax =  -7.69437291658903E-11  1.41102297128399E-02
 cg2d: Sum(rhs),rhsMax =  -6.84398648864715E-11  1.58870777389406E-02
 cg2d: Sum(rhs),rhsMax =  -6.15328343833710E-11  1.76939790845828E-02
 cg2d: Sum(rhs),rhsMax =  -5.57512924714842E-11  1.95506923586760E-02
 cg2d: Sum(rhs),rhsMax =  -5.09243758273215E-11  2.14268669716066E-02
 cg2d: Sum(rhs),rhsMax =  -4.68086680527335E-11  2.33389714607550E-02
 cg2d: Sum(rhs),rhsMax =  -4.32727187416049E-11  2.52811483315361E-02
 cg2d: Sum(rhs),rhsMax =  -4.01941813166218E-11  2.72434809864314E-02
 cg2d: Sum(rhs),rhsMax =  -3.74769104638517E-11  2.92503125680688E-02
 cg2d: Sum(rhs),rhsMax =  -3.50350859434911E-11  3.13185351611854E-02
 cg2d: Sum(rhs),rhsMax =  -3.28803650972986E-11  3.34134196487795E-02
 cg2d: Sum(rhs),rhsMax =  -3.10251824231500E-11  3.55044990207815E-02
 cg2d: Sum(rhs),rhsMax =  -2.93814972351925E-11  3.75910401068088E-02
 cg2d: Sum(rhs),rhsMax =  -2.79117839951937E-11  3.96723232469431E-02
 cg2d: Sum(rhs),rhsMax =  -2.66034971829754E-11  4.17476416618157E-02
 cg2d: Sum(rhs),rhsMax =  -2.54258836207555E-11  4.38163001583205E-02
 cg2d: Sum(rhs),rhsMax =  -2.43515207998257E-11  4.58776131415845E-02
 cg2d: Sum(rhs),rhsMax =  -2.33644215086315E-11  4.79309019841739E-02
 cg2d: Sum(rhs),rhsMax =  -2.24845697616161E-11  4.99754918809341E-02
 cg2d: Sum(rhs),rhsMax =  -2.16670015262821E-11  5.20107083850348E-02
 cg2d: Sum(rhs),rhsMax =  -2.08877359852977E-11  5.40358738702065E-02
 cg2d: Sum(rhs),rhsMax =  -2.02106109625788E-11  5.60503041897294E-02
 cg2d: Sum(rhs),rhsMax =  -1.95562455118647E-11  5.80533058010722E-02
 cg2d: Sum(rhs),rhsMax =  -1.89396276439879E-11  6.00441735960356E-02
 cg2d: Sum(rhs),rhsMax =  -1.83821846633236E-11  6.20221896228480E-02
 cg2d: Sum(rhs),rhsMax =  -1.78702608266690E-11  6.39866228144901E-02
 cg2d: Sum(rhs),rhsMax =  -1.73839831418832E-11  6.59367297539310E-02
 cg2d: Sum(rhs),rhsMax =  -1.69303460140213E-11  6.78717564149315E-02
 cg2d: Sum(rhs),rhsMax =  -1.64992464135594E-11  6.97909407558565E-02
 cg2d: Sum(rhs),rhsMax =  -1.60884638944481E-11  7.16935159453848E-02
 cg2d: Sum(rhs),rhsMax =  -1.57694968194733E-11  7.35787139666079E-02
 cg2d: Sum(rhs),rhsMax =  -1.54947166208785E-11  7.54457693141870E-02
 cg2d: Sum(rhs),rhsMax =  -1.52149404186730E-11  7.72939224973102E-02
 cg2d: Sum(rhs),rhsMax =  -1.49588119668920E-11  7.91224230847885E-02
 cg2d: Sum(rhs),rhsMax =  -1.46990197791297E-11  8.09305320757108E-02
 cg2d: Sum(rhs),rhsMax =  -1.44934064749691E-11  8.27175234455518E-02
 cg2d: Sum(rhs),rhsMax =  -1.42451606066629E-11  8.44826847980186E-02
 cg2d: Sum(rhs),rhsMax =  -1.40515377111683E-11  8.62253171407706E-02
 cg2d: Sum(rhs),rhsMax =  -1.38486999645693E-11  8.79447338903435E-02
 cg2d: Sum(rhs),rhsMax =  -1.36421984819890E-11  8.96402592943748E-02
 cg2d: Sum(rhs),rhsMax =  -1.34655619987711E-11  9.13112265313004E-02
 cg2d: Sum(rhs),rhsMax =  -1.32900357385779E-11  9.29569757815864E-02
 cg2d: Sum(rhs),rhsMax =  -1.31339383813156E-11  9.45768525925863E-02
 cg2d: Sum(rhs),rhsMax =  -1.29740662657696E-11  9.61702068527093E-02
 cg2d: Sum(rhs),rhsMax =  -1.28567156920667E-11  9.77363926534506E-02
 cg2d: Sum(rhs),rhsMax =  -1.27076127398595E-11  9.92747692515539E-02
 cg2d: Sum(rhs),rhsMax =  -1.25809362927498E-11  1.00784703252828E-01
 cg2d: Sum(rhs),rhsMax =  -1.24393828571101E-11  1.02265572030829E-01
 cg2d: Sum(rhs),rhsMax =  -1.23182575251235E-11  1.03716768276210E-01
 cg2d: Sum(rhs),rhsMax =  -1.22087895348955E-11  1.05137705456428E-01
 cg2d: Sum(rhs),rhsMax =  -1.21493926030780E-11  1.06527823860509E-01
 cg2d: Sum(rhs),rhsMax =  -1.21125331986605E-11  1.07886596819192E-01
 cg2d: Sum(rhs),rhsMax =  -1.20318199847702E-11  1.09213536637471E-01
 cg2d: Sum(rhs),rhsMax =  -1.19789733687981E-11  1.10508199760319E-01
 cg2d: Sum(rhs),rhsMax =  -1.19473320125962E-11  1.11770190716550E-01
 cg2d: Sum(rhs),rhsMax =  -1.18632881296321E-11  1.12999164449796E-01
 cg2d: Sum(rhs),rhsMax =  -1.18335341525722E-11  1.14194826745489E-01
 cg2d: Sum(rhs),rhsMax =  -1.17661436149774E-11  1.15356932590588E-01
 cg2d: Sum(rhs),rhsMax =  -1.17277298983254E-11  1.16485282448052E-01
 cg2d: Sum(rhs),rhsMax =  -1.16906484493029E-11  1.17579716576720E-01
 cg2d: Sum(rhs),rhsMax =  -1.16316956066953E-11  1.18640107667718E-01
 cg2d: Sum(rhs),rhsMax =  -1.16394671678677E-11  1.19666352190202E-01
 cg2d: Sum(rhs),rhsMax =  -1.15808473921675E-11  1.20658360928256E-01
 cg2d: Sum(rhs),rhsMax =  -1.15326637128987E-11  1.21616049241327E-01
 cg2d: Sum(rhs),rhsMax =  -1.14989129329501E-11  1.22539327593287E-01
 cg2d: Sum(rhs),rhsMax =  -1.15092380070791E-11  1.23428092875272E-01
 cg2d: Sum(rhs),rhsMax =  -1.14757092717355E-11  1.24282220954695E-01
 cg2d: Sum(rhs),rhsMax =  -1.14550591234774E-11  1.25101560823518E-01
 cg2d: Sum(rhs),rhsMax =  -1.14221965219485E-11  1.25885930608517E-01
 cg2d: Sum(rhs),rhsMax =  -1.13646869692730E-11  1.26635115582536E-01
 cg2d: Sum(rhs),rhsMax =  -1.13810072477349E-11  1.27348868199788E-01
 cg2d: Sum(rhs),rhsMax =  -1.13430376202928E-11  1.28026910071728E-01
 cg2d: Sum(rhs),rhsMax =  -1.13286047209726E-11  1.28668935708274E-01
 cg2d: Sum(rhs),rhsMax =  -1.13438147764100E-11  1.29274617775384E-01
 cg2d: Sum(rhs),rhsMax =  -1.13064002604801E-11  1.29843613565373E-01
 cg2d: Sum(rhs),rhsMax =  -1.13486997577184E-11  1.30375572340919E-01
 cg2d: Sum(rhs),rhsMax =  -1.13349329922130E-11  1.30870143195988E-01
 cg2d: Sum(rhs),rhsMax =  -1.12774234395374E-11  1.31326983064789E-01
 cg2d: Sum(rhs),rhsMax =  -1.12516662653661E-11  1.31745764550300E-01
 cg2d: Sum(rhs),rhsMax =  -1.12292397602687E-11  1.32126183269995E-01
 cg2d: Sum(rhs),rhsMax =  -1.11990416939989E-11  1.32467964399806E-01
 cg2d: Sum(rhs),rhsMax =  -1.11949338688078E-11  1.32770868181433E-01
 cg2d: Sum(rhs),rhsMax =  -1.11687326054266E-11  1.33034694212894E-01
 cg2d: Sum(rhs),rhsMax =  -1.11720632745005E-11  1.33259284401816E-01
 cg2d: Sum(rhs),rhsMax =  -1.11667342039823E-11  1.33444524543148E-01
 cg2d: Sum(rhs),rhsMax =  -1.11729514529202E-11  1.33590344482725E-01
 cg2d: Sum(rhs),rhsMax =  -1.11951559134127E-11  1.33696716938208E-01
 cg2d: Sum(rhs),rhsMax =  -1.11687326054266E-11  1.33763655134478E-01
 cg2d: Sum(rhs),rhsMax =  -1.11604059327419E-11  1.33791209419489E-01
 cg2d: Sum(rhs),rhsMax =  -1.11628484233961E-11  1.33779463061127E-01
 cg2d: Sum(rhs),rhsMax =  -1.11467501895390E-11  1.33728527455927E-01
 cg2d: Sum(rhs),rhsMax =  -1.12251319350776E-11  1.33638536960771E-01
 cg2d: Sum(rhs),rhsMax =  -1.13611342555942E-11  1.33509643589106E-01
 cg2d: Sum(rhs),rhsMax =  -1.14130926931466E-11  1.33342011788957E-01
 cg2d: Sum(rhs),rhsMax =  -1.13862252959507E-11  1.33135813468866E-01
 cg2d: Sum(rhs),rhsMax =  -1.12898579374132E-11  1.32891223430136E-01
 cg2d: Sum(rhs),rhsMax =  -1.12991838108201E-11  1.32608415322005E-01
 cg2d: Sum(rhs),rhsMax =  -1.12732045920438E-11  1.32287558199140E-01
 cg2d: Sum(rhs),rhsMax =  -1.12179154854175E-11  1.31928813733183E-01
 cg2d: Sum(rhs),rhsMax =  -1.12080345004983E-11  1.31532334108749E-01
 cg2d: Sum(rhs),rhsMax =  -1.12694298337601E-11  1.31098260618752E-01
 cg2d: Sum(rhs),rhsMax =  -1.13585807426375E-11  1.30626722963424E-01
 cg2d: Sum(rhs),rhsMax =  -1.14185327859673E-11  1.30117839250708E-01
 cg2d: Sum(rhs),rhsMax =  -1.14467324507928E-11  1.29571716670854E-01
 cg2d: Sum(rhs),rhsMax =  -1.15354392704603E-11  1.28988452886328E-01
 cg2d: Sum(rhs),rhsMax =  -1.15623066676562E-11  1.28368138099978E-01
 cg2d: Sum(rhs),rhsMax =  -1.15998322058886E-11  1.27710857752780E-01
 cg2d: Sum(rhs),rhsMax =  -1.16419096585219E-11  1.27016695821030E-01
 cg2d: Sum(rhs),rhsMax =  -1.16558984686321E-11  1.26285738665652E-01
 cg2d: Sum(rhs),rhsMax =  -1.17238441177392E-11  1.25518079361504E-01
 cg2d: Sum(rhs),rhsMax =  -1.17788001574581E-11  1.24713822405089E-01
 cg2d: Sum(rhs),rhsMax =  -1.18176579633200E-11  1.23873088669255E-01
 cg2d: Sum(rhs),rhsMax =  -1.18853815678222E-11  1.22996020441703E-01
 cg2d: Sum(rhs),rhsMax =  -1.19546594845588E-11  1.22082786350181E-01
 cg2d: Sum(rhs),rhsMax =  -1.20300436279308E-11  1.21133585991786E-01
 cg2d: Sum(rhs),rhsMax =  -1.20904397604704E-11  1.20148654074544E-01
 cg2d: Sum(rhs),rhsMax =  -1.21767040894838E-11  1.19128263819883E-01
 cg2d: Sum(rhs),rhsMax =  -1.22781784739345E-11  1.18072729438914E-01
 cg2d: Sum(rhs),rhsMax =  -1.23363541604249E-11  1.16982407552111E-01
 cg2d: Sum(rhs),rhsMax =  -1.24178445304324E-11  1.15857697448117E-01
 cg2d: Sum(rhs),rhsMax =  -1.25697230402011E-11  1.14699040137714E-01
 cg2d: Sum(rhs),rhsMax =  -1.26728627591888E-11  1.13506916229865E-01
 cg2d: Sum(rhs),rhsMax =  -1.27542421068938E-11  1.12281842731289E-01
 cg2d: Sum(rhs),rhsMax =  -1.28369537222284E-11  1.11024368942261E-01
 cg2d: Sum(rhs),rhsMax =  -1.28815846878183E-11  1.09735071718729E-01
 cg2d: Sum(rhs),rhsMax =  -1.29688482175538E-11  1.08414550284890E-01
 cg2d: Sum(rhs),rhsMax =  -1.30655486429987E-11  1.07063420968658E-01
 cg2d: Sum(rhs),rhsMax =  -1.31877841980099E-11  1.05682312193051E-01
 cg2d: Sum(rhs),rhsMax =  -1.33116850875581E-11  1.04271860010296E-01
 cg2d: Sum(rhs),rhsMax =  -1.34403599361121E-11  1.02832704449016E-01
 cg2d: Sum(rhs),rhsMax =  -1.35979005833065E-11  1.01365486853306E-01
 cg2d: Sum(rhs),rhsMax =  -1.37427846880200E-11  9.98708483390639E-02
 cg2d: Sum(rhs),rhsMax =  -1.38606903732352E-11  9.83494294132093E-02
 cg2d: Sum(rhs),rhsMax =  -1.40334410758669E-11  9.68018707149167E-02
 cg2d: Sum(rhs),rhsMax =  -1.42077460907331E-11  9.52288147521672E-02
 cg2d: Sum(rhs),rhsMax =  -1.43745015890318E-11  9.36309084318399E-02
 cg2d: Sum(rhs),rhsMax =  -1.45472522916634E-11  9.20088061189069E-02
 cg2d: Sum(rhs),rhsMax =  -1.47359902058497E-11  9.03631729169062E-02
 cg2d: Sum(rhs),rhsMax =  -1.49270595883877E-11  8.86946878420460E-02
 cg2d: Sum(rhs),rhsMax =  -1.51345602716901E-11  8.70040465672613E-02
 cg2d: Sum(rhs),rhsMax =  -1.53221879628518E-11  8.52919634398451E-02
 cg2d: Sum(rhs),rhsMax =  -1.55566670656526E-11  8.35591725252968E-02
 cg2d: Sum(rhs),rhsMax =  -1.57993618188357E-11  8.18064274979481E-02
 cg2d: Sum(rhs),rhsMax =  -1.60502722224010E-11  8.00345002820919E-02
 cg2d: Sum(rhs),rhsMax =  -1.63489222160251E-11  7.82441784376276E-02
 cg2d: Sum(rhs),rhsMax =  -1.66061608908308E-11  7.64362613787195E-02
 cg2d: Sum(rhs),rhsMax =  -1.69215752521268E-11  7.46115556054249E-02
 cg2d: Sum(rhs),rhsMax =  -1.72957204114255E-11  7.27708691931228E-02
 cg2d: Sum(rhs),rhsMax =  -1.76963999010127E-11  7.09150058756896E-02
 cg2d: Sum(rhs),rhsMax =  -1.81193948733949E-11  6.90447590983933E-02
 cg2d: Sum(rhs),rhsMax =  -1.85994553092428E-11  6.71609063534221E-02
 cg2d: Sum(rhs),rhsMax =  -1.90800708566030E-11  6.52642041467766E-02
 cg2d: Sum(rhs),rhsMax =  -1.96178628897314E-11  6.33553839015508E-02
 cg2d: Sum(rhs),rhsMax =  -2.01698657775751E-11  6.14351490338622E-02
 cg2d: Sum(rhs),rhsMax =  -2.07969197418834E-11  5.95041733514225E-02
 cg2d: Sum(rhs),rhsMax =  -2.14305240220369E-11  5.75631008312392E-02
 cg2d: Sum(rhs),rhsMax =  -2.21305196390631E-11  5.56125467416675E-02
 cg2d: Sum(rhs),rhsMax =  -2.28808083591048E-11  5.36530999932108E-02
 cg2d: Sum(rhs),rhsMax =  -2.36864972080753E-11  5.16853265432368E-02
 cg2d: Sum(rhs),rhsMax =  -2.45582443270109E-11  4.97097736258228E-02
 cg2d: Sum(rhs),rhsMax =  -2.55175880425895E-11  4.77269745614858E-02
 cg2d: Sum(rhs),rhsMax =  -2.65765187634770E-11  4.57374539255984E-02
 cg2d: Sum(rhs),rhsMax =  -2.76905165463859E-11  4.37417328641559E-02
 cg2d: Sum(rhs),rhsMax =  -2.89352986015956E-11  4.17403343834433E-02
 cg2d: Sum(rhs),rhsMax =  -3.03137515089702E-11  3.97337884844651E-02
 cg2d: Sum(rhs),rhsMax =  -3.18276516253491E-11  3.77226370560791E-02
 cg2d: Sum(rhs),rhsMax =  -3.35325101019635E-11  3.57074384755061E-02
 cg2d: Sum(rhs),rhsMax =  -3.54296592064429E-11  3.36887718857295E-02
 cg2d: Sum(rhs),rhsMax =  -3.75751652015310E-11  3.16672411286689E-02
 cg2d: Sum(rhs),rhsMax =  -4.00844912817888E-11  2.96434782859472E-02
 cg2d: Sum(rhs),rhsMax =  -4.29879465357885E-11  2.76181467660687E-02
 cg2d: Sum(rhs),rhsMax =  -4.61678473229199E-11  2.55919438695883E-02
 cg2d: Sum(rhs),rhsMax =  -5.01299002308997E-11  2.35656027179175E-02
 cg2d: Sum(rhs),rhsMax =  -5.47925038674180E-11  2.15398934196783E-02
 cg2d: Sum(rhs),rhsMax =  -6.04031269446637E-11  1.95156233568465E-02
 cg2d: Sum(rhs),rhsMax =  -6.58118004537300E-11  1.78932993949981E-02
 cg2d: Sum(rhs),rhsMax =  -6.11679595863279E-11  1.92278611942838E-02
 cg2d: Sum(rhs),rhsMax =  -5.71534763960102E-11  2.05526117677830E-02
 cg2d: Sum(rhs),rhsMax =  -5.36444916265921E-11  2.18669749590532E-02
 cg2d: Sum(rhs),rhsMax =  -5.05866112887610E-11  2.31704324680478E-02
 cg2d: Sum(rhs),rhsMax =  -4.78440793927337E-11  2.44625205507233E-02
 cg2d: Sum(rhs),rhsMax =  -4.54285081774586E-11  2.57428249879509E-02
 cg2d: Sum(rhs),rhsMax =  -4.32460733890139E-11  2.70109755623932E-02
 cg2d: Sum(rhs),rhsMax =  -4.12846978825598E-11  2.82666397085884E-02
 cg2d: Sum(rhs),rhsMax =  -3.95128652019849E-11  2.95095140198781E-02
 cg2d: Sum(rhs),rhsMax =  -3.79191122945599E-11  3.07393156395390E-02
 cg2d: Sum(rhs),rhsMax =  -3.63713503759300E-11  3.19557760202999E-02
 cg2d: Sum(rhs),rhsMax =  -3.49418827205739E-11  3.31586319870918E-02
 cg2d: Sum(rhs),rhsMax =  -3.36883299034696E-11  3.43476136242334E-02
 cg2d: Sum(rhs),rhsMax =  -3.24569815468578E-11  3.55224353449770E-02
 cg2d: Sum(rhs),rhsMax =  -3.13615799996114E-11  3.66827893934425E-02
 cg2d: Sum(rhs),rhsMax =  -3.03504998910853E-11  3.78283427494226E-02
 cg2d: Sum(rhs),rhsMax =  -2.93766677650353E-11  3.89587283908080E-02
 cg2d: Sum(rhs),rhsMax =  -2.84900991687209E-11  4.00735393139123E-02
 cg2d: Sum(rhs),rhsMax =  -2.76781930708125E-11  4.11723273935815E-02
 cg2d: Sum(rhs),rhsMax =  -2.69166910982221E-11  4.22546048961358E-02
 cg2d: Sum(rhs),rhsMax =  -2.62001531581291E-11  4.33198479831830E-02
 cg2d: Sum(rhs),rhsMax =  -2.55193643994289E-11  4.43675021870801E-02
 cg2d: Sum(rhs),rhsMax =  -2.48674414393690E-11  4.53969903957546E-02
 cg2d: Sum(rhs),rhsMax =  -2.42910136449837E-11  4.64077239076198E-02
 cg2d: Sum(rhs),rhsMax =  -2.37115882484318E-11  4.73991149981258E-02
 cg2d: Sum(rhs),rhsMax =  -2.32049934822953E-11  4.83705885533288E-02
 cg2d: Sum(rhs),rhsMax =  -2.27061702773312E-11  4.93215925469006E-02
 cg2d: Sum(rhs),rhsMax =  -2.22546425732162E-11  5.02516075816482E-02
 cg2d: Sum(rhs),rhsMax =  -2.18405293850310E-11  5.11601566223824E-02
 cg2d: Sum(rhs),rhsMax =  -2.13871143017741E-11  5.20468126259110E-02
 cg2d: Sum(rhs),rhsMax =  -2.10086392726794E-11  5.29112012861567E-02
 cg2d: Sum(rhs),rhsMax =  -2.06381578493620E-11  5.37530003196029E-02
 cg2d: Sum(rhs),rhsMax =  -2.02953209793577E-11  5.45719392796408E-02
 cg2d: Sum(rhs),rhsMax =  -1.99318339610954E-11  5.53677972974750E-02
 cg2d: Sum(rhs),rhsMax =  -1.95838900651779E-11  5.61403974876083E-02
 cg2d: Sum(rhs),rhsMax =  -1.92366123030752E-11  5.68895993237461E-02
 cg2d: Sum(rhs),rhsMax =  -1.90238935715570E-11  5.76152759020522E-02
 cg2d: Sum(rhs),rhsMax =  -1.86574089511282E-11  5.83173155702603E-02
 cg2d: Sum(rhs),rhsMax =  -1.83373316531288E-11  5.89956118799343E-02
 cg2d: Sum(rhs),rhsMax =  -1.80683246142621E-11  5.96500752752276E-02
 cg2d: Sum(rhs),rhsMax =  -1.78128622962959E-11  6.02806291410671E-02
 cg2d: Sum(rhs),rhsMax =  -1.75477410380154E-11  6.08871964184538E-02
 cg2d: Sum(rhs),rhsMax =  -1.73174807827081E-11  6.14696915006612E-02
 cg2d: Sum(rhs),rhsMax =  -1.70679026467724E-11  6.20280185776360E-02
 cg2d: Sum(rhs),rhsMax =  -1.68847158477092E-11  6.25620726459086E-02
 cg2d: Sum(rhs),rhsMax =  -1.66672231571852E-11  6.30717401463935E-02
 cg2d: Sum(rhs),rhsMax =  -1.65227831416814E-11  6.35568984264783E-02
 cg2d: Sum(rhs),rhsMax =  -1.63209445958046E-11  6.40174158787200E-02
 cg2d: Sum(rhs),rhsMax =  -1.61765045803008E-11  6.44531541229181E-02
 cg2d: Sum(rhs),rhsMax =  -1.59648960718073E-11  6.48639713509590E-02
 cg2d: Sum(rhs),rhsMax =  -1.57952539936446E-11  6.52497258497365E-02
 cg2d: Sum(rhs),rhsMax =  -1.56122892391863E-11  6.56102720455079E-02
 cg2d: Sum(rhs),rhsMax =  -1.54274371055863E-11  6.59454660277655E-02
 cg2d: Sum(rhs),rhsMax =  -1.52720058821387E-11  6.62551735751681E-02
 cg2d: Sum(rhs),rhsMax =  -1.51542112192260E-11  6.65392692204977E-02
 cg2d: Sum(rhs),rhsMax =  -1.50216505900858E-11  6.67976325597787E-02
 cg2d: Sum(rhs),rhsMax =  -1.49333878596281E-11  6.70301443545930E-02
 cg2d: Sum(rhs),rhsMax =  -1.48245860032148E-11  6.72366860538041E-02
 cg2d: Sum(rhs),rhsMax =  -1.47510892389846E-11  6.74171438295425E-02
 cg2d: Sum(rhs),rhsMax =  -1.47530876404289E-11  6.75714062308926E-02
 cg2d: Sum(rhs),rhsMax =  -1.46765932740323E-11  6.76993653534832E-02
 cg2d: Sum(rhs),rhsMax =  -1.46430645386886E-11  6.78009188560745E-02
 cg2d: Sum(rhs),rhsMax =  -1.46139766954434E-11  6.78759730801526E-02
 cg2d: Sum(rhs),rhsMax =  -1.46243017695724E-11  6.79244466057461E-02
 cg2d: Sum(rhs),rhsMax =  -1.46294087954857E-11  6.79462735674648E-02
 cg2d: Sum(rhs),rhsMax =  -1.45703449305756E-11  6.79414088807922E-02
 cg2d: Sum(rhs),rhsMax =  -1.45466971801511E-11  6.79098361698499E-02
 cg2d: Sum(rhs),rhsMax =  -1.46161971414926E-11  6.78515739761504E-02
 cg2d: Sum(rhs),rhsMax =  -1.46779255416618E-11  6.77666796697768E-02
 cg2d: Sum(rhs),rhsMax =  -1.46127554501163E-11  6.76552521448871E-02
 cg2d: Sum(rhs),rhsMax =  -1.46633816200392E-11  6.75174331686530E-02
 cg2d: Sum(rhs),rhsMax =  -1.47565293318053E-11  6.73534082370671E-02
 cg2d: Sum(rhs),rhsMax =  -1.48280276945911E-11  6.71634049849747E-02
 cg2d: Sum(rhs),rhsMax =  -1.49118495329503E-11  6.69476911442872E-02
 cg2d: Sum(rhs),rhsMax =  -1.50266465936966E-11  6.67065601986163E-02
 cg2d: Sum(rhs),rhsMax =  -1.51536561077137E-11  6.64403183350138E-02
 cg2d: Sum(rhs),rhsMax =  -1.52721169044412E-11  6.61492722136679E-02
 cg2d: Sum(rhs),rhsMax =  -1.54409818264867E-11  6.58337165074743E-02
 cg2d: Sum(rhs),rhsMax =  -1.56265000939015E-11  6.54939214856286E-02
 cg2d: Sum(rhs),rhsMax =  -1.58014712425825E-11  6.51301213013382E-02
 cg2d: Sum(rhs),rhsMax =  -1.59567914437275E-11  6.47425040977046E-02
 cg2d: Sum(rhs),rhsMax =  -1.61156643585514E-11  6.43312051837184E-02
 cg2d: Sum(rhs),rhsMax =  -1.62434510286857E-11  6.38963046950645E-02
 cg2d: Sum(rhs),rhsMax =  -1.64244173816996E-11  6.34378298238208E-02
 cg2d: Sum(rhs),rhsMax =  -1.65980562627510E-11  6.29557616326909E-02
 cg2d: Sum(rhs),rhsMax =  -1.67788005711600E-11  6.24500515839895E-02
 cg2d: Sum(rhs),rhsMax =  -1.69828595630861E-11  6.19206246672627E-02
 cg2d: Sum(rhs),rhsMax =  -1.71801461945620E-11  6.13673980575731E-02
 cg2d: Sum(rhs),rhsMax =  -1.74353864679233E-11  6.07903038521697E-02
 cg2d: Sum(rhs),rhsMax =  -1.76572090282434E-11  6.01893053730650E-02
 cg2d: Sum(rhs),rhsMax =  -1.79146697476540E-11  5.95644116776491E-02
 cg2d: Sum(rhs),rhsMax =  -1.81887838124339E-11  5.89156913596724E-02
 cg2d: Sum(rhs),rhsMax =  -1.84525728030849E-11  5.82432834264662E-02
 cg2d: Sum(rhs),rhsMax =  -1.87398985218579E-11  5.75474032166667E-02
 cg2d: Sum(rhs),rhsMax =  -1.90683024925420E-11  5.68283446027012E-02
 cg2d: Sum(rhs),rhsMax =  -1.94144700316201E-11  5.60864791993837E-02
 cg2d: Sum(rhs),rhsMax =  -1.97677429980558E-11  5.53222506768720E-02
 cg2d: Sum(rhs),rhsMax =  -2.01549887890451E-11  5.45361642870034E-02
 cg2d: Sum(rhs),rhsMax =  -2.04755101762544E-11  5.37287717001999E-02
 cg2d: Sum(rhs),rhsMax =  -2.08599804096821E-11  5.29006585461223E-02
 cg2d: Sum(rhs),rhsMax =  -2.12350137474004E-11  5.20524326468092E-02
 cg2d: Sum(rhs),rhsMax =  -2.15887308030460E-11  5.11847032832560E-02
 cg2d: Sum(rhs),rhsMax =  -2.20404805517660E-11  5.02980705037261E-02
 cg2d: Sum(rhs),rhsMax =  -2.24696927730861E-11  4.93931167857687E-02
 cg2d: Sum(rhs),rhsMax =  -2.30013785795791E-11  4.84703933948435E-02
 cg2d: Sum(rhs),rhsMax =  -2.34823271938467E-11  4.75304087416230E-02
 cg2d: Sum(rhs),rhsMax =  -2.40087949521239E-11  4.65736429804343E-02
 cg2d: Sum(rhs),rhsMax =  -2.45652387320661E-11  4.56005130632278E-02
 cg2d: Sum(rhs),rhsMax =  -2.51558773811666E-11  4.46113605060265E-02
 cg2d: Sum(rhs),rhsMax =  -2.57250887258920E-11  4.36064720677956E-02
 cg2d: Sum(rhs),rhsMax =  -2.64499533386697E-11  4.25860959355035E-02
 cg2d: Sum(rhs),rhsMax =  -2.71559441600289E-11  4.15504440528830E-02
 cg2d: Sum(rhs),rhsMax =  -2.79484213550063E-11  4.04997000060214E-02
 cg2d: Sum(rhs),rhsMax =  -2.87819768018949E-11  3.94340318232571E-02
 cg2d: Sum(rhs),rhsMax =  -2.96316304826405E-11  3.83536058337885E-02
 cg2d: Sum(rhs),rhsMax =  -3.05804270794852E-11  3.72585999590759E-02
 cg2d: Sum(rhs),rhsMax =  -3.16084936002881E-11  3.61492218724087E-02
 cg2d: Sum(rhs),rhsMax =  -3.27208815598112E-11  3.50257156257181E-02
 cg2d: Sum(rhs),rhsMax =  -3.38638561636628E-11  3.38883519150907E-02
 cg2d: Sum(rhs),rhsMax =  -3.51584317215270E-11  3.27374303126005E-02
 cg2d: Sum(rhs),rhsMax =  -3.65191210605076E-11  3.15732882248201E-02
 cg2d: Sum(rhs),rhsMax =  -3.80580567060917E-11  3.03963058864264E-02
 cg2d: Sum(rhs),rhsMax =  -3.96748744968534E-11  2.92069055317616E-02
 cg2d: Sum(rhs),rhsMax =  -4.15091294669878E-11  2.80055496796381E-02
 cg2d: Sum(rhs),rhsMax =  -4.34318414566093E-11  2.67927367813437E-02
 cg2d: Sum(rhs),rhsMax =  -4.55448179170759E-11  2.55689962034170E-02
 cg2d: Sum(rhs),rhsMax =  -4.79312076140381E-11  2.43348848657867E-02
 cg2d: Sum(rhs),rhsMax =  -5.05524493793486E-11  2.30909832115165E-02
 cg2d: Sum(rhs),rhsMax =  -5.35331778905856E-11  2.18378929474648E-02
 cg2d: Sum(rhs),rhsMax =  -5.68832203562408E-11  2.05762346586952E-02
 cg2d: Sum(rhs),rhsMax =  -6.06814043457859E-11  1.93066483217138E-02
(PID.TID 0000.0001)      cg2d_init_res =   5.20881948470282E-01
(PID.TID 0000.0001)      cg2d_iters(min,last) =      -1      38
(PID.TID 0000.0001)      cg2d_last_res =   5.22733392536115E-14
(PID.TID 0000.0001) // =======================================================
(PID.TID 0000.0001) // Begin MONITOR dynamic field statistics
(PID.TID 0000.0001) // =======================================================
(PID.TID 0000.0001) %MON time_tsnumber                =                  3360
(PID.TID 0000.0001) %MON time_secondsf                =   5.0400000000000E+04
(PID.TID 0000.0001) %MON dynstat_eta_max              =   4.0507137741740E-03
(PID.TID 0000.0001) %MON dynstat_eta_min              =  -4.2281894911186E-03
(PID.TID 0000.0001) %MON dynstat_eta_mean             =   2.4410908002170E-15
(PID.TID 0000.0001) %MON dynstat_eta_sd               =   2.5239884536595E-03
(PID.TID 0000.0001) %MON dynstat_eta_del2             =   1.2472157311795E-05
(PID.TID 0000.0001) %MON dynstat_uvel_max             =   8.0899100778952E-01
(PID.TID 0000.0001) %MON dynstat_uvel_min             =  -1.4048855707786E-01
(PID.TID 0000.0001) %MON dynstat_uvel_mean            =   1.0582832451834E-01
(PID.TID 0000.0001) %MON dynstat_uvel_sd              =   7.1635251635529E-02
(PID.TID 0000.0001) %MON dynstat_uvel_del2            =   1.9264207917879E-04
(PID.TID 0000.0001) %MON dynstat_vvel_max             =   0.0000000000000E+00
(PID.TID 0000.0001) %MON dynstat_vvel_min             =   0.0000000000000E+00
(PID.TID 0000.0001) %MON dynstat_vvel_mean            =   0.0000000000000E+00
(PID.TID 0000.0001) %MON dynstat_vvel_sd              =   0.0000000000000E+00
(PID.TID 0000.0001) %MON dynstat_vvel_del2            =   0.0000000000000E+00
(PID.TID 0000.0001) %MON dynstat_wvel_max             =   4.0979863297221E-03
(PID.TID 0000.0001) %MON dynstat_wvel_min             =  -9.5973962715917E-03
(PID.TID 0000.0001) %MON dynstat_wvel_mean            =   8.4563463162009E-21
(PID.TID 0000.0001) %MON dynstat_wvel_sd              =   5.9087371757339E-04
(PID.TID 0000.0001) %MON dynstat_wvel_del2            =   1.0281276236527E-05
(PID.TID 0000.0001) %MON dynstat_theta_max            =   1.5000000000010E+01
(PID.TID 0000.0001) %MON dynstat_theta_min            =   9.9999999999940E+00
(PID.TID 0000.0001) %MON dynstat_theta_mean           =   1.2560600931795E+01
(PID.TID 0000.0001) %MON dynstat_theta_sd             =   2.4605124396650E+00
(PID.TID 0000.0001) %MON dynstat_theta_del2           =   1.1303508442785E-03
(PID.TID 0000.0001) %MON dynstat_salt_max             =   3.5000000000000E+01
(PID.TID 0000.0001) %MON dynstat_salt_min             =   3.5000000000000E+01
(PID.TID 0000.0001) %MON dynstat_salt_mean            =   3.5000000000000E+01
(PID.TID 0000.0001) %MON dynstat_salt_sd              =   3.9790393202566E-13
(PID.TID 0000.0001) %MON dynstat_salt_del2            =   0.0000000000000E+00
(PID.TID 0000.0001) %MON dynstat_sst_max              =   1.5000000000000E+01
(PID.TID 0000.0001) %MON dynstat_sst_min              =   1.4999999999998E+01
(PID.TID 0000.0001) %MON dynstat_sst_mean             =   1.5000000000000E+01
(PID.TID 0000.0001) %MON dynstat_sst_sd               =   4.0786414100405E-13
(PID.TID 0000.0001) %MON dynstat_sst_del2             =   1.2488185079195E-14
(PID.TID 0000.0001) %MON dynstat_sss_max              =   3.5000000000000E+01
(PID.TID 0000.0001) %MON dynstat_sss_min              =   3.5000000000000E+01
(PID.TID 0000.0001) %MON dynstat_sss_mean             =   3.5000000000000E+01
(PID.TID 0000.0001) %MON dynstat_sss_sd               =   5.6843418860808E-14
(PID.TID 0000.0001) %MON dynstat_sss_del2             =   0.0000000000000E+00
(PID.TID 0000.0001) %MON forcing_qnet_max             =   0.0000000000000E+00
(PID.TID 0000.0001) %MON forcing_qnet_min             =   0.0000000000000E+00
(PID.TID 0000.0001) %MON forcing_qnet_mean            =   0.0000000000000E+00
(PID.TID 0000.0001) %MON forcing_qnet_sd              =   0.0000000000000E+00
(PID.TID 0000.0001) %MON forcing_qnet_del2            =   0.0000000000000E+00
(PID.TID 0000.0001) %MON forcing_qsw_max              =   0.0000000000000E+00
(PID.TID 0000.0001) %MON forcing_qsw_min              =   0.0000000000000E+00
(PID.TID 0000.0001) %MON forcing_qsw_mean             =   0.0000000000000E+00
(PID.TID 0000.0001) %MON forcing_qsw_sd               =   0.0000000000000E+00
(PID.TID 0000.0001) %MON forcing_qsw_del2             =   0.0000000000000E+00
(PID.TID 0000.0001) %MON forcing_empmr_max            =   0.0000000000000E+00
(PID.TID 0000.0001) %MON forcing_empmr_min            =   0.0000000000000E+00
(PID.TID 0000.0001) %MON forcing_empmr_mean           =   0.0000000000000E+00
(PID.TID 0000.0001) %MON forcing_empmr_sd             =   0.0000000000000E+00
(PID.TID 0000.0001) %MON forcing_empmr_del2           =   0.0000000000000E+00
(PID.TID 0000.0001) %MON forcing_fu_max               =   0.0000000000000E+00
(PID.TID 0000.0001) %MON forcing_fu_min               =   0.0000000000000E+00
(PID.TID 0000.0001) %MON forcing_fu_mean              =   0.0000000000000E+00
(PID.TID 0000.0001) %MON forcing_fu_sd                =   0.0000000000000E+00
(PID.TID 0000.0001) %MON forcing_fu_del2              =   0.0000000000000E+00
(PID.TID 0000.0001) %MON forcing_fv_max               =   0.0000000000000E+00
(PID.TID 0000.0001) %MON forcing_fv_min               =   0.0000000000000E+00
(PID.TID 0000.0001) %MON forcing_fv_mean              =   0.0000000000000E+00
(PID.TID 0000.0001) %MON forcing_fv_sd                =   0.0000000000000E+00
(PID.TID 0000.0001) %MON forcing_fv_del2              =   0.0000000000000E+00
(PID.TID 0000.0001) %MON advcfl_uvel_max              =   6.0674325584214E-02
(PID.TID 0000.0001) %MON advcfl_vvel_max              =   0.0000000000000E+00
(PID.TID 0000.0001) %MON advcfl_wvel_max              =   1.2529086347880E-01
(PID.TID 0000.0001) %MON advcfl_W_hf_max              =   1.2696882565616E-01
(PID.TID 0000.0001) %MON pe_b_mean                    =   1.6043965129591E-07
(PID.TID 0000.0001) %MON ke_max                       =   2.4325540621567E-01
(PID.TID 0000.0001) %MON ke_mean                      =   8.1895211331725E-03
(PID.TID 0000.0001) %MON ke_vol                       =   9.5121673331316E+10
(PID.TID 0000.0001) %MON vort_r_min                   =   0.0000000000000E+00
(PID.TID 0000.0001) %MON vort_r_max                   =   0.0000000000000E+00
(PID.TID 0000.0001) %MON vort_a_mean                  =   0.0000000000000E+00
(PID.TID 0000.0001) %MON vort_a_sd                    =   0.0000000000000E+00
(PID.TID 0000.0001) %MON vort_p_mean                  =   0.0000000000000E+00
(PID.TID 0000.0001) %MON vort_p_sd                    =   0.0000000000000E+00
(PID.TID 0000.0001) %MON surfExpan_theta_mean         =   2.0148836958577E-18
(PID.TID 0000.0001) %MON surfExpan_salt_mean          =   2.2904870110028E-19
(PID.TID 0000.0001) // =======================================================
(PID.TID 0000.0001) // End MONITOR dynamic field statistics
(PID.TID 0000.0001) // =======================================================
(PID.TID 0000.0001) // =======================================================
(PID.TID 0000.0001) // Begin OBCS MONITOR field statistics
(PID.TID 0000.0001) // =======================================================
(PID.TID 0000.0001) %MON obc_E_uVel_max               =   1.0505355776936E-01
(PID.TID 0000.0001) %MON obc_E_uVel_min               =   1.0505355776936E-01
(PID.TID 0000.0001) %MON obc_E_uVel_mean              =   1.0505355776936E-01
(PID.TID 0000.0001) %MON obc_E_uVel_sd                =  -6.9388939039072E-18
(PID.TID 0000.0001) %MON obc_E_uVel_Int               =   1.0505355776936E+05
(PID.TID 0000.0001) %MON obc_W_uVel_max               =   1.0505355776936E-01
(PID.TID 0000.0001) %MON obc_W_uVel_min               =   1.0505355776936E-01
(PID.TID 0000.0001) %MON obc_W_uVel_mean              =   1.0505355776936E-01
(PID.TID 0000.0001) %MON obc_W_uVel_sd                =  -6.9388939039072E-18
(PID.TID 0000.0001) %MON obc_W_uVel_Int               =   1.0505355776936E+05
(PID.TID 0000.0001) // =======================================================
(PID.TID 0000.0001) // End OBCS MONITOR field statistics
(PID.TID 0000.0001) // =======================================================
 cg2d: Sum(rhs),rhsMax =  -6.50809406366193E-11  1.80297910952532E-02
 cg2d: Sum(rhs),rhsMax =  -6.50259290857491E-11  1.80633409638572E-02
 cg2d: Sum(rhs),rhsMax =  -5.96117044615596E-11  1.97291366870183E-02
 cg2d: Sum(rhs),rhsMax =  -5.49660317261669E-11  2.14204666458610E-02
 cg2d: Sum(rhs),rhsMax =  -5.09220443589697E-11  2.31531410242161E-02
 cg2d: Sum(rhs),rhsMax =  -4.73548977808491E-11  2.49173967774297E-02
 cg2d: Sum(rhs),rhsMax =  -4.42135217326722E-11  2.67113184709104E-02
 cg2d: Sum(rhs),rhsMax =  -4.13913348040751E-11  2.85600518204637E-02
 cg2d: Sum(rhs),rhsMax =  -3.88351573121781E-11  3.04718405730143E-02
 cg2d: Sum(rhs),rhsMax =  -3.66267016715938E-11  3.23841971439275E-02
 cg2d: Sum(rhs),rhsMax =  -3.46658257655008E-11  3.42964843546816E-02
 cg2d: Sum(rhs),rhsMax =  -3.29171134794137E-11  3.62080790484028E-02
 cg2d: Sum(rhs),rhsMax =  -3.13359338477426E-11  3.81183648306527E-02
 cg2d: Sum(rhs),rhsMax =  -2.99021918337417E-11  4.00267248642554E-02
 cg2d: Sum(rhs),rhsMax =  -2.86205503741144E-11  4.19325350654642E-02
 cg2d: Sum(rhs),rhsMax =  -2.74178457715379E-11  4.38351580160758E-02
 cg2d: Sum(rhs),rhsMax =  -2.63367105901580E-11  4.57339377692878E-02
 cg2d: Sum(rhs),rhsMax =  -2.53378429349027E-11  4.76281956841190E-02
 cg2d: Sum(rhs),rhsMax =  -2.44049225273102E-11  4.95172273510502E-02
 cg2d: Sum(rhs),rhsMax =  -2.35884645150009E-11  5.14003006083717E-02
 cg2d: Sum(rhs),rhsMax =  -2.28017604797515E-11  5.32766546001806E-02
 cg2d: Sum(rhs),rhsMax =  -2.20875540080101E-11  5.51454997965581E-02
 cg2d: Sum(rhs),rhsMax =  -2.14088746730567E-11  5.70060188839452E-02
 cg2d: Sum(rhs),rhsMax =  -2.07804884411189E-11  5.88573684361243E-02
 cg2d: Sum(rhs),rhsMax =  -2.01947347733267E-11  6.06986812888335E-02
 cg2d: Sum(rhs),rhsMax =  -1.96209715142004E-11  6.25290695585885E-02
 cg2d: Sum(rhs),rhsMax =  -1.91030524732128E-11  6.43476282635254E-02
 cg2d: Sum(rhs),rhsMax =  -1.86135551416555E-11  6.61534395163119E-02
 cg2d: Sum(rhs),rhsMax =  -1.82380777147273E-11  6.79455772627022E-02
 cg2d: Sum(rhs),rhsMax =  -1.78587145072129E-11  6.97231125267526E-02
 cg2d: Sum(rhs),rhsMax =  -1.74938952213211E-11  7.14851191254865E-02
 cg2d: Sum(rhs),rhsMax =  -1.71564984441375E-11  7.32306797521101E-02
 cg2d: Sum(rhs),rhsMax =  -1.68360880792306E-11  7.49588923135518E-02
 cg2d: Sum(rhs),rhsMax =  -1.65184532718854E-11  7.66688763591714E-02
 cg2d: Sum(rhs),rhsMax =  -1.62424518279636E-11  7.83597793973022E-02
 cg2d: Sum(rhs),rhsMax =  -1.59845470193432E-11  8.00307828638247E-02
 cg2d: Sum(rhs),rhsMax =  -1.57205359840873E-11  8.16811074876944E-02
 cg2d: Sum(rhs),rhsMax =  -1.55063739626371E-11  8.33100177955799E-02
 cg2d: Sum(rhs),rhsMax =  -1.52868828706687E-11  8.49168255184259E-02
 cg2d: Sum(rhs),rhsMax =  -1.50862655701189E-11  8.65008917016536E-02
 cg2d: Sum(rhs),rhsMax =  -1.48822065781928E-11  8.80616273754727E-02
 cg2d: Sum(rhs),rhsMax =  -1.47007961359691E-11  8.95984927212127E-02
 cg2d: Sum(rhs),rhsMax =  -1.45169432030912E-11  9.11109947550670E-02
 cg2d: Sum(rhs),rhsMax =  -1.43355327608674E-11  9.25986836435086E-02
 cg2d: Sum(rhs),rhsMax =  -1.41681111287539E-11  9.40611478466511E-02
 cg2d: Sum(rhs),rhsMax =  -1.40133460391212E-11  9.54980083589069E-02
 cg2d: Sum(rhs),rhsMax =  -1.38775657632095E-11  9.69089123718957E-02
 cg2d: Sum(rhs),rhsMax =  -1.36958222540784E-11  9.82935267173205E-02
 cg2d: Sum(rhs),rhsMax =  -1.35631506026357E-11  9.96515314511390E-02
 cg2d: Sum(rhs),rhsMax =  -1.34484645641919E-11  1.00982613917395E-01
 cg2d: Sum(rhs),rhsMax =  -1.33879574093498E-11  1.02286463582148E-01
 cg2d: Sum(rhs),rhsMax =  -1.33177913141935E-11  1.03562767859463E-01
 cg2d: Sum(rhs),rhsMax =  -1.32619470960549E-11  1.04811209068370E-01
 cg2d: Sum(rhs),rhsMax =  -1.32177602196748E-11  1.06031462569041E-01
 cg2d: Sum(rhs),rhsMax =  -1.31560318195056E-11  1.07223196035694E-01
 cg2d: Sum(rhs),rhsMax =  -1.30806476761336E-11  1.08386069740353E-01
 cg2d: Sum(rhs),rhsMax =  -1.30060406888788E-11  1.09519737652204E-01
 cg2d: Sum(rhs),rhsMax =  -1.29393162850988E-11  1.10623849107149E-01
 cg2d: Sum(rhs),rhsMax =  -1.28984600777926E-11  1.11698050775024E-01
 cg2d: Sum(rhs),rhsMax =  -1.28296262502658E-11  1.12741988649466E-01
 cg2d: Sum(rhs),rhsMax =  -1.27950983142000E-11  1.13755309807526E-01
 cg2d: Sum(rhs),rhsMax =  -1.27439170327648E-11  1.14737663730492E-01
 cg2d: Sum(rhs),rhsMax =  -1.27132748772851E-11  1.15688703040099E-01
 cg2d: Sum(rhs),rhsMax =  -1.26803012534538E-11  1.16608083579345E-01
 cg2d: Sum(rhs),rhsMax =  -1.26357813101663E-11  1.17495463846536E-01
 cg2d: Sum(rhs),rhsMax =  -1.25904842107616E-11  1.18350503876118E-01
 cg2d: Sum(rhs),rhsMax =  -1.25756072222316E-11  1.19172863714729E-01
 cg2d: Sum(rhs),rhsMax =  -1.25323085242712E-11  1.19962201706580E-01
 cg2d: Sum(rhs),rhsMax =  -1.25178756249511E-11  1.20718172836260E-01
 cg2d: Sum(rhs),rhsMax =  -1.24784627075769E-11  1.21440427378521E-01
 cg2d: Sum(rhs),rhsMax =  -1.24685817226577E-11  1.22128610086653E-01
 cg2d: Sum(rhs),rhsMax =  -1.24588117600410E-11  1.22782360110127E-01
 cg2d: Sum(rhs),rhsMax =  -1.24292798275860E-11  1.23401311772559E-01
 cg2d: Sum(rhs),rhsMax =  -1.24790178190892E-11  1.23985096268817E-01
 cg2d: Sum(rhs),rhsMax =  -1.25147670004822E-11  1.24533344262938E-01
 cg2d: Sum(rhs),rhsMax =  -1.26413324252894E-11  1.25045689294556E-01
 cg2d: Sum(rhs),rhsMax =  -1.26332277972097E-11  1.25521771836794E-01
 cg2d: Sum(rhs),rhsMax =  -1.26472166073199E-11  1.25961243786129E-01
 cg2d: Sum(rhs),rhsMax =  -1.26563204361219E-11  1.26363773219826E-01
 cg2d: Sum(rhs),rhsMax =  -1.26761934282626E-11  1.26729049136491E-01
 cg2d: Sum(rhs),rhsMax =  -1.26876287254163E-11  1.27056785970029E-01
 cg2d: Sum(rhs),rhsMax =  -1.26848531678547E-11  1.27346727702784E-01
 cg2d: Sum(rhs),rhsMax =  -1.26945121081690E-11  1.27598651448738E-01
 cg2d: Sum(rhs),rhsMax =  -1.27177157693836E-11  1.27812370445311E-01
 cg2d: Sum(rhs),rhsMax =  -1.27498012147953E-11  1.27987736367733E-01
 cg2d: Sum(rhs),rhsMax =  -1.27712285191706E-11  1.28124640976125E-01
 cg2d: Sum(rhs),rhsMax =  -1.27641230918130E-11  1.28223017141261E-01
 cg2d: Sum(rhs),rhsMax =  -1.27359234269875E-11  1.28282839269287E-01
 cg2d: Sum(rhs),rhsMax =  -1.27478028133510E-11  1.28304123136483E-01
 cg2d: Sum(rhs),rhsMax =  -1.28210775329762E-11  1.28286925126726E-01
 cg2d: Sum(rhs),rhsMax =  -1.27362564938949E-11  1.28231340840872E-01
 cg2d: Sum(rhs),rhsMax =  -1.27732269206149E-11  1.28137503032636E-01
 cg2d: Sum(rhs),rhsMax =  -1.28809185540035E-11  1.28005578789564E-01
 cg2d: Sum(rhs),rhsMax =  -1.29708466189982E-11  1.27835765896271E-01
 cg2d: Sum(rhs),rhsMax =  -1.29393162850988E-11  1.27628288340656E-01
 cg2d: Sum(rhs),rhsMax =  -1.28625998740972E-11  1.27383390970318E-01
 cg2d: Sum(rhs),rhsMax =  -1.28599353388381E-11  1.27101333361857E-01
 cg2d: Sum(rhs),rhsMax =  -1.28791421971641E-11  1.26782383048062E-01
 cg2d: Sum(rhs),rhsMax =  -1.28952404310212E-11  1.26426808340780E-01
 cg2d: Sum(rhs),rhsMax =  -1.29150024008595E-11  1.26034871076995E-01
 cg2d: Sum(rhs),rhsMax =  -1.28965726986507E-11  1.25606819691514E-01
 cg2d: Sum(rhs),rhsMax =  -1.28782540187444E-11  1.25142883064187E-01
 cg2d: Sum(rhs),rhsMax =  -1.28682620115228E-11  1.24643265606716E-01
 cg2d: Sum(rhs),rhsMax =  -1.28812516209109E-11  1.24108144086481E-01
 cg2d: Sum(rhs),rhsMax =  -1.29323218800437E-11  1.23537666501889E-01
 cg2d: Sum(rhs),rhsMax =  -1.29858346298306E-11  1.22931953276960E-01
 cg2d: Sum(rhs),rhsMax =  -1.30302435508156E-11  1.22291100899126E-01
 cg2d: Sum(rhs),rhsMax =  -1.30413457810619E-11  1.21615187955096E-01
 cg2d: Sum(rhs),rhsMax =  -1.30909727502626E-11  1.20904283340063E-01
 cg2d: Sum(rhs),rhsMax =  -1.31042954265581E-11  1.20158456244082E-01
 cg2d: Sum(rhs),rhsMax =  -1.31334942921058E-11  1.19377787373654E-01
 cg2d: Sum(rhs),rhsMax =  -1.31525901281293E-11  1.18562380754806E-01
 cg2d: Sum(rhs),rhsMax =  -1.31766819677637E-11  1.17712375407127E-01
 cg2d: Sum(rhs),rhsMax =  -1.31999966512808E-11  1.16827956177948E-01
 cg2d: Sum(rhs),rhsMax =  -1.32570621147465E-11  1.15909363027295E-01
 cg2d: Sum(rhs),rhsMax =  -1.33119071321630E-11  1.14956898257881E-01
 cg2d: Sum(rhs),rhsMax =  -1.33363320387048E-11  1.13970931222423E-01
 cg2d: Sum(rhs),rhsMax =  -1.33937305690779E-11  1.12951900224144E-01
 cg2d: Sum(rhs),rhsMax =  -1.33973943050592E-11  1.11900311517060E-01
 cg2d: Sum(rhs),rhsMax =  -1.34423583375565E-11  1.10816735492705E-01
 cg2d: Sum(rhs),rhsMax =  -1.34914301952449E-11  1.09701800303396E-01
 cg2d: Sum(rhs),rhsMax =  -1.35393918299087E-11  1.08556183309827E-01
 cg2d: Sum(rhs),rhsMax =  -1.35789157695854E-11  1.07380600838179E-01
 cg2d: Sum(rhs),rhsMax =  -1.36082256574355E-11  1.06175796802210E-01
 cg2d: Sum(rhs),rhsMax =  -1.36817224216657E-11  1.04942530780062E-01
 cg2d: Sum(rhs),rhsMax =  -1.37713174197529E-11  1.03681566138978E-01
 cg2d: Sum(rhs),rhsMax =  -1.38873357258262E-11  1.02393658661267E-01
 cg2d: Sum(rhs),rhsMax =  -1.40194522657566E-11  1.01079546244873E-01
 cg2d: Sum(rhs),rhsMax =  -1.41372469286694E-11  9.97399400630526E-02
 cg2d: Sum(rhs),rhsMax =  -1.42614808851249E-11  9.83755174888228E-02
 cg2d: Sum(rhs),rhsMax =  -1.44130263279862E-11  9.69869169960233E-02
 cg2d: Sum(rhs),rhsMax =  -1.45364831283246E-11  9.55747351581821E-02
 cg2d: Sum(rhs),rhsMax =  -1.46790357646864E-11  9.41395257752384E-02
 cg2d: Sum(rhs),rhsMax =  -1.48647760767062E-11  9.26818010711924E-02
 cg2d: Sum(rhs),rhsMax =  -1.50292001066532E-11  9.12020348255913E-02
 cg2d: Sum(rhs),rhsMax =  -1.51932910696928E-11  8.97006672296655E-02
 cg2d: Sum(rhs),rhsMax =  -1.53761448018486E-11  8.81781111951857E-02
 cg2d: Sum(rhs),rhsMax =  -1.55805368606821E-11  8.66347597922302E-02
 cg2d: Sum(rhs),rhsMax =  -1.57720503324299E-11  8.50709944527448E-02
 cg2d: Sum(rhs),rhsMax =  -1.59778856811954E-11  8.34871935517875E-02
 cg2d: Sum(rhs),rhsMax =  -1.61767266249058E-11  8.18837409693990E-02
 cg2d: Sum(rhs),rhsMax =  -1.64260827162366E-11  8.02610342445879E-02
 cg2d: Sum(rhs),rhsMax =  -1.66742175622403E-11  7.86194919598132E-02
 cg2d: Sum(rhs),rhsMax =  -1.69193548060775E-11  7.69595600395009E-02
 cg2d: Sum(rhs),rhsMax =  -1.72052372349185E-11  7.52817167090524E-02
 cg2d: Sum(rhs),rhsMax =  -1.75017778047959E-11  7.35864759346785E-02
 cg2d: Sum(rhs),rhsMax =  -1.78780323878414E-11  7.18743892533440E-02
 cg2d: Sum(rhs),rhsMax =  -1.82717174723734E-11  7.01460459949077E-02
 cg2d: Sum(rhs),rhsMax =  -1.86904935972620E-11  6.84020719797809E-02
 cg2d: Sum(rhs),rhsMax =  -1.91163751495083E-11  6.66431268792511E-02
 cg2d: Sum(rhs),rhsMax =  -1.96045402134359E-11  6.48699005200161E-02
 cg2d: Sum(rhs),rhsMax =  -2.01016980838631E-11  6.30831083852079E-02
 cg2d: Sum(rhs),rhsMax =  -2.06569206184781E-11  6.12834866519520E-02
 cg2d: Sum(rhs),rhsMax =  -2.12393436171965E-11  5.94717871154815E-02
 cg2d: Sum(rhs),rhsMax =  -2.18420836972655E-11  5.76487723337020E-02
 cg2d: Sum(rhs),rhsMax =  -2.25144347609785E-11  5.58152112868352E-02
 cg2d: Sum(rhs),rhsMax =  -2.32318608794913E-11  5.39718757902046E-02
 cg2d: Sum(rhs),rhsMax =  -2.39912534283349E-11  5.21195378376551E-02
 cg2d: Sum(rhs),rhsMax =  -2.48085996190639E-11  5.02589679496342E-02
 cg2d: Sum(rhs),rhsMax =  -2.57122101388063E-11  4.83909345601464E-02
 cg2d: Sum(rhs),rhsMax =  -2.66587862896017E-11  4.65162043929205E-02
 cg2d: Sum(rhs),rhsMax =  -2.77178280327917E-11  4.46355437099315E-02
 cg2d: Sum(rhs),rhsMax =  -2.88586932128965E-11  4.27497202639695E-02
 cg2d: Sum(rhs),rhsMax =  -3.01267899516233E-11  4.08595057505458E-02
 cg2d: Sum(rhs),rhsMax =  -3.15105719295161E-11  3.89656785338497E-02
 cg2d: Sum(rhs),rhsMax =  -3.30128147041364E-11  3.70690264156980E-02
 cg2d: Sum(rhs),rhsMax =  -3.46994655231470E-11  3.51703492248776E-02
 cg2d: Sum(rhs),rhsMax =  -3.65559804649251E-11  3.32704610254045E-02
 cg2d: Sum(rhs),rhsMax =  -3.88203913459506E-11  3.13701917736251E-02
 cg2d: Sum(rhs),rhsMax =  -4.12355705137202E-11  2.94703882933033E-02
 cg2d: Sum(rhs),rhsMax =  -4.40565361969902E-11  2.75719144919424E-02
 cg2d: Sum(rhs),rhsMax =  -4.72626382475028E-11  2.56756507489833E-02
 cg2d: Sum(rhs),rhsMax =  -5.09670083914671E-11  2.37824925195909E-02
 cg2d: Sum(rhs),rhsMax =  -5.53043166817702E-11  2.18933482127328E-02
 cg2d: Sum(rhs),rhsMax =  -6.04442607077260E-11  2.00091364474331E-02
 cg2d: Sum(rhs),rhsMax =  -6.44143072214831E-11  1.87543292219250E-02
 cg2d: Sum(rhs),rhsMax =  -6.06796279889465E-11  1.98867709063488E-02
 cg2d: Sum(rhs),rhsMax =  -5.72241420915276E-11  2.10582067359058E-02
 cg2d: Sum(rhs),rhsMax =  -5.40585354258383E-11  2.22635896666586E-02
 cg2d: Sum(rhs),rhsMax =  -5.12640485617055E-11  2.34594069758105E-02
 cg2d: Sum(rhs),rhsMax =  -4.87531850827672E-11  2.46452286726857E-02
 cg2d: Sum(rhs),rhsMax =  -4.64704108527059E-11  2.58206358940919E-02
 cg2d: Sum(rhs),rhsMax =  -4.44134312660438E-11  2.69852145975062E-02
 cg2d: Sum(rhs),rhsMax =  -4.25448565266606E-11  2.81385575980776E-02
 cg2d: Sum(rhs),rhsMax =  -4.08242051275209E-11  2.92802645180059E-02
 cg2d: Sum(rhs),rhsMax =  -3.91988663750453E-11  3.04099463702405E-02
 cg2d: Sum(rhs),rhsMax =  -3.77363140735554E-11  3.15272270556783E-02
 cg2d: Sum(rhs),rhsMax =  -3.63966634608914E-11  3.26317107633833E-02
 cg2d: Sum(rhs),rhsMax =  -3.51439988222069E-11  3.37230326669587E-02
 cg2d: Sum(rhs),rhsMax =  -3.39971939489203E-11  3.48008350195884E-02
 cg2d: Sum(rhs),rhsMax =  -3.29392069176038E-11  3.58647571970571E-02
 cg2d: Sum(rhs),rhsMax =  -3.19526627379219E-11  3.69144352809487E-02
 cg2d: Sum(rhs),rhsMax =  -3.10237946443692E-11  3.79495074698635E-02
 cg2d: Sum(rhs),rhsMax =  -3.01618174880502E-11  3.89696095427759E-02
 cg2d: Sum(rhs),rhsMax =  -2.93902679970870E-11  3.99743631146258E-02
 cg2d: Sum(rhs),rhsMax =  -2.86184409503676E-11  4.09633772096610E-02
 cg2d: Sum(rhs),rhsMax =  -2.79338774333837E-11  4.19363117298973E-02
 cg2d: Sum(rhs),rhsMax =  -2.72568634329673E-11  4.28927792146637E-02
 cg2d: Sum(rhs),rhsMax =  -2.66239252866285E-11  4.38323413818881E-02
 cg2d: Sum(rhs),rhsMax =  -2.60177435151832E-11  4.47545156054624E-02
 cg2d: Sum(rhs),rhsMax =  -2.54464227467111E-11  4.56587990991229E-02
 cg2d: Sum(rhs),rhsMax =  -2.49436027388583E-11  4.65446873163931E-02
 cg2d: Sum(rhs),rhsMax =  -2.44432252216598E-11  4.74116827005273E-02
 cg2d: Sum(rhs),rhsMax =  -2.39542830016148E-11  4.82592924977142E-02
 cg2d: Sum(rhs),rhsMax =  -2.35219621558258E-11  4.90870496231970E-02
 cg2d: Sum(rhs),rhsMax =  -2.31197283540041E-11  4.98944947156828E-02
 cg2d: Sum(rhs),rhsMax =  -2.27229346450031E-11  5.06811965393068E-02
 cg2d: Sum(rhs),rhsMax =  -2.23073781668859E-11  5.14467565678209E-02
 cg2d: Sum(rhs),rhsMax =  -2.19431139925064E-11  5.21907972585087E-02
 cg2d: Sum(rhs),rhsMax =  -2.16064943714400E-11  5.29129480179731E-02
 cg2d: Sum(rhs),rhsMax =  -2.12542206057265E-11  5.36128636323058E-02
 cg2d: Sum(rhs),rhsMax =  -2.09150474717035E-11  5.42902511584567E-02
 cg2d: Sum(rhs),rhsMax =  -2.06044070694134E-11  5.49448627158890E-02
 cg2d: Sum(rhs),rhsMax =  -2.03222993988561E-11  5.55764807998313E-02
 cg2d: Sum(rhs),rhsMax =  -2.00420791074407E-11  5.61849094124714E-02
 cg2d: Sum(rhs),rhsMax =  -1.97646343735869E-11  5.67699686408094E-02
 cg2d: Sum(rhs),rhsMax =  -1.95181648621201E-11  5.73314912360931E-02
 cg2d: Sum(rhs),rhsMax =  -1.92661442355302E-11  5.78693197767797E-02
 cg2d: Sum(rhs),rhsMax =  -1.90465421212593E-11  5.83833038451358E-02
 cg2d: Sum(rhs),rhsMax =  -1.88269400069885E-11  5.88732969888191E-02
 cg2d: Sum(rhs),rhsMax =  -1.86349824460308E-11  5.93391537612810E-02
 cg2d: Sum(rhs),rhsMax =  -1.84426918181657E-11  5.97807082245818E-02
 cg2d: Sum(rhs),rhsMax =  -1.82458492758997E-11  6.01978069711583E-02
 cg2d: Sum(rhs),rhsMax =  -1.80826464912798E-11  6.05903167890416E-02
 cg2d: Sum(rhs),rhsMax =  -1.78694836705517E-11  6.09580740979354E-02
 cg2d: Sum(rhs),rhsMax =  -1.76848535815566E-11  6.13009194488508E-02
 cg2d: Sum(rhs),rhsMax =  -1.75059966522895E-11  6.16187098895151E-02
 cg2d: Sum(rhs),rhsMax =  -1.73392411539908E-11  6.19113128026051E-02
 cg2d: Sum(rhs),rhsMax =  -1.74829040133773E-11  6.21785970163496E-02
 cg2d: Sum(rhs),rhsMax =  -1.73802083835994E-11  6.24204280300662E-02
 cg2d: Sum(rhs),rhsMax =  -1.73779879375502E-11  6.26366644770808E-02
 cg2d: Sum(rhs),rhsMax =  -1.73105973999554E-11  6.28271609018298E-02
 cg2d: Sum(rhs),rhsMax =  -1.72603042969399E-11  6.29917701390958E-02
 cg2d: Sum(rhs),rhsMax =  -1.72044600788013E-11  6.31303454852130E-02
 cg2d: Sum(rhs),rhsMax =  -1.71896941125738E-11  6.32427409135560E-02
 cg2d: Sum(rhs),rhsMax =  -1.71850311758703E-11  6.33288122943769E-02
 cg2d: Sum(rhs),rhsMax =  -1.72125647068810E-11  6.33884202021117E-02
 cg2d: Sum(rhs),rhsMax =  -1.71591629793966E-11  6.34214342424107E-02
 cg2d: Sum(rhs),rhsMax =  -1.70596869963902E-11  6.34277646053473E-02
 cg2d: Sum(rhs),rhsMax =  -1.70946590216658E-11  6.34073880995721E-02
 cg2d: Sum(rhs),rhsMax =  -1.71963554507215E-11  6.33602735449752E-02
 cg2d: Sum(rhs),rhsMax =  -1.72539760256996E-11  6.32863799633014E-02
 cg2d: Sum(rhs),rhsMax =  -1.72463154868296E-11  6.31856804945781E-02
 cg2d: Sum(rhs),rhsMax =  -1.73048242402274E-11  6.30581791654531E-02
 cg2d: Sum(rhs),rhsMax =  -1.73391301316883E-11  6.29039161993667E-02
 cg2d: Sum(rhs),rhsMax =  -1.74210645909056E-11  6.27229642908074E-02
 cg2d: Sum(rhs),rhsMax =  -1.75116587897151E-11  6.25154099987108E-02
 cg2d: Sum(rhs),rhsMax =  -1.76231251813874E-11  6.22813619123954E-02
 cg2d: Sum(rhs),rhsMax =  -1.77288184133317E-11  6.20209469394667E-02
 cg2d: Sum(rhs),rhsMax =  -1.78516090798553E-11  6.17343019099029E-02
 cg2d: Sum(rhs),rhsMax =  -1.80118142623087E-11  6.14215714232776E-02
 cg2d: Sum(rhs),rhsMax =  -1.81501480511770E-11  6.10829027650470E-02
 cg2d: Sum(rhs),rhsMax =  -1.83409953891100E-11  6.07184325905517E-02
 cg2d: Sum(rhs),rhsMax =  -1.85412796227524E-11  6.03282722990073E-02
 cg2d: Sum(rhs),rhsMax =  -1.87503346182893E-11  5.99125141884810E-02
 cg2d: Sum(rhs),rhsMax =  -1.89442905806914E-11  5.94712707519365E-02
 cg2d: Sum(rhs),rhsMax =  -1.91561211337898E-11  5.90046597828209E-02
 cg2d: Sum(rhs),rhsMax =  -1.93682847537957E-11  5.85128045361880E-02
 cg2d: Sum(rhs),rhsMax =  -1.95745641917711E-11  5.79958442190092E-02
 cg2d: Sum(rhs),rhsMax =  -1.98097094283867E-11  5.74539390358581E-02
 cg2d: Sum(rhs),rhsMax =  -2.00606198319520E-11  5.68872838516995E-02
 cg2d: Sum(rhs),rhsMax =  -2.03270733578620E-11  5.62960852377618E-02
 cg2d: Sum(rhs),rhsMax =  -2.05856443002972E-11  5.56805635175209E-02
 cg2d: Sum(rhs),rhsMax =  -2.09176009846601E-11  5.50409662674305E-02
 cg2d: Sum(rhs),rhsMax =  -2.12132533761178E-11  5.43775681455423E-02
 cg2d: Sum(rhs),rhsMax =  -2.15681916770905E-11  5.36906550069748E-02
 cg2d: Sum(rhs),rhsMax =  -2.19236850895754E-11  5.29805436577300E-02
 cg2d: Sum(rhs),rhsMax =  -2.23415730360443E-11  5.22476050893022E-02
 cg2d: Sum(rhs),rhsMax =  -2.27284857601262E-11  5.14922636297943E-02
 cg2d: Sum(rhs),rhsMax =  -2.31802355088462E-11  5.07149848048859E-02
 cg2d: Sum(rhs),rhsMax =  -2.36198838265977E-11  4.99162638629444E-02
 cg2d: Sum(rhs),rhsMax =  -2.40902853221314E-11  4.90966239555237E-02
 cg2d: Sum(rhs),rhsMax =  -2.46455078567465E-11  4.82566290035914E-02
 cg2d: Sum(rhs),rhsMax =  -2.51129117501137E-11  4.73968520137244E-02
 cg2d: Sum(rhs),rhsMax =  -2.56301646572865E-11  4.65178305357718E-02
 cg2d: Sum(rhs),rhsMax =  -2.61317634198122E-11  4.56200846240746E-02
 cg2d: Sum(rhs),rhsMax =  -2.67279531840359E-11  4.47040846055377E-02
 cg2d: Sum(rhs),rhsMax =  -2.72969424841563E-11  4.37702506878281E-02
 cg2d: Sum(rhs),rhsMax =  -2.79974932126947E-11  4.28189486274661E-02
 cg2d: Sum(rhs),rhsMax =  -2.86978218966283E-11  4.18504899668430E-02
 cg2d: Sum(rhs),rhsMax =  -2.94312352266957E-11  4.08651566934663E-02
 cg2d: Sum(rhs),rhsMax =  -3.02150526820810E-11  3.98632014401925E-02
 cg2d: Sum(rhs),rhsMax =  -3.10692582772276E-11  3.88448447806100E-02
 cg2d: Sum(rhs),rhsMax =  -3.20066195769186E-11  3.78102778525115E-02
 cg2d: Sum(rhs),rhsMax =  -3.29771765450459E-11  3.67596722655306E-02
 cg2d: Sum(rhs),rhsMax =  -3.39968053708617E-11  3.56931926466349E-02
 cg2d: Sum(rhs),rhsMax =  -3.51108031537706E-11  3.46110101518411E-02
 cg2d: Sum(rhs),rhsMax =  -3.63205021614021E-11  3.35133147236091E-02
 cg2d: Sum(rhs),rhsMax =  -3.74238418032746E-11  3.25988352276579E-02
 cg2d: Sum(rhs),rhsMax =  -3.85879106445941E-11  3.16768324471991E-02
 cg2d: Sum(rhs),rhsMax =  -3.98387989264393E-11  3.07398082777769E-02
 cg2d: Sum(rhs),rhsMax =  -4.11797262955815E-11  2.97881888168187E-02
 cg2d: Sum(rhs),rhsMax =  -4.26595980762556E-11  2.88224338885157E-02
 cg2d: Sum(rhs),rhsMax =  -4.42209047157860E-11  2.78430611216923E-02
 cg2d: Sum(rhs),rhsMax =  -4.59536853014697E-11  2.68506460712858E-02
 cg2d: Sum(rhs),rhsMax =  -4.78780903812037E-11  2.58458294107528E-02
 cg2d: Sum(rhs),rhsMax =  -4.98733276899088E-11  2.48292622577290E-02
 cg2d: Sum(rhs),rhsMax =  -5.20763987488237E-11  2.38015970826248E-02
 cg2d: Sum(rhs),rhsMax =  -5.45030687248982E-11  2.27634991965713E-02
 cg2d: Sum(rhs),rhsMax =  -5.71323544029667E-11  2.17156521665938E-02
 cg2d: Sum(rhs),rhsMax =  -6.01469846150948E-11  2.06587520552442E-02
 cg2d: Sum(rhs),rhsMax =  -6.34678629096719E-11  1.95934974367160E-02
 cg2d: Sum(rhs),rhsMax =  -6.71944860863860E-11  1.85205892945156E-02
 cg2d: Sum(rhs),rhsMax =  -7.14254211331422E-11  1.74407037899271E-02
 cg2d: Sum(rhs),rhsMax =  -7.62289953382123E-11  1.63544811396370E-02
 cg2d: Sum(rhs),rhsMax =  -7.52755635602398E-11  1.65695330432495E-02
 cg2d: Sum(rhs),rhsMax =  -6.90147383686224E-11  1.80909480170885E-02
 cg2d: Sum(rhs),rhsMax =  -6.36460328884425E-11  1.96366925158238E-02
 cg2d: Sum(rhs),rhsMax =  -5.89406301543249E-11  2.12170762161295E-02
 cg2d: Sum(rhs),rhsMax =  -5.48577849812659E-11  2.28265524614198E-02
 cg2d: Sum(rhs),rhsMax =  -5.12340170288894E-11  2.44609293442220E-02
 cg2d: Sum(rhs),rhsMax =  -4.79724038271456E-11  2.61453993114158E-02
 cg2d: Sum(rhs),rhsMax =  -4.50225412507166E-11  2.78835773922479E-02
 cg2d: Sum(rhs),rhsMax =  -4.24612567329063E-11  2.96235506199363E-02
 cg2d: Sum(rhs),rhsMax =  -4.01804145511164E-11  3.13650594374488E-02
 cg2d: Sum(rhs),rhsMax =  -3.81492615275647E-11  3.31078369965163E-02
 cg2d: Sum(rhs),rhsMax =  -3.63155061577913E-11  3.48515958072400E-02
 cg2d: Sum(rhs),rhsMax =  -3.46204176437936E-11  3.65960156427341E-02
 cg2d: Sum(rhs),rhsMax =  -3.31455973778816E-11  3.83407331277831E-02
 cg2d: Sum(rhs),rhsMax =  -3.17649240244577E-11  4.00853333291494E-02
 cg2d: Sum(rhs),rhsMax =  -3.05004910217122E-11  4.18293435485586E-02
 cg2d: Sum(rhs),rhsMax =  -2.93309820875720E-11  4.35722294055650E-02
 cg2d: Sum(rhs),rhsMax =  -2.82779355487150E-11  4.53133931936870E-02
 cg2d: Sum(rhs),rhsMax =  -2.72762923358982E-11  4.70521743976881E-02
 cg2d: Sum(rhs),rhsMax =  -2.63565835822988E-11  4.87878522268014E-02
 cg2d: Sum(rhs),rhsMax =  -2.54943843813749E-11  5.05196499124010E-02
 cg2d: Sum(rhs),rhsMax =  -2.46899167777315E-11  5.22467405217344E-02
 cg2d: Sum(rhs),rhsMax =  -2.39903652499152E-11  5.39682540264875E-02
 cg2d: Sum(rhs),rhsMax =  -2.32835972724388E-11  5.56832853625121E-02
 cg2d: Sum(rhs),rhsMax =  -2.26305640893543E-11  5.73909032222323E-02
 cg2d: Sum(rhs),rhsMax =  -2.20367057934823E-11  5.90901593314202E-02
 cg2d: Sum(rhs),rhsMax =  -2.14709361401333E-11  6.07800979737670E-02
 cg2d: Sum(rhs),rhsMax =  -2.09244843674128E-11  6.24597655368563E-02
 cg2d: Sum(rhs),rhsMax =  -2.04055661257030E-11  6.41282198599510E-02
 cg2d: Sum(rhs),rhsMax =  -1.99107397236276E-11  6.57845391673645E-02
 cg2d: Sum(rhs),rhsMax =  -1.95389260326806E-11  6.74278303727763E-02
 cg2d: Sum(rhs),rhsMax =  -1.91844318209178E-11  6.90572365425803E-02
 cg2d: Sum(rhs),rhsMax =  -1.88113968846437E-11  7.06719433064038E-02
 cg2d: Sum(rhs),rhsMax =  -1.84927628765763E-11  7.22711840466766E-02
 cg2d: Sum(rhs),rhsMax =  -1.81985537750506E-11  7.38542436925228E-02
 cg2d: Sum(rhs),rhsMax =  -1.78690395813419E-11  7.54204609813438E-02
 cg2d: Sum(rhs),rhsMax =  -1.76377801253125E-11  7.69692291237103E-02
 cg2d: Sum(rhs),rhsMax =  -1.73568937000823E-11  7.84999948609837E-02
 cg2d: Sum(rhs),rhsMax =  -1.70919944864067E-11  8.00122559690235E-02
 cg2d: Sum(rhs),rhsMax =  -1.68652869447783E-11  8.15055573305809E-02
 cg2d: Sum(rhs),rhsMax =  -1.66022751102446E-11  8.29794857586226E-02
 cg2d: Sum(rhs),rhsMax =  -1.63877800218870E-11  8.44336638128441E-02
 cg2d: Sum(rhs),rhsMax =  -1.61819446731215E-11  8.58677428933829E-02
 cg2d: Sum(rhs),rhsMax =  -1.59726676329797E-11  8.72813959192034E-02
 cg2d: Sum(rhs),rhsMax =  -1.57934776368052E-11  8.86743099021662E-02
 cg2d: Sum(rhs),rhsMax =  -1.56179513766119E-11  9.00461787119493E-02
 cg2d: Sum(rhs),rhsMax =  -1.54485313430541E-11  9.13966962942549E-02
 cg2d: Sum(rhs),rhsMax =  -1.52949874987485E-11  9.27255505567616E-02
 cg2d: Sum(rhs),rhsMax =  -1.51207935061848E-11  9.40324180810914E-02
 cg2d: Sum(rhs),rhsMax =  -1.49538159632812E-11  9.53169597603642E-02
 cg2d: Sum(rhs),rhsMax =  -1.48474565975221E-11  9.65788174001601E-02
 cg2d: Sum(rhs),rhsMax =  -1.46985756899198E-11  9.78176112687183E-02
 cg2d: Sum(rhs),rhsMax =  -1.45446987787068E-11  9.90329385410878E-02
 cg2d: Sum(rhs),rhsMax =  -1.44523282230580E-11  1.00224372553819E-01
 cg2d: Sum(rhs),rhsMax =  -1.44313450078926E-11  1.01391462772769E-01
 cg2d: Sum(rhs),rhsMax =  -1.44214640229734E-11  1.02533735376592E-01
 cg2d: Sum(rhs),rhsMax =  -1.44103617927271E-11  1.03650694370881E-01
 cg2d: Sum(rhs),rhsMax =  -1.43361988946822E-11  1.04741823169650E-01
 cg2d: Sum(rhs),rhsMax =  -1.42964529104006E-11  1.05806586607610E-01
 cg2d: Sum(rhs),rhsMax =  -1.42704736916244E-11  1.06844433373656E-01
 cg2d: Sum(rhs),rhsMax =  -1.42400535807496E-11  1.07854798878183E-01
 cg2d: Sum(rhs),rhsMax =  -1.41771039352534E-11  1.08837108579924E-01
 cg2d: Sum(rhs),rhsMax =  -1.41594513891619E-11  1.09790781798594E-01
 cg2d: Sum(rhs),rhsMax =  -1.41472389358910E-11  1.10715236025994E-01
 cg2d: Sum(rhs),rhsMax =  -1.40605305176678E-11  1.11609891720202E-01
 cg2d: Sum(rhs),rhsMax =  -1.40221168010157E-11  1.12474177527232E-01
 cg2d: Sum(rhs),rhsMax =  -1.39916966901410E-11  1.13307535826853E-01
 cg2d: Sum(rhs),rhsMax =  -1.39680489397165E-11  1.14109428450431E-01
 cg2d: Sum(rhs),rhsMax =  -1.39162015244665E-11  1.14879342348540E-01
 cg2d: Sum(rhs),rhsMax =  -1.39104283647384E-11  1.15616794985726E-01
 cg2d: Sum(rhs),rhsMax =  -1.38551392581121E-11  1.16321339199705E-01
 cg2d: Sum(rhs),rhsMax =  -1.38086209133803E-11  1.16992567260110E-01
 cg2d: Sum(rhs),rhsMax =  -1.37887479212395E-11  1.17630113890843E-01
 cg2d: Sum(rhs),rhsMax =  -1.37760913787588E-11  1.18233658069060E-01
 cg2d: Sum(rhs),rhsMax =  -1.37330147254033E-11  1.18802923482819E-01
 cg2d: Sum(rhs),rhsMax =  -1.37905242780789E-11  1.19337677612960E-01
 cg2d: Sum(rhs),rhsMax =  -1.38489220091742E-11  1.19837729495326E-01
 cg2d: Sum(rhs),rhsMax =  -1.39123157438803E-11  1.20302926297708E-01
 cg2d: Sum(rhs),rhsMax =  -1.38692390905248E-11  1.20733148953702E-01
 cg2d: Sum(rhs),rhsMax =  -1.38977718222577E-11  1.21128307148042E-01
 cg2d: Sum(rhs),rhsMax =  -1.39117606323680E-11  1.21488333945207E-01
 cg2d: Sum(rhs),rhsMax =  -1.39342981597679E-11  1.21813180395276E-01
 cg2d: Sum(rhs),rhsMax =  -1.39388500741688E-11  1.22102810435834E-01
 cg2d: Sum(rhs),rhsMax =  -1.39523947950693E-11  1.22357196382848E-01
 cg2d: Sum(rhs),rhsMax =  -1.40221168010157E-11  1.22576315204180E-01
 cg2d: Sum(rhs),rhsMax =  -1.40433220607861E-11  1.22760145709659E-01
 cg2d: Sum(rhs),rhsMax =  -1.40535361126126E-11  1.22908666767619E-01
 cg2d: Sum(rhs),rhsMax =  -1.40257805369970E-11  1.23021856542190E-01
 cg2d: Sum(rhs),rhsMax =  -1.39630529361057E-11  1.23099692679115E-01
 cg2d: Sum(rhs),rhsMax =  -1.40768507961297E-11  1.23142153315072E-01
 cg2d: Sum(rhs),rhsMax =  -1.41681111287539E-11  1.23149218748503E-01
 cg2d: Sum(rhs),rhsMax =  -1.42519329671131E-11  1.23120873588014E-01
 cg2d: Sum(rhs),rhsMax =  -1.43206557723374E-11  1.23057109185999E-01
 cg2d: Sum(rhs),rhsMax =  -1.43806078156672E-11  1.22957926175724E-01
 cg2d: Sum(rhs),rhsMax =  -1.42887923715307E-11  1.22823336929621E-01
 cg2d: Sum(rhs),rhsMax =  -1.42036382655419E-11  1.22653367778521E-01
 cg2d: Sum(rhs),rhsMax =  -1.41822109611667E-11  1.22448060890158E-01
 cg2d: Sum(rhs),rhsMax =  -1.41877620762898E-11  1.22207475714410E-01
 cg2d: Sum(rhs),rhsMax =  -1.42235112576827E-11  1.21931689936540E-01
 cg2d: Sum(rhs),rhsMax =  -1.42309497519477E-11  1.21620799914388E-01
 cg2d: Sum(rhs),rhsMax =  -1.42303946404354E-11  1.21274920609186E-01
 cg2d: Sum(rhs),rhsMax =  -1.41843203849135E-11  1.20894185038627E-01
 cg2d: Sum(rhs),rhsMax =  -1.41939793252277E-11  1.20478743336359E-01
 cg2d: Sum(rhs),rhsMax =  -1.42040823547518E-11  1.20028761520600E-01
 cg2d: Sum(rhs),rhsMax =  -1.41869849201726E-11  1.19544420030677E-01
 cg2d: Sum(rhs),rhsMax =  -1.41586742330446E-11  1.19025912140123E-01
 cg2d: Sum(rhs),rhsMax =  -1.41603395675816E-11  1.18473442354972E-01
 cg2d: Sum(rhs),rhsMax =  -1.42069689346158E-11  1.17887224897269E-01
 cg2d: Sum(rhs),rhsMax =  -1.42367229116758E-11  1.17267482358785E-01
 cg2d: Sum(rhs),rhsMax =  -1.42788003643091E-11  1.16614444592307E-01
 cg2d: Sum(rhs),rhsMax =  -1.42760248067475E-11  1.15928347891151E-01
 cg2d: Sum(rhs),rhsMax =  -1.43061118507148E-11  1.15209434491259E-01
 cg2d: Sum(rhs),rhsMax =  -1.43496325932801E-11  1.14457952424028E-01
 cg2d: Sum(rhs),rhsMax =  -1.44140255287084E-11  1.13674155730338E-01
 cg2d: Sum(rhs),rhsMax =  -1.44320111417073E-11  1.12858305050301E-01
 cg2d: Sum(rhs),rhsMax =  -1.44773082411120E-11  1.12010668621704E-01
 cg2d: Sum(rhs),rhsMax =  -1.45218281843995E-11  1.11131523702631E-01
 cg2d: Sum(rhs),rhsMax =  -1.45637946147303E-11  1.10221158413765E-01
 cg2d: Sum(rhs),rhsMax =  -1.46087586472277E-11  1.09279874078753E-01
 cg2d: Sum(rhs),rhsMax =  -1.46340717321891E-11  1.08307988005578E-01
 cg2d: Sum(rhs),rhsMax =  -1.46831435898775E-11  1.07305836683541E-01
 cg2d: Sum(rhs),rhsMax =  -1.46986867122223E-11  1.06273779336619E-01
 cg2d: Sum(rhs),rhsMax =  -1.47404310979482E-11  1.05212201726210E-01
 cg2d: Sum(rhs),rhsMax =  -1.47905021563588E-11  1.04121520040670E-01
 cg2d: Sum(rhs),rhsMax =  -1.48511203335033E-11  1.03002184651759E-01
 cg2d: Sum(rhs),rhsMax =  -1.49019685480312E-11  1.01854683476297E-01
 cg2d: Sum(rhs),rhsMax =  -1.50207624116661E-11  1.00679544650751E-01
 cg2d: Sum(rhs),rhsMax =  -1.51552104199482E-11  9.94773382127269E-02
 cg2d: Sum(rhs),rhsMax =  -1.53024259930135E-11  9.82486765007499E-02
 cg2d: Sum(rhs),rhsMax =  -1.54257717710493E-11  9.69942129645921E-02
 cg2d: Sum(rhs),rhsMax =  -1.55687684966210E-11  9.57146392795487E-02
 cg2d: Sum(rhs),rhsMax =  -1.57239776754636E-11  9.44106806763938E-02
 cg2d: Sum(rhs),rhsMax =  -1.58553170592768E-11  9.30830895095213E-02
 cg2d: Sum(rhs),rhsMax =  -1.60359503453833E-11  9.17326372091163E-02
 cg2d: Sum(rhs),rhsMax =  -1.62284630178533E-11  9.03601048892480E-02
 cg2d: Sum(rhs),rhsMax =  -1.63993263413431E-11  8.89662729999721E-02
 cg2d: Sum(rhs),rhsMax =  -1.65822910958013E-11  8.75519105075731E-02
 cg2d: Sum(rhs),rhsMax =  -1.68089986374298E-11  8.61177641552556E-02
 cg2d: Sum(rhs),rhsMax =  -1.69962932616841E-11  8.46645483917470E-02
 cg2d: Sum(rhs),rhsMax =  -1.72342140558612E-11  8.31929365545856E-02
 cg2d: Sum(rhs),rhsMax =  -1.74620318205143E-11  8.17035538575871E-02
 cg2d: Sum(rhs),rhsMax =  -1.76991754585742E-11  8.01969726598558E-02
 cg2d: Sum(rhs),rhsMax =  -1.79404269218253E-11  7.86737103902708E-02
 cg2d: Sum(rhs),rhsMax =  -1.82117654290437E-11  7.71342303718948E-02
 cg2d: Sum(rhs),rhsMax =  -1.84803283787005E-11  7.55789456419723E-02
 cg2d: Sum(rhs),rhsMax =  -1.87507787074992E-11  7.40082257029800E-02
 cg2d: Sum(rhs),rhsMax =  -1.90666371580051E-11  7.24224059774015E-02
 cg2d: Sum(rhs),rhsMax =  -1.93527416314510E-11  7.08217995828523E-02
 cg2d: Sum(rhs),rhsMax =  -1.96811456021351E-11  6.92067109011867E-02
 cg2d: Sum(rhs),rhsMax =  -2.00085503720970E-11  6.75774503025727E-02
 cg2d: Sum(rhs),rhsMax =  -2.02943217786355E-11  6.59343493031552E-02
 cg2d: Sum(rhs),rhsMax =  -2.10066408712350E-11  6.42777753838813E-02
 cg2d: Sum(rhs),rhsMax =  -2.16900941651943E-11  6.26081457156664E-02
 cg2d: Sum(rhs),rhsMax =  -2.23181473302247E-11  6.09259391125756E-02
 cg2d: Sum(rhs),rhsMax =  -2.28861374296230E-11  5.92317055464030E-02
 cg2d: Sum(rhs),rhsMax =  -2.35029773421047E-11  5.75260727432775E-02
 cg2d: Sum(rhs),rhsMax =  -2.41822117885704E-11  5.58097495489000E-02
 cg2d: Sum(rhs),rhsMax =  -2.48828735394113E-11  5.40835259362151E-02
 cg2d: Sum(rhs),rhsMax =  -2.56608068127662E-11  5.23482697047593E-02
 cg2d: Sum(rhs),rhsMax =  -2.64869237653897E-11  5.06049201064363E-02
 cg2d: Sum(rhs),rhsMax =  -2.73817635232376E-11  4.88544788059983E-02
 cg2d: Sum(rhs),rhsMax =  -2.83176815329966E-11  4.70979987023831E-02
 cg2d: Sum(rhs),rhsMax =  -2.93619573099591E-11  4.53365712263663E-02
 cg2d: Sum(rhs),rhsMax =  -3.04807290518738E-11  4.35713127754611E-02
 cg2d: Sum(rhs),rhsMax =  -3.17099679847388E-11  4.18033509482597E-02
 cg2d: Sum(rhs),rhsMax =  -3.30276916926664E-11  4.00338112008427E-02
 cg2d: Sum(rhs),rhsMax =  -3.44859696355115E-11  3.82638044744062E-02
 cg2d: Sum(rhs),rhsMax =  -3.60818042111077E-11  3.64944162452149E-02
 cg2d: Sum(rhs),rhsMax =  -3.78352904562007E-11  3.47266973349135E-02
 cg2d: Sum(rhs),rhsMax =  -3.97695210097027E-11  3.29616567020911E-02
 cg2d: Sum(rhs),rhsMax =  -4.19173584731425E-11  3.12002563233159E-02
 cg2d: Sum(rhs),rhsMax =  -4.43185488308018E-11  2.94434081701467E-02
 cg2d: Sum(rhs),rhsMax =  -4.70044003719750E-11  2.76919732022690E-02
 cg2d: Sum(rhs),rhsMax =  -5.01266805841283E-11  2.59467622319865E-02
 cg2d: Sum(rhs),rhsMax =  -5.36589661592757E-11  2.42085384517010E-02
(PID.TID 0000.0001)      cg2d_init_res =   3.73016211272672E-01
(PID.TID 0000.0001)      cg2d_iters(min,last) =      -1      38
(PID.TID 0000.0001)      cg2d_last_res =   4.06672966253488E-14
(PID.TID 0000.0001) // =======================================================
(PID.TID 0000.0001) // Begin MONITOR dynamic field statistics
(PID.TID 0000.0001) // =======================================================
(PID.TID 0000.0001) %MON time_tsnumber                =                  3840
(PID.TID 0000.0001) %MON time_secondsf                =   5.7600000000000E+04
(PID.TID 0000.0001) %MON dynstat_eta_max              =   3.9574739272674E-03
(PID.TID 0000.0001) %MON dynstat_eta_min              =  -3.8370540862743E-03
(PID.TID 0000.0001) %MON dynstat_eta_mean             =   2.7008810411038E-15
(PID.TID 0000.0001) %MON dynstat_eta_sd               =   2.5349411218654E-03
(PID.TID 0000.0001) %MON dynstat_eta_del2             =   1.1951190020189E-05
(PID.TID 0000.0001) %MON dynstat_uvel_max             =   7.5516605338995E-01
(PID.TID 0000.0001) %MON dynstat_uvel_min             =  -1.2723520376642E-01
(PID.TID 0000.0001) %MON dynstat_uvel_mean            =   1.0987504243802E-01
(PID.TID 0000.0001) %MON dynstat_uvel_sd              =   7.4781052881800E-02
(PID.TID 0000.0001) %MON dynstat_uvel_del2            =   2.1485738024909E-04
(PID.TID 0000.0001) %MON dynstat_vvel_max             =   0.0000000000000E+00
(PID.TID 0000.0001) %MON dynstat_vvel_min             =   0.0000000000000E+00
(PID.TID 0000.0001) %MON dynstat_vvel_mean            =   0.0000000000000E+00
(PID.TID 0000.0001) %MON dynstat_vvel_sd              =   0.0000000000000E+00
(PID.TID 0000.0001) %MON dynstat_vvel_del2            =   0.0000000000000E+00
(PID.TID 0000.0001) %MON dynstat_wvel_max             =   6.2963374423397E-03
(PID.TID 0000.0001) %MON dynstat_wvel_min             =  -1.1882050192814E-02
(PID.TID 0000.0001) %MON dynstat_wvel_mean            =   5.5383515479754E-21
(PID.TID 0000.0001) %MON dynstat_wvel_sd              =   5.9396680723126E-04
(PID.TID 0000.0001) %MON dynstat_wvel_del2            =   1.1413137444608E-05
(PID.TID 0000.0001) %MON dynstat_theta_max            =   1.5000000000009E+01
(PID.TID 0000.0001) %MON dynstat_theta_min            =   9.9999999999934E+00
(PID.TID 0000.0001) %MON dynstat_theta_mean           =   1.2546401806975E+01
(PID.TID 0000.0001) %MON dynstat_theta_sd             =   2.4570417328275E+00
(PID.TID 0000.0001) %MON dynstat_theta_del2           =   1.0772724660273E-03
(PID.TID 0000.0001) %MON dynstat_salt_max             =   3.5000000000000E+01
(PID.TID 0000.0001) %MON dynstat_salt_min             =   3.5000000000000E+01
(PID.TID 0000.0001) %MON dynstat_salt_mean            =   3.5000000000000E+01
(PID.TID 0000.0001) %MON dynstat_salt_sd              =   3.9790393202566E-13
(PID.TID 0000.0001) %MON dynstat_salt_del2            =   0.0000000000000E+00
(PID.TID 0000.0001) %MON dynstat_sst_max              =   1.5000000000000E+01
(PID.TID 0000.0001) %MON dynstat_sst_min              =   1.4999999999998E+01
(PID.TID 0000.0001) %MON dynstat_sst_mean             =   1.4999999999999E+01
(PID.TID 0000.0001) %MON dynstat_sst_sd               =   4.9396576136232E-13
(PID.TID 0000.0001) %MON dynstat_sst_del2             =   1.3104433965464E-14
(PID.TID 0000.0001) %MON dynstat_sss_max              =   3.5000000000000E+01
(PID.TID 0000.0001) %MON dynstat_sss_min              =   3.5000000000000E+01
(PID.TID 0000.0001) %MON dynstat_sss_mean             =   3.5000000000000E+01
(PID.TID 0000.0001) %MON dynstat_sss_sd               =   5.6843418860808E-14
(PID.TID 0000.0001) %MON dynstat_sss_del2             =   0.0000000000000E+00
(PID.TID 0000.0001) %MON forcing_qnet_max             =   0.0000000000000E+00
(PID.TID 0000.0001) %MON forcing_qnet_min             =   0.0000000000000E+00
(PID.TID 0000.0001) %MON forcing_qnet_mean            =   0.0000000000000E+00
(PID.TID 0000.0001) %MON forcing_qnet_sd              =   0.0000000000000E+00
(PID.TID 0000.0001) %MON forcing_qnet_del2            =   0.0000000000000E+00
(PID.TID 0000.0001) %MON forcing_qsw_max              =   0.0000000000000E+00
(PID.TID 0000.0001) %MON forcing_qsw_min              =   0.0000000000000E+00
(PID.TID 0000.0001) %MON forcing_qsw_mean             =   0.0000000000000E+00
(PID.TID 0000.0001) %MON forcing_qsw_sd               =   0.0000000000000E+00
(PID.TID 0000.0001) %MON forcing_qsw_del2             =   0.0000000000000E+00
(PID.TID 0000.0001) %MON forcing_empmr_max            =   0.0000000000000E+00
(PID.TID 0000.0001) %MON forcing_empmr_min            =   0.0000000000000E+00
(PID.TID 0000.0001) %MON forcing_empmr_mean           =   0.0000000000000E+00
(PID.TID 0000.0001) %MON forcing_empmr_sd             =   0.0000000000000E+00
(PID.TID 0000.0001) %MON forcing_empmr_del2           =   0.0000000000000E+00
(PID.TID 0000.0001) %MON forcing_fu_max               =   0.0000000000000E+00
(PID.TID 0000.0001) %MON forcing_fu_min               =   0.0000000000000E+00
(PID.TID 0000.0001) %MON forcing_fu_mean              =   0.0000000000000E+00
(PID.TID 0000.0001) %MON forcing_fu_sd                =   0.0000000000000E+00
(PID.TID 0000.0001) %MON forcing_fu_del2              =   0.0000000000000E+00
(PID.TID 0000.0001) %MON forcing_fv_max               =   0.0000000000000E+00
(PID.TID 0000.0001) %MON forcing_fv_min               =   0.0000000000000E+00
(PID.TID 0000.0001) %MON forcing_fv_mean              =   0.0000000000000E+00
(PID.TID 0000.0001) %MON forcing_fv_sd                =   0.0000000000000E+00
(PID.TID 0000.0001) %MON forcing_fv_del2              =   0.0000000000000E+00
(PID.TID 0000.0001) %MON advcfl_uvel_max              =   5.6637454004247E-02
(PID.TID 0000.0001) %MON advcfl_vvel_max              =   0.0000000000000E+00
(PID.TID 0000.0001) %MON advcfl_wvel_max              =   1.7823075289222E-01
(PID.TID 0000.0001) %MON advcfl_W_hf_max              =   1.7823075289222E-01
(PID.TID 0000.0001) %MON pe_b_mean                    =   1.6183510536704E-07
(PID.TID 0000.0001) %MON ke_max                       =   1.6769078416226E-01
(PID.TID 0000.0001) %MON ke_mean                      =   8.8636538063379E-03
(PID.TID 0000.0001) %MON ke_vol                       =   9.5121673331316E+10
(PID.TID 0000.0001) %MON vort_r_min                   =   0.0000000000000E+00
(PID.TID 0000.0001) %MON vort_r_max                   =   0.0000000000000E+00
(PID.TID 0000.0001) %MON vort_a_mean                  =   0.0000000000000E+00
(PID.TID 0000.0001) %MON vort_a_sd                    =   0.0000000000000E+00
(PID.TID 0000.0001) %MON vort_p_mean                  =   0.0000000000000E+00
(PID.TID 0000.0001) %MON vort_p_sd                    =   0.0000000000000E+00
(PID.TID 0000.0001) %MON surfExpan_theta_mean         =  -2.4240987533113E-18
(PID.TID 0000.0001) %MON surfExpan_salt_mean          =   1.7225207196566E-19
(PID.TID 0000.0001) // =======================================================
(PID.TID 0000.0001) // End MONITOR dynamic field statistics
(PID.TID 0000.0001) // =======================================================
(PID.TID 0000.0001) // =======================================================
(PID.TID 0000.0001) // Begin OBCS MONITOR field statistics
(PID.TID 0000.0001) // =======================================================
(PID.TID 0000.0001) %MON obc_E_uVel_max               =   1.0505355776936E-01
(PID.TID 0000.0001) %MON obc_E_uVel_min               =   1.0505355776936E-01
(PID.TID 0000.0001) %MON obc_E_uVel_mean              =   1.0505355776936E-01
(PID.TID 0000.0001) %MON obc_E_uVel_sd                =  -6.9388939039072E-18
(PID.TID 0000.0001) %MON obc_E_uVel_Int               =   1.0505355776936E+05
(PID.TID 0000.0001) %MON obc_W_uVel_max               =   1.0505355776936E-01
(PID.TID 0000.0001) %MON obc_W_uVel_min               =   1.0505355776936E-01
(PID.TID 0000.0001) %MON obc_W_uVel_mean              =   1.0505355776936E-01
(PID.TID 0000.0001) %MON obc_W_uVel_sd                =  -6.9388939039072E-18
(PID.TID 0000.0001) %MON obc_W_uVel_Int               =   1.0505355776936E+05
(PID.TID 0000.0001) // =======================================================
(PID.TID 0000.0001) // End OBCS MONITOR field statistics
(PID.TID 0000.0001) // =======================================================
 cg2d: Sum(rhs),rhsMax =  -5.77583536554016E-11  2.24780213867197E-02
 cg2d: Sum(rhs),rhsMax =  -6.25149376709544E-11  2.07558920316552E-02
 cg2d: Sum(rhs),rhsMax =  -6.55809295757592E-11  1.97619911614528E-02
 cg2d: Sum(rhs),rhsMax =  -6.22483731227419E-11  2.08809605016269E-02
 cg2d: Sum(rhs),rhsMax =  -5.90748561180021E-11  2.19916363020045E-02
 cg2d: Sum(rhs),rhsMax =  -5.62394297798363E-11  2.30936209820992E-02
 cg2d: Sum(rhs),rhsMax =  -5.36538730111502E-11  2.41865136167846E-02
 cg2d: Sum(rhs),rhsMax =  -5.16165018712988E-11  2.52699068629782E-02
 cg2d: Sum(rhs),rhsMax =  -4.93382001920395E-11  2.63433717822278E-02
 cg2d: Sum(rhs),rhsMax =  -4.72572536658333E-11  2.74064535191034E-02
 cg2d: Sum(rhs),rhsMax =  -4.53612147843785E-11  2.84587296344166E-02
 cg2d: Sum(rhs),rhsMax =  -4.36677916049177E-11  2.94997875363423E-02
 cg2d: Sum(rhs),rhsMax =  -4.20679602264329E-11  3.05292064802474E-02
 cg2d: Sum(rhs),rhsMax =  -4.06315814327485E-11  3.15465514421101E-02
 cg2d: Sum(rhs),rhsMax =  -3.92939014659532E-11  3.25513955050295E-02
 cg2d: Sum(rhs),rhsMax =  -3.80531717247834E-11  3.35433356348317E-02
 cg2d: Sum(rhs),rhsMax =  -3.68818309226526E-11  3.45219936091446E-02
 cg2d: Sum(rhs),rhsMax =  -3.58070795236642E-11  3.54870100877206E-02
 cg2d: Sum(rhs),rhsMax =  -3.48204798328311E-11  3.64380441346767E-02
 cg2d: Sum(rhs),rhsMax =  -3.38712946579278E-11  3.73747707797002E-02
 cg2d: Sum(rhs),rhsMax =  -3.29873905968725E-11  3.82968832602657E-02
 cg2d: Sum(rhs),rhsMax =  -3.21740967201833E-11  3.92040902677870E-02
 cg2d: Sum(rhs),rhsMax =  -3.13727377410089E-11  4.00961088492174E-02
 cg2d: Sum(rhs),rhsMax =  -3.06637493174833E-11  4.09726454418342E-02
 cg2d: Sum(rhs),rhsMax =  -2.99854585605885E-11  4.18333882996881E-02
 cg2d: Sum(rhs),rhsMax =  -2.93580715293729E-11  4.26780501634092E-02
 cg2d: Sum(rhs),rhsMax =  -2.87379009478173E-11  4.35063543263296E-02
 cg2d: Sum(rhs),rhsMax =  -2.81827894355047E-11  4.43180233566866E-02
 cg2d: Sum(rhs),rhsMax =  -2.76062506188168E-11  4.51127716260371E-02
 cg2d: Sum(rhs),rhsMax =  -2.71110911498340E-11  4.58903072979826E-02
 cg2d: Sum(rhs),rhsMax =  -2.66194843945300E-11  4.66503357696173E-02
 cg2d: Sum(rhs),rhsMax =  -2.61791699429637E-11  4.73925578487893E-02
 cg2d: Sum(rhs),rhsMax =  -2.56666909947967E-11  4.81166731698061E-02
 cg2d: Sum(rhs),rhsMax =  -2.51922926963744E-11  4.88223785514698E-02
 cg2d: Sum(rhs),rhsMax =  -2.47203368886062E-11  4.95093651081343E-02
 cg2d: Sum(rhs),rhsMax =  -2.42657005600222E-11  5.01773105328186E-02
 cg2d: Sum(rhs),rhsMax =  -2.38753461445640E-11  5.08258768381328E-02
 cg2d: Sum(rhs),rhsMax =  -2.35064190334811E-11  5.14547132193843E-02
 cg2d: Sum(rhs),rhsMax =  -2.31135111050662E-11  5.20634592843488E-02
 cg2d: Sum(rhs),rhsMax =  -2.27768914839999E-11  5.26517634013929E-02
 cg2d: Sum(rhs),rhsMax =  -2.24616991673088E-11  5.32192671261670E-02
 cg2d: Sum(rhs),rhsMax =  -2.21584972592836E-11  5.37655853569390E-02
 cg2d: Sum(rhs),rhsMax =  -2.18510765037649E-11  5.42903271653302E-02
 cg2d: Sum(rhs),rhsMax =  -2.15980566764529E-11  5.47931501433511E-02
 cg2d: Sum(rhs),rhsMax =  -2.13267181692345E-11  5.52737692338596E-02
 cg2d: Sum(rhs),rhsMax =  -2.11195505528394E-11  5.57319497528725E-02
 cg2d: Sum(rhs),rhsMax =  -2.08595363204722E-11  5.61675029046570E-02
 cg2d: Sum(rhs),rhsMax =  -2.06289429982576E-11  5.65802848169208E-02
 cg2d: Sum(rhs),rhsMax =  -2.03986827429503E-11  5.69701992181190E-02
 cg2d: Sum(rhs),rhsMax =  -2.01881844574814E-11  5.73371957879476E-02
 cg2d: Sum(rhs),rhsMax =  -1.99527061539584E-11  5.76812678947741E-02
 cg2d: Sum(rhs),rhsMax =  -1.97484251174274E-11  5.80024408650152E-02
 cg2d: Sum(rhs),rhsMax =  -1.95709004557898E-11  5.83007555232494E-02
 cg2d: Sum(rhs),rhsMax =  -1.94186888791137E-11  5.85762572858774E-02
 cg2d: Sum(rhs),rhsMax =  -1.92286186972979E-11  5.88289780961236E-02
 cg2d: Sum(rhs),rhsMax =  -1.90462090543519E-11  5.90589268162118E-02
 cg2d: Sum(rhs),rhsMax =  -1.89196436295447E-11  5.92661147024854E-02
 cg2d: Sum(rhs),rhsMax =  -1.87553306219002E-11  5.94505328201912E-02
 cg2d: Sum(rhs),rhsMax =  -1.86117787848161E-11  5.96121381656932E-02
 cg2d: Sum(rhs),rhsMax =  -1.84464665764494E-11  5.97508508055824E-02
 cg2d: Sum(rhs),rhsMax =  -1.82848181040640E-11  5.98665572240509E-02
 cg2d: Sum(rhs),rhsMax =  -1.81965553736063E-11  5.99591159042390E-02
 cg2d: Sum(rhs),rhsMax =  -1.82974746465447E-11  6.00283638894910E-02
 cg2d: Sum(rhs),rhsMax =  -1.82940329551684E-11  6.00741239595526E-02
 cg2d: Sum(rhs),rhsMax =  -1.82811543680828E-11  6.00962145194712E-02
 cg2d: Sum(rhs),rhsMax =  -1.82388548708445E-11  6.00944609252853E-02
 cg2d: Sum(rhs),rhsMax =  -1.82139858750929E-11  6.00686938279091E-02
 cg2d: Sum(rhs),rhsMax =  -1.82951431781930E-11  6.00187384179933E-02
 cg2d: Sum(rhs),rhsMax =  -1.83777437712251E-11  5.99444343883845E-02
 cg2d: Sum(rhs),rhsMax =  -1.84233739375372E-11  5.98456733806191E-02
 cg2d: Sum(rhs),rhsMax =  -1.85009785269585E-11  5.97223893043394E-02
 cg2d: Sum(rhs),rhsMax =  -1.86080040265324E-11  5.95745482491759E-02
 cg2d: Sum(rhs),rhsMax =  -1.87001525375763E-11  5.94021650829073E-02
 cg2d: Sum(rhs),rhsMax =  -1.88036253234714E-11  5.92052796366250E-02
 cg2d: Sum(rhs),rhsMax =  -1.88927762323488E-11  5.89839478363877E-02
 cg2d: Sum(rhs),rhsMax =  -1.90270021960259E-11  5.87382474462311E-02
 cg2d: Sum(rhs),rhsMax =  -1.91564542006972E-11  5.84682796115612E-02
 cg2d: Sum(rhs),rhsMax =  -1.92663662801351E-11  5.81742013173605E-02
 cg2d: Sum(rhs),rhsMax =  -1.95131688585093E-11  5.78561825835288E-02
 cg2d: Sum(rhs),rhsMax =  -1.97084570885409E-11  5.75143977779878E-02
 cg2d: Sum(rhs),rhsMax =  -1.99377181431259E-11  5.71490324312695E-02
 cg2d: Sum(rhs),rhsMax =  -2.02038386021286E-11  5.67603188999227E-02
 cg2d: Sum(rhs),rhsMax =  -2.04345429466457E-11  5.63485037148449E-02
 cg2d: Sum(rhs),rhsMax =  -2.06570316407806E-11  5.59138295898901E-02
 cg2d: Sum(rhs),rhsMax =  -2.08786321564958E-11  5.54565516250365E-02
 cg2d: Sum(rhs),rhsMax =  -2.11285433593389E-11  5.49769285287681E-02
 cg2d: Sum(rhs),rhsMax =  -2.13942197291317E-11  5.44752200187313E-02
 cg2d: Sum(rhs),rhsMax =  -2.16288098542350E-11  5.39516869592341E-02
 cg2d: Sum(rhs),rhsMax =  -2.19444462601359E-11  5.34065897582120E-02
 cg2d: Sum(rhs),rhsMax =  -2.22393214954764E-11  5.28401898547894E-02
 cg2d: Sum(rhs),rhsMax =  -2.25388596675202E-11  5.22527356271267E-02
 cg2d: Sum(rhs),rhsMax =  -2.28611574115689E-11  5.16444535503039E-02
 cg2d: Sum(rhs),rhsMax =  -2.32109886866283E-11  5.10578268362645E-02
 cg2d: Sum(rhs),rhsMax =  -2.35600428055704E-11  5.04760722035424E-02
 cg2d: Sum(rhs),rhsMax =  -2.39479547303745E-11  4.98726665693754E-02
 cg2d: Sum(rhs),rhsMax =  -2.43363107443884E-11  4.92477966480044E-02
 cg2d: Sum(rhs),rhsMax =  -2.47251108476121E-11  4.86016295919822E-02
 cg2d: Sum(rhs),rhsMax =  -2.51655363214809E-11  4.79343180547167E-02
 cg2d: Sum(rhs),rhsMax =  -2.56383803076687E-11  4.72460093741389E-02
 cg2d: Sum(rhs),rhsMax =  -2.61396460032870E-11  4.65368526947796E-02
 cg2d: Sum(rhs),rhsMax =  -2.66610067356510E-11  4.58070062740067E-02
 cg2d: Sum(rhs),rhsMax =  -2.72198930062473E-11  4.50566455251322E-02
 cg2d: Sum(rhs),rhsMax =  -2.77176059881867E-11  4.42859704808348E-02
 cg2d: Sum(rhs),rhsMax =  -2.82636136716974E-11  4.34952124620668E-02
 cg2d: Sum(rhs),rhsMax =  -2.88341572840523E-11  4.26846400572950E-02
 cg2d: Sum(rhs),rhsMax =  -2.94549939994226E-11  4.18545626042254E-02
 cg2d: Sum(rhs),rhsMax =  -3.01059177587604E-11  4.10053318106506E-02
 cg2d: Sum(rhs),rhsMax =  -3.08035819074348E-11  4.01373419534184E-02
 cg2d: Sum(rhs),rhsMax =  -3.15290016317249E-11  3.92510256664665E-02
 cg2d: Sum(rhs),rhsMax =  -3.23258086964984E-11  3.83468487670974E-02
 cg2d: Sum(rhs),rhsMax =  -3.31441540879496E-11  3.74253085762033E-02
 cg2d: Sum(rhs),rhsMax =  -3.40607542170801E-11  3.64869190902965E-02
 cg2d: Sum(rhs),rhsMax =  -3.50141027283257E-11  3.55322030164215E-02
 cg2d: Sum(rhs),rhsMax =  -3.60736995830280E-11  3.45616946022091E-02
 cg2d: Sum(rhs),rhsMax =  -3.71721542435921E-11  3.35759137186445E-02
 cg2d: Sum(rhs),rhsMax =  -3.84007825537935E-11  3.25753566023310E-02
 cg2d: Sum(rhs),rhsMax =  -3.97016308717468E-11  3.15605020332936E-02
 cg2d: Sum(rhs),rhsMax =  -4.10735889744274E-11  3.05318138023792E-02
 cg2d: Sum(rhs),rhsMax =  -4.25756652155940E-11  2.94897397111970E-02
 cg2d: Sum(rhs),rhsMax =  -4.42308967230076E-11  2.84347124772697E-02
 cg2d: Sum(rhs),rhsMax =  -4.60031457372168E-11  2.73671531315336E-02
 cg2d: Sum(rhs),rhsMax =  -4.79921657969840E-11  2.62874732884770E-02
 cg2d: Sum(rhs),rhsMax =  -5.01991781476363E-11  2.51960806588036E-02
 cg2d: Sum(rhs),rhsMax =  -5.25738341750071E-11  2.40933908754687E-02
 cg2d: Sum(rhs),rhsMax =  -5.52236034678799E-11  2.29798346818970E-02
 cg2d: Sum(rhs),rhsMax =  -5.80898246171913E-11  2.18558626986407E-02
 cg2d: Sum(rhs),rhsMax =  -6.13545741989796E-11  2.07219499884185E-02
 cg2d: Sum(rhs),rhsMax =  -6.49720537787557E-11  1.95785940125876E-02
 cg2d: Sum(rhs),rhsMax =  -6.90906359901433E-11  1.84263267369913E-02
 cg2d: Sum(rhs),rhsMax =  -7.37842287268364E-11  1.72657165283621E-02
 cg2d: Sum(rhs),rhsMax =  -7.61013474459560E-11  1.67494645595401E-02
 cg2d: Sum(rhs),rhsMax =  -7.03102576160575E-11  1.81427632262008E-02
 cg2d: Sum(rhs),rhsMax =  -6.52264908751476E-11  1.95749003632897E-02
 cg2d: Sum(rhs),rhsMax =  -6.07383032757980E-11  2.10342814570572E-02
 cg2d: Sum(rhs),rhsMax =  -5.67504931936469E-11  2.25222311348408E-02
 cg2d: Sum(rhs),rhsMax =  -5.31949484461336E-11  2.40507070126520E-02
 cg2d: Sum(rhs),rhsMax =  -4.99261743058810E-11  2.56370486815903E-02
 cg2d: Sum(rhs),rhsMax =  -4.70077310410488E-11  2.72814532816786E-02
 cg2d: Sum(rhs),rhsMax =  -4.44143610778269E-11  2.89305830330175E-02
 cg2d: Sum(rhs),rhsMax =  -4.20851131721633E-11  3.05837157600421E-02
 cg2d: Sum(rhs),rhsMax =  -3.99874577894366E-11  3.22401176637476E-02
 cg2d: Sum(rhs),rhsMax =  -3.80843134806241E-11  3.38990482195047E-02
 cg2d: Sum(rhs),rhsMax =  -3.63844510076206E-11  3.55597648443285E-02
 cg2d: Sum(rhs),rhsMax =  -3.48026052421346E-11  3.72215269658706E-02
 cg2d: Sum(rhs),rhsMax =  -3.33795213691701E-11  3.88835991936834E-02
 cg2d: Sum(rhs),rhsMax =  -3.20750093152355E-11  4.05452533835359E-02
 cg2d: Sum(rhs),rhsMax =  -3.08569836349193E-11  4.22057694885693E-02
 cg2d: Sum(rhs),rhsMax =  -2.97446511865473E-11  4.38644351973317E-02
 cg2d: Sum(rhs),rhsMax =  -2.87153634204174E-11  4.55205444595616E-02
 cg2d: Sum(rhs),rhsMax =  -2.77569078832585E-11  4.71733950886826E-02
 cg2d: Sum(rhs),rhsMax =  -2.68709499096076E-11  4.88222856991111E-02
 cg2d: Sum(rhs),rhsMax =  -2.60514942951318E-11  5.04665122831942E-02
 cg2d: Sum(rhs),rhsMax =  -2.52774468023631E-11  5.21053647517573E-02
 cg2d: Sum(rhs),rhsMax =  -2.45514719665607E-11  5.37381237733164E-02
 cg2d: Sum(rhs),rhsMax =  -2.38749020553541E-11  5.53640582163163E-02
 cg2d: Sum(rhs),rhsMax =  -2.32313057679789E-11  5.69824234417717E-02
 cg2d: Sum(rhs),rhsMax =  -2.26360041821749E-11  5.85924606506255E-02
 cg2d: Sum(rhs),rhsMax =  -2.20626850122585E-11  6.01933974184296E-02
 cg2d: Sum(rhs),rhsMax =  -2.15331086295123E-11  6.17844494694485E-02
 cg2d: Sum(rhs),rhsMax =  -2.11178852183025E-11  6.33648236592274E-02
 cg2d: Sum(rhs),rhsMax =  -2.06907824207292E-11  6.49337220546178E-02
 cg2d: Sum(rhs),rhsMax =  -2.03080885441409E-11  6.64903469275657E-02
 cg2d: Sum(rhs),rhsMax =  -1.99484873064648E-11  6.80339064170698E-02
 cg2d: Sum(rhs),rhsMax =  -1.96000993213374E-11  6.95636205655419E-02
 cg2d: Sum(rhs),rhsMax =  -1.92503790685805E-11  7.10787274038167E-02
 cg2d: Sum(rhs),rhsMax =  -1.89547266771228E-11  7.25784887424737E-02
 cg2d: Sum(rhs),rhsMax =  -1.86628490439489E-11  7.40621953375982E-02
 cg2d: Sum(rhs),rhsMax =  -1.83536519315908E-11  7.55291711304957E-02
 cg2d: Sum(rhs),rhsMax =  -1.80884196510078E-11  7.69787762818720E-02
 cg2d: Sum(rhs),rhsMax =  -1.78725922950207E-11  7.84104087939317E-02
 cg2d: Sum(rhs),rhsMax =  -1.76182402000791E-11  7.98235045799472E-02
 cg2d: Sum(rhs),rhsMax =  -1.74082970261225E-11  8.12175359342309E-02
 cg2d: Sum(rhs),rhsMax =  -1.71758163247659E-11  8.25920084334426E-02
 cg2d: Sum(rhs),rhsMax =  -1.69676495076487E-11  8.39464563857012E-02
 cg2d: Sum(rhs),rhsMax =  -1.67603708689512E-11  8.52804370255379E-02
 cg2d: Sum(rhs),rhsMax =  -1.65814029173816E-11  8.65935237267838E-02
 cg2d: Sum(rhs),rhsMax =  -1.64124269730337E-11  8.78852985661401E-02
 cg2d: Sum(rhs),rhsMax =  -1.62339031106740E-11  8.91553446156633E-02
 cg2d: Sum(rhs),rhsMax =  -1.60526036907527E-11  9.04032383706661E-02
 cg2d: Sum(rhs),rhsMax =  -1.59222635076617E-11  9.16285427291481E-02
 cg2d: Sum(rhs),rhsMax =  -1.57766022468309E-11  9.28308009293517E-02
 cg2d: Sum(rhs),rhsMax =  -1.56376023241478E-11  9.40095318235168E-02
 cg2d: Sum(rhs),rhsMax =  -1.54697366028245E-11  9.51642268190048E-02
 cg2d: Sum(rhs),rhsMax =  -1.53663748392319E-11  9.62943487533799E-02
 cg2d: Sum(rhs),rhsMax =  -1.52602375180777E-11  9.73993328910231E-02
 cg2d: Sum(rhs),rhsMax =  -1.52324819424621E-11  9.84785901342864E-02
 cg2d: Sum(rhs),rhsMax =  -1.51717527430151E-11  9.95315124353581E-02
 cg2d: Sum(rhs),rhsMax =  -1.51587631336270E-11  1.00557480282658E-01
 cg2d: Sum(rhs),rhsMax =  -1.51150203464567E-11  1.01555872020902E-01
 cg2d: Sum(rhs),rhsMax =  -1.50935930420815E-11  1.02526074652769E-01
 cg2d: Sum(rhs),rhsMax =  -1.51209045284872E-11  1.03467495669442E-01
 cg2d: Sum(rhs),rhsMax =  -1.51009205140440E-11  1.04379575375045E-01
 cg2d: Sum(rhs),rhsMax =  -1.50888190830756E-11  1.05261799113588E-01
 cg2d: Sum(rhs),rhsMax =  -1.50927048636618E-11  1.06113708782740E-01
 cg2d: Sum(rhs),rhsMax =  -1.50400802922945E-11  1.06934913030810E-01
 cg2d: Sum(rhs),rhsMax =  -1.49377177294241E-11  1.07725095583306E-01
 cg2d: Sum(rhs),rhsMax =  -1.48616674522373E-11  1.08484021239977E-01
 cg2d: Sum(rhs),rhsMax =  -1.48084877693577E-11  1.09211539169273E-01
 cg2d: Sum(rhs),rhsMax =  -1.47485357260280E-11  1.09907583313073E-01
 cg2d: Sum(rhs),rhsMax =  -1.46853640359268E-11  1.10572169850245E-01
 cg2d: Sum(rhs),rhsMax =  -1.46553880142619E-11  1.11205391825422E-01
 cg2d: Sum(rhs),rhsMax =  -1.46177514537271E-11  1.11807411196692E-01
 cg2d: Sum(rhs),rhsMax =  -1.46195278105665E-11  1.12378448690211E-01
 cg2d: Sum(rhs),rhsMax =  -1.46050949112464E-11  1.12918771938639E-01
 cg2d: Sum(rhs),rhsMax =  -1.45825573838465E-11  1.13428682447796E-01
 cg2d: Sum(rhs),rhsMax =  -1.45475853585708E-11  1.13908501951331E-01
 cg2d: Sum(rhs),rhsMax =  -1.46028744651971E-11  1.14358558720772E-01
 cg2d: Sum(rhs),rhsMax =  -1.46421763602689E-11  1.14779174359202E-01
 cg2d: Sum(rhs),rhsMax =  -1.46738177164707E-11  1.15170651485561E-01
 cg2d: Sum(rhs),rhsMax =  -1.46780365639643E-11  1.15533262666334E-01
 cg2d: Sum(rhs),rhsMax =  -1.47061252064873E-11  1.15867240860293E-01
 cg2d: Sum(rhs),rhsMax =  -1.47231116187641E-11  1.16172771564623E-01
 cg2d: Sum(rhs),rhsMax =  -1.47086787194439E-11  1.16449986732353E-01
 cg2d: Sum(rhs),rhsMax =  -1.47474255030033E-11  1.16698960475682E-01
 cg2d: Sum(rhs),rhsMax =  -1.47565293318053E-11  1.16919706565425E-01
 cg2d: Sum(rhs),rhsMax =  -1.47767353908534E-11  1.17112177665058E-01
 cg2d: Sum(rhs),rhsMax =  -1.47636347591629E-11  1.17276266216795E-01
 cg2d: Sum(rhs),rhsMax =  -1.47697409857983E-11  1.17411806887028E-01
 cg2d: Sum(rhs),rhsMax =  -1.47679646289589E-11  1.17518580473920E-01
 cg2d: Sum(rhs),rhsMax =  -1.47720724541500E-11  1.17596319174920E-01
 cg2d: Sum(rhs),rhsMax =  -1.47714063203352E-11  1.17644713102038E-01
 cg2d: Sum(rhs),rhsMax =  -1.47171164144311E-11  1.17663417915497E-01
 cg2d: Sum(rhs),rhsMax =  -1.47805101491372E-11  1.17652063424441E-01
 cg2d: Sum(rhs),rhsMax =  -1.47720724541500E-11  1.17610262952385E-01
 cg2d: Sum(rhs),rhsMax =  -1.46995748906420E-11  1.17537623256584E-01
 cg2d: Sum(rhs),rhsMax =  -1.46752610064027E-11  1.17433754737658E-01
 cg2d: Sum(rhs),rhsMax =  -1.46455070293428E-11  1.17298281640192E-01
 cg2d: Sum(rhs),rhsMax =  -1.46526124567004E-11  1.17130851910180E-01
 cg2d: Sum(rhs),rhsMax =  -1.46371803566581E-11  1.16931146387504E-01
 cg2d: Sum(rhs),rhsMax =  -1.46322953753497E-11  1.16698887004724E-01
 cg2d: Sum(rhs),rhsMax =  -1.46910261733524E-11  1.16433843676162E-01
 cg2d: Sum(rhs),rhsMax =  -1.46963552438706E-11  1.16135839687160E-01
 cg2d: Sum(rhs),rhsMax =  -1.47127865446350E-11  1.15804755341730E-01
 cg2d: Sum(rhs),rhsMax =  -1.47004630690617E-11  1.15440529769516E-01
 cg2d: Sum(rhs),rhsMax =  -1.46573864157062E-11  1.15043160885405E-01
 cg2d: Sum(rhs),rhsMax =  -1.46188616767517E-11  1.14612703588619E-01
 cg2d: Sum(rhs),rhsMax =  -1.46183065652394E-11  1.14149266374314E-01
 cg2d: Sum(rhs),rhsMax =  -1.46556100588668E-11  1.13653006606221E-01
 cg2d: Sum(rhs),rhsMax =  -1.46560541480767E-11  1.13124124758932E-01
 cg2d: Sum(rhs),rhsMax =  -1.46624934416195E-11  1.12562857978910E-01
 cg2d: Sum(rhs),rhsMax =  -1.46423984048738E-11  1.11969473334018E-01
 cg2d: Sum(rhs),rhsMax =  -1.46531675682127E-11  1.11344261102400E-01
 cg2d: Sum(rhs),rhsMax =  -1.46591627725456E-11  1.10687528433008E-01
 cg2d: Sum(rhs),rhsMax =  -1.46835876790874E-11  1.09999593676220E-01
 cg2d: Sum(rhs),rhsMax =  -1.47094558755612E-11  1.09280781606184E-01
 cg2d: Sum(rhs),rhsMax =  -1.46972434222903E-11  1.08531419687527E-01
 cg2d: Sum(rhs),rhsMax =  -1.46925804855869E-11  1.07751835465479E-01
 cg2d: Sum(rhs),rhsMax =  -1.47232226410665E-11  1.06942355093050E-01
 cg2d: Sum(rhs),rhsMax =  -1.47265533101404E-11  1.06103302946790E-01
 cg2d: Sum(rhs),rhsMax =  -1.47231116187641E-11  1.05235002229272E-01
 cg2d: Sum(rhs),rhsMax =  -1.47136747230547E-11  1.04337776393896E-01
 cg2d: Sum(rhs),rhsMax =  -1.47166723252212E-11  1.03411951280973E-01
 cg2d: Sum(rhs),rhsMax =  -1.47573064879225E-11  1.02457857728083E-01
 cg2d: Sum(rhs),rhsMax =  -1.48037138103518E-11  1.01475834471434E-01
 cg2d: Sum(rhs),rhsMax =  -1.48575596270462E-11  1.00466231157168E-01
 cg2d: Sum(rhs),rhsMax =  -1.49126266890676E-11  9.94294112934281E-02
 cg2d: Sum(rhs),rhsMax =  -1.49521506287442E-11  9.83657549993742E-02
 cg2d: Sum(rhs),rhsMax =  -1.50761625405949E-11  9.72756614304373E-02
 cg2d: Sum(rhs),rhsMax =  -1.52001744524455E-11  9.61595507849088E-02
 cg2d: Sum(rhs),rhsMax =  -1.53292933902094E-11  9.50178658249525E-02
 cg2d: Sum(rhs),rhsMax =  -1.54661838891457E-11  9.38510728849466E-02
 cg2d: Sum(rhs),rhsMax =  -1.55937485146751E-11  9.26596623529450E-02
 cg2d: Sum(rhs),rhsMax =  -1.57807100720220E-11  9.14441486036709E-02
 cg2d: Sum(rhs),rhsMax =  -1.59029456270332E-11  9.02050694927009E-02
 cg2d: Sum(rhs),rhsMax =  -1.60579327612709E-11  8.89429854823449E-02
 cg2d: Sum(rhs),rhsMax =  -1.62339031106740E-11  8.76584784884626E-02
 cg2d: Sum(rhs),rhsMax =  -1.64196434226938E-11  8.63521505512742E-02
 cg2d: Sum(rhs),rhsMax =  -1.65936153706525E-11  8.50246224399797E-02
 cg2d: Sum(rhs),rhsMax =  -1.67907909798259E-11  8.36765322972834E-02
 cg2d: Sum(rhs),rhsMax =  -1.69881886336043E-11  8.23085344145225E-02
 cg2d: Sum(rhs),rhsMax =  -1.71815894844940E-11  8.09212982019356E-02
 cg2d: Sum(rhs),rhsMax =  -1.74197323232761E-11  7.95155073842941E-02
 cg2d: Sum(rhs),rhsMax =  -1.76545444929843E-11  7.80918594134388E-02
 cg2d: Sum(rhs),rhsMax =  -1.79023462720806E-11  7.66510650506740E-02
 cg2d: Sum(rhs),rhsMax =  -1.81540338317632E-11  7.51938480380382E-02
 cg2d: Sum(rhs),rhsMax =  -1.84254833612840E-11  7.37209447524254E-02
 cg2d: Sum(rhs),rhsMax =  -1.87093673886807E-11  7.22331037237281E-02
 cg2d: Sum(rhs),rhsMax =  -1.90211180139954E-11  7.07310848996311E-02
 cg2d: Sum(rhs),rhsMax =  -1.93373095314087E-11  6.92156585557791E-02
 cg2d: Sum(rhs),rhsMax =  -1.96651583905805E-11  6.76876037800358E-02
 cg2d: Sum(rhs),rhsMax =  -2.00165439778743E-11  6.61477064970100E-02
 cg2d: Sum(rhs),rhsMax =  -2.03886907357287E-11  6.45967570465312E-02
 cg2d: Sum(rhs),rhsMax =  -2.07827088871682E-11  6.30355473777617E-02
 cg2d: Sum(rhs),rhsMax =  -2.12803108468052E-11  6.14648679643767E-02
 cg2d: Sum(rhs),rhsMax =  -2.17822426762382E-11  5.98855045747248E-02
 cg2d: Sum(rhs),rhsMax =  -2.23460139281428E-11  5.82982350729626E-02
 cg2d: Sum(rhs),rhsMax =  -2.29416485808542E-11  5.67038264640355E-02
 cg2d: Sum(rhs),rhsMax =  -2.35795827308038E-11  5.51030323237048E-02
 cg2d: Sum(rhs),rhsMax =  -2.42141862116796E-11  5.34965908011120E-02
 cg2d: Sum(rhs),rhsMax =  -2.49347209546613E-11  5.18852233280346E-02
 cg2d: Sum(rhs),rhsMax =  -2.56833443401661E-11  5.02696341822751E-02
 cg2d: Sum(rhs),rhsMax =  -2.64780419811927E-11  4.86505109926550E-02
 cg2d: Sum(rhs),rhsMax =  -2.73525646576900E-11  4.70285262288984E-02
 cg2d: Sum(rhs),rhsMax =  -2.82676104745860E-11  4.54043396740969E-02
 cg2d: Sum(rhs),rhsMax =  -2.92470492269103E-11  4.37786018310447E-02
 cg2d: Sum(rhs),rhsMax =  -3.03226332931672E-11  4.21519581658875E-02
 cg2d: Sum(rhs),rhsMax =  -3.14738235474010E-11  4.05250540430058E-02
 cg2d: Sum(rhs),rhsMax =  -3.27416982415230E-11  3.88985401547158E-02
 cg2d: Sum(rhs),rhsMax =  -3.41093819855587E-11  3.72730782001917E-02
 cg2d: Sum(rhs),rhsMax =  -3.55809826046993E-11  3.56493465232192E-02
 cg2d: Sum(rhs),rhsMax =  -3.72061270681456E-11  3.40280453830822E-02
 cg2d: Sum(rhs),rhsMax =  -3.89971388514709E-11  3.24099015120560E-02
 cg2d: Sum(rhs),rhsMax =  -4.09553502223048E-11  3.07956716114756E-02
 cg2d: Sum(rhs),rhsMax =  -4.31311653059652E-11  2.91861444602003E-02
 cg2d: Sum(rhs),rhsMax =  -4.55457338510712E-11  2.75821413568779E-02
 cg2d: Sum(rhs),rhsMax =  -4.82497375386970E-11  2.59845146908472E-02
 cg2d: Sum(rhs),rhsMax =  -5.12913045369601E-11  2.43941445332323E-02
 cg2d: Sum(rhs),rhsMax =  -5.48051048987475E-11  2.28119332618967E-02
 cg2d: Sum(rhs),rhsMax =  -5.88175064208940E-11  2.12387983274014E-02
 cg2d: Sum(rhs),rhsMax =  -6.34330921123194E-11  1.96756634432404E-02
 cg2d: Sum(rhs),rhsMax =  -6.50885456643380E-11  1.91629587348481E-02
 cg2d: Sum(rhs),rhsMax =  -6.16535433817234E-11  2.02100344141534E-02
 cg2d: Sum(rhs),rhsMax =  -5.85667209174190E-11  2.12477058232602E-02
 cg2d: Sum(rhs),rhsMax =  -5.58144294671159E-11  2.22754541884872E-02
 cg2d: Sum(rhs),rhsMax =  -5.34529486645452E-11  2.32928181349877E-02
 cg2d: Sum(rhs),rhsMax =  -5.11916481427122E-11  2.42993929103239E-02
 cg2d: Sum(rhs),rhsMax =  -4.90806839614777E-11  2.52948232379471E-02
 cg2d: Sum(rhs),rhsMax =  -4.71856720363206E-11  2.62787976613638E-02
 cg2d: Sum(rhs),rhsMax =  -4.54075665956566E-11  2.72510508928309E-02
 cg2d: Sum(rhs),rhsMax =  -4.37859748458891E-11  2.82113379247705E-02
 cg2d: Sum(rhs),rhsMax =  -4.23019952400239E-11  2.91594244306475E-02
 cg2d: Sum(rhs),rhsMax =  -4.09381972765743E-11  3.00950832605465E-02
 cg2d: Sum(rhs),rhsMax =  -3.96819799242110E-11  3.10180915339222E-02
 cg2d: Sum(rhs),rhsMax =  -3.84322018653904E-11  3.19282236214903E-02
 cg2d: Sum(rhs),rhsMax =  -3.73039377166151E-11  3.28252412650549E-02
 cg2d: Sum(rhs),rhsMax =  -3.62733731940068E-11  3.37088890770363E-02
 cg2d: Sum(rhs),rhsMax =  -3.52776696743717E-11  3.45788921191706E-02
 cg2d: Sum(rhs),rhsMax =  -3.44021477971523E-11  3.54349543554426E-02
 cg2d: Sum(rhs),rhsMax =  -3.35480532243082E-11  3.62767577010144E-02
 cg2d: Sum(rhs),rhsMax =  -3.27494142915441E-11  3.71039626915508E-02
 cg2d: Sum(rhs),rhsMax =  -3.20286575039574E-11  3.79162115865382E-02
 cg2d: Sum(rhs),rhsMax =  -3.13226111714471E-11  3.87131330046077E-02
 cg2d: Sum(rhs),rhsMax =  -3.06515923753636E-11  3.94943474083954E-02
 cg2d: Sum(rhs),rhsMax =  -3.00025559951678E-11  4.02594651007036E-02
 cg2d: Sum(rhs),rhsMax =  -2.94080315654810E-11  4.10080934029731E-02
 cg2d: Sum(rhs),rhsMax =  -2.88342683063547E-11  4.17398556071004E-02
 cg2d: Sum(rhs),rhsMax =  -2.83428835956556E-11  4.24543954333390E-02
 cg2d: Sum(rhs),rhsMax =  -2.78050915625272E-11  4.31513761087595E-02
 cg2d: Sum(rhs),rhsMax =  -2.73504552339432E-11  4.38304796696401E-02
 cg2d: Sum(rhs),rhsMax =  -2.68003397252414E-11  4.44914073680215E-02
 cg2d: Sum(rhs),rhsMax =  -2.63229438246526E-11  4.51338797711476E-02
 cg2d: Sum(rhs),rhsMax =  -2.58557619758903E-11  4.57576359919879E-02
 cg2d: Sum(rhs),rhsMax =  -2.54147813905092E-11  4.63624331693444E-02
 cg2d: Sum(rhs),rhsMax =  -2.49739118274306E-11  4.69480517877883E-02
 cg2d: Sum(rhs),rhsMax =  -2.45909959062374E-11  4.75142799820104E-02
 cg2d: Sum(rhs),rhsMax =  -2.41937581080265E-11  4.80609096795107E-02
 cg2d: Sum(rhs),rhsMax =  -2.38510322603247E-11  4.85877386782273E-02
 cg2d: Sum(rhs),rhsMax =  -2.35428343486888E-11  4.90945663678420E-02
 cg2d: Sum(rhs),rhsMax =  -2.32195374039179E-11  4.95811947996170E-02
 cg2d: Sum(rhs),rhsMax =  -2.28991270390111E-11  5.00474302474063E-02
 cg2d: Sum(rhs),rhsMax =  -2.26655361146300E-11  5.04930832713556E-02
 cg2d: Sum(rhs),rhsMax =  -2.23963070311584E-11  5.09179734721254E-02
 cg2d: Sum(rhs),rhsMax =  -2.21770379837949E-11  5.13219196595964E-02
 cg2d: Sum(rhs),rhsMax =  -2.19683160551654E-11  5.17047449004094E-02
 cg2d: Sum(rhs),rhsMax =  -2.17540430114127E-11  5.20662885793050E-02
 cg2d: Sum(rhs),rhsMax =  -2.15204520870316E-11  5.24064115676467E-02
 cg2d: Sum(rhs),rhsMax =  -2.13026263296001E-11  5.27249986434913E-02
 cg2d: Sum(rhs),rhsMax =  -2.11237694003330E-11  5.30219605042396E-02
 cg2d: Sum(rhs),rhsMax =  -2.09045003529695E-11  5.32972404629994E-02
 cg2d: Sum(rhs),rhsMax =  -2.07251993344926E-11  5.35508170615189E-02
 cg2d: Sum(rhs),rhsMax =  -2.05591099700086E-11  5.37827065981020E-02
 cg2d: Sum(rhs),rhsMax =  -2.04184447127886E-11  5.39929647970883E-02
 cg2d: Sum(rhs),rhsMax =  -2.02700078943963E-11  5.41816875858889E-02
 cg2d: Sum(rhs),rhsMax =  -2.01482164285949E-11  5.43490106840721E-02
 cg2d: Sum(rhs),rhsMax =  -2.00002236994123E-11  5.44951038003608E-02
 cg2d: Sum(rhs),rhsMax =  -1.99024130509429E-11  5.46201614915953E-02
 cg2d: Sum(rhs),rhsMax =  -1.97482030728224E-11  5.47243912559625E-02
 cg2d: Sum(rhs),rhsMax =  -1.96703764387962E-11  5.48080130257683E-02
 cg2d: Sum(rhs),rhsMax =  -1.96186400458487E-11  5.48712303202573E-02
 cg2d: Sum(rhs),rhsMax =  -1.94976257361645E-11  5.49142114476143E-02
 cg2d: Sum(rhs),rhsMax =  -1.94252391949590E-11  5.49370774042431E-02
 cg2d: Sum(rhs),rhsMax =  -1.94537719266918E-11  5.49398915935422E-02
 cg2d: Sum(rhs),rhsMax =  -1.95139460146265E-11  5.49226508046238E-02
 cg2d: Sum(rhs),rhsMax =  -1.95680138759258E-11  5.48852793067134E-02
 cg2d: Sum(rhs),rhsMax =  -1.96728189294504E-11  5.48276279250639E-02
 cg2d: Sum(rhs),rhsMax =  -1.96993532597389E-11  5.47494787677898E-02
 cg2d: Sum(rhs),rhsMax =  -1.96341831681934E-11  5.46505556255046E-02
 cg2d: Sum(rhs),rhsMax =  -1.97586391692539E-11  5.45305357382664E-02
 cg2d: Sum(rhs),rhsMax =  -1.98623339997539E-11  5.43890742239712E-02
 cg2d: Sum(rhs),rhsMax =  -1.99936733835671E-11  5.42258263112896E-02
 cg2d: Sum(rhs),rhsMax =  -2.01212380090965E-11  5.40404675552626E-02
 cg2d: Sum(rhs),rhsMax =  -2.02573513519155E-11  5.38327131359252E-02
 cg2d: Sum(rhs),rhsMax =  -2.03832506429080E-11  5.36023367816888E-02
 cg2d: Sum(rhs),rhsMax =  -2.05330197289300E-11  5.33491863389283E-02
 cg2d: Sum(rhs),rhsMax =  -2.07024397624878E-11  5.30731875905179E-02
 cg2d: Sum(rhs),rhsMax =  -2.08872918960878E-11  5.27743602854691E-02
 cg2d: Sum(rhs),rhsMax =  -2.10931272448533E-11  5.24528218144100E-02
 cg2d: Sum(rhs),rhsMax =  -2.13212780764138E-11  5.21087825522789E-02
 cg2d: Sum(rhs),rhsMax =  -2.14989137603538E-11  5.17425370047323E-02
 cg2d: Sum(rhs),rhsMax =  -2.17539319891102E-11  5.13544530194705E-02
 cg2d: Sum(rhs),rhsMax =  -2.20632401237708E-11  5.09449573139783E-02
 cg2d: Sum(rhs),rhsMax =  -2.23193685755518E-11  5.05145223019730E-02
 cg2d: Sum(rhs),rhsMax =  -2.25508500761862E-11  5.00636562538565E-02
 cg2d: Sum(rhs),rhsMax =  -2.28161933790716E-11  4.95928862165042E-02
 cg2d: Sum(rhs),rhsMax =  -2.30865326855678E-11  4.91027414803972E-02
 cg2d: Sum(rhs),rhsMax =  -2.33714159136866E-11  4.85937343621062E-02
 cg2d: Sum(rhs),rhsMax =  -2.36761721339462E-11  4.80663457887188E-02
 cg2d: Sum(rhs),rhsMax =  -2.40031328146983E-11  4.75210137562886E-02
 cg2d: Sum(rhs),rhsMax =  -2.43620679185597E-11  4.69581234520229E-02
 cg2d: Sum(rhs),rhsMax =  -2.47166731526249E-11  4.63779994341471E-02
 cg2d: Sum(rhs),rhsMax =  -2.51154652630703E-11  4.57809016786371E-02
 cg2d: Sum(rhs),rhsMax =  -2.55048204778063E-11  4.51670233131670E-02
 cg2d: Sum(rhs),rhsMax =  -2.59607890740199E-11  4.45364934809913E-02
 cg2d: Sum(rhs),rhsMax =  -2.63867816485686E-11  4.38893854321775E-02
 cg2d: Sum(rhs),rhsMax =  -2.68972621952912E-11  4.32257274869110E-02
 cg2d: Sum(rhs),rhsMax =  -2.74125167010197E-11  4.25455170927271E-02
 cg2d: Sum(rhs),rhsMax =  -2.79503087341482E-11  4.18487338568116E-02
 cg2d: Sum(rhs),rhsMax =  -2.85195200788735E-11  4.11353530027721E-02
 cg2d: Sum(rhs),rhsMax =  -2.91351387460281E-11  4.04053596935175E-02
 cg2d: Sum(rhs),rhsMax =  -2.97235569490795E-11  3.96587692639068E-02
 cg2d: Sum(rhs),rhsMax =  -3.03537195378567E-11  3.88956228365882E-02
 cg2d: Sum(rhs),rhsMax =  -3.10023118288427E-11  3.81160041378743E-02
 cg2d: Sum(rhs),rhsMax =  -3.16867643235241E-11  3.73200567589937E-02
 cg2d: Sum(rhs),rhsMax =  -3.24303917054181E-11  3.65079898353045E-02
 cg2d: Sum(rhs),rhsMax =  -3.32429639371412E-11  3.56800767656295E-02
 cg2d: Sum(rhs),rhsMax =  -3.40668604437155E-11  3.48366498911046E-02
 cg2d: Sum(rhs),rhsMax =  -3.49770212793032E-11  3.39780950658517E-02
 cg2d: Sum(rhs),rhsMax =  -3.59786644921201E-11  3.31048478344925E-02
 cg2d: Sum(rhs),rhsMax =  -3.69968500280038E-11  3.22173889298495E-02
 cg2d: Sum(rhs),rhsMax =  -3.81023546047743E-11  3.13162391319574E-02
 cg2d: Sum(rhs),rhsMax =  -3.93244325991304E-11  3.04019495868843E-02
 cg2d: Sum(rhs),rhsMax =  -4.05978584083755E-11  2.94750906522195E-02
 cg2d: Sum(rhs),rhsMax =  -4.19755341596328E-11  2.85362475785884E-02
 cg2d: Sum(rhs),rhsMax =  -4.34912661440023E-11  2.75860175133605E-02
 cg2d: Sum(rhs),rhsMax =  -4.51512160992706E-11  2.66249995151648E-02
 cg2d: Sum(rhs),rhsMax =  -4.69022598537094E-11  2.56537864059200E-02
 cg2d: Sum(rhs),rhsMax =  -4.88756812799807E-11  2.46729604356084E-02
 cg2d: Sum(rhs),rhsMax =  -5.09987052588201E-11  2.36830905034566E-02
 cg2d: Sum(rhs),rhsMax =  -5.33671440372530E-11  2.26847297989002E-02
 cg2d: Sum(rhs),rhsMax =  -5.59335910921277E-11  2.16784178189270E-02
 cg2d: Sum(rhs),rhsMax =  -5.87896675785515E-11  2.06646677481833E-02
 cg2d: Sum(rhs),rhsMax =  -6.19158613268667E-11  1.96439638203337E-02
 cg2d: Sum(rhs),rhsMax =  -6.53628314667420E-11  1.86167612088329E-02
 cg2d: Sum(rhs),rhsMax =  -6.92588625339496E-11  1.75834960575555E-02
 cg2d: Sum(rhs),rhsMax =  -7.36493643849201E-11  1.65502012044953E-02
 cg2d: Sum(rhs),rhsMax =  -6.96790125598312E-11  1.75022970693117E-02
 cg2d: Sum(rhs),rhsMax =  -6.49177933631506E-11  1.87960926343657E-02
 cg2d: Sum(rhs),rhsMax =  -6.07029426724637E-11  2.01129215783653E-02
 cg2d: Sum(rhs),rhsMax =  -5.69383984405647E-11  2.14609917377492E-02
 cg2d: Sum(rhs),rhsMax =  -5.35170241455774E-11  2.28450449898692E-02
 cg2d: Sum(rhs),rhsMax =  -5.03704300491847E-11  2.43123967147661E-02
 cg2d: Sum(rhs),rhsMax =  -4.75547379252816E-11  2.57975240640246E-02
 cg2d: Sum(rhs),rhsMax =  -4.50404713525643E-11  2.72893670290857E-02
 cg2d: Sum(rhs),rhsMax =  -4.27691215776349E-11  2.87874826990908E-02
 cg2d: Sum(rhs),rhsMax =  -4.07046618633444E-11  3.02913871818675E-02
 cg2d: Sum(rhs),rhsMax =  -3.88319376654067E-11  3.18005532608287E-02
 cg2d: Sum(rhs),rhsMax =  -3.71352948391745E-11  3.33144095130465E-02
 cg2d: Sum(rhs),rhsMax =  -3.55778739802304E-11  3.48323407641138E-02
 cg2d: Sum(rhs),rhsMax =  -3.41573436202225E-11  3.63536897271438E-02
 cg2d: Sum(rhs),rhsMax =  -3.28336247079619E-11  3.78777596597969E-02
 cg2d: Sum(rhs),rhsMax =  -3.16104920017324E-11  3.94038178721813E-02
 cg2d: Sum(rhs),rhsMax =  -3.04872793677191E-11  4.09310999264564E-02
 cg2d: Sum(rhs),rhsMax =  -2.94350099849794E-11  4.24588143820652E-02
 cg2d: Sum(rhs),rhsMax =  -2.84684498197407E-11  4.39861479548522E-02
 cg2d: Sum(rhs),rhsMax =  -2.75695022367017E-11  4.55122709705963E-02
 cg2d: Sum(rhs),rhsMax =  -2.67224020689127E-11  4.70363430012888E-02
 cg2d: Sum(rhs),rhsMax =  -2.59243737588122E-11  4.85575185745907E-02
 cg2d: Sum(rhs),rhsMax =  -2.51805243323133E-11  5.00749528433635E-02
 cg2d: Sum(rhs),rhsMax =  -2.44951836592122E-11  5.15878070942720E-02
 cg2d: Sum(rhs),rhsMax =  -2.38408182084981E-11  5.30952539646267E-02
 cg2d: Sum(rhs),rhsMax =  -2.32208696715475E-11  5.45964822280545E-02
 cg2d: Sum(rhs),rhsMax =  -2.26313412454715E-11  5.60907010058062E-02
 cg2d: Sum(rhs),rhsMax =  -2.20947704576702E-11  5.75771432622018E-02
 cg2d: Sum(rhs),rhsMax =  -2.16426876420428E-11  5.90550684656065E-02
 cg2d: Sum(rhs),rhsMax =  -2.12384554387768E-11  6.05237643225654E-02
 cg2d: Sum(rhs),rhsMax =  -2.08187911354685E-11  6.19825475149916E-02
 cg2d: Sum(rhs),rhsMax =  -2.04398720171639E-11  6.34307634352054E-02
 cg2d: Sum(rhs),rhsMax =  -2.00777172665312E-11  6.48677849690731E-02
 cg2d: Sum(rhs),rhsMax =  -1.97155625158985E-11  6.62930104332543E-02
 cg2d: Sum(rhs),rhsMax =  -1.94050331359108E-11  6.77058608242743E-02
 cg2d: Sum(rhs),rhsMax =  -1.90748528083873E-11  6.91057765804592E-02
 cg2d: Sum(rhs),rhsMax =  -1.87961868292064E-11  7.04922140876249E-02
 cg2d: Sum(rhs),rhsMax =  -1.85087500881309E-11  7.18646421719770E-02
 cg2d: Sum(rhs),rhsMax =  -1.82232007261973E-11  7.32225388165661E-02
 cg2d: Sum(rhs),rhsMax =  -1.79961601176615E-11  7.45653883061503E-02
 cg2d: Sum(rhs),rhsMax =  -1.77492465169848E-11  7.58926789938420E-02
 cg2d: Sum(rhs),rhsMax =  -1.75204295516096E-11  7.72039017837658E-02
 cg2d: Sum(rhs),rhsMax =  -1.72963865452402E-11  7.84985493840810E-02
 cg2d: Sum(rhs),rhsMax =  -1.71120895231525E-11  7.97761163215727E-02
 cg2d: Sum(rhs),rhsMax =  -1.69402269989405E-11  8.10360996524126E-02
(PID.TID 0000.0001)      cg2d_init_res =   8.01214313509551E-02
(PID.TID 0000.0001)      cg2d_iters(min,last) =      -1      36
(PID.TID 0000.0001)      cg2d_last_res =   6.21609598970543E-14
(PID.TID 0000.0001) // =======================================================
(PID.TID 0000.0001) // Begin MONITOR dynamic field statistics
(PID.TID 0000.0001) // =======================================================
(PID.TID 0000.0001) %MON time_tsnumber                =                  4320
(PID.TID 0000.0001) %MON time_secondsf                =   6.4800000000000E+04
(PID.TID 0000.0001) %MON dynstat_eta_max              =   1.3449066829878E-02
(PID.TID 0000.0001) %MON dynstat_eta_min              =  -1.1550946351632E-02
(PID.TID 0000.0001) %MON dynstat_eta_mean             =   2.8666965779189E-15
(PID.TID 0000.0001) %MON dynstat_eta_sd               =   6.9686794671775E-03
(PID.TID 0000.0001) %MON dynstat_eta_del2             =   9.8371501012655E-06
(PID.TID 0000.0001) %MON dynstat_uvel_max             =   7.1511339936654E-01
(PID.TID 0000.0001) %MON dynstat_uvel_min             =  -1.1967792327426E-01
(PID.TID 0000.0001) %MON dynstat_uvel_mean            =   1.0659017592612E-01
(PID.TID 0000.0001) %MON dynstat_uvel_sd              =   7.7617849080896E-02
(PID.TID 0000.0001) %MON dynstat_uvel_del2            =   2.1355411059941E-04
(PID.TID 0000.0001) %MON dynstat_vvel_max             =   0.0000000000000E+00
(PID.TID 0000.0001) %MON dynstat_vvel_min             =   0.0000000000000E+00
(PID.TID 0000.0001) %MON dynstat_vvel_mean            =   0.0000000000000E+00
(PID.TID 0000.0001) %MON dynstat_vvel_sd              =   0.0000000000000E+00
(PID.TID 0000.0001) %MON dynstat_vvel_del2            =   0.0000000000000E+00
(PID.TID 0000.0001) %MON dynstat_wvel_max             =   5.5881310372298E-03
(PID.TID 0000.0001) %MON dynstat_wvel_min             =  -1.2496695718441E-02
(PID.TID 0000.0001) %MON dynstat_wvel_mean            =   1.5169100743294E-20
(PID.TID 0000.0001) %MON dynstat_wvel_sd              =   6.1950928959532E-04
(PID.TID 0000.0001) %MON dynstat_wvel_del2            =   1.1814664368722E-05
(PID.TID 0000.0001) %MON dynstat_theta_max            =   1.5000000000009E+01
(PID.TID 0000.0001) %MON dynstat_theta_min            =   9.9999999999928E+00
(PID.TID 0000.0001) %MON dynstat_theta_mean           =   1.2533796865186E+01
(PID.TID 0000.0001) %MON dynstat_theta_sd             =   2.4541629026502E+00
(PID.TID 0000.0001) %MON dynstat_theta_del2           =   9.9194146079766E-04
(PID.TID 0000.0001) %MON dynstat_salt_max             =   3.5000000000000E+01
(PID.TID 0000.0001) %MON dynstat_salt_min             =   3.5000000000000E+01
(PID.TID 0000.0001) %MON dynstat_salt_mean            =   3.5000000000000E+01
(PID.TID 0000.0001) %MON dynstat_salt_sd              =   3.9790393202566E-13
(PID.TID 0000.0001) %MON dynstat_salt_del2            =   0.0000000000000E+00
(PID.TID 0000.0001) %MON dynstat_sst_max              =   1.5000000000000E+01
(PID.TID 0000.0001) %MON dynstat_sst_min              =   1.4999999999998E+01
(PID.TID 0000.0001) %MON dynstat_sst_mean             =   1.4999999999999E+01
(PID.TID 0000.0001) %MON dynstat_sst_sd               =   5.8747670707642E-13
(PID.TID 0000.0001) %MON dynstat_sst_del2             =   1.1800601359788E-14
(PID.TID 0000.0001) %MON dynstat_sss_max              =   3.5000000000000E+01
(PID.TID 0000.0001) %MON dynstat_sss_min              =   3.5000000000000E+01
(PID.TID 0000.0001) %MON dynstat_sss_mean             =   3.5000000000000E+01
(PID.TID 0000.0001) %MON dynstat_sss_sd               =   5.6843418860808E-14
(PID.TID 0000.0001) %MON dynstat_sss_del2             =   0.0000000000000E+00
(PID.TID 0000.0001) %MON forcing_qnet_max             =   0.0000000000000E+00
(PID.TID 0000.0001) %MON forcing_qnet_min             =   0.0000000000000E+00
(PID.TID 0000.0001) %MON forcing_qnet_mean            =   0.0000000000000E+00
(PID.TID 0000.0001) %MON forcing_qnet_sd              =   0.0000000000000E+00
(PID.TID 0000.0001) %MON forcing_qnet_del2            =   0.0000000000000E+00
(PID.TID 0000.0001) %MON forcing_qsw_max              =   0.0000000000000E+00
(PID.TID 0000.0001) %MON forcing_qsw_min              =   0.0000000000000E+00
(PID.TID 0000.0001) %MON forcing_qsw_mean             =   0.0000000000000E+00
(PID.TID 0000.0001) %MON forcing_qsw_sd               =   0.0000000000000E+00
(PID.TID 0000.0001) %MON forcing_qsw_del2             =   0.0000000000000E+00
(PID.TID 0000.0001) %MON forcing_empmr_max            =   0.0000000000000E+00
(PID.TID 0000.0001) %MON forcing_empmr_min            =   0.0000000000000E+00
(PID.TID 0000.0001) %MON forcing_empmr_mean           =   0.0000000000000E+00
(PID.TID 0000.0001) %MON forcing_empmr_sd             =   0.0000000000000E+00
(PID.TID 0000.0001) %MON forcing_empmr_del2           =   0.0000000000000E+00
(PID.TID 0000.0001) %MON forcing_fu_max               =   0.0000000000000E+00
(PID.TID 0000.0001) %MON forcing_fu_min               =   0.0000000000000E+00
(PID.TID 0000.0001) %MON forcing_fu_mean              =   0.0000000000000E+00
(PID.TID 0000.0001) %MON forcing_fu_sd                =   0.0000000000000E+00
(PID.TID 0000.0001) %MON forcing_fu_del2              =   0.0000000000000E+00
(PID.TID 0000.0001) %MON forcing_fv_max               =   0.0000000000000E+00
(PID.TID 0000.0001) %MON forcing_fv_min               =   0.0000000000000E+00
(PID.TID 0000.0001) %MON forcing_fv_mean              =   0.0000000000000E+00
(PID.TID 0000.0001) %MON forcing_fv_sd                =   0.0000000000000E+00
(PID.TID 0000.0001) %MON forcing_fv_del2              =   0.0000000000000E+00
(PID.TID 0000.0001) %MON advcfl_uvel_max              =   5.3633504952491E-02
(PID.TID 0000.0001) %MON advcfl_vvel_max              =   0.0000000000000E+00
(PID.TID 0000.0001) %MON advcfl_wvel_max              =   1.8664212129780E-01
(PID.TID 0000.0001) %MON advcfl_W_hf_max              =   1.8664212129780E-01
(PID.TID 0000.0001) %MON pe_b_mean                    =   1.2230323931811E-06
(PID.TID 0000.0001) %MON ke_max                       =   1.5787282197692E-01
(PID.TID 0000.0001) %MON ke_mean                      =   8.7227419384388E-03
(PID.TID 0000.0001) %MON ke_vol                       =   9.5121673331316E+10
(PID.TID 0000.0001) %MON vort_r_min                   =   0.0000000000000E+00
(PID.TID 0000.0001) %MON vort_r_max                   =   0.0000000000000E+00
(PID.TID 0000.0001) %MON vort_a_mean                  =   0.0000000000000E+00
(PID.TID 0000.0001) %MON vort_a_sd                    =   0.0000000000000E+00
(PID.TID 0000.0001) %MON vort_p_mean                  =   0.0000000000000E+00
(PID.TID 0000.0001) %MON vort_p_sd                    =   0.0000000000000E+00
(PID.TID 0000.0001) %MON surfExpan_theta_mean         =   2.2546399581883E-18
(PID.TID 0000.0001) %MON surfExpan_salt_mean          =   6.5735115031218E-19
(PID.TID 0000.0001) // =======================================================
(PID.TID 0000.0001) // End MONITOR dynamic field statistics
(PID.TID 0000.0001) // =======================================================
(PID.TID 0000.0001) // =======================================================
(PID.TID 0000.0001) // Begin OBCS MONITOR field statistics
(PID.TID 0000.0001) // =======================================================
(PID.TID 0000.0001) %MON obc_E_uVel_max               =   1.0505355776936E-01
(PID.TID 0000.0001) %MON obc_E_uVel_min               =   1.0505355776936E-01
(PID.TID 0000.0001) %MON obc_E_uVel_mean              =   1.0505355776936E-01
(PID.TID 0000.0001) %MON obc_E_uVel_sd                =  -6.9388939039072E-18
(PID.TID 0000.0001) %MON obc_E_uVel_Int               =   1.0505355776936E+05
(PID.TID 0000.0001) %MON obc_W_uVel_max               =   1.0505355776936E-01
(PID.TID 0000.0001) %MON obc_W_uVel_min               =   1.0505355776936E-01
(PID.TID 0000.0001) %MON obc_W_uVel_mean              =   1.0505355776936E-01
(PID.TID 0000.0001) %MON obc_W_uVel_sd                =  -6.9388939039072E-18
(PID.TID 0000.0001) %MON obc_W_uVel_Int               =   1.0505355776936E+05
(PID.TID 0000.0001) // =======================================================
(PID.TID 0000.0001) // End OBCS MONITOR field statistics
(PID.TID 0000.0001) // =======================================================
(PID.TID 0000.0001) %CHECKPOINT      4320 0000004320
 cg2d: Sum(rhs),rhsMax =  -1.67402758322055E-11  8.22780002401034E-02
 cg2d: Sum(rhs),rhsMax =  -1.65768510029807E-11  8.35013244500013E-02
 cg2d: Sum(rhs),rhsMax =  -1.64127600399411E-11  8.47055860814328E-02
 cg2d: Sum(rhs),rhsMax =  -1.62625468647093E-11  8.58903083501853E-02
 cg2d: Sum(rhs),rhsMax =  -1.61086699534962E-11  8.70550257445656E-02
 cg2d: Sum(rhs),rhsMax =  -1.61519686514566E-11  8.81992856027111E-02
 cg2d: Sum(rhs),rhsMax =  -1.61626267924930E-11  8.93226492936266E-02
 cg2d: Sum(rhs),rhsMax =  -1.61745061788565E-11  9.04246929253037E-02
 cg2d: Sum(rhs),rhsMax =  -1.62272417725262E-11  9.15050075460419E-02
 cg2d: Sum(rhs),rhsMax =  -1.61942681486948E-11  9.25631988457402E-02
 cg2d: Sum(rhs),rhsMax =  -1.62136970516258E-11  9.35988863989386E-02
 cg2d: Sum(rhs),rhsMax =  -1.62099222933421E-11  9.46117025180695E-02
 cg2d: Sum(rhs),rhsMax =  -1.62075908249903E-11  9.56012908021211E-02
 cg2d: Sum(rhs),rhsMax =  -1.62118096724839E-11  9.65673044724940E-02
 cg2d: Sum(rhs),rhsMax =  -1.62064806019657E-11  9.75094045849367E-02
 cg2d: Sum(rhs),rhsMax =  -1.62420077387537E-11  9.84272581984435E-02
 cg2d: Sum(rhs),rhsMax =  -1.62507785006483E-11  9.93205365680289E-02
 cg2d: Sum(rhs),rhsMax =  -1.62173607876070E-11  1.00188913414185E-01
 cg2d: Sum(rhs),rhsMax =  -1.62253543933844E-11  1.01032063311769E-01
 cg2d: Sum(rhs),rhsMax =  -1.62063695796633E-11  1.01849660236036E-01
 cg2d: Sum(rhs),rhsMax =  -1.62074798026879E-11  1.02641376304260E-01
 cg2d: Sum(rhs),rhsMax =  -1.61779478702329E-11  1.03406880759158E-01
 cg2d: Sum(rhs),rhsMax =  -1.61710644874802E-11  1.04145839247996E-01
 cg2d: Sum(rhs),rhsMax =  -1.61433089118646E-11  1.04857913450296E-01
 cg2d: Sum(rhs),rhsMax =  -1.61497482054074E-11  1.05542761138597E-01
 cg2d: Sum(rhs),rhsMax =  -1.61599622572339E-11  1.06200036744715E-01
 cg2d: Sum(rhs),rhsMax =  -1.61144431132243E-11  1.06829392497330E-01
 cg2d: Sum(rhs),rhsMax =  -1.61317625924084E-11  1.07430480181330E-01
 cg2d: Sum(rhs),rhsMax =  -1.61139990240144E-11  1.08002953544712E-01
 cg2d: Sum(rhs),rhsMax =  -1.62241331480573E-11  1.08546471345466E-01
 cg2d: Sum(rhs),rhsMax =  -1.60985669239722E-11  1.09060700997359E-01
 cg2d: Sum(rhs),rhsMax =  -1.60363944345931E-11  1.09545322708580E-01
 cg2d: Sum(rhs),rhsMax =  -1.60452762187901E-11  1.10000034043693E-01
 cg2d: Sum(rhs),rhsMax =  -1.60553792483142E-11  1.10424554708219E-01
 cg2d: Sum(rhs),rhsMax =  -1.60932378534540E-11  1.10818631370993E-01
 cg2d: Sum(rhs),rhsMax =  -1.61105573326381E-11  1.11182042323396E-01
 cg2d: Sum(rhs),rhsMax =  -1.61662905284743E-11  1.11514601777535E-01
 cg2d: Sum(rhs),rhsMax =  -1.61690660860359E-11  1.11816163579746E-01
 cg2d: Sum(rhs),rhsMax =  -1.61903823681087E-11  1.12086624127224E-01
 cg2d: Sum(rhs),rhsMax =  -1.61883839666643E-11  1.12325924350425E-01
 cg2d: Sum(rhs),rhsMax =  -1.62359015121183E-11  1.12534050618040E-01
 cg2d: Sum(rhs),rhsMax =  -1.62544422366295E-11  1.12711034459220E-01
 cg2d: Sum(rhs),rhsMax =  -1.62623248201044E-11  1.12856951042867E-01
 cg2d: Sum(rhs),rhsMax =  -1.62432289840808E-11  1.12971916404836E-01
 cg2d: Sum(rhs),rhsMax =  -1.62410085380316E-11  1.13056083468138E-01
 cg2d: Sum(rhs),rhsMax =  -1.62113655832741E-11  1.13109636956227E-01
 cg2d: Sum(rhs),rhsMax =  -1.61922697472505E-11  1.13132787352500E-01
 cg2d: Sum(rhs),rhsMax =  -1.61874957882446E-11  1.13125764110621E-01
 cg2d: Sum(rhs),rhsMax =  -1.62028168659845E-11  1.13088808346279E-01
 cg2d: Sum(rhs),rhsMax =  -1.61819446731215E-11  1.13022165285991E-01
 cg2d: Sum(rhs),rhsMax =  -1.61087809757987E-11  1.12926076757181E-01
 cg2d: Sum(rhs),rhsMax =  -1.61394231312784E-11  1.12800773999084E-01
 cg2d: Sum(rhs),rhsMax =  -1.61233248974213E-11  1.12646471061482E-01
 cg2d: Sum(rhs),rhsMax =  -1.61002322585091E-11  1.12463359021460E-01
 cg2d: Sum(rhs),rhsMax =  -1.60899071843801E-11  1.12251601191802E-01
 cg2d: Sum(rhs),rhsMax =  -1.60688129469122E-11  1.12011329552094E-01
 cg2d: Sum(rhs),rhsMax =  -1.60241819813223E-11  1.11742642454598E-01
 cg2d: Sum(rhs),rhsMax =  -1.59813273725717E-11  1.11445603670607E-01
 cg2d: Sum(rhs),rhsMax =  -1.59473545480182E-11  1.11120242801498E-01
 cg2d: Sum(rhs),rhsMax =  -1.58715263154363E-11  1.10766557040077E-01
 cg2d: Sum(rhs),rhsMax =  -1.58834057017998E-11  1.10384514232155E-01
 cg2d: Sum(rhs),rhsMax =  -1.58602020405851E-11  1.09974057157731E-01
 cg2d: Sum(rhs),rhsMax =  -1.58688617801772E-11  1.09535108926353E-01
 cg2d: Sum(rhs),rhsMax =  -1.58949520212559E-11  1.09067579362502E-01
 cg2d: Sum(rhs),rhsMax =  -1.59219304407543E-11  1.08571372227556E-01
 cg2d: Sum(rhs),rhsMax =  -1.59275925781799E-11  1.08046393099740E-01
 cg2d: Sum(rhs),rhsMax =  -1.59662283394368E-11  1.07492557726930E-01
 cg2d: Sum(rhs),rhsMax =  -1.59756652351462E-11  1.06909800617710E-01
 cg2d: Sum(rhs),rhsMax =  -1.60106372604218E-11  1.06298083604514E-01
 cg2d: Sum(rhs),rhsMax =  -1.60490509770739E-11  1.05657404085853E-01
 cg2d: Sum(rhs),rhsMax =  -1.60814694893929E-11  1.04987802641989E-01
 cg2d: Sum(rhs),rhsMax =  -1.61041180390953E-11  1.04289369720302E-01
 cg2d: Sum(rhs),rhsMax =  -1.61104463103356E-11  1.03562251105937E-01
 cg2d: Sum(rhs),rhsMax =  -1.61660684838694E-11  1.02806651932674E-01
 cg2d: Sum(rhs),rhsMax =  -1.62003743753303E-11  1.02022839047768E-01
 cg2d: Sum(rhs),rhsMax =  -1.62673208237152E-11  1.01211141616167E-01
 cg2d: Sum(rhs),rhsMax =  -1.62939661763062E-11  1.00371949947732E-01
 cg2d: Sum(rhs),rhsMax =  -1.63472568814882E-11  9.95057125934479E-02
 cg2d: Sum(rhs),rhsMax =  -1.64062097240958E-11  9.86129318810515E-02
 cg2d: Sum(rhs),rhsMax =  -1.64398494817419E-11  9.76941581197168E-02
 cg2d: Sum(rhs),rhsMax =  -1.64801505775358E-11  9.67499827387061E-02
 cg2d: Sum(rhs),rhsMax =  -1.65154556697189E-11  9.57810306883545E-02
 cg2d: Sum(rhs),rhsMax =  -1.65539804086734E-11  9.47879524474023E-02
 cg2d: Sum(rhs),rhsMax =  -1.66850977478816E-11  9.37714159720577E-02
 cg2d: Sum(rhs),rhsMax =  -1.68276503842435E-11  9.27320988923938E-02
 cg2d: Sum(rhs),rhsMax =  -1.69640967939699E-11  9.16706812164774E-02
 cg2d: Sum(rhs),rhsMax =  -1.71207492627445E-11  9.05878387482911E-02
 cg2d: Sum(rhs),rhsMax =  -1.72719616386985E-11  8.94842373698206E-02
 cg2d: Sum(rhs),rhsMax =  -1.74127379182210E-11  8.83605282910194E-02
 cg2d: Sum(rhs),rhsMax =  -1.75837122640132E-11  8.72173442840496E-02
 cg2d: Sum(rhs),rhsMax =  -1.77441394910716E-11  8.60552969080473E-02
 cg2d: Sum(rhs),rhsMax =  -1.79243286879682E-11  8.48749747315145E-02
 cg2d: Sum(rhs),rhsMax =  -1.81243908770057E-11  8.36769425053545E-02
 cg2d: Sum(rhs),rhsMax =  -1.83141279919141E-11  8.24617412300125E-02
 cg2d: Sum(rhs),rhsMax =  -1.85199633406796E-11  8.12298890594568E-02
 cg2d: Sum(rhs),rhsMax =  -1.87254656225377E-11  7.99818829888345E-02
 cg2d: Sum(rhs),rhsMax =  -1.89543936102154E-11  7.87182012764254E-02
 cg2d: Sum(rhs),rhsMax =  -1.91775484381651E-11  7.74393065500174E-02
 cg2d: Sum(rhs),rhsMax =  -1.94326776892240E-11  7.61456495392080E-02
 cg2d: Sum(rhs),rhsMax =  -1.96905824978444E-11  7.48376733575084E-02
 cg2d: Sum(rhs),rhsMax =  -1.99700256331425E-11  7.35158182314707E-02
 cg2d: Sum(rhs),rhsMax =  -2.02543537497490E-11  7.21805265400614E-02
 cg2d: Sum(rhs),rhsMax =  -2.05355732418866E-11  7.08322479901578E-02
 cg2d: Sum(rhs),rhsMax =  -2.08580930305402E-11  6.94714447191818E-02
 cg2d: Sum(rhs),rhsMax =  -2.11690664997377E-11  6.80985960902955E-02
 cg2d: Sum(rhs),rhsMax =  -2.15225615107784E-11  6.67142029362032E-02
 cg2d: Sum(rhs),rhsMax =  -2.18881579527874E-11  6.53187910156687E-02
 cg2d: Sum(rhs),rhsMax =  -2.22790674797579E-11  6.39129134808821E-02
 cg2d: Sum(rhs),rhsMax =  -2.26817453707895E-11  6.24971522076420E-02
 cg2d: Sum(rhs),rhsMax =  -2.30996333172584E-11  6.10721179099760E-02
 cg2d: Sum(rhs),rhsMax =  -2.35658159652985E-11  5.96384490406454E-02
 cg2d: Sum(rhs),rhsMax =  -2.41139330725559E-11  5.81968095633091E-02
 cg2d: Sum(rhs),rhsMax =  -2.46664910719119E-11  5.67478857552277E-02
 cg2d: Sum(rhs),rhsMax =  -2.52865506311650E-11  5.52923822353424E-02
 cg2d: Sum(rhs),rhsMax =  -2.59186005990841E-11  5.38310175382726E-02
 cg2d: Sum(rhs),rhsMax =  -2.66002775362040E-11  5.23645194880671E-02
 cg2d: Sum(rhs),rhsMax =  -2.73192579669512E-11  5.08936206327288E-02
 cg2d: Sum(rhs),rhsMax =  -2.80881984338066E-11  4.94190539859255E-02
 cg2d: Sum(rhs),rhsMax =  -2.88902235467958E-11  4.79415492721629E-02
 cg2d: Sum(rhs),rhsMax =  -2.97627478218487E-11  4.64618298063760E-02
 cg2d: Sum(rhs),rhsMax =  -3.06974445862807E-11  4.49806100674496E-02
 cg2d: Sum(rhs),rhsMax =  -3.16884296580611E-11  4.34985939569046E-02
 cg2d: Sum(rhs),rhsMax =  -3.27435856206648E-11  4.20164736766291E-02
 cg2d: Sum(rhs),rhsMax =  -3.38836736446524E-11  4.05349291186678E-02
 cg2d: Sum(rhs),rhsMax =  -3.51040307933204E-11  3.90546276388449E-02
 cg2d: Sum(rhs),rhsMax =  -3.64053232004835E-11  3.75762240848954E-02
 cg2d: Sum(rhs),rhsMax =  -3.78338471662687E-11  3.61003609669496E-02
 cg2d: Sum(rhs),rhsMax =  -3.93743926352386E-11  3.46276686895588E-02
 cg2d: Sum(rhs),rhsMax =  -4.10353417912290E-11  3.31587658042985E-02
 cg2d: Sum(rhs),rhsMax =  -4.28452273659730E-11  3.16942592837774E-02
 cg2d: Sum(rhs),rhsMax =  -4.48454051671376E-11  3.02347448552390E-02
 cg2d: Sum(rhs),rhsMax =  -4.70298799903901E-11  2.87808074590974E-02
 cg2d: Sum(rhs),rhsMax =  -4.94284613239415E-11  2.73330219114982E-02
 cg2d: Sum(rhs),rhsMax =  -5.20946619175788E-11  2.58919538489006E-02
 cg2d: Sum(rhs),rhsMax =  -5.50626766404605E-11  2.44581610171425E-02
 cg2d: Sum(rhs),rhsMax =  -5.83801340603429E-11  2.30321949397034E-02
 cg2d: Sum(rhs),rhsMax =  -6.21100393338736E-11  2.16146029637524E-02
 cg2d: Sum(rhs),rhsMax =  -6.63819832436019E-11  2.02059306464970E-02
 cg2d: Sum(rhs),rhsMax =  -6.71125099938052E-11  1.99742718275105E-02
 cg2d: Sum(rhs),rhsMax =  -6.40228425830003E-11  2.09216791947797E-02
 cg2d: Sum(rhs),rhsMax =  -6.12414424727703E-11  2.18617513122873E-02
 cg2d: Sum(rhs),rhsMax =  -5.86204175478944E-11  2.27941445680602E-02
 cg2d: Sum(rhs),rhsMax =  -5.62682123117497E-11  2.37184961566810E-02
 cg2d: Sum(rhs),rhsMax =  -5.40932854065090E-11  2.46344239602177E-02
 cg2d: Sum(rhs),rhsMax =  -5.20867238229528E-11  2.55415280630556E-02
 cg2d: Sum(rhs),rhsMax =  -5.02502206511934E-11  2.64393927227527E-02
 cg2d: Sum(rhs),rhsMax =  -4.85341766776060E-11  2.73275894782651E-02
 cg2d: Sum(rhs),rhsMax =  -4.69607130959560E-11  2.82056816697743E-02
 cg2d: Sum(rhs),rhsMax =  -4.55037674207404E-11  2.90732292606838E-02
 cg2d: Sum(rhs),rhsMax =  -4.41263692252392E-11  2.99297920553769E-02
 cg2d: Sum(rhs),rhsMax =  -4.28352353587513E-11  3.07749334547044E-02
 cg2d: Sum(rhs),rhsMax =  -4.16222056820459E-11  3.16082239656091E-02
 cg2d: Sum(rhs),rhsMax =  -4.05216971088862E-11  3.24292431468144E-02
 cg2d: Sum(rhs),rhsMax =  -3.94540511372554E-11  3.32375848547025E-02
 cg2d: Sum(rhs),rhsMax =  -3.84838827471867E-11  3.40328543080503E-02
 cg2d: Sum(rhs),rhsMax =  -3.75831588073083E-11  3.48146663615094E-02
 cg2d: Sum(rhs),rhsMax =  -3.67006425250338E-11  3.55826474428784E-02
 cg2d: Sum(rhs),rhsMax =  -3.58815199774654E-11  3.63364377054762E-02
 cg2d: Sum(rhs),rhsMax =  -3.51346174376488E-11  3.70756899432352E-02
 cg2d: Sum(rhs),rhsMax =  -3.44204664770587E-11  3.78000676677185E-02
 cg2d: Sum(rhs),rhsMax =  -3.37233574398965E-11  3.85092443179690E-02
 cg2d: Sum(rhs),rhsMax =  -3.30805383086386E-11  3.92029037454767E-02
 cg2d: Sum(rhs),rhsMax =  -3.24834603659951E-11  3.98807413356690E-02
 cg2d: Sum(rhs),rhsMax =  -3.19166915119240E-11  4.05424650379918E-02
 cg2d: Sum(rhs),rhsMax =  -3.12909698152453E-11  4.11877963295271E-02
 cg2d: Sum(rhs),rhsMax =  -3.06819014639359E-11  4.18164708039074E-02
 cg2d: Sum(rhs),rhsMax =  -3.01407787617336E-11  4.24282401450190E-02
 cg2d: Sum(rhs),rhsMax =  -2.96487279172197E-11  4.30228730907509E-02
 cg2d: Sum(rhs),rhsMax =  -2.91875412727904E-11  4.36001555712303E-02
 cg2d: Sum(rhs),rhsMax =  -2.87473378435266E-11  4.41598907789470E-02
 cg2d: Sum(rhs),rhsMax =  -2.83519874244575E-11  4.47018996411203E-02
 cg2d: Sum(rhs),rhsMax =  -2.79961609450652E-11  4.52260215448863E-02
 cg2d: Sum(rhs),rhsMax =  -2.75807154892505E-11  4.57321136923067E-02
 cg2d: Sum(rhs),rhsMax =  -2.72762923358982E-11  4.62200496511446E-02
 cg2d: Sum(rhs),rhsMax =  -2.69660960228180E-11  4.66897173969026E-02
 cg2d: Sum(rhs),rhsMax =  -2.66461297471210E-11  4.71410162551539E-02
 cg2d: Sum(rhs),rhsMax =  -2.63383759246949E-11  4.75738535743629E-02
 cg2d: Sum(rhs),rhsMax =  -2.60689247966184E-11  4.79881413908071E-02
 cg2d: Sum(rhs),rhsMax =  -2.58030263822207E-11  4.83837906076248E-02
 cg2d: Sum(rhs),rhsMax =  -2.55726551046109E-11  4.87607052973539E-02
 cg2d: Sum(rhs),rhsMax =  -2.52563525648952E-11  4.91187779200008E-02
 cg2d: Sum(rhs),rhsMax =  -2.50173215476934E-11  4.94578845331741E-02
 cg2d: Sum(rhs),rhsMax =  -2.47356579663460E-11  4.97778803887671E-02
 cg2d: Sum(rhs),rhsMax =  -2.44710918195779E-11  5.00785969292152E-02
 cg2d: Sum(rhs),rhsMax =  -2.42191822152904E-11  5.03598409763481E-02
 cg2d: Sum(rhs),rhsMax =  -2.39933628520816E-11  5.06213964318653E-02
 cg2d: Sum(rhs),rhsMax =  -2.38091768522963E-11  5.08630293337641E-02
 cg2d: Sum(rhs),rhsMax =  -2.36258790309307E-11  5.10844927097875E-02
 cg2d: Sum(rhs),rhsMax =  -2.34267050203130E-11  5.12855336377608E-02
 cg2d: Sum(rhs),rhsMax =  -2.32779351350132E-11  5.14659024411058E-02
 cg2d: Sum(rhs),rhsMax =  -2.31658026095261E-11  5.16253620150010E-02
 cg2d: Sum(rhs),rhsMax =  -2.29543051233350E-11  5.17636963645188E-02
 cg2d: Sum(rhs),rhsMax =  -2.27602381386305E-11  5.18807176429868E-02
 cg2d: Sum(rhs),rhsMax =  -2.27086127679854E-11  5.19762714299095E-02
 cg2d: Sum(rhs),rhsMax =  -2.26505481037975E-11  5.20502400545878E-02
 cg2d: Sum(rhs),rhsMax =  -2.25577334589389E-11  5.21025440774137E-02
 cg2d: Sum(rhs),rhsMax =  -2.25377494444956E-11  5.21331423260312E-02
 cg2d: Sum(rhs),rhsMax =  -2.24926743896958E-11  5.21420303590012E-02
 cg2d: Sum(rhs),rhsMax =  -2.24981144825165E-11  5.21292381869564E-02
 cg2d: Sum(rhs),rhsMax =  -2.24612550780989E-11  5.20948261809597E-02
 cg2d: Sum(rhs),rhsMax =  -2.25063301328987E-11  5.20388817026627E-02
 cg2d: Sum(rhs),rhsMax =  -2.25108820472997E-11  5.19615171526953E-02
 cg2d: Sum(rhs),rhsMax =  -2.25540697229576E-11  5.18628688783214E-02
 cg2d: Sum(rhs),rhsMax =  -2.26986207607638E-11  5.17430969020160E-02
 cg2d: Sum(rhs),rhsMax =  -2.28668195489945E-11  5.16023854705891E-02
 cg2d: Sum(rhs),rhsMax =  -2.30050423155603E-11  5.14409422308629E-02
 cg2d: Sum(rhs),rhsMax =  -2.31705765685319E-11  5.12590024235875E-02
 cg2d: Sum(rhs),rhsMax =  -2.32983632386663E-11  5.10568293539985E-02
 cg2d: Sum(rhs),rhsMax =  -2.34366970275346E-11  5.08347130700814E-02
 cg2d: Sum(rhs),rhsMax =  -2.35981234553151E-11  5.05929678778690E-02
 cg2d: Sum(rhs),rhsMax =  -2.38108421868333E-11  5.03319281229143E-02
 cg2d: Sum(rhs),rhsMax =  -2.40524267169917E-11  5.00519414595458E-02
 cg2d: Sum(rhs),rhsMax =  -2.42764697233611E-11  4.97533603673917E-02
 cg2d: Sum(rhs),rhsMax =  -2.45323761305372E-11  4.94365327181873E-02
 cg2d: Sum(rhs),rhsMax =  -2.47881715154108E-11  4.91017868498981E-02
 cg2d: Sum(rhs),rhsMax =  -2.50296450232668E-11  4.87494197224424E-02
 cg2d: Sum(rhs),rhsMax =  -2.53443932507480E-11  4.83796864348569E-02
 cg2d: Sum(rhs),rhsMax =  -2.56464849357485E-11  4.79927937313287E-02
 cg2d: Sum(rhs),rhsMax =  -2.59586796502731E-11  4.75888912310369E-02
 cg2d: Sum(rhs),rhsMax =  -2.62486699043052E-11  4.71680694012441E-02
 cg2d: Sum(rhs),rhsMax =  -2.65522048792377E-11  4.67303604758859E-02
 cg2d: Sum(rhs),rhsMax =  -2.68979283291060E-11  4.62757429411935E-02
 cg2d: Sum(rhs),rhsMax =  -2.72123434896798E-11  4.58041505691290E-02
 cg2d: Sum(rhs),rhsMax =  -2.75989231468543E-11  4.53154845426509E-02
 cg2d: Sum(rhs),rhsMax =  -2.79815060011401E-11  4.48096293411970E-02
 cg2d: Sum(rhs),rhsMax =  -2.83704171266663E-11  4.42864708460707E-02
 cg2d: Sum(rhs),rhsMax =  -2.87936341436534E-11  4.37459136606809E-02
 cg2d: Sum(rhs),rhsMax =  -2.92420532232995E-11  4.31878974355084E-02
 cg2d: Sum(rhs),rhsMax =  -2.97316615771592E-11  4.26124116918396E-02
 cg2d: Sum(rhs),rhsMax =  -3.02325942058701E-11  4.20195087095515E-02
 cg2d: Sum(rhs),rhsMax =  -3.07416314626607E-11  4.14093126414299E-02
 cg2d: Sum(rhs),rhsMax =  -3.13211678815151E-11  4.07820253911565E-02
 cg2d: Sum(rhs),rhsMax =  -3.19236859169791E-11  4.01379291787474E-02
 cg2d: Sum(rhs),rhsMax =  -3.25277582646777E-11  3.94773868682287E-02
 cg2d: Sum(rhs),rhsMax =  -3.31580318757574E-11  3.88008355653953E-02
 cg2d: Sum(rhs),rhsMax =  -3.38096217689099E-11  3.81087788127252E-02
 cg2d: Sum(rhs),rhsMax =  -3.44507755656309E-11  3.74017770980956E-02
 cg2d: Sum(rhs),rhsMax =  -3.51546569632433E-11  3.66804364896304E-02
 cg2d: Sum(rhs),rhsMax =  -3.59046126163776E-11  3.59453954033412E-02
 cg2d: Sum(rhs),rhsMax =  -3.67375019294514E-11  3.51973072880058E-02
 cg2d: Sum(rhs),rhsMax =  -3.75905973015733E-11  3.44368284147969E-02
 cg2d: Sum(rhs),rhsMax =  -3.84654530449779E-11  3.36646026498121E-02
 cg2d: Sum(rhs),rhsMax =  -3.94332899666949E-11  3.28812455322425E-02
 cg2d: Sum(rhs),rhsMax =  -4.04677957810406E-11  3.20873299783793E-02
 cg2d: Sum(rhs),rhsMax =  -4.15463774494640E-11  3.12833747403350E-02
 cg2d: Sum(rhs),rhsMax =  -4.27115010026569E-11  3.04698359188684E-02
 cg2d: Sum(rhs),rhsMax =  -4.39309699729051E-11  2.96470985520496E-02
 cg2d: Sum(rhs),rhsMax =  -4.52757831226336E-11  2.88154785556831E-02
 cg2d: Sum(rhs),rhsMax =  -4.67044181107212E-11  2.79752286764651E-02
 cg2d: Sum(rhs),rhsMax =  -4.82496265163945E-11  2.71265440355797E-02
 cg2d: Sum(rhs),rhsMax =  -4.98922569924787E-11  2.62695704562796E-02
 cg2d: Sum(rhs),rhsMax =  -5.16500175962165E-11  2.54044164959610E-02
 cg2d: Sum(rhs),rhsMax =  -5.35979594040725E-11  2.45311677844381E-02
 cg2d: Sum(rhs),rhsMax =  -5.56276691376922E-11  2.36499029730765E-02
 cg2d: Sum(rhs),rhsMax =  -5.78793124539345E-11  2.27607087280063E-02
 cg2d: Sum(rhs),rhsMax =  -6.03589955794348E-11  2.18636927206905E-02
 cg2d: Sum(rhs),rhsMax =  -6.30295954318072E-11  2.09589944250612E-02
 cg2d: Sum(rhs),rhsMax =  -6.60018567577580E-11  2.00467944772680E-02
 cg2d: Sum(rhs),rhsMax =  -6.92235730542778E-11  1.91273218983770E-02
 cg2d: Sum(rhs),rhsMax =  -7.28024446283726E-11  1.82008544322678E-02
 cg2d: Sum(rhs),rhsMax =  -7.23666682134194E-11  1.83252088189637E-02
 cg2d: Sum(rhs),rhsMax =  -6.80114575768442E-11  1.95097484106330E-02
 cg2d: Sum(rhs),rhsMax =  -6.41018627067780E-11  2.07117306470566E-02
 cg2d: Sum(rhs),rhsMax =  -6.04881700283499E-11  2.19645151992448E-02
 cg2d: Sum(rhs),rhsMax =  -5.70500868768420E-11  2.33146388843745E-02
 cg2d: Sum(rhs),rhsMax =  -5.40067435217395E-11  2.46736350434570E-02
 cg2d: Sum(rhs),rhsMax =  -5.12407893893396E-11  2.60407300854922E-02
 cg2d: Sum(rhs),rhsMax =  -4.87388462921956E-11  2.74150997017441E-02
 cg2d: Sum(rhs),rhsMax =  -4.64726035431795E-11  2.87958823924631E-02
 cg2d: Sum(rhs),rhsMax =  -4.44128067655924E-11  3.01821937604733E-02
 cg2d: Sum(rhs),rhsMax =  -4.25126045477953E-11  3.15731409611002E-02
 cg2d: Sum(rhs),rhsMax =  -4.07710532002170E-11  3.29678367013792E-02
 cg2d: Sum(rhs),rhsMax =  -3.91767729368553E-11  3.43654121969260E-02
 cg2d: Sum(rhs),rhsMax =  -3.76984554684157E-11  3.57650285532309E-02
 cg2d: Sum(rhs),rhsMax =  -3.63402641312405E-11  3.71658861271396E-02
 cg2d: Sum(rhs),rhsMax =  -3.50843798457845E-11  3.85672315375362E-02
 cg2d: Sum(rhs),rhsMax =  -3.39057670828424E-11  3.99683621244081E-02
 cg2d: Sum(rhs),rhsMax =  -3.28097549129325E-11  4.13686277946777E-02
 cg2d: Sum(rhs),rhsMax =  -3.17781356784508E-11  4.27674303331826E-02
 cg2d: Sum(rhs),rhsMax =  -3.08244541002978E-11  4.41642203893611E-02
 cg2d: Sum(rhs),rhsMax =  -2.99203994913455E-11  4.55584924658546E-02
 cg2d: Sum(rhs),rhsMax =  -2.90835133753831E-11  4.69497783261100E-02
 cg2d: Sum(rhs),rhsMax =  -2.82824874631160E-11  4.83376392974739E-02
 cg2d: Sum(rhs),rhsMax =  -2.75341971445187E-11  4.97216579703042E-02
 cg2d: Sum(rhs),rhsMax =  -2.68310929030235E-11  5.11014297818989E-02
 cg2d: Sum(rhs),rhsMax =  -2.61740629170504E-11  5.24765549297332E-02
 cg2d: Sum(rhs),rhsMax =  -2.55544474470071E-11  5.38466309878140E-02
 cg2d: Sum(rhs),rhsMax =  -2.49507081662159E-11  5.52112465112184E-02
 cg2d: Sum(rhs),rhsMax =  -2.44577691432823E-11  5.65699758164974E-02
 cg2d: Sum(rhs),rhsMax =  -2.39885888930758E-11  5.79223750289707E-02
 cg2d: Sum(rhs),rhsMax =  -2.35386155011952E-11  5.92679794002615E-02
 cg2d: Sum(rhs),rhsMax =  -2.31070718115234E-11  6.06063018276709E-02
 cg2d: Sum(rhs),rhsMax =  -2.26956231585973E-11  6.19368324496563E-02
 cg2d: Sum(rhs),rhsMax =  -2.23093765683302E-11  6.32590391782877E-02
 cg2d: Sum(rhs),rhsMax =  -2.19382290111980E-11  6.45723689900936E-02
 cg2d: Sum(rhs),rhsMax =  -2.15956141857987E-11  6.58762498106203E-02
 cg2d: Sum(rhs),rhsMax =  -2.12649897690653E-11  6.71700928500753E-02
 cg2d: Sum(rhs),rhsMax =  -2.09610107049230E-11  6.84532952713926E-02
 cg2d: Sum(rhs),rhsMax =  -2.06578087968978E-11  6.97252431046027E-02
 cg2d: Sum(rhs),rhsMax =  -2.03799199738341E-11  7.09853143448278E-02
 cg2d: Sum(rhs),rhsMax =  -2.01151317824610E-11  7.22328821973405E-02
 cg2d: Sum(rhs),rhsMax =  -1.98507876802978E-11  7.34673184493531E-02
 cg2d: Sum(rhs),rhsMax =  -1.95928828716774E-11  7.46879969586254E-02
 cg2d: Sum(rhs),rhsMax =  -1.93650651070243E-11  7.58942972490515E-02
 cg2d: Sum(rhs),rhsMax =  -1.91217042200265E-11  7.70856081678362E-02
 cg2d: Sum(rhs),rhsMax =  -1.89063209532492E-11  7.82613315419087E-02
 cg2d: Sum(rhs),rhsMax =  -1.86832771476020E-11  7.94208857406475E-02
 cg2d: Sum(rhs),rhsMax =  -1.84714465945035E-11  8.05637090181075E-02
 cg2d: Sum(rhs),rhsMax =  -1.82844850371566E-11  8.16892624797488E-02
 cg2d: Sum(rhs),rhsMax =  -1.80850889819339E-11  8.27970324987599E-02
 cg2d: Sum(rhs),rhsMax =  -1.79036785397102E-11  8.38865324127345E-02
 cg2d: Sum(rhs),rhsMax =  -1.77330372608253E-11  8.49573033616904E-02
 cg2d: Sum(rhs),rhsMax =  -1.75662817625266E-11  8.60089141641091E-02
 cg2d: Sum(rhs),rhsMax =  -1.74066316915855E-11  8.70409601916080E-02
 cg2d: Sum(rhs),rhsMax =  -1.73172587381032E-11  8.80530612747683E-02
 cg2d: Sum(rhs),rhsMax =  -1.72505343343232E-11  8.90448587469400E-02
 cg2d: Sum(rhs),rhsMax =  -1.71618275146557E-11  9.00160118017133E-02
 cg2d: Sum(rhs),rhsMax =  -1.70813363453703E-11  9.09661933963655E-02
 cg2d: Sum(rhs),rhsMax =  -1.70098379825845E-11  9.18950859725668E-02
 cg2d: Sum(rhs),rhsMax =  -1.69599889687788E-11  9.28023772833169E-02
 cg2d: Sum(rhs),rhsMax =  -1.68869362937585E-11  9.36877566095271E-02
 cg2d: Sum(rhs),rhsMax =  -1.68465241756621E-11  9.45509116206135E-02
 cg2d: Sum(rhs),rhsMax =  -1.67800218164871E-11  9.53915260835901E-02
 cg2d: Sum(rhs),rhsMax =  -1.67188485278302E-11  9.62092785580600E-02
 cg2d: Sum(rhs),rhsMax =  -1.67060809630470E-11  9.70038421356543E-02
 cg2d: Sum(rhs),rhsMax =  -1.66827662795299E-11  9.77748852014403E-02
 cg2d: Sum(rhs),rhsMax =  -1.66996416695042E-11  9.85220731178692E-02
 cg2d: Sum(rhs),rhsMax =  -1.65981672850535E-11  9.92450706704067E-02
 cg2d: Sum(rhs),rhsMax =  -1.65516489403217E-11  9.99435450408068E-02
 cg2d: Sum(rhs),rhsMax =  -1.65191194057002E-11  1.00617169066784E-01
 cg2d: Sum(rhs),rhsMax =  -1.64781521760915E-11  1.01265624526284E-01
 cg2d: Sum(rhs),rhsMax =  -1.64663838120305E-11  1.01888605192869E-01
 cg2d: Sum(rhs),rhsMax =  -1.63949964715471E-11  1.02485819441570E-01
 cg2d: Sum(rhs),rhsMax =  -1.63706825873078E-11  1.03056992236315E-01
 cg2d: Sum(rhs),rhsMax =  -1.63442592793217E-11  1.03601866394727E-01
 cg2d: Sum(rhs),rhsMax =  -1.63014046705712E-11  1.04120203089418E-01
 cg2d: Sum(rhs),rhsMax =  -1.63161706367987E-11  1.04611781629539E-01
 cg2d: Sum(rhs),rhsMax =  -1.63170588152184E-11  1.05076398635499E-01
 cg2d: Sum(rhs),rhsMax =  -1.63130620123297E-11  1.05513866720268E-01
 cg2d: Sum(rhs),rhsMax =  -1.63213886850144E-11  1.05924012851817E-01
 cg2d: Sum(rhs),rhsMax =  -1.63332680713779E-11  1.06306676588000E-01
 cg2d: Sum(rhs),rhsMax =  -1.63297153576991E-11  1.06661708368402E-01
 cg2d: Sum(rhs),rhsMax =  -1.63484781268153E-11  1.06988967973495E-01
 cg2d: Sum(rhs),rhsMax =  -1.63257185548105E-11  1.07288323309484E-01
 cg2d: Sum(rhs),rhsMax =  -1.63140612130519E-11  1.07559649583430E-01
 cg2d: Sum(rhs),rhsMax =  -1.63374869188715E-11  1.07802828883430E-01
 cg2d: Sum(rhs),rhsMax =  -1.63808966391343E-11  1.08017750131378E-01
 cg2d: Sum(rhs),rhsMax =  -1.64375180133902E-11  1.08204309341262E-01
 cg2d: Sum(rhs),rhsMax =  -1.64894764509427E-11  1.08362410090789E-01
 cg2d: Sum(rhs),rhsMax =  -1.65075730862441E-11  1.08491964099881E-01
 cg2d: Sum(rhs),rhsMax =  -1.64931401869239E-11  1.08592891807051E-01
 cg2d: Sum(rhs),rhsMax =  -1.64979141459298E-11  1.08665122845866E-01
 cg2d: Sum(rhs),rhsMax =  -1.65208957625396E-11  1.08708596338140E-01
 cg2d: Sum(rhs),rhsMax =  -1.64878111164057E-11  1.08723260955633E-01
 cg2d: Sum(rhs),rhsMax =  -1.64727120832708E-11  1.08709074747607E-01
 cg2d: Sum(rhs),rhsMax =  -1.64563918048088E-11  1.08666004768728E-01
 cg2d: Sum(rhs),rhsMax =  -1.63253854879031E-11  1.08594026586894E-01
 cg2d: Sum(rhs),rhsMax =  -1.62447832963153E-11  1.08493123785135E-01
 cg2d: Sum(rhs),rhsMax =  -1.62118096724839E-11  1.08363287605540E-01
 cg2d: Sum(rhs),rhsMax =  -1.61731739112270E-11  1.08204516936767E-01
 cg2d: Sum(rhs),rhsMax =  -1.61604063464438E-11  1.08016818774412E-01
 cg2d: Sum(rhs),rhsMax =  -1.61395341535808E-11  1.07800209301235E-01
 cg2d: Sum(rhs),rhsMax =  -1.61350932614823E-11  1.07554715689585E-01
 cg2d: Sum(rhs),rhsMax =  -1.61070046189593E-11  1.07280378688707E-01
 cg2d: Sum(rhs),rhsMax =  -1.60778057534117E-11  1.06977255974505E-01
 cg2d: Sum(rhs),rhsMax =  -1.60507163116108E-11  1.06645426158360E-01
 cg2d: Sum(rhs),rhsMax =  -1.60157442863351E-11  1.06284993272059E-01
 cg2d: Sum(rhs),rhsMax =  -1.59645630048999E-11  1.05896091479061E-01
 cg2d: Sum(rhs),rhsMax =  -1.59127155896499E-11  1.05478889692647E-01
 cg2d: Sum(rhs),rhsMax =  -1.59567914437275E-11  1.05033595763175E-01
 cg2d: Sum(rhs),rhsMax =  -1.59496860163699E-11  1.04560459886332E-01
 cg2d: Sum(rhs),rhsMax =  -1.59622315365482E-11  1.04059776891804E-01
 cg2d: Sum(rhs),rhsMax =  -1.59630086926654E-11  1.03531887115734E-01
 cg2d: Sum(rhs),rhsMax =  -1.60067514798357E-11  1.02977175631310E-01
 cg2d: Sum(rhs),rhsMax =  -1.60155222417302E-11  1.02396069705397E-01
 cg2d: Sum(rhs),rhsMax =  -1.60275126503961E-11  1.01789034458489E-01
 cg2d: Sum(rhs),rhsMax =  -1.60417235051113E-11  1.01156566822153E-01
 cg2d: Sum(rhs),rhsMax =  -1.60444990626729E-11  1.00499188002783E-01
 cg2d: Sum(rhs),rhsMax =  -1.60859103814914E-11  9.98174347629916E-02
 cg2d: Sum(rhs),rhsMax =  -1.60831348239299E-11  9.91118499132482E-02
 cg2d: Sum(rhs),rhsMax =  -1.61196611614400E-11  9.83829724615845E-02
 cg2d: Sum(rhs),rhsMax =  -1.61175517376932E-11  9.76313279042079E-02
 cg2d: Sum(rhs),rhsMax =  -1.61395341535808E-11  9.68574191246207E-02
 cg2d: Sum(rhs),rhsMax =  -1.61687330191285E-11  9.60617183526975E-02
 cg2d: Sum(rhs),rhsMax =  -1.61839430745658E-11  9.52446605889839E-02
 cg2d: Sum(rhs),rhsMax =  -1.62182489660267E-11  9.44066388195615E-02
 cg2d: Sum(rhs),rhsMax =  -1.62485580545990E-11  9.35480013193280E-02
 cg2d: Sum(rhs),rhsMax =  -1.62860835928313E-11  9.26690511800621E-02
 cg2d: Sum(rhs),rhsMax =  -1.63175029044282E-11  9.17700481178012E-02
 cg2d: Sum(rhs),rhsMax =  -1.63297153576991E-11  9.08512125166423E-02
 cg2d: Sum(rhs),rhsMax =  -1.63432600785995E-11  8.99127315625126E-02
 cg2d: Sum(rhs),rhsMax =  -1.63220548188292E-11  8.89547672198990E-02
 cg2d: Sum(rhs),rhsMax =  -1.63116187223977E-11  8.79774657184846E-02
 cg2d: Sum(rhs),rhsMax =  -1.64422919723961E-11  8.69809681415297E-02
 cg2d: Sum(rhs),rhsMax =  -1.66108238275342E-11  8.59654216506997E-02
 cg2d: Sum(rhs),rhsMax =  -1.67507119286370E-11  8.49309908471719E-02
 cg2d: Sum(rhs),rhsMax =  -1.69083635981337E-11  8.38778687470297E-02
 cg2d: Sum(rhs),rhsMax =  -1.70664593568404E-11  8.28062869027914E-02
 cg2d: Sum(rhs),rhsMax =  -1.72516445573478E-11  8.17165241764164E-02
 cg2d: Sum(rhs),rhsMax =  -1.74307235312199E-11  8.06089137951842E-02
 cg2d: Sum(rhs),rhsMax =  -1.76367809245903E-11  7.94838483992406E-02
 cg2d: Sum(rhs),rhsMax =  -1.78220771474003E-11  7.83417828713449E-02
 cg2d: Sum(rhs),rhsMax =  -1.80476744660041E-11  7.71832348473284E-02
 cg2d: Sum(rhs),rhsMax =  -1.83087989213959E-11  7.60087829199345E-02
 cg2d: Sum(rhs),rhsMax =  -1.87398985218579E-11  7.48190626628750E-02
 cg2d: Sum(rhs),rhsMax =  -1.91819893302636E-11  7.36147607089027E-02
 cg2d: Sum(rhs),rhsMax =  -1.94700922051538E-11  7.23966072078993E-02
 cg2d: Sum(rhs),rhsMax =  -1.96804794683203E-11  7.11653670610498E-02
 cg2d: Sum(rhs),rhsMax =  -1.99351646301693E-11  6.99218303692627E-02
 cg2d: Sum(rhs),rhsMax =  -2.02161620777019E-11  6.86668025451047E-02
 cg2d: Sum(rhs),rhsMax =  -2.05003791720060E-11  6.74010945185359E-02
 cg2d: Sum(rhs),rhsMax =  -2.08276729196655E-11  6.61255134221365E-02
 cg2d: Sum(rhs),rhsMax =  -2.11637374292195E-11  6.48408540780748E-02
 cg2d: Sum(rhs),rhsMax =  -2.15286677374138E-11  6.35478915346184E-02
 cg2d: Sum(rhs),rhsMax =  -2.18932649787007E-11  6.22473748230571E-02
 cg2d: Sum(rhs),rhsMax =  -2.22598606214319E-11  6.09400220315598E-02
 cg2d: Sum(rhs),rhsMax =  -2.26527685498468E-11  5.96265167381781E-02
 cg2d: Sum(rhs),rhsMax =  -2.30447882998419E-11  5.83075057893628E-02
 cg2d: Sum(rhs),rhsMax =  -2.34620101124960E-11  5.69835983807314E-02
 cg2d: Sum(rhs),rhsMax =  -2.39359643217085E-11  5.56553663840385E-02
 cg2d: Sum(rhs),rhsMax =  -2.44168019136737E-11  5.43233458361153E-02
 cg2d: Sum(rhs),rhsMax =  -2.49955611764108E-11  5.29880394877569E-02
 cg2d: Sum(rhs),rhsMax =  -2.55984122787822E-11  5.16499202855898E-02
 cg2d: Sum(rhs),rhsMax =  -2.62484478597003E-11  5.03094356666832E-02
 cg2d: Sum(rhs),rhsMax =  -2.69210209680182E-11  4.89670125310023E-02
 cg2d: Sum(rhs),rhsMax =  -2.76255684994453E-11  4.76230627089081E-02
 cg2d: Sum(rhs),rhsMax =  -2.83876255835480E-11  4.62779887644431E-02
 cg2d: Sum(rhs),rhsMax =  -2.91997537260613E-11  4.49321899676699E-02
 cg2d: Sum(rhs),rhsMax =  -3.00386382434681E-11  4.35860682586893E-02
 cg2d: Sum(rhs),rhsMax =  -3.09410275178834E-11  4.22400340138629E-02
 cg2d: Sum(rhs),rhsMax =  -3.19071435939122E-11  4.08945114154625E-02
 cg2d: Sum(rhs),rhsMax =  -3.29281601985087E-11  3.95499432237599E-02
 cg2d: Sum(rhs),rhsMax =  -3.40272254817364E-11  3.82067947588964E-02
 cg2d: Sum(rhs),rhsMax =  -3.52206597220572E-11  3.68655569207741E-02
 cg2d: Sum(rhs),rhsMax =  -3.64820951226363E-11  3.55267481091891E-02
 cg2d: Sum(rhs),rhsMax =  -3.78560516267612E-11  3.41909149524533E-02
 cg2d: Sum(rhs),rhsMax =  -3.93406418552900E-11  3.28586318085701E-02
 cg2d: Sum(rhs),rhsMax =  -4.09157707714769E-11  3.15304990654530E-02
 cg2d: Sum(rhs),rhsMax =  -4.26406687736858E-11  3.02071403317696E-02
 cg2d: Sum(rhs),rhsMax =  -4.45039560759142E-11  2.88891986733775E-02
 cg2d: Sum(rhs),rhsMax =  -4.65309457631236E-11  2.75773321069852E-02
 cg2d: Sum(rhs),rhsMax =  -4.87665463566600E-11  2.62722086072659E-02
 cg2d: Sum(rhs),rhsMax =  -5.12056508306102E-11  2.49745009119234E-02
 cg2d: Sum(rhs),rhsMax =  -5.38941113958913E-11  2.36848814190350E-02
 cg2d: Sum(rhs),rhsMax =  -5.68688707236475E-11  2.24040174623079E-02
 cg2d: Sum(rhs),rhsMax =  -6.01859395654714E-11  2.11325672232656E-02
 cg2d: Sum(rhs),rhsMax =  -6.38903235872235E-11  1.98711764952162E-02
 cg2d: Sum(rhs),rhsMax =  -6.20897500080986E-11  2.04307126166416E-02
 cg2d: Sum(rhs),rhsMax =  -5.97897460707930E-11  2.11762862729311E-02
 cg2d: Sum(rhs),rhsMax =  -5.76998657186856E-11  2.19167254037743E-02
 cg2d: Sum(rhs),rhsMax =  -5.56773238624686E-11  2.26799483960406E-02
 cg2d: Sum(rhs),rhsMax =  -5.38452338272322E-11  2.34354568071801E-02
 cg2d: Sum(rhs),rhsMax =  -5.20570253570440E-11  2.41973753524032E-02
 cg2d: Sum(rhs),rhsMax =  -5.03009578434188E-11  2.49895632242751E-02
 cg2d: Sum(rhs),rhsMax =  -4.86977957958601E-11  2.57736505741373E-02
 cg2d: Sum(rhs),rhsMax =  -4.72005767804262E-11  2.65494492970142E-02
 cg2d: Sum(rhs),rhsMax =  -4.58057480834384E-11  2.73167287688632E-02
 cg2d: Sum(rhs),rhsMax =  -4.45006809179915E-11  2.80752104528643E-02
 cg2d: Sum(rhs),rhsMax =  -4.33017510736988E-11  2.88245644697915E-02
 cg2d: Sum(rhs),rhsMax =  -4.21132573258376E-11  2.95644095321169E-02
 cg2d: Sum(rhs),rhsMax =  -4.10457223765093E-11  3.02943170942373E-02
 cg2d: Sum(rhs),rhsMax =  -4.00496857899668E-11  3.10138196042508E-02
 cg2d: Sum(rhs),rhsMax =  -3.90754650858582E-11  3.17224220394451E-02
 cg2d: Sum(rhs),rhsMax =  -3.82252007824491E-11  3.24196155714664E-02
 cg2d: Sum(rhs),rhsMax =  -3.73672759401700E-11  3.31048921118043E-02
 cg2d: Sum(rhs),rhsMax =  -3.65921182243767E-11  3.37777591441996E-02
 cg2d: Sum(rhs),rhsMax =  -3.58042484549514E-11  3.44377564802786E-02
 cg2d: Sum(rhs),rhsMax =  -3.51214612948070E-11  3.50844603633503E-02
 cg2d: Sum(rhs),rhsMax =  -3.44725359369136E-11  3.57174903582301E-02
 cg2d: Sum(rhs),rhsMax =  -3.38149508394281E-11  3.63365149849536E-02
 cg2d: Sum(rhs),rhsMax =  -3.31683569498864E-11  3.69412550976102E-02
 cg2d: Sum(rhs),rhsMax =  -3.25193205696905E-11  3.75314824665984E-02
 cg2d: Sum(rhs),rhsMax =  -3.19285708982875E-11  3.81070125445463E-02
 cg2d: Sum(rhs),rhsMax =  -3.13887804637147E-11  3.86676974605517E-02
 cg2d: Sum(rhs),rhsMax =  -3.08679748428631E-11  3.92134185063152E-02
 cg2d: Sum(rhs),rhsMax =  -3.03684855040842E-11  3.97440778060519E-02
 cg2d: Sum(rhs),rhsMax =  -2.98975288970382E-11  4.02595896935792E-02
 cg2d: Sum(rhs),rhsMax =  -2.94503310627192E-11  4.07598722611528E-02
 cg2d: Sum(rhs),rhsMax =  -2.90262258673124E-11  4.12448399785609E-02
 cg2d: Sum(rhs),rhsMax =  -2.85903523078446E-11  4.17143983034180E-02
(PID.TID 0000.0001)      cg2d_init_res =   8.72681314548831E-02
(PID.TID 0000.0001)      cg2d_iters(min,last) =      -1      36
(PID.TID 0000.0001)      cg2d_last_res =   6.62311026858542E-14
(PID.TID 0000.0001) // =======================================================
(PID.TID 0000.0001) // Begin MONITOR dynamic field statistics
(PID.TID 0000.0001) // =======================================================
(PID.TID 0000.0001) %MON time_tsnumber                =                  4800
(PID.TID 0000.0001) %MON time_secondsf                =   7.2000000000000E+04
(PID.TID 0000.0001) %MON dynstat_eta_max              =   9.6268379336399E-03
(PID.TID 0000.0001) %MON dynstat_eta_min              =  -9.0642298877528E-03
(PID.TID 0000.0001) %MON dynstat_eta_mean             =   2.4761786831053E-15
(PID.TID 0000.0001) %MON dynstat_eta_sd               =   6.2165170014577E-03
(PID.TID 0000.0001) %MON dynstat_eta_del2             =   1.0944673272606E-05
(PID.TID 0000.0001) %MON dynstat_uvel_max             =   7.5937272894779E-01
(PID.TID 0000.0001) %MON dynstat_uvel_min             =  -2.1581903147534E-01
(PID.TID 0000.0001) %MON dynstat_uvel_mean            =   1.0872705926315E-01
(PID.TID 0000.0001) %MON dynstat_uvel_sd              =   8.0627670905080E-02
(PID.TID 0000.0001) %MON dynstat_uvel_del2            =   1.8946224816130E-04
(PID.TID 0000.0001) %MON dynstat_vvel_max             =   0.0000000000000E+00
(PID.TID 0000.0001) %MON dynstat_vvel_min             =   0.0000000000000E+00
(PID.TID 0000.0001) %MON dynstat_vvel_mean            =   0.0000000000000E+00
(PID.TID 0000.0001) %MON dynstat_vvel_sd              =   0.0000000000000E+00
(PID.TID 0000.0001) %MON dynstat_vvel_del2            =   0.0000000000000E+00
(PID.TID 0000.0001) %MON dynstat_wvel_max             =   3.8822521831574E-03
(PID.TID 0000.0001) %MON dynstat_wvel_min             =  -1.0471623503983E-02
(PID.TID 0000.0001) %MON dynstat_wvel_mean            =  -1.7247503607708E-20
(PID.TID 0000.0001) %MON dynstat_wvel_sd              =   5.2452475192320E-04
(PID.TID 0000.0001) %MON dynstat_wvel_del2            =   8.7466936451614E-06
(PID.TID 0000.0001) %MON dynstat_theta_max            =   1.5000000000011E+01
(PID.TID 0000.0001) %MON dynstat_theta_min            =   9.9999999999919E+00
(PID.TID 0000.0001) %MON dynstat_theta_mean           =   1.2522123266953E+01
(PID.TID 0000.0001) %MON dynstat_theta_sd             =   2.4508039296890E+00
(PID.TID 0000.0001) %MON dynstat_theta_del2           =   1.0499554568473E-03
(PID.TID 0000.0001) %MON dynstat_salt_max             =   3.5000000000000E+01
(PID.TID 0000.0001) %MON dynstat_salt_min             =   3.5000000000000E+01
(PID.TID 0000.0001) %MON dynstat_salt_mean            =   3.5000000000000E+01
(PID.TID 0000.0001) %MON dynstat_salt_sd              =   3.9790393202566E-13
(PID.TID 0000.0001) %MON dynstat_salt_del2            =   0.0000000000000E+00
(PID.TID 0000.0001) %MON dynstat_sst_max              =   1.5000000000000E+01
(PID.TID 0000.0001) %MON dynstat_sst_min              =   1.4999999999997E+01
(PID.TID 0000.0001) %MON dynstat_sst_mean             =   1.4999999999999E+01
(PID.TID 0000.0001) %MON dynstat_sst_sd               =   6.4893410272446E-13
(PID.TID 0000.0001) %MON dynstat_sst_del2             =   1.2787014565880E-14
(PID.TID 0000.0001) %MON dynstat_sss_max              =   3.5000000000000E+01
(PID.TID 0000.0001) %MON dynstat_sss_min              =   3.5000000000000E+01
(PID.TID 0000.0001) %MON dynstat_sss_mean             =   3.5000000000000E+01
(PID.TID 0000.0001) %MON dynstat_sss_sd               =   5.6843418860808E-14
(PID.TID 0000.0001) %MON dynstat_sss_del2             =   0.0000000000000E+00
(PID.TID 0000.0001) %MON forcing_qnet_max             =   0.0000000000000E+00
(PID.TID 0000.0001) %MON forcing_qnet_min             =   0.0000000000000E+00
(PID.TID 0000.0001) %MON forcing_qnet_mean            =   0.0000000000000E+00
(PID.TID 0000.0001) %MON forcing_qnet_sd              =   0.0000000000000E+00
(PID.TID 0000.0001) %MON forcing_qnet_del2            =   0.0000000000000E+00
(PID.TID 0000.0001) %MON forcing_qsw_max              =   0.0000000000000E+00
(PID.TID 0000.0001) %MON forcing_qsw_min              =   0.0000000000000E+00
(PID.TID 0000.0001) %MON forcing_qsw_mean             =   0.0000000000000E+00
(PID.TID 0000.0001) %MON forcing_qsw_sd               =   0.0000000000000E+00
(PID.TID 0000.0001) %MON forcing_qsw_del2             =   0.0000000000000E+00
(PID.TID 0000.0001) %MON forcing_empmr_max            =   0.0000000000000E+00
(PID.TID 0000.0001) %MON forcing_empmr_min            =   0.0000000000000E+00
(PID.TID 0000.0001) %MON forcing_empmr_mean           =   0.0000000000000E+00
(PID.TID 0000.0001) %MON forcing_empmr_sd             =   0.0000000000000E+00
(PID.TID 0000.0001) %MON forcing_empmr_del2           =   0.0000000000000E+00
(PID.TID 0000.0001) %MON forcing_fu_max               =   0.0000000000000E+00
(PID.TID 0000.0001) %MON forcing_fu_min               =   0.0000000000000E+00
(PID.TID 0000.0001) %MON forcing_fu_mean              =   0.0000000000000E+00
(PID.TID 0000.0001) %MON forcing_fu_sd                =   0.0000000000000E+00
(PID.TID 0000.0001) %MON forcing_fu_del2              =   0.0000000000000E+00
(PID.TID 0000.0001) %MON forcing_fv_max               =   0.0000000000000E+00
(PID.TID 0000.0001) %MON forcing_fv_min               =   0.0000000000000E+00
(PID.TID 0000.0001) %MON forcing_fv_mean              =   0.0000000000000E+00
(PID.TID 0000.0001) %MON forcing_fv_sd                =   0.0000000000000E+00
(PID.TID 0000.0001) %MON forcing_fv_del2              =   0.0000000000000E+00
(PID.TID 0000.0001) %MON advcfl_uvel_max              =   5.6952954671084E-02
(PID.TID 0000.0001) %MON advcfl_vvel_max              =   0.0000000000000E+00
(PID.TID 0000.0001) %MON advcfl_wvel_max              =   1.3693509049326E-01
(PID.TID 0000.0001) %MON advcfl_W_hf_max              =   1.3693509049326E-01
(PID.TID 0000.0001) %MON pe_b_mean                    =   9.7326528548496E-07
(PID.TID 0000.0001) %MON ke_max                       =   2.1181432040834E-01
(PID.TID 0000.0001) %MON ke_mean                      =   9.1961299678662E-03
(PID.TID 0000.0001) %MON ke_vol                       =   9.5121673331316E+10
(PID.TID 0000.0001) %MON vort_r_min                   =   0.0000000000000E+00
(PID.TID 0000.0001) %MON vort_r_max                   =   0.0000000000000E+00
(PID.TID 0000.0001) %MON vort_a_mean                  =   0.0000000000000E+00
(PID.TID 0000.0001) %MON vort_a_sd                    =   0.0000000000000E+00
(PID.TID 0000.0001) %MON vort_p_mean                  =   0.0000000000000E+00
(PID.TID 0000.0001) %MON vort_p_sd                    =   0.0000000000000E+00
(PID.TID 0000.0001) %MON surfExpan_theta_mean         =  -1.6559476215725E-18
(PID.TID 0000.0001) %MON surfExpan_salt_mean          =  -9.3993765756394E-19
(PID.TID 0000.0001) // =======================================================
(PID.TID 0000.0001) // End MONITOR dynamic field statistics
(PID.TID 0000.0001) // =======================================================
(PID.TID 0000.0001) // =======================================================
(PID.TID 0000.0001) // Begin OBCS MONITOR field statistics
(PID.TID 0000.0001) // =======================================================
(PID.TID 0000.0001) %MON obc_E_uVel_max               =   1.0505355776936E-01
(PID.TID 0000.0001) %MON obc_E_uVel_min               =   1.0505355776936E-01
(PID.TID 0000.0001) %MON obc_E_uVel_mean              =   1.0505355776936E-01
(PID.TID 0000.0001) %MON obc_E_uVel_sd                =  -6.9388939039072E-18
(PID.TID 0000.0001) %MON obc_E_uVel_Int               =   1.0505355776936E+05
(PID.TID 0000.0001) %MON obc_W_uVel_max               =   1.0505355776936E-01
(PID.TID 0000.0001) %MON obc_W_uVel_min               =   1.0505355776936E-01
(PID.TID 0000.0001) %MON obc_W_uVel_mean              =   1.0505355776936E-01
(PID.TID 0000.0001) %MON obc_W_uVel_sd                =  -6.9388939039072E-18
(PID.TID 0000.0001) %MON obc_W_uVel_Int               =   1.0505355776936E+05
(PID.TID 0000.0001) // =======================================================
(PID.TID 0000.0001) // End OBCS MONITOR field statistics
(PID.TID 0000.0001) // =======================================================
 cg2d: Sum(rhs),rhsMax =  -2.82052159406021E-11  4.21684379289934E-02
 cg2d: Sum(rhs),rhsMax =  -2.78289613575566E-11  4.26068300303225E-02
 cg2d: Sum(rhs),rhsMax =  -2.74855693760401E-11  4.30294222312975E-02
 cg2d: Sum(rhs),rhsMax =  -2.71740407953303E-11  4.34360404289829E-02
 cg2d: Sum(rhs),rhsMax =  -2.68755018240086E-11  4.38264901392770E-02
 cg2d: Sum(rhs),rhsMax =  -2.66030530937655E-11  4.42005583914276E-02
 cg2d: Sum(rhs),rhsMax =  -2.62966315389690E-11  4.45580168375135E-02
 cg2d: Sum(rhs),rhsMax =  -2.60368393512067E-11  4.48986261830233E-02
 cg2d: Sum(rhs),rhsMax =  -2.57694976468770E-11  4.52221414502771E-02
 cg2d: Sum(rhs),rhsMax =  -2.54826160173138E-11  4.55283178719664E-02
 cg2d: Sum(rhs),rhsMax =  -2.51811904661281E-11  4.58169190028955E-02
 cg2d: Sum(rhs),rhsMax =  -2.49367193561056E-11  4.60877169307979E-02
 cg2d: Sum(rhs),rhsMax =  -2.47287745835933E-11  4.63404935030243E-02
 cg2d: Sum(rhs),rhsMax =  -2.45050646441314E-11  4.65750439240126E-02
 cg2d: Sum(rhs),rhsMax =  -2.42820208384842E-11  4.67911797563559E-02
 cg2d: Sum(rhs),rhsMax =  -2.41031639092171E-11  4.69887306896747E-02
 cg2d: Sum(rhs),rhsMax =  -2.38945530028900E-11  4.71675445440124E-02
 cg2d: Sum(rhs),rhsMax =  -2.37492248089666E-11  4.73274876486765E-02
 cg2d: Sum(rhs),rhsMax =  -2.36666242159345E-11  4.74684452668666E-02
 cg2d: Sum(rhs),rhsMax =  -2.35406139026395E-11  4.75903233685371E-02
 cg2d: Sum(rhs),rhsMax =  -2.34048336267279E-11  4.76930505352888E-02
 cg2d: Sum(rhs),rhsMax =  -2.33776331626245E-11  4.77765753443616E-02
 cg2d: Sum(rhs),rhsMax =  -2.33042474206968E-11  4.78408696673928E-02
 cg2d: Sum(rhs),rhsMax =  -2.32700525515384E-11  4.78859317450719E-02
 cg2d: Sum(rhs),rhsMax =  -2.33824071216304E-11  4.79117844179180E-02
 cg2d: Sum(rhs),rhsMax =  -2.33688624007300E-11  4.79184719898465E-02
 cg2d: Sum(rhs),rhsMax =  -2.34040564706106E-11  4.79060571841580E-02
 cg2d: Sum(rhs),rhsMax =  -2.34431363210774E-11  4.78746179891885E-02
 cg2d: Sum(rhs),rhsMax =  -2.35202968212889E-11  4.78242439630093E-02
 cg2d: Sum(rhs),rhsMax =  -2.36095587524687E-11  4.77550310718459E-02
 cg2d: Sum(rhs),rhsMax =  -2.36938246800378E-11  4.76670763453152E-02
 cg2d: Sum(rhs),rhsMax =  -2.38030706256609E-11  4.75604766109996E-02
 cg2d: Sum(rhs),rhsMax =  -2.39031017201796E-11  4.74353233885257E-02
 cg2d: Sum(rhs),rhsMax =  -2.40243380744687E-11  4.72916997386867E-02
 cg2d: Sum(rhs),rhsMax =  -2.42019737584087E-11  4.71296786409417E-02
 cg2d: Sum(rhs),rhsMax =  -2.43368658559007E-11  4.69493202889262E-02
 cg2d: Sum(rhs),rhsMax =  -2.44638753699178E-11  4.67506728779204E-02
 cg2d: Sum(rhs),rhsMax =  -2.46835885064911E-11  4.65337766288735E-02
 cg2d: Sum(rhs),rhsMax =  -2.48707721084429E-11  4.62986687350839E-02
 cg2d: Sum(rhs),rhsMax =  -2.50893750219916E-11  4.60453884878531E-02
 cg2d: Sum(rhs),rhsMax =  -2.53129739391511E-11  4.57739825276845E-02
 cg2d: Sum(rhs),rhsMax =  -2.55838683571596E-11  4.54845100737788E-02
 cg2d: Sum(rhs),rhsMax =  -2.58237875527811E-11  4.51770477235935E-02
 cg2d: Sum(rhs),rhsMax =  -2.60746979563464E-11  4.48516875030671E-02
 cg2d: Sum(rhs),rhsMax =  -2.63638000319588E-11  4.45085471660110E-02
 cg2d: Sum(rhs),rhsMax =  -2.66942024040873E-11  4.41477722462996E-02
 cg2d: Sum(rhs),rhsMax =  -2.70502509280846E-11  4.37695357012881E-02
 cg2d: Sum(rhs),rhsMax =  -2.73269185058211E-11  4.33740347576967E-02
 cg2d: Sum(rhs),rhsMax =  -2.76600964355112E-11  4.29614876202152E-02
 cg2d: Sum(rhs),rhsMax =  -2.79928302759913E-11  4.25321305729022E-02
 cg2d: Sum(rhs),rhsMax =  -2.83588708072102E-11  4.20862151511076E-02
 cg2d: Sum(rhs),rhsMax =  -2.87463386428044E-11  4.16240053586490E-02
 cg2d: Sum(rhs),rhsMax =  -2.91331403445838E-11  4.11457747190444E-02
 cg2d: Sum(rhs),rhsMax =  -2.95481417111887E-11  4.06518037681933E-02
 cg2d: Sum(rhs),rhsMax =  -3.00220959204012E-11  4.01423783021812E-02
 cg2d: Sum(rhs),rhsMax =  -3.04515301863262E-11  3.96177881339865E-02
 cg2d: Sum(rhs),rhsMax =  -3.09127168307555E-11  3.90783262505545E-02
 cg2d: Sum(rhs),rhsMax =  -3.14873682683015E-11  3.85242880151604E-02
 cg2d: Sum(rhs),rhsMax =  -3.20560245015145E-11  3.79559689545826E-02
 cg2d: Sum(rhs),rhsMax =  -3.26441096376584E-11  3.73736639736102E-02
 cg2d: Sum(rhs),rhsMax =  -3.32649463530288E-11  3.67776749439951E-02
 cg2d: Sum(rhs),rhsMax =  -3.39175354469035E-11  3.61683105249534E-02
 cg2d: Sum(rhs),rhsMax =  -3.45942163804125E-11  3.55458829486865E-02
 cg2d: Sum(rhs),rhsMax =  -3.53419515874975E-11  3.49107079789845E-02
 cg2d: Sum(rhs),rhsMax =  -3.61147778349391E-11  3.42631050244224E-02
 cg2d: Sum(rhs),rhsMax =  -3.68440833398154E-11  3.36033950317816E-02
 cg2d: Sum(rhs),rhsMax =  -3.76679243352385E-11  3.29319011799825E-02
 cg2d: Sum(rhs),rhsMax =  -3.84786091878198E-11  3.22489489844782E-02
 cg2d: Sum(rhs),rhsMax =  -3.93698962319888E-11  3.15548656171040E-02
 cg2d: Sum(rhs),rhsMax =  -4.03260203007960E-11  3.08499788893543E-02
 cg2d: Sum(rhs),rhsMax =  -4.13051259862129E-11  3.01346158429559E-02
 cg2d: Sum(rhs),rhsMax =  -4.24143498101159E-11  2.94091011198325E-02
 cg2d: Sum(rhs),rhsMax =  -4.35390057340612E-11  2.86737552200184E-02
 cg2d: Sum(rhs),rhsMax =  -4.47623049737444E-11  2.79288932351842E-02
 cg2d: Sum(rhs),rhsMax =  -4.60679272507036E-11  2.71748240905594E-02
 cg2d: Sum(rhs),rhsMax =  -4.74435490893654E-11  2.64118502213006E-02
 cg2d: Sum(rhs),rhsMax =  -4.89267515391134E-11  2.56402677972963E-02
 cg2d: Sum(rhs),rhsMax =  -5.05392949712302E-11  2.48603661436581E-02
 cg2d: Sum(rhs),rhsMax =  -5.22487886289724E-11  2.40724334124259E-02
 cg2d: Sum(rhs),rhsMax =  -5.41589273428400E-11  2.32767594896277E-02
 cg2d: Sum(rhs),rhsMax =  -5.61393154185907E-11  2.24736379809766E-02
 cg2d: Sum(rhs),rhsMax =  -5.82976722451889E-11  2.16633684574441E-02
 cg2d: Sum(rhs),rhsMax =  -6.06870942387872E-11  2.08462589770638E-02
 cg2d: Sum(rhs),rhsMax =  -6.32892870056079E-11  2.00226277960616E-02
 cg2d: Sum(rhs),rhsMax =  -6.60895713155973E-11  1.91928061800473E-02
 cg2d: Sum(rhs),rhsMax =  -6.55617782285844E-11  1.93759403255522E-02
 cg2d: Sum(rhs),rhsMax =  -6.20897222525230E-11  2.04977325149151E-02
 cg2d: Sum(rhs),rhsMax =  -5.86204140784474E-11  2.17243838643704E-02
 cg2d: Sum(rhs),rhsMax =  -5.55518964162616E-11  2.29659843725266E-02
 cg2d: Sum(rhs),rhsMax =  -5.27318189114112E-11  2.42150239336791E-02
 cg2d: Sum(rhs),rhsMax =  -5.02056729523304E-11  2.54709288362897E-02
 cg2d: Sum(rhs),rhsMax =  -4.79025152877455E-11  2.67331180108333E-02
 cg2d: Sum(rhs),rhsMax =  -4.57914262064207E-11  2.80010036579399E-02
 cg2d: Sum(rhs),rhsMax =  -4.38578062755823E-11  2.92739919710843E-02
 cg2d: Sum(rhs),rhsMax =  -4.20886658858421E-11  3.05514840028936E-02
 cg2d: Sum(rhs),rhsMax =  -4.04415390065083E-11  3.18328767127907E-02
 cg2d: Sum(rhs),rhsMax =  -3.89300813807836E-11  3.31175642183324E-02
 cg2d: Sum(rhs),rhsMax =  -3.75232622751298E-11  3.44049392560716E-02
 cg2d: Sum(rhs),rhsMax =  -3.62337937431789E-11  3.56943948452930E-02
 cg2d: Sum(rhs),rhsMax =  -3.50239837132449E-11  3.69853260796937E-02
 cg2d: Sum(rhs),rhsMax =  -3.38964412094356E-11  3.82771320357218E-02
 cg2d: Sum(rhs),rhsMax =  -3.28473914734673E-11  3.95692177318359E-02
 cg2d: Sum(rhs),rhsMax =  -3.18514659092273E-11  4.08609960641701E-02
 cg2d: Sum(rhs),rhsMax =  -3.09248182617239E-11  4.21518896408073E-02
 cg2d: Sum(rhs),rhsMax =  -3.00561797672572E-11  4.34413324382846E-02
 cg2d: Sum(rhs),rhsMax =  -2.92269541901646E-11  4.47287712073716E-02
 cg2d: Sum(rhs),rhsMax =  -2.84480217160876E-11  4.60136665583227E-02
 cg2d: Sum(rhs),rhsMax =  -2.77329270659266E-11  4.72954936584669E-02
 cg2d: Sum(rhs),rhsMax =  -2.70408140323752E-11  4.85737424838468E-02
 cg2d: Sum(rhs),rhsMax =  -2.64018806817035E-11  4.98479175806200E-02
 cg2d: Sum(rhs),rhsMax =  -2.57822652116602E-11  5.11175373174184E-02
 cg2d: Sum(rhs),rhsMax =  -2.51947351870285E-11  5.23821326482772E-02
 cg2d: Sum(rhs),rhsMax =  -2.47208920001185E-11  5.36412454464215E-02
 cg2d: Sum(rhs),rhsMax =  -2.42451614340666E-11  5.48944265060224E-02
 cg2d: Sum(rhs),rhsMax =  -2.38217223724746E-11  5.61412333357994E-02
 cg2d: Sum(rhs),rhsMax =  -2.33892905043831E-11  5.73812278822905E-02
 cg2d: Sum(rhs),rhsMax =  -2.29944951968264E-11  5.86139743186717E-02
 cg2d: Sum(rhs),rhsMax =  -2.26064722497199E-11  5.98390370424021E-02
 cg2d: Sum(rhs),rhsMax =  -2.22448726105995E-11  6.10559789979512E-02
 cg2d: Sum(rhs),rhsMax =  -2.19042561866445E-11  6.22643604231179E-02
 cg2d: Sum(rhs),rhsMax =  -2.15754081267505E-11  6.34637381025139E-02
 cg2d: Sum(rhs),rhsMax =  -2.12668771482072E-11  6.46536651850901E-02
 cg2d: Sum(rhs),rhsMax =  -2.09579020804540E-11  6.58336915891829E-02
 cg2d: Sum(rhs),rhsMax =  -2.06751282760820E-11  6.70033649802109E-02
 cg2d: Sum(rhs),rhsMax =  -2.04164463113443E-11  6.81622322663885E-02
 cg2d: Sum(rhs),rhsMax =  -2.01585415027239E-11  6.93098415215797E-02
 cg2d: Sum(rhs),rhsMax =  -1.99128491473743E-11  7.04457442119733E-02
 cg2d: Sum(rhs),rhsMax =  -1.96569427401982E-11  7.15694975740826E-02
 cg2d: Sum(rhs),rhsMax =  -1.94319005331067E-11  7.26806669722574E-02
 cg2d: Sum(rhs),rhsMax =  -1.92129645526506E-11  7.37788280633887E-02
 cg2d: Sum(rhs),rhsMax =  -1.90191196125511E-11  7.48635686117175E-02
 cg2d: Sum(rhs),rhsMax =  -1.88009607882123E-11  7.59344897858680E-02
 cg2d: Sum(rhs),rhsMax =  -1.86100024279767E-11  7.69912068175432E-02
 cg2d: Sum(rhs),rhsMax =  -1.84224857591175E-11  7.80333489484809E-02
 cg2d: Sum(rhs),rhsMax =  -1.82456272312947E-11  7.90605586488905E-02
 cg2d: Sum(rhs),rhsMax =  -1.80699899487990E-11  8.00724901508378E-02
 cg2d: Sum(rhs),rhsMax =  -1.78984604914945E-11  8.10688073978801E-02
 cg2d: Sum(rhs),rhsMax =  -1.77385883759484E-11  8.20491815618272E-02
 cg2d: Sum(rhs),rhsMax =  -1.75802705726369E-11  8.30132883141984E-02
 cg2d: Sum(rhs),rhsMax =  -1.74347203341085E-11  8.39608050608484E-02
 cg2d: Sum(rhs),rhsMax =  -1.73502323619346E-11  8.48914083519894E-02
 cg2d: Sum(rhs),rhsMax =  -1.72694081257418E-11  8.58047716663043E-02
 cg2d: Sum(rhs),rhsMax =  -1.72097891493195E-11  8.67005637378227E-02
 cg2d: Sum(rhs),rhsMax =  -1.71326286491080E-11  8.75784475497857E-02
 cg2d: Sum(rhs),rhsMax =  -1.70665703791428E-11  8.84380800644269E-02
 cg2d: Sum(rhs),rhsMax =  -1.70111702502140E-11  8.92791126959118E-02
 cg2d: Sum(rhs),rhsMax =  -1.69423364226873E-11  9.01011924751018E-02
 cg2d: Sum(rhs),rhsMax =  -1.68799418887033E-11  9.09039637995018E-02
 cg2d: Sum(rhs),rhsMax =  -1.68274283396386E-11  9.16870706154719E-02
 cg2d: Sum(rhs),rhsMax =  -1.67945657381097E-11  9.24501588531635E-02
 cg2d: Sum(rhs),rhsMax =  -1.67286184904469E-11  9.31928789204787E-02
 cg2d: Sum(rhs),rhsMax =  -1.66853197924866E-11  9.39148880649524E-02
 cg2d: Sum(rhs),rhsMax =  -1.66512359456306E-11  9.46158524227460E-02
 cg2d: Sum(rhs),rhsMax =  -1.66078262253677E-11  9.52954485968642E-02
 cg2d: Sum(rhs),rhsMax =  -1.65938374152574E-11  9.59533646580921E-02
 cg2d: Sum(rhs),rhsMax =  -1.65683022856911E-11  9.65893004968598E-02
 cg2d: Sum(rhs),rhsMax =  -1.65344404834400E-11  9.72029675019545E-02
 cg2d: Sum(rhs),rhsMax =  -1.64952496106707E-11  9.77940875904350E-02
 cg2d: Sum(rhs),rhsMax =  -1.64813718228629E-11  9.83623916592035E-02
 cg2d: Sum(rhs),rhsMax =  -1.64483981990315E-11  9.89076175635423E-02
 cg2d: Sum(rhs),rhsMax =  -1.64422919723961E-11  9.94295077793868E-02
 cg2d: Sum(rhs),rhsMax =  -1.64167568428297E-11  9.99278069338197E-02
 cg2d: Sum(rhs),rhsMax =  -1.65474300928281E-11  1.00402259378367E-01
 cg2d: Sum(rhs),rhsMax =  -1.63905555794486E-11  1.00852607013164E-01
 cg2d: Sum(rhs),rhsMax =  -1.64335212105016E-11  1.01278587581187E-01
 cg2d: Sum(rhs),rhsMax =  -1.64365188126681E-11  1.01679933612175E-01
 cg2d: Sum(rhs),rhsMax =  -1.65136793128795E-11  1.02056372181460E-01
 cg2d: Sum(rhs),rhsMax =  -1.65704117094378E-11  1.02407625638949E-01
 cg2d: Sum(rhs),rhsMax =  -1.66251457045519E-11  1.02733413381981E-01
 cg2d: Sum(rhs),rhsMax =  -1.66410218938040E-11  1.03033454676008E-01
 cg2d: Sum(rhs),rhsMax =  -1.66959779335230E-11  1.03307472466677E-01
 cg2d: Sum(rhs),rhsMax =  -1.66655578226482E-11  1.03555198044226E-01
 cg2d: Sum(rhs),rhsMax =  -1.67069691414667E-11  1.03776376349509E-01
 cg2d: Sum(rhs),rhsMax =  -1.67280633789346E-11  1.03970771648804E-01
 cg2d: Sum(rhs),rhsMax =  -1.66898717068875E-11  1.04138173257727E-01
 cg2d: Sum(rhs),rhsMax =  -1.66462399420197E-11  1.04278400968083E-01
 cg2d: Sum(rhs),rhsMax =  -1.66797686773634E-11  1.04391309829943E-01
 cg2d: Sum(rhs),rhsMax =  -1.66235913923174E-11  1.04476793966890E-01
 cg2d: Sum(rhs),rhsMax =  -1.66250346822494E-11  1.04534789154787E-01
 cg2d: Sum(rhs),rhsMax =  -1.66142655189105E-11  1.04565273970441E-01
 cg2d: Sum(rhs),rhsMax =  -1.66973102011525E-11  1.04568269410709E-01
 cg2d: Sum(rhs),rhsMax =  -1.67669211847965E-11  1.04543836971858E-01
 cg2d: Sum(rhs),rhsMax =  -1.68184355331391E-11  1.04492075353856E-01
 cg2d: Sum(rhs),rhsMax =  -1.68159930424849E-11  1.04413115965581E-01
 cg2d: Sum(rhs),rhsMax =  -1.67947877827146E-11  1.04307117537206E-01
 cg2d: Sum(rhs),rhsMax =  -1.67846847531905E-11  1.04174260210331E-01
 cg2d: Sum(rhs),rhsMax =  -1.67658109617719E-11  1.04014739506803E-01
 cg2d: Sum(rhs),rhsMax =  -1.67522662408714E-11  1.03828760572181E-01
 cg2d: Sum(rhs),rhsMax =  -1.67404978768104E-11  1.03616533053954E-01
 cg2d: Sum(rhs),rhsMax =  -1.67151847918490E-11  1.03378266914264E-01
 cg2d: Sum(rhs),rhsMax =  -1.66949787328008E-11  1.03114169380217E-01
 cg2d: Sum(rhs),rhsMax =  -1.66738844953329E-11  1.02824443171641E-01
 cg2d: Sum(rhs),rhsMax =  -1.66354707786809E-11  1.02509286037272E-01
 cg2d: Sum(rhs),rhsMax =  -1.65749636238388E-11  1.02168891536315E-01
 cg2d: Sum(rhs),rhsMax =  -1.65605307245187E-11  1.01803450915820E-01
 cg2d: Sum(rhs),rhsMax =  -1.64996905027692E-11  1.01413155861787E-01
 cg2d: Sum(rhs),rhsMax =  -1.64609437192098E-11  1.00998201848332E-01
 cg2d: Sum(rhs),rhsMax =  -1.64893654286402E-11  1.00558791777701E-01
 cg2d: Sum(rhs),rhsMax =  -1.65184532718854E-11  1.00095139594980E-01
 cg2d: Sum(rhs),rhsMax =  -1.65227831416814E-11  9.96074735732668E-02
 cg2d: Sum(rhs),rhsMax =  -1.65424340892173E-11  9.90960389953445E-02
 cg2d: Sum(rhs),rhsMax =  -1.65456537359887E-11  9.85611000048519E-02
 cg2d: Sum(rhs),rhsMax =  -1.65593094791916E-11  9.80029404609844E-02
 cg2d: Sum(rhs),rhsMax =  -1.65369939963966E-11  9.74218636878287E-02
 cg2d: Sum(rhs),rhsMax =  -1.67780234150428E-11  9.68181911200022E-02
 cg2d: Sum(rhs),rhsMax =  -1.68907110520422E-11  9.61922599120415E-02
 cg2d: Sum(rhs),rhsMax =  -1.70138347854731E-11  9.55444196592118E-02
 cg2d: Sum(rhs),rhsMax =  -1.73150382920539E-11  9.48750284476368E-02
 cg2d: Sum(rhs),rhsMax =  -1.73296932359790E-11  9.41844485042609E-02
 cg2d: Sum(rhs),rhsMax =  -1.73576708561995E-11  9.34730417465439E-02
 cg2d: Sum(rhs),rhsMax =  -1.74105174721717E-11  9.27411655354412E-02
 cg2d: Sum(rhs),rhsMax =  -1.74669168018227E-11  9.19891689132949E-02
 cg2d: Sum(rhs),rhsMax =  -1.75233161314736E-11  9.12173895632145E-02
 cg2d: Sum(rhs),rhsMax =  -1.76014758324072E-11  9.04261516629340E-02
 cg2d: Sum(rhs),rhsMax =  -1.76550996044966E-11  8.96157647250549E-02
 cg2d: Sum(rhs),rhsMax =  -1.77261538780726E-11  8.87865234515819E-02
 cg2d: Sum(rhs),rhsMax =  -1.78020931329570E-11  8.79387085469055E-02
 cg2d: Sum(rhs),rhsMax =  -1.78662640237803E-11  8.70725883551342E-02
 cg2d: Sum(rhs),rhsMax =  -1.79345427397948E-11  8.61884211513724E-02
 cg2d: Sum(rhs),rhsMax =  -1.80242487601845E-11  8.52864578876739E-02
 cg2d: Sum(rhs),rhsMax =  -1.80928605431063E-11  8.43669451853985E-02
 cg2d: Sum(rhs),rhsMax =  -1.82629467104789E-11  8.34301283757619E-02
 cg2d: Sum(rhs),rhsMax =  -1.84223747368151E-11  8.24762544181917E-02
 cg2d: Sum(rhs),rhsMax =  -1.85850224099227E-11  8.15055745689953E-02
 cg2d: Sum(rhs),rhsMax =  -1.87575510679494E-11  8.05183467263866E-02
 cg2d: Sum(rhs),rhsMax =  -1.89447346699012E-11  7.95148374348927E-02
 cg2d: Sum(rhs),rhsMax =  -1.91249238667979E-11  7.84953235870537E-02
 cg2d: Sum(rhs),rhsMax =  -1.93284277472117E-11  7.74600939281216E-02
 cg2d: Sum(rhs),rhsMax =  -1.95314875384156E-11  7.64094504076126E-02
 cg2d: Sum(rhs),rhsMax =  -1.97338811958048E-11  7.53437095270867E-02
 cg2d: Sum(rhs),rhsMax =  -1.99611438489455E-11  7.42632037736628E-02
 cg2d: Sum(rhs),rhsMax =  -2.01939576172094E-11  7.31682831850068E-02
 cg2d: Sum(rhs),rhsMax =  -2.04423145078181E-11  7.20593170394249E-02
 cg2d: Sum(rhs),rhsMax =  -2.07119876804995E-11  7.09366956102779E-02
 cg2d: Sum(rhs),rhsMax =  -2.09651185301141E-11  6.98008318750665E-02
 cg2d: Sum(rhs),rhsMax =  -2.12422301970605E-11  6.86521630338048E-02
 cg2d: Sum(rhs),rhsMax =  -2.15318873841852E-11  6.74911516750484E-02
 cg2d: Sum(rhs),rhsMax =  -2.18438600541049E-11  6.63182864352476E-02
 cg2d: Sum(rhs),rhsMax =  -2.21516138765310E-11  6.51340820290934E-02
 cg2d: Sum(rhs),rhsMax =  -2.24871232745727E-11  6.39390785830657E-02
 cg2d: Sum(rhs),rhsMax =  -2.28138619107199E-11  6.27338402760853E-02
 cg2d: Sum(rhs),rhsMax =  -2.31864527577841E-11  6.15189533718558E-02
 cg2d: Sum(rhs),rhsMax =  -2.35685915228601E-11  6.02950238111717E-02
 cg2d: Sum(rhs),rhsMax =  -2.39718245254039E-11  5.90626745767797E-02
 cg2d: Sum(rhs),rhsMax =  -2.43782771747192E-11  5.78225431146641E-02
 cg2d: Sum(rhs),rhsMax =  -2.48185916262855E-11  5.65752790905400E-02
 cg2d: Sum(rhs),rhsMax =  -2.52863285865601E-11  5.53215427328255E-02
 cg2d: Sum(rhs),rhsMax =  -2.57822652116602E-11  5.40620039505656E-02
 cg2d: Sum(rhs),rhsMax =  -2.62870836209572E-11  5.27973423224578E-02
 cg2d: Sum(rhs),rhsMax =  -2.68218780519192E-11  5.15282479403868E-02
 cg2d: Sum(rhs),rhsMax =  -2.73905342851322E-11  5.02554229703623E-02
 cg2d: Sum(rhs),rhsMax =  -2.80602208135861E-11  4.89795836805051E-02
 cg2d: Sum(rhs),rhsMax =  -2.87622703432078E-11  4.77014625931941E-02
 cg2d: Sum(rhs),rhsMax =  -2.95152235985086E-11  4.64218103564775E-02
 cg2d: Sum(rhs),rhsMax =  -3.03068681262175E-11  4.51413969667248E-02
 cg2d: Sum(rhs),rhsMax =  -3.11505266026302E-11  4.38610119296712E-02
 cg2d: Sum(rhs),rhsMax =  -3.20401483122623E-11  4.25814630638320E-02
 cg2d: Sum(rhs),rhsMax =  -3.29856142400331E-11  4.13035737586052E-02
 cg2d: Sum(rhs),rhsMax =  -3.39887562539332E-11  4.00281786270788E-02
 cg2d: Sum(rhs),rhsMax =  -3.50451889730152E-11  3.87561176282519E-02
 cg2d: Sum(rhs),rhsMax =  -3.61766172574107E-11  3.74882288641819E-02
 cg2d: Sum(rhs),rhsMax =  -3.73887587556965E-11  3.62253403733458E-02
 cg2d: Sum(rhs),rhsMax =  -3.86810583563602E-11  3.49682613314577E-02
 cg2d: Sum(rhs),rhsMax =  -4.00645627784968E-11  3.37177731259455E-02
 cg2d: Sum(rhs),rhsMax =  -4.15463774494640E-11  3.24746207844435E-02
 cg2d: Sum(rhs),rhsMax =  -4.31263358358080E-11  3.12395052103421E-02
 cg2d: Sum(rhs),rhsMax =  -4.48215353721082E-11  3.00130766148323E-02
 cg2d: Sum(rhs),rhsMax =  -4.66574556767796E-11  2.87959294452307E-02
 cg2d: Sum(rhs),rhsMax =  -4.86226059415173E-11  2.75885990065741E-02
 cg2d: Sum(rhs),rhsMax =  -5.07653086234683E-11  2.63915598702065E-02
 cg2d: Sum(rhs),rhsMax =  -5.30760713157719E-11  2.52052260693465E-02
 cg2d: Sum(rhs),rhsMax =  -5.55649137812253E-11  2.40299530034873E-02
 cg2d: Sum(rhs),rhsMax =  -5.83206261062230E-11  2.28660409131742E-02
 cg2d: Sum(rhs),rhsMax =  -6.13410156002914E-11  2.17137397435547E-02
 cg2d: Sum(rhs),rhsMax =  -6.21695472879935E-11  2.13931614782423E-02
 cg2d: Sum(rhs),rhsMax =  -5.98770200088694E-11  2.21871390717631E-02
 cg2d: Sum(rhs),rhsMax =  -5.77085601527472E-11  2.29733777863038E-02
 cg2d: Sum(rhs),rhsMax =  -5.57391494071524E-11  2.37514313596564E-02
 cg2d: Sum(rhs),rhsMax =  -5.39066291604939E-11  2.45208709676734E-02
 cg2d: Sum(rhs),rhsMax =  -5.22130672031551E-11  2.52812849234789E-02
 cg2d: Sum(rhs),rhsMax =  -5.06293618141029E-11  2.60322768959519E-02
 cg2d: Sum(rhs),rhsMax =  -4.91895413290422E-11  2.67734638984738E-02
 cg2d: Sum(rhs),rhsMax =  -4.78443118456795E-11  2.75054314887676E-02
 cg2d: Sum(rhs),rhsMax =  -4.64952520928819E-11  2.82555943277799E-02
 cg2d: Sum(rhs),rhsMax =  -4.52445303444904E-11  2.89943902013949E-02
 cg2d: Sum(rhs),rhsMax =  -4.40992797834383E-11  2.97214891051810E-02
 cg2d: Sum(rhs),rhsMax =  -4.30080415725342E-11  3.04365765227053E-02
 cg2d: Sum(rhs),rhsMax =  -4.19957957298323E-11  3.11393536771030E-02
 cg2d: Sum(rhs),rhsMax =  -4.10451117538457E-11  3.18295372045279E-02
 cg2d: Sum(rhs),rhsMax =  -4.01247368664315E-11  3.25068588650743E-02
 cg2d: Sum(rhs),rhsMax =  -3.93032828505113E-11  3.31710656648642E-02
 cg2d: Sum(rhs),rhsMax =  -3.85183551721013E-11  3.38219204088849E-02
 cg2d: Sum(rhs),rhsMax =  -3.77537445750420E-11  3.44592025012019E-02
 cg2d: Sum(rhs),rhsMax =  -3.70209418676382E-11  3.50827087699104E-02
 cg2d: Sum(rhs),rhsMax =  -3.63417629323237E-11  3.56922541341746E-02
 cg2d: Sum(rhs),rhsMax =  -3.56888962826929E-11  3.62876719730325E-02
 cg2d: Sum(rhs),rhsMax =  -3.50449114172591E-11  3.68688140818879E-02
 cg2d: Sum(rhs),rhsMax =  -3.43460260232575E-11  3.74355501211215E-02
 cg2d: Sum(rhs),rhsMax =  -3.37326833133034E-11  3.79877664755167E-02
 cg2d: Sum(rhs),rhsMax =  -3.30153682170931E-11  3.85253644612074E-02
 cg2d: Sum(rhs),rhsMax =  -3.25759419439464E-11  3.90482578515562E-02
 cg2d: Sum(rhs),rhsMax =  -3.20969917311231E-11  3.95563697469589E-02
 cg2d: Sum(rhs),rhsMax =  -3.16582315917913E-11  4.00496284996767E-02
 cg2d: Sum(rhs),rhsMax =  -3.12370129762485E-11  4.05279621088489E-02
 cg2d: Sum(rhs),rhsMax =  -3.08572056795242E-11  4.09912964813358E-02
 cg2d: Sum(rhs),rhsMax =  -3.02763369930403E-11  4.14395518201861E-02
 cg2d: Sum(rhs),rhsMax =  -2.98767677264777E-11  4.18726383348744E-02
 cg2d: Sum(rhs),rhsMax =  -2.95460322874419E-11  4.22904533854929E-02
 cg2d: Sum(rhs),rhsMax =  -2.92060819973017E-11  4.26928787216167E-02
 cg2d: Sum(rhs),rhsMax =  -2.88756796251732E-11  4.30797782178958E-02
 cg2d: Sum(rhs),rhsMax =  -2.85849122150239E-11  4.34509981386408E-02
 cg2d: Sum(rhs),rhsMax =  -2.82576184673644E-11  4.38063691411238E-02
 cg2d: Sum(rhs),rhsMax =  -2.79966050342750E-11  4.41457097507279E-02
 cg2d: Sum(rhs),rhsMax =  -2.77002865090026E-11  4.44688303366711E-02
 cg2d: Sum(rhs),rhsMax =  -2.73771005865342E-11  4.47755376220352E-02
 cg2d: Sum(rhs),rhsMax =  -2.70826694404036E-11  4.50656401550843E-02
 cg2d: Sum(rhs),rhsMax =  -2.68388644641959E-11  4.53389544552548E-02
 cg2d: Sum(rhs),rhsMax =  -2.65648614217184E-11  4.55953111723523E-02
 cg2d: Sum(rhs),rhsMax =  -2.63568056269037E-11  4.58345606169417E-02
 cg2d: Sum(rhs),rhsMax =  -2.61276555946210E-11  4.60588621415038E-02
 cg2d: Sum(rhs),rhsMax =  -2.59091637033748E-11  4.62774804734657E-02
 cg2d: Sum(rhs),rhsMax =  -2.57235344136575E-11  4.64780631796953E-02
 cg2d: Sum(rhs),rhsMax =  -2.55527821124701E-11  4.66605423405167E-02
 cg2d: Sum(rhs),rhsMax =  -2.53844723019370E-11  4.68248805855857E-02
 cg2d: Sum(rhs),rhsMax =  -2.52408094425505E-11  4.69710707387607E-02
 cg2d: Sum(rhs),rhsMax =  -2.50380827182539E-11  4.70991338364019E-02
 cg2d: Sum(rhs),rhsMax =  -2.48627785026656E-11  4.72091155017257E-02
 cg2d: Sum(rhs),rhsMax =  -2.46636044920479E-11  4.73136880988003E-02
 cg2d: Sum(rhs),rhsMax =  -2.45375941787529E-11  4.74061512748334E-02
 cg2d: Sum(rhs),rhsMax =  -2.44163578244638E-11  4.74792517028822E-02
 cg2d: Sum(rhs),rhsMax =  -2.43141062838959E-11  4.75330803318313E-02
 cg2d: Sum(rhs),rhsMax =  -2.43568498703439E-11  4.75677405974403E-02
 cg2d: Sum(rhs),rhsMax =  -2.42910136449837E-11  4.75833416137362E-02
 cg2d: Sum(rhs),rhsMax =  -2.42784681248054E-11  4.75799909282572E-02
 cg2d: Sum(rhs),rhsMax =  -2.42458275678814E-11  4.75577869206518E-02
 cg2d: Sum(rhs),rhsMax =  -2.42785791471078E-11  4.75168139295809E-02
 cg2d: Sum(rhs),rhsMax =  -2.43163267299451E-11  4.74571356893029E-02
 cg2d: Sum(rhs),rhsMax =  -2.43961517654157E-11  4.73787874513995E-02
 cg2d: Sum(rhs),rhsMax =  -2.44694264850409E-11  4.72817725311572E-02
 cg2d: Sum(rhs),rhsMax =  -2.45834463896699E-11  4.71660624190747E-02
 cg2d: Sum(rhs),rhsMax =  -2.46864750863551E-11  4.70315995037705E-02
 cg2d: Sum(rhs),rhsMax =  -2.48189246931929E-11  4.68783016882195E-02
 cg2d: Sum(rhs),rhsMax =  -2.49767984072946E-11  4.67060686218305E-02
 cg2d: Sum(rhs),rhsMax =  -2.51317855415323E-11  4.65147894547125E-02
 cg2d: Sum(rhs),rhsMax =  -2.52927678801029E-11  4.63043518837969E-02
 cg2d: Sum(rhs),rhsMax =  -2.55051535447137E-11  4.60746516961406E-02
 cg2d: Sum(rhs),rhsMax =  -2.57036614215167E-11  4.58256033363533E-02
 cg2d: Sum(rhs),rhsMax =  -2.59291477178181E-11  4.55571506852563E-02
 cg2d: Sum(rhs),rhsMax =  -2.61636268206189E-11  4.52692743089237E-02
 cg2d: Sum(rhs),rhsMax =  -2.64118726889251E-11  4.49619985143662E-02
 cg2d: Sum(rhs),rhsMax =  -2.66833222184459E-11  4.46353965538825E-02
 cg2d: Sum(rhs),rhsMax =  -2.69658739782130E-11  4.42895939903509E-02
 cg2d: Sum(rhs),rhsMax =  -2.72173394932906E-11  4.39247699978209E-02
 cg2d: Sum(rhs),rhsMax =  -2.75302003416300E-11  4.35411563533654E-02
 cg2d: Sum(rhs),rhsMax =  -2.78274070453222E-11  4.31390344729139E-02
 cg2d: Sum(rhs),rhsMax =  -2.81287215742054E-11  4.27187308612341E-02
 cg2d: Sum(rhs),rhsMax =  -2.84900991687209E-11  4.22806106986979E-02
 cg2d: Sum(rhs),rhsMax =  -2.88804535841791E-11  4.18250698550243E-02
 cg2d: Sum(rhs),rhsMax =  -2.92754709363408E-11  4.13525258641361E-02
 cg2d: Sum(rhs),rhsMax =  -2.96772606489526E-11  4.08634083827101E-02
 cg2d: Sum(rhs),rhsMax =  -3.01005886882422E-11  4.03581495641174E-02
 cg2d: Sum(rhs),rhsMax =  -3.05960812241324E-11  3.98371747330977E-02
 cg2d: Sum(rhs),rhsMax =  -3.10813597081960E-11  3.93008937562656E-02
 cg2d: Sum(rhs),rhsMax =  -3.15832915376291E-11  3.87496935200323E-02
 cg2d: Sum(rhs),rhsMax =  -3.21335180686333E-11  3.82063753853605E-02
 cg2d: Sum(rhs),rhsMax =  -3.26616511614475E-11  3.76497754411086E-02
 cg2d: Sum(rhs),rhsMax =  -3.32360805543885E-11  3.70800508100285E-02
 cg2d: Sum(rhs),rhsMax =  -3.38559180690368E-11  3.64973788442848E-02
 cg2d: Sum(rhs),rhsMax =  -3.45294348669256E-11  3.59088007100016E-02
 cg2d: Sum(rhs),rhsMax =  -3.52294304839518E-11  3.53142048823239E-02
 cg2d: Sum(rhs),rhsMax =  -3.59115515102815E-11  3.47074088871517E-02
 cg2d: Sum(rhs),rhsMax =  -3.66323082978681E-11  3.40885793453653E-02
 cg2d: Sum(rhs),rhsMax =  -3.73232555972436E-11  3.34578927400039E-02
 cg2d: Sum(rhs),rhsMax =  -3.80985798464906E-11  3.28155365259711E-02
 cg2d: Sum(rhs),rhsMax =  -3.89063226080566E-11  3.21617084483015E-02
 cg2d: Sum(rhs),rhsMax =  -3.97627486492524E-11  3.14966167896998E-02
 cg2d: Sum(rhs),rhsMax =  -4.06668032582047E-11  3.08204810036656E-02
 cg2d: Sum(rhs),rhsMax =  -4.16366940925172E-11  3.01335323572504E-02
 cg2d: Sum(rhs),rhsMax =  -4.27042845529968E-11  2.94360146084157E-02
 cg2d: Sum(rhs),rhsMax =  -4.38040159700392E-11  2.87281849847647E-02
 cg2d: Sum(rhs),rhsMax =  -4.49682513448124E-11  2.80103154838457E-02
 cg2d: Sum(rhs),rhsMax =  -4.62073157514453E-11  2.72826943860667E-02
 cg2d: Sum(rhs),rhsMax =  -4.75566253044235E-11  2.65456278105365E-02
 cg2d: Sum(rhs),rhsMax =  -4.89718543494888E-11  2.57994410884539E-02
 cg2d: Sum(rhs),rhsMax =  -5.05505914905058E-11  2.50444795694360E-02
 cg2d: Sum(rhs),rhsMax =  -5.22181187179172E-11  2.42811089156190E-02
 cg2d: Sum(rhs),rhsMax =  -5.39908118213361E-11  2.35097145474727E-02
 cg2d: Sum(rhs),rhsMax =  -5.58820628659973E-11  2.27306999210642E-02
 cg2d: Sum(rhs),rhsMax =  -5.79883016604832E-11  2.19444836523379E-02
 cg2d: Sum(rhs),rhsMax =  -6.02328326104740E-11  2.11514957333037E-02
 cg2d: Sum(rhs),rhsMax =  -6.27002963438095E-11  2.03521730725660E-02
 cg2d: Sum(rhs),rhsMax =  -6.09136491247497E-11  2.09639220653232E-02
 cg2d: Sum(rhs),rhsMax =  -5.78398995365603E-11  2.21031395338050E-02
 cg2d: Sum(rhs),rhsMax =  -5.50603451721088E-11  2.32508555840360E-02
 cg2d: Sum(rhs),rhsMax =  -5.25081922386761E-11  2.44066786289988E-02
 cg2d: Sum(rhs),rhsMax =  -5.01896857407758E-11  2.55701953917027E-02
 cg2d: Sum(rhs),rhsMax =  -4.80583906004028E-11  2.67409683732704E-02
 cg2d: Sum(rhs),rhsMax =  -4.60855797967952E-11  2.79185341953878E-02
 cg2d: Sum(rhs),rhsMax =  -4.42667014155518E-11  2.91024027543798E-02
 cg2d: Sum(rhs),rhsMax =  -4.25875446019575E-11  3.02920571373594E-02
 cg2d: Sum(rhs),rhsMax =  -4.10264044958808E-11  3.14869542537416E-02
 cg2d: Sum(rhs),rhsMax =  -3.95753430026957E-11  3.26865261274268E-02
 cg2d: Sum(rhs),rhsMax =  -3.82126552622708E-11  3.38901818404378E-02
 cg2d: Sum(rhs),rhsMax =  -3.69431152336119E-11  3.50973100982872E-02
 cg2d: Sum(rhs),rhsMax =  -3.57471274803345E-11  3.63072823864097E-02
 cg2d: Sum(rhs),rhsMax =  -3.46385697902463E-11  3.75194566799713E-02
 cg2d: Sum(rhs),rhsMax =  -3.36033978420858E-11  3.87331816534473E-02
 cg2d: Sum(rhs),rhsMax =  -3.26282889595575E-11  3.99478013139287E-02
 cg2d: Sum(rhs),rhsMax =  -3.17017523343566E-11  4.11626599377569E-02
 cg2d: Sum(rhs),rhsMax =  -3.08291725481524E-11  4.23771071625398E-02
 cg2d: Sum(rhs),rhsMax =  -3.00186542290248E-11  4.35905030534119E-02
 cg2d: Sum(rhs),rhsMax =  -2.92449398031636E-11  4.48022229336420E-02
 cg2d: Sum(rhs),rhsMax =  -2.85119705623060E-11  4.60116617567640E-02
 cg2d: Sum(rhs),rhsMax =  -2.78174150381005E-11  4.72182378011406E-02
 cg2d: Sum(rhs),rhsMax =  -2.71584976729855E-11  4.84213954899619E-02
 cg2d: Sum(rhs),rhsMax =  -2.65348854000536E-11  4.96206071797140E-02
 cg2d: Sum(rhs),rhsMax =  -2.60246268979358E-11  5.08153738158819E-02
 cg2d: Sum(rhs),rhsMax =  -2.55301335627678E-11  5.20052244221843E-02
 cg2d: Sum(rhs),rhsMax =  -2.50782727917453E-11  5.31897144635627E-02
 cg2d: Sum(rhs),rhsMax =  -2.46218601063219E-11  5.43684231967735E-02
 cg2d: Sum(rhs),rhsMax =  -2.42060815835998E-11  5.55409501885196E-02
 cg2d: Sum(rhs),rhsMax =  -2.38107311645308E-11  5.67069112329096E-02
 cg2d: Sum(rhs),rhsMax =  -2.34376962282568E-11  5.78659339327923E-02
 cg2d: Sum(rhs),rhsMax =  -2.30728769423649E-11  5.90176532208443E-02
 cg2d: Sum(rhs),rhsMax =  -2.27293739385459E-11  6.01617070865596E-02
 cg2d: Sum(rhs),rhsMax =  -2.23971952095781E-11  6.12977327468414E-02
 cg2d: Sum(rhs),rhsMax =  -2.20675699935668E-11  6.24253634542398E-02
 cg2d: Sum(rhs),rhsMax =  -2.17603712826531E-11  6.35442260819451E-02
 cg2d: Sum(rhs),rhsMax =  -2.14647188911954E-11  6.46539395625517E-02
 cg2d: Sum(rhs),rhsMax =  -2.11746176148608E-11  6.57541141926806E-02
 cg2d: Sum(rhs),rhsMax =  -2.09056105759942E-11  6.68443517522696E-02
 cg2d: Sum(rhs),rhsMax =  -2.06418215853432E-11  6.79242463301374E-02
 cg2d: Sum(rhs),rhsMax =  -2.03812522414637E-11  6.89933857001596E-02
 cg2d: Sum(rhs),rhsMax =  -2.01365590868363E-11  7.00513530579370E-02
 cg2d: Sum(rhs),rhsMax =  -1.98927541106286E-11  7.10977289080384E-02
 cg2d: Sum(rhs),rhsMax =  -1.96765936877341E-11  7.21320928876858E-02
 cg2d: Sum(rhs),rhsMax =  -1.94615434878642E-11  7.31540253191808E-02
 cg2d: Sum(rhs),rhsMax =  -1.92471594218091E-11  7.41631083320549E-02
 cg2d: Sum(rhs),rhsMax =  -1.90548687939440E-11  7.51589264111361E-02
 cg2d: Sum(rhs),rhsMax =  -1.88535853595795E-11  7.61410662960887E-02
 cg2d: Sum(rhs),rhsMax =  -1.86827220360897E-11  7.71091162268763E-02
 cg2d: Sum(rhs),rhsMax =  -1.84823267801448E-11  7.80626646039741E-02
 cg2d: Sum(rhs),rhsMax =  -1.83197901293397E-11  7.90012982066264E-02
 cg2d: Sum(rhs),rhsMax =  -1.81520354303188E-11  7.99246001805091E-02
 cg2d: Sum(rhs),rhsMax =  -1.79752879247985E-11  8.08321480607108E-02
 cg2d: Sum(rhs),rhsMax =  -1.79141146361417E-11  8.17235121299646E-02
 cg2d: Sum(rhs),rhsMax =  -1.78159709207648E-11  8.25982544196037E-02
 cg2d: Sum(rhs),rhsMax =  -1.77462489148184E-11  8.34559286373177E-02
 cg2d: Sum(rhs),rhsMax =  -1.76748615743350E-11  8.42960812510436E-02
 cg2d: Sum(rhs),rhsMax =  -1.75865988438773E-11  8.51182538738224E-02
 cg2d: Sum(rhs),rhsMax =  -1.75339742725100E-11  8.59219869863791E-02
 cg2d: Sum(rhs),rhsMax =  -1.74631420435389E-11  8.67068249120287E-02
 cg2d: Sum(rhs),rhsMax =  -1.74046332901412E-11  8.74723218340676E-02
 cg2d: Sum(rhs),rhsMax =  -1.73618897036931E-11  8.82180485318331E-02
 cg2d: Sum(rhs),rhsMax =  -1.73321357266332E-11  8.89435994202468E-02
 cg2d: Sum(rhs),rhsMax =  -1.72816205790127E-11  8.96485994209733E-02
 cg2d: Sum(rhs),rhsMax =  -1.72499792228109E-11  9.03327101721212E-02
 cg2d: Sum(rhs),rhsMax =  -1.72190040004239E-11  9.09956351017631E-02
 cg2d: Sum(rhs),rhsMax =  -1.71768155254881E-11  9.16371229764497E-02
 cg2d: Sum(rhs),rhsMax =  -1.71384018088361E-11  9.22569696294603E-02
 cg2d: Sum(rhs),rhsMax =  -1.70922165310117E-11  9.28550177047744E-02
 cg2d: Sum(rhs),rhsMax =  -1.70490288553538E-11  9.34311543982235E-02
 cg2d: Sum(rhs),rhsMax =  -1.70033986890417E-11  9.39853073190313E-02
 cg2d: Sum(rhs),rhsMax =  -1.69803060501295E-11  9.45174387275319E-02
 cg2d: Sum(rhs),rhsMax =  -1.69431135788045E-11  9.50275385336292E-02
 cg2d: Sum(rhs),rhsMax =  -1.69032565722205E-11  9.55156164569563E-02
 cg2d: Sum(rhs),rhsMax =  -1.68838276692895E-11  9.59816938054829E-02
 cg2d: Sum(rhs),rhsMax =  -1.68727254390433E-11  9.64257953288533E-02
 cg2d: Sum(rhs),rhsMax =  -1.68921543419742E-11  9.68479415179234E-02
 cg2d: Sum(rhs),rhsMax =  -1.69516622960941E-11  9.72481416782045E-02
 cg2d: Sum(rhs),rhsMax =  -1.69729785781669E-11  9.76263880231905E-02
 cg2d: Sum(rhs),rhsMax =  -1.70118363840288E-11  9.79826509205932E-02
 cg2d: Sum(rhs),rhsMax =  -1.70301550639351E-11  9.83168753374226E-02
 cg2d: Sum(rhs),rhsMax =  -1.71341829613425E-11  9.86289784600911E-02
 cg2d: Sum(rhs),rhsMax =  -1.71805902837718E-11  9.89188484191173E-02
 cg2d: Sum(rhs),rhsMax =  -1.71976877183511E-11  9.91863440268422E-02
 cg2d: Sum(rhs),rhsMax =  -1.72423186839410E-11  9.94312954392457E-02
 cg2d: Sum(rhs),rhsMax =  -1.72700742595566E-11  9.96535056737539E-02
 cg2d: Sum(rhs),rhsMax =  -1.72617475868719E-11  9.98527529454755E-02
 cg2d: Sum(rhs),rhsMax =  -1.72525327357675E-11  1.00028793815445E-01
(PID.TID 0000.0001)      cg2d_init_res =   1.00170069104238E-02
(PID.TID 0000.0001)      cg2d_iters(min,last) =      -1      33
(PID.TID 0000.0001)      cg2d_last_res =   9.24792901099437E-14
(PID.TID 0000.0001) // =======================================================
(PID.TID 0000.0001) // Begin MONITOR dynamic field statistics
(PID.TID 0000.0001) // =======================================================
(PID.TID 0000.0001) %MON time_tsnumber                =                  5280
(PID.TID 0000.0001) %MON time_secondsf                =   7.9200000000000E+04
(PID.TID 0000.0001) %MON dynstat_eta_max              =   1.6430503811235E-02
(PID.TID 0000.0001) %MON dynstat_eta_min              =  -1.3386547419615E-02
(PID.TID 0000.0001) %MON dynstat_eta_mean             =   3.5922552684030E-15
(PID.TID 0000.0001) %MON dynstat_eta_sd               =   7.8248439445766E-03
(PID.TID 0000.0001) %MON dynstat_eta_del2             =   1.4325016394806E-05
(PID.TID 0000.0001) %MON dynstat_uvel_max             =   8.2285241824104E-01
(PID.TID 0000.0001) %MON dynstat_uvel_min             =  -2.7495843254968E-01
(PID.TID 0000.0001) %MON dynstat_uvel_mean            =   1.0782209960783E-01
(PID.TID 0000.0001) %MON dynstat_uvel_sd              =   8.2348916784331E-02
(PID.TID 0000.0001) %MON dynstat_uvel_del2            =   1.7347070885438E-04
(PID.TID 0000.0001) %MON dynstat_vvel_max             =   0.0000000000000E+00
(PID.TID 0000.0001) %MON dynstat_vvel_min             =   0.0000000000000E+00
(PID.TID 0000.0001) %MON dynstat_vvel_mean            =   0.0000000000000E+00
(PID.TID 0000.0001) %MON dynstat_vvel_sd              =   0.0000000000000E+00
(PID.TID 0000.0001) %MON dynstat_vvel_del2            =   0.0000000000000E+00
(PID.TID 0000.0001) %MON dynstat_wvel_max             =   4.0436978534855E-03
(PID.TID 0000.0001) %MON dynstat_wvel_min             =  -9.6770664321499E-03
(PID.TID 0000.0001) %MON dynstat_wvel_mean            =  -5.9556700849994E-21
(PID.TID 0000.0001) %MON dynstat_wvel_sd              =   5.1799223793508E-04
(PID.TID 0000.0001) %MON dynstat_wvel_del2            =   9.0226235222319E-06
(PID.TID 0000.0001) %MON dynstat_theta_max            =   1.5000000000012E+01
(PID.TID 0000.0001) %MON dynstat_theta_min            =   9.9999999999908E+00
(PID.TID 0000.0001) %MON dynstat_theta_mean           =   1.2515083399365E+01
(PID.TID 0000.0001) %MON dynstat_theta_sd             =   2.4462400008580E+00
(PID.TID 0000.0001) %MON dynstat_theta_del2           =   1.0249229637460E-03
(PID.TID 0000.0001) %MON dynstat_salt_max             =   3.5000000000000E+01
(PID.TID 0000.0001) %MON dynstat_salt_min             =   3.5000000000000E+01
(PID.TID 0000.0001) %MON dynstat_salt_mean            =   3.5000000000000E+01
(PID.TID 0000.0001) %MON dynstat_salt_sd              =   3.9790393202566E-13
(PID.TID 0000.0001) %MON dynstat_salt_del2            =   0.0000000000000E+00
(PID.TID 0000.0001) %MON dynstat_sst_max              =   1.5000000000000E+01
(PID.TID 0000.0001) %MON dynstat_sst_min              =   1.4999999999996E+01
(PID.TID 0000.0001) %MON dynstat_sst_mean             =   1.4999999999999E+01
(PID.TID 0000.0001) %MON dynstat_sst_sd               =   7.6210182492385E-13
(PID.TID 0000.0001) %MON dynstat_sst_del2             =   1.2407385523639E-14
(PID.TID 0000.0001) %MON dynstat_sss_max              =   3.5000000000000E+01
(PID.TID 0000.0001) %MON dynstat_sss_min              =   3.5000000000000E+01
(PID.TID 0000.0001) %MON dynstat_sss_mean             =   3.5000000000000E+01
(PID.TID 0000.0001) %MON dynstat_sss_sd               =   5.6843418860808E-14
(PID.TID 0000.0001) %MON dynstat_sss_del2             =   0.0000000000000E+00
(PID.TID 0000.0001) %MON forcing_qnet_max             =   0.0000000000000E+00
(PID.TID 0000.0001) %MON forcing_qnet_min             =   0.0000000000000E+00
(PID.TID 0000.0001) %MON forcing_qnet_mean            =   0.0000000000000E+00
(PID.TID 0000.0001) %MON forcing_qnet_sd              =   0.0000000000000E+00
(PID.TID 0000.0001) %MON forcing_qnet_del2            =   0.0000000000000E+00
(PID.TID 0000.0001) %MON forcing_qsw_max              =   0.0000000000000E+00
(PID.TID 0000.0001) %MON forcing_qsw_min              =   0.0000000000000E+00
(PID.TID 0000.0001) %MON forcing_qsw_mean             =   0.0000000000000E+00
(PID.TID 0000.0001) %MON forcing_qsw_sd               =   0.0000000000000E+00
(PID.TID 0000.0001) %MON forcing_qsw_del2             =   0.0000000000000E+00
(PID.TID 0000.0001) %MON forcing_empmr_max            =   0.0000000000000E+00
(PID.TID 0000.0001) %MON forcing_empmr_min            =   0.0000000000000E+00
(PID.TID 0000.0001) %MON forcing_empmr_mean           =   0.0000000000000E+00
(PID.TID 0000.0001) %MON forcing_empmr_sd             =   0.0000000000000E+00
(PID.TID 0000.0001) %MON forcing_empmr_del2           =   0.0000000000000E+00
(PID.TID 0000.0001) %MON forcing_fu_max               =   0.0000000000000E+00
(PID.TID 0000.0001) %MON forcing_fu_min               =   0.0000000000000E+00
(PID.TID 0000.0001) %MON forcing_fu_mean              =   0.0000000000000E+00
(PID.TID 0000.0001) %MON forcing_fu_sd                =   0.0000000000000E+00
(PID.TID 0000.0001) %MON forcing_fu_del2              =   0.0000000000000E+00
(PID.TID 0000.0001) %MON forcing_fv_max               =   0.0000000000000E+00
(PID.TID 0000.0001) %MON forcing_fv_min               =   0.0000000000000E+00
(PID.TID 0000.0001) %MON forcing_fv_mean              =   0.0000000000000E+00
(PID.TID 0000.0001) %MON forcing_fv_sd                =   0.0000000000000E+00
(PID.TID 0000.0001) %MON forcing_fv_del2              =   0.0000000000000E+00
(PID.TID 0000.0001) %MON advcfl_uvel_max              =   6.1713931368078E-02
(PID.TID 0000.0001) %MON advcfl_vvel_max              =   0.0000000000000E+00
(PID.TID 0000.0001) %MON advcfl_wvel_max              =   1.2658841982117E-01
(PID.TID 0000.0001) %MON advcfl_W_hf_max              =   1.2658841982117E-01
(PID.TID 0000.0001) %MON pe_b_mean                    =   1.5420141237666E-06
(PID.TID 0000.0001) %MON ke_max                       =   2.4227636132458E-01
(PID.TID 0000.0001) %MON ke_mean                      =   9.2388757600341E-03
(PID.TID 0000.0001) %MON ke_vol                       =   9.5121673331316E+10
(PID.TID 0000.0001) %MON vort_r_min                   =   0.0000000000000E+00
(PID.TID 0000.0001) %MON vort_r_max                   =   0.0000000000000E+00
(PID.TID 0000.0001) %MON vort_a_mean                  =   0.0000000000000E+00
(PID.TID 0000.0001) %MON vort_a_sd                    =   0.0000000000000E+00
(PID.TID 0000.0001) %MON vort_p_mean                  =   0.0000000000000E+00
(PID.TID 0000.0001) %MON vort_p_sd                    =   0.0000000000000E+00
(PID.TID 0000.0001) %MON surfExpan_theta_mean         =   1.0946153627277E-19
(PID.TID 0000.0001) %MON surfExpan_salt_mean          =  -5.3642554033088E-19
(PID.TID 0000.0001) // =======================================================
(PID.TID 0000.0001) // End MONITOR dynamic field statistics
(PID.TID 0000.0001) // =======================================================
(PID.TID 0000.0001) // =======================================================
(PID.TID 0000.0001) // Begin OBCS MONITOR field statistics
(PID.TID 0000.0001) // =======================================================
(PID.TID 0000.0001) %MON obc_E_uVel_max               =   1.0505355776936E-01
(PID.TID 0000.0001) %MON obc_E_uVel_min               =   1.0505355776936E-01
(PID.TID 0000.0001) %MON obc_E_uVel_mean              =   1.0505355776936E-01
(PID.TID 0000.0001) %MON obc_E_uVel_sd                =  -6.9388939039072E-18
(PID.TID 0000.0001) %MON obc_E_uVel_Int               =   1.0505355776936E+05
(PID.TID 0000.0001) %MON obc_W_uVel_max               =   1.0505355776936E-01
(PID.TID 0000.0001) %MON obc_W_uVel_min               =   1.0505355776936E-01
(PID.TID 0000.0001) %MON obc_W_uVel_mean              =   1.0505355776936E-01
(PID.TID 0000.0001) %MON obc_W_uVel_sd                =  -6.9388939039072E-18
(PID.TID 0000.0001) %MON obc_W_uVel_Int               =   1.0505355776936E+05
(PID.TID 0000.0001) // =======================================================
(PID.TID 0000.0001) // End OBCS MONITOR field statistics
(PID.TID 0000.0001) // =======================================================
 cg2d: Sum(rhs),rhsMax =  -1.72264424946889E-11  1.00181367167750E-01
 cg2d: Sum(rhs),rhsMax =  -1.71794800607472E-11  1.00310199041390E-01
 cg2d: Sum(rhs),rhsMax =  -1.71568315110449E-11  1.00415008332421E-01
 cg2d: Sum(rhs),rhsMax =  -1.71520575520390E-11  1.00495513350286E-01
 cg2d: Sum(rhs),rhsMax =  -1.71400671433730E-11  1.00551439151329E-01
 cg2d: Sum(rhs),rhsMax =  -1.71263003778677E-11  1.00582525531548E-01
 cg2d: Sum(rhs),rhsMax =  -1.71562763995325E-11  1.00588535459729E-01
 cg2d: Sum(rhs),rhsMax =  -1.72318825875095E-11  1.00569263642408E-01
 cg2d: Sum(rhs),rhsMax =  -1.72760694638896E-11  1.00524544863721E-01
 cg2d: Sum(rhs),rhsMax =  -1.73053793517397E-11  1.00454261698718E-01
 cg2d: Sum(rhs),rhsMax =  -1.73108194445604E-11  1.00358351183102E-01
 cg2d: Sum(rhs),rhsMax =  -1.73052683294372E-11  1.00236810040228E-01
 cg2d: Sum(rhs),rhsMax =  -1.73008274373387E-11  1.00089698120288E-01
 cg2d: Sum(rhs),rhsMax =  -1.73406844439228E-11  9.99171397947217E-02
 cg2d: Sum(rhs),rhsMax =  -1.73895342570063E-11  9.97193231499457E-02
 cg2d: Sum(rhs),rhsMax =  -1.74009695541599E-11  9.94964969587009E-02
 cg2d: Sum(rhs),rhsMax =  -1.73983050189008E-11  9.92489655433874E-02
 cg2d: Sum(rhs),rhsMax =  -1.73917547030555E-11  9.89770817500207E-02
 cg2d: Sum(rhs),rhsMax =  -1.73905334577285E-11  9.86812383860733E-02
 cg2d: Sum(rhs),rhsMax =  -1.73736580677541E-11  9.83618585475003E-02
 cg2d: Sum(rhs),rhsMax =  -1.73685510418409E-11  9.80193853111953E-02
 cg2d: Sum(rhs),rhsMax =  -1.73624448152054E-11  9.76542712829487E-02
 cg2d: Sum(rhs),rhsMax =  -1.73346892395898E-11  9.72669684689945E-02
 cg2d: Sum(rhs),rhsMax =  -1.73693281979581E-11  9.68579188861548E-02
 cg2d: Sum(rhs),rhsMax =  -1.73959735505491E-11  9.64275462501611E-02
 cg2d: Sum(rhs),rhsMax =  -1.74161796095973E-11  9.59762489932165E-02
 cg2d: Sum(rhs),rhsMax =  -1.74567027499961E-11  9.55043947694815E-02
 cg2d: Sum(rhs),rhsMax =  -1.74963377119752E-11  9.50123165190424E-02
 cg2d: Sum(rhs),rhsMax =  -1.75153225256963E-11  9.45003100836695E-02
 cg2d: Sum(rhs),rhsMax =  -1.75479630826203E-11  9.39686333060502E-02
 cg2d: Sum(rhs),rhsMax =  -1.75905956467659E-11  9.34175065007545E-02
 cg2d: Sum(rhs),rhsMax =  -1.76378911476149E-11  9.28471141601904E-02
 cg2d: Sum(rhs),rhsMax =  -1.76879622060255E-11  9.22576077500321E-02
 cg2d: Sum(rhs),rhsMax =  -1.77167169823633E-11  9.16491094518961E-02
 cg2d: Sum(rhs),rhsMax =  -1.77744485796438E-11  9.10217167208913E-02
 cg2d: Sum(rhs),rhsMax =  -1.78274062179185E-11  9.03755075361895E-02
 cg2d: Sum(rhs),rhsMax =  -1.78764780756069E-11  8.97105462286422E-02
 cg2d: Sum(rhs),rhsMax =  -1.79204429073820E-11  8.90268897667953E-02
 cg2d: Sum(rhs),rhsMax =  -1.79631864938301E-11  8.83245943696701E-02
 cg2d: Sum(rhs),rhsMax =  -1.80314652098446E-11  8.76037222919244E-02
 cg2d: Sum(rhs),rhsMax =  -1.81161752266235E-11  8.68643485974883E-02
 cg2d: Sum(rhs),rhsMax =  -1.81832326973108E-11  8.61065677065481E-02
 cg2d: Sum(rhs),rhsMax =  -1.82583947960779E-11  8.53304994744548E-02
 cg2d: Sum(rhs),rhsMax =  -1.83272286236047E-11  8.45362945377482E-02
 cg2d: Sum(rhs),rhsMax =  -1.84064985475629E-11  8.37241386981549E-02
 cg2d: Sum(rhs),rhsMax =  -1.84892101628975E-11  8.28942561098818E-02
 cg2d: Sum(rhs),rhsMax =  -1.85790272055897E-11  8.20469110860002E-02
 cg2d: Sum(rhs),rhsMax =  -1.86518578360051E-11  8.11824084243442E-02
 cg2d: Sum(rhs),rhsMax =  -1.87443394139564E-11  8.03010922443447E-02
 cg2d: Sum(rhs),rhsMax =  -1.89117610460698E-11  7.94033434269788E-02
 cg2d: Sum(rhs),rhsMax =  -1.90859550386335E-11  7.84895758519884E-02
 cg2d: Sum(rhs),rhsMax =  -1.92419413735934E-11  7.75602317201784E-02
 cg2d: Sum(rhs),rhsMax =  -1.94398941388840E-11  7.66157763238916E-02
 cg2d: Sum(rhs),rhsMax =  -1.96401783725264E-11  7.56566926764483E-02
 cg2d: Sum(rhs),rhsMax =  -1.98486782565510E-11  7.46834764243226E-02
 cg2d: Sum(rhs),rhsMax =  -2.00509608916377E-11  7.36966314401512E-02
 cg2d: Sum(rhs),rhsMax =  -2.02782235447785E-11  7.26966664422263E-02
 cg2d: Sum(rhs),rhsMax =  -2.05051531310119E-11  7.16840928443420E-02
 cg2d: Sum(rhs),rhsMax =  -2.07484029957072E-11  7.06594239562157E-02
 cg2d: Sum(rhs),rhsMax =  -2.09837702769278E-11  6.96231755102262E-02
 cg2d: Sum(rhs),rhsMax =  -2.12578843417077E-11  6.85758673276602E-02
 cg2d: Sum(rhs),rhsMax =  -2.15339968079320E-11  6.75180258006558E-02
 cg2d: Sum(rhs),rhsMax =  -2.18253193295936E-11  6.64501867551650E-02
 cg2d: Sum(rhs),rhsMax =  -2.21176410519774E-11  6.53728981876383E-02
 cg2d: Sum(rhs),rhsMax =  -2.24125162873179E-11  6.42867223430521E-02
 cg2d: Sum(rhs),rhsMax =  -2.27390328788601E-11  6.31922366303145E-02
 cg2d: Sum(rhs),rhsMax =  -2.30723218308526E-11  6.20900329544388E-02
 cg2d: Sum(rhs),rhsMax =  -2.34172681246037E-11  6.09807151832878E-02
 cg2d: Sum(rhs),rhsMax =  -2.37948549752787E-11  5.98648946347288E-02
 cg2d: Sum(rhs),rhsMax =  -2.41652253762936E-11  5.87431836627102E-02
 cg2d: Sum(rhs),rhsMax =  -2.45540254795173E-11  5.76161876706175E-02
 cg2d: Sum(rhs),rhsMax =  -2.49518183892405E-11  5.64844960535887E-02
 cg2d: Sum(rhs),rhsMax =  -2.53865817256838E-11  5.53486727364756E-02
 cg2d: Sum(rhs),rhsMax =  -2.58363330729594E-11  5.42092470890232E-02
 cg2d: Sum(rhs),rhsMax =  -2.63057353677709E-11  5.30667060483581E-02
 cg2d: Sum(rhs),rhsMax =  -2.67986743907045E-11  5.19214882506806E-02
 cg2d: Sum(rhs),rhsMax =  -2.73153721863650E-11  5.07739808669138E-02
 cg2d: Sum(rhs),rhsMax =  -2.78536638198545E-11  4.96245196571071E-02
 cg2d: Sum(rhs),rhsMax =  -2.84041123954637E-11  4.84733925195564E-02
 cg2d: Sum(rhs),rhsMax =  -2.89935297992372E-11  4.73208465333712E-02
 cg2d: Sum(rhs),rhsMax =  -2.96110913566849E-11  4.61670982028972E-02
 cg2d: Sum(rhs),rhsMax =  -3.03334579676573E-11  4.50123463365622E-02
 cg2d: Sum(rhs),rhsMax =  -3.10957370963649E-11  4.38567867584116E-02
 cg2d: Sum(rhs),rhsMax =  -3.19027027018137E-11  4.27006278810881E-02
 cg2d: Sum(rhs),rhsMax =  -3.27616267448150E-11  4.15441060744994E-02
 cg2d: Sum(rhs),rhsMax =  -3.36513594767496E-11  4.03874997861595E-02
 cg2d: Sum(rhs),rhsMax =  -3.46042638987853E-11  3.92311414479820E-02
 cg2d: Sum(rhs),rhsMax =  -3.56107920929105E-11  3.80754263534441E-02
 cg2d: Sum(rhs),rhsMax =  -3.66780494864827E-11  3.69208179367756E-02
 cg2d: Sum(rhs),rhsMax =  -3.78104214604491E-11  3.57678491528138E-02
 cg2d: Sum(rhs),rhsMax =  -3.90245613601792E-11  3.46171199355548E-02
 cg2d: Sum(rhs),rhsMax =  -4.03128641579542E-11  3.34692909817443E-02
 cg2d: Sum(rhs),rhsMax =  -4.16796597235702E-11  3.23250743425131E-02
 cg2d: Sum(rhs),rhsMax =  -4.31568114578340E-11  3.11852214941452E-02
 cg2d: Sum(rhs),rhsMax =  -4.47231141009752E-11  3.00505096866229E-02
 cg2d: Sum(rhs),rhsMax =  -4.64032423597160E-11  2.89217274296683E-02
 cg2d: Sum(rhs),rhsMax =  -4.82319462147274E-11  2.77996599709642E-02
 cg2d: Sum(rhs),rhsMax =  -5.01977903688555E-11  2.66850755564639E-02
 cg2d: Sum(rhs),rhsMax =  -5.22750731590804E-11  2.55787131494250E-02
 cg2d: Sum(rhs),rhsMax =  -5.45815614927392E-11  2.44812721374109E-02
 cg2d: Sum(rhs),rhsMax =  -5.45307410337870E-11  2.44912589588800E-02
 cg2d: Sum(rhs),rhsMax =  -5.26124699362640E-11  2.53382072692348E-02
 cg2d: Sum(rhs),rhsMax =  -5.08695446876928E-11  2.61779224452608E-02
 cg2d: Sum(rhs),rhsMax =  -4.92335547330747E-11  2.70100786468198E-02
 cg2d: Sum(rhs),rhsMax =  -4.77331923987023E-11  2.78343260850608E-02
 cg2d: Sum(rhs),rhsMax =  -4.63268867711975E-11  2.86502936198935E-02
 cg2d: Sum(rhs),rhsMax =  -4.50127296547365E-11  2.94575920087565E-02
 cg2d: Sum(rhs),rhsMax =  -4.37465619285149E-11  3.02558176596743E-02
 cg2d: Sum(rhs),rhsMax =  -4.26053081703515E-11  3.10445566836478E-02
 cg2d: Sum(rhs),rhsMax =  -4.15060763536701E-11  3.18233889978881E-02
 cg2d: Sum(rhs),rhsMax =  -4.04856148605859E-11  3.25918922561050E-02
 cg2d: Sum(rhs),rhsMax =  -3.95478372272606E-11  3.33496454493748E-02
 cg2d: Sum(rhs),rhsMax =  -3.86226328696893E-11  3.40962319275070E-02
 cg2d: Sum(rhs),rhsMax =  -3.77462505696258E-11  3.48312422855698E-02
 cg2d: Sum(rhs),rhsMax =  -3.69589359117128E-11  3.55542767681172E-02
 cg2d: Sum(rhs),rhsMax =  -3.62536112241685E-11  3.62649471027617E-02
 cg2d: Sum(rhs),rhsMax =  -3.55263041207365E-11  3.69628779188666E-02
 cg2d: Sum(rhs),rhsMax =  -3.47941675471475E-11  3.76477079011306E-02
 cg2d: Sum(rhs),rhsMax =  -3.40857897462854E-11  3.83190907742994E-02
 cg2d: Sum(rhs),rhsMax =  -3.34035021865020E-11  3.89766961706985E-02
 cg2d: Sum(rhs),rhsMax =  -3.28151394946019E-11  3.96202104106460E-02
 cg2d: Sum(rhs),rhsMax =  -3.22190052415294E-11  4.02493372253141E-02
 cg2d: Sum(rhs),rhsMax =  -3.16781045839321E-11  4.08637983995467E-02
 cg2d: Sum(rhs),rhsMax =  -3.11629611005060E-11  4.14633343606365E-02
 cg2d: Sum(rhs),rhsMax =  -3.07496250684380E-11  4.20477046928349E-02
 cg2d: Sum(rhs),rhsMax =  -3.02536329321867E-11  4.26166885509895E-02
 cg2d: Sum(rhs),rhsMax =  -2.97838975704678E-11  4.31700849480213E-02
 cg2d: Sum(rhs),rhsMax =  -2.93375324034173E-11  4.37077128727299E-02
 cg2d: Sum(rhs),rhsMax =  -2.89404611386601E-11  4.42294111903468E-02
 cg2d: Sum(rhs),rhsMax =  -2.85400592048290E-11  4.47350382739565E-02
 cg2d: Sum(rhs),rhsMax =  -2.81974443794297E-11  4.52244712883147E-02
 cg2d: Sum(rhs),rhsMax =  -2.78013723153947E-11  4.56976019520625E-02
 cg2d: Sum(rhs),rhsMax =  -2.75230949142724E-11  4.61543360865916E-02
 cg2d: Sum(rhs),rhsMax =  -2.71758726633209E-11  4.65945957088680E-02
 cg2d: Sum(rhs),rhsMax =  -2.69206879011108E-11  4.70183169316617E-02
 cg2d: Sum(rhs),rhsMax =  -2.66264787995851E-11  4.74254455668961E-02
 cg2d: Sum(rhs),rhsMax =  -2.63015165202773E-11  4.78159322327546E-02
 cg2d: Sum(rhs),rhsMax =  -2.60043098165852E-11  4.81897277577907E-02
 cg2d: Sum(rhs),rhsMax =  -2.56931698139340E-11  4.85467789375930E-02
 cg2d: Sum(rhs),rhsMax =  -2.54604670679726E-11  4.88870245126036E-02
 cg2d: Sum(rhs),rhsMax =  -2.52306509018752E-11  4.92103914278564E-02
 cg2d: Sum(rhs),rhsMax =  -2.50759413233936E-11  4.95167916606809E-02
 cg2d: Sum(rhs),rhsMax =  -2.50079956742866E-11  4.98061198996665E-02
 cg2d: Sum(rhs),rhsMax =  -2.49226195236929E-11  5.00782524132727E-02
 cg2d: Sum(rhs),rhsMax =  -2.48556730753080E-11  5.03330473302094E-02
 cg2d: Sum(rhs),rhsMax =  -2.47460940627775E-11  5.05703463958704E-02
 cg2d: Sum(rhs),rhsMax =  -2.46257458869081E-11  5.07899781522291E-02
 cg2d: Sum(rhs),rhsMax =  -2.44851916519906E-11  5.09917623391436E-02
 cg2d: Sum(rhs),rhsMax =  -2.43680631228926E-11  5.11755152029920E-02
 cg2d: Sum(rhs),rhsMax =  -2.42813547046694E-11  5.13410552891053E-02
 cg2d: Sum(rhs),rhsMax =  -2.41038300430318E-11  5.14882093360079E-02
 cg2d: Sum(rhs),rhsMax =  -2.39749331498729E-11  5.16168178040375E-02
 cg2d: Sum(rhs),rhsMax =  -2.38171704580736E-11  5.17267395942230E-02
 cg2d: Sum(rhs),rhsMax =  -2.36950459253649E-11  5.18178556365669E-02
 cg2d: Sum(rhs),rhsMax =  -2.37133646052712E-11  5.18900711558321E-02
 cg2d: Sum(rhs),rhsMax =  -2.37677655334778E-11  5.19433170995541E-02
 cg2d: Sum(rhs),rhsMax =  -2.38280506437150E-11  5.19775491348315E-02
 cg2d: Sum(rhs),rhsMax =  -2.38302710897642E-11  5.19927455807847E-02
 cg2d: Sum(rhs),rhsMax =  -2.38026265364510E-11  5.19889051364644E-02
 cg2d: Sum(rhs),rhsMax =  -2.38210562386598E-11  5.19660496414218E-02
 cg2d: Sum(rhs),rhsMax =  -2.37997399565870E-11  5.19242187522855E-02
 cg2d: Sum(rhs),rhsMax =  -2.38347119818627E-11  5.18634605190911E-02
 cg2d: Sum(rhs),rhsMax =  -2.37381225787203E-11  5.17838282009498E-02
 cg2d: Sum(rhs),rhsMax =  -2.37327935082021E-11  5.16853805767415E-02
 cg2d: Sum(rhs),rhsMax =  -2.37972974659328E-11  5.15681831696709E-02
 cg2d: Sum(rhs),rhsMax =  -2.38420394538252E-11  5.14323093448009E-02
 cg2d: Sum(rhs),rhsMax =  -2.39068764784633E-11  5.12778414043126E-02
 cg2d: Sum(rhs),rhsMax =  -2.40537589846213E-11  5.11048720834206E-02
 cg2d: Sum(rhs),rhsMax =  -2.42252884419258E-11  5.09135065865000E-02
 cg2d: Sum(rhs),rhsMax =  -2.43618458739547E-11  5.07038649645170E-02
 cg2d: Sum(rhs),rhsMax =  -2.45752307392877E-11  5.04760844579508E-02
 cg2d: Sum(rhs),rhsMax =  -2.47553089138819E-11  5.02303214243101E-02
 cg2d: Sum(rhs),rhsMax =  -2.49382736683401E-11  4.99667525546370E-02
 cg2d: Sum(rhs),rhsMax =  -2.51652032545735E-11  4.96855751895891E-02
 cg2d: Sum(rhs),rhsMax =  -2.53838616792734E-11  4.93870066472610E-02
 cg2d: Sum(rhs),rhsMax =  -2.56047405500226E-11  4.90712850797565E-02
 cg2d: Sum(rhs),rhsMax =  -2.58710275424789E-11  4.87386654437873E-02
 cg2d: Sum(rhs),rhsMax =  -2.61209387453221E-11  4.83894136490770E-02
 cg2d: Sum(rhs),rhsMax =  -2.64268051886063E-11  4.80237994916812E-02
 cg2d: Sum(rhs),rhsMax =  -2.67125765951448E-11  4.76420963183713E-02
 cg2d: Sum(rhs),rhsMax =  -2.70942157598597E-11  4.72445804401738E-02
 cg2d: Sum(rhs),rhsMax =  -2.74059108740232E-11  4.68315281598608E-02
 cg2d: Sum(rhs),rhsMax =  -2.77276535065596E-11  4.64032122507388E-02
 cg2d: Sum(rhs),rhsMax =  -2.80392931095719E-11  4.59598994383791E-02
 cg2d: Sum(rhs),rhsMax =  -2.83739698403451E-11  4.55018494920021E-02
 cg2d: Sum(rhs),rhsMax =  -2.86992651865603E-11  4.50293158085290E-02
 cg2d: Sum(rhs),rhsMax =  -2.90827917304171E-11  4.45425471061473E-02
 cg2d: Sum(rhs),rhsMax =  -2.94813617962575E-11  4.40417898376343E-02
 cg2d: Sum(rhs),rhsMax =  -2.98637781170896E-11  4.35272909798907E-02
 cg2d: Sum(rhs),rhsMax =  -3.03029268344801E-11  4.29992976290757E-02
 cg2d: Sum(rhs),rhsMax =  -3.07462943993642E-11  4.24580609077069E-02
 cg2d: Sum(rhs),rhsMax =  -3.12334047514184E-11  4.19038376493200E-02
 cg2d: Sum(rhs),rhsMax =  -3.17194048804481E-11  4.13368954622395E-02
 cg2d: Sum(rhs),rhsMax =  -3.22533666441416E-11  4.07575136585089E-02
 cg2d: Sum(rhs),rhsMax =  -3.28034821528433E-11  4.01659800262670E-02
 cg2d: Sum(rhs),rhsMax =  -3.34094973908350E-11  3.95625860436378E-02
 cg2d: Sum(rhs),rhsMax =  -3.40111827590306E-11  3.89476219886332E-02
 cg2d: Sum(rhs),rhsMax =  -3.46675466111890E-11  3.83213723170622E-02
 cg2d: Sum(rhs),rhsMax =  -3.53329032698468E-11  3.76841113626183E-02
 cg2d: Sum(rhs),rhsMax =  -3.60770857632531E-11  3.70360994803946E-02
 cg2d: Sum(rhs),rhsMax =  -3.68278185725046E-11  3.63775803316118E-02
 cg2d: Sum(rhs),rhsMax =  -3.76024766879368E-11  3.57087797524424E-02
 cg2d: Sum(rhs),rhsMax =  -3.83636455936198E-11  3.50299063001080E-02
 cg2d: Sum(rhs),rhsMax =  -3.91851828762668E-11  3.43411537154435E-02
 cg2d: Sum(rhs),rhsMax =  -4.00210697915071E-11  3.36427052215048E-02
 cg2d: Sum(rhs),rhsMax =  -4.09333678064172E-11  3.29347392604186E-02
 cg2d: Sum(rhs),rhsMax =  -4.18954870795574E-11  3.22174360739680E-02
 cg2d: Sum(rhs),rhsMax =  -4.28930779783343E-11  3.14909841746850E-02
 cg2d: Sum(rhs),rhsMax =  -4.39712988242746E-11  3.07555864856007E-02
 cg2d: Sum(rhs),rhsMax =  -4.50899595438869E-11  3.00114660541762E-02
 cg2d: Sum(rhs),rhsMax =  -4.63134114392361E-11  2.92588694842882E-02
 cg2d: Sum(rhs),rhsMax =  -4.75848804804002E-11  2.84980682827540E-02
 cg2d: Sum(rhs),rhsMax =  -4.89747131737772E-11  2.77293584519894E-02
 cg2d: Sum(rhs),rhsMax =  -5.04287479830001E-11  2.69530586155199E-02
 cg2d: Sum(rhs),rhsMax =  -5.20135479825656E-11  2.61695069759144E-02
 cg2d: Sum(rhs),rhsMax =  -5.36552399732493E-11  2.53790573534745E-02
 cg2d: Sum(rhs),rhsMax =  -5.55045176486857E-11  2.45820748816397E-02
 cg2d: Sum(rhs),rhsMax =  -5.74213454562766E-11  2.37789318821094E-02
 cg2d: Sum(rhs),rhsMax =  -5.59444157666178E-11  2.44497358211221E-02
 cg2d: Sum(rhs),rhsMax =  -5.37614119888730E-11  2.54728038396053E-02
 cg2d: Sum(rhs),rhsMax =  -5.17282050527257E-11  2.65010841901970E-02
 cg2d: Sum(rhs),rhsMax =  -4.98447394470247E-11  2.75344088488343E-02
 cg2d: Sum(rhs),rhsMax =  -4.80892548004874E-11  2.85726246825442E-02
 cg2d: Sum(rhs),rhsMax =  -4.64613347794796E-11  2.96155864545233E-02
 cg2d: Sum(rhs),rhsMax =  -4.49309478511850E-11  3.06631497654180E-02
 cg2d: Sum(rhs),rhsMax =  -4.34902669432802E-11  3.17151643886911E-02
 cg2d: Sum(rhs),rhsMax =  -4.21581658471837E-11  3.27714683975999E-02
 cg2d: Sum(rhs),rhsMax =  -4.08801326123864E-11  3.38318833842100E-02
 cg2d: Sum(rhs),rhsMax =  -3.96802590785228E-11  3.48962109504526E-02
 cg2d: Sum(rhs),rhsMax =  -3.85473319930441E-11  3.59642305227820E-02
 cg2d: Sum(rhs),rhsMax =  -3.74680841908059E-11  3.70356984205075E-02
 cg2d: Sum(rhs),rhsMax =  -3.64546726139281E-11  3.81103480063697E-02
 cg2d: Sum(rhs),rhsMax =  -3.54971607663401E-11  3.91878906759251E-02
 cg2d: Sum(rhs),rhsMax =  -3.45841133508884E-11  4.02680174048820E-02
 cg2d: Sum(rhs),rhsMax =  -3.37297967334393E-11  4.13504005710006E-02
 cg2d: Sum(rhs),rhsMax =  -3.29049010261429E-11  4.24346957956945E-02
 cg2d: Sum(rhs),rhsMax =  -3.21315196671890E-11  4.35205436046722E-02
 cg2d: Sum(rhs),rhsMax =  -3.14001047385659E-11  4.46075707606469E-02
 cg2d: Sum(rhs),rhsMax =  -3.06774050606862E-11  4.56953912045668E-02
 cg2d: Sum(rhs),rhsMax =  -3.00550140330813E-11  4.67836066014913E-02
 cg2d: Sum(rhs),rhsMax =  -2.94653190735517E-11  4.78718065378238E-02
 cg2d: Sum(rhs),rhsMax =  -2.89021029331593E-11  4.89595684518812E-02
 cg2d: Sum(rhs),rhsMax =  -2.83585377403028E-11  5.00464573973770E-02
 cg2d: Sum(rhs),rhsMax =  -2.78451706137162E-11  5.11320257405340E-02
 cg2d: Sum(rhs),rhsMax =  -2.73476796763816E-11  5.22158128794681E-02
 cg2d: Sum(rhs),rhsMax =  -2.68696176419780E-11  5.32973450536235E-02
 cg2d: Sum(rhs),rhsMax =  -2.64058774845921E-11  5.43761352863276E-02
 cg2d: Sum(rhs),rhsMax =  -2.59611221409273E-11  5.54516834795828E-02
 cg2d: Sum(rhs),rhsMax =  -2.55450105512978E-11  5.65234766608164E-02
 cg2d: Sum(rhs),rhsMax =  -2.51527687566977E-11  5.75909893690682E-02
 cg2d: Sum(rhs),rhsMax =  -2.47487585980366E-11  5.86536841642706E-02
 cg2d: Sum(rhs),rhsMax =  -2.43901565610827E-11  5.97110122477842E-02
 cg2d: Sum(rhs),rhsMax =  -2.40263364759130E-11  6.07624141937511E-02
 cg2d: Sum(rhs),rhsMax =  -2.36966002375993E-11  6.18073208065466E-02
 cg2d: Sum(rhs),rhsMax =  -2.33657537762610E-11  6.28451541363469E-02
 cg2d: Sum(rhs),rhsMax =  -2.30430119430025E-11  6.38753286991348E-02
 cg2d: Sum(rhs),rhsMax =  -2.27360352766937E-11  6.48972529562106E-02
 cg2d: Sum(rhs),rhsMax =  -2.24346097255079E-11  6.59103311089846E-02
 cg2d: Sum(rhs),rhsMax =  -2.21807017197762E-11  6.69139652561239E-02
 cg2d: Sum(rhs),rhsMax =  -2.19150253499834E-11  6.79075579409714E-02
 cg2d: Sum(rhs),rhsMax =  -2.16628937010910E-11  6.88905150888124E-02
 cg2d: Sum(rhs),rhsMax =  -2.14287476651975E-11  6.98622492942887E-02
 cg2d: Sum(rhs),rhsMax =  -2.11967110530509E-11  7.08221833809871E-02
 cg2d: Sum(rhs),rhsMax =  -2.09627870617624E-11  7.17697541284742E-02
 cg2d: Sum(rhs),rhsMax =  -2.07387440553930E-11  7.27044160129606E-02
 cg2d: Sum(rhs),rhsMax =  -2.05274686138068E-11  7.36256447872575E-02
 cg2d: Sum(rhs),rhsMax =  -2.03199679305044E-11  7.45329407174127E-02
 cg2d: Sum(rhs),rhsMax =  -2.01660910192913E-11  7.54258312972807E-02
 cg2d: Sum(rhs),rhsMax =  -2.00224281599048E-11  7.63038732818247E-02
 cg2d: Sum(rhs),rhsMax =  -1.98683292040869E-11  7.71666539143087E-02
 cg2d: Sum(rhs),rhsMax =  -1.97500904519643E-11  7.80137912689050E-02
 cg2d: Sum(rhs),rhsMax =  -1.96355154358230E-11  7.88449336843377E-02
 cg2d: Sum(rhs),rhsMax =  -1.95108373901576E-11  7.96597583209739E-02
 cg2d: Sum(rhs),rhsMax =  -1.94018134891394E-11  8.04579689283199E-02
 cg2d: Sum(rhs),rhsMax =  -1.93106641788177E-11  8.12392929577999E-02
 cg2d: Sum(rhs),rhsMax =  -1.91946458727443E-11  8.20034781934938E-02
 cg2d: Sum(rhs),rhsMax =  -1.90678584033321E-11  8.27502890985281E-02
 cg2d: Sum(rhs),rhsMax =  -1.89849247433926E-11  8.34795030854147E-02
 cg2d: Sum(rhs),rhsMax =  -1.89086524216009E-11  8.41909069141078E-02
 cg2d: Sum(rhs),rhsMax =  -1.88291604530377E-11  8.48842934074586E-02
 cg2d: Sum(rhs),rhsMax =  -1.87476700830302E-11  8.55594586221405E-02
 cg2d: Sum(rhs),rhsMax =  -1.86567428173134E-11  8.62161995974012E-02
 cg2d: Sum(rhs),rhsMax =  -1.85838011645956E-11  8.68543127442481E-02
 cg2d: Sum(rhs),rhsMax =  -1.85240711658707E-11  8.74735928871219E-02
 cg2d: Sum(rhs),rhsMax =  -1.84972037686748E-11  8.80738329227250E-02
 cg2d: Sum(rhs),rhsMax =  -1.84408044390239E-11  8.86548240161501E-02
 cg2d: Sum(rhs),rhsMax =  -1.84040560569088E-11  8.92163562293692E-02
 cg2d: Sum(rhs),rhsMax =  -1.83484338833750E-11  8.97582194717807E-02
 cg2d: Sum(rhs),rhsMax =  -1.83010273602235E-11  9.02802046166366E-02
 cg2d: Sum(rhs),rhsMax =  -1.82556192385164E-11  9.07821046546121E-02
 cg2d: Sum(rhs),rhsMax =  -1.82310833096722E-11  9.12637157817378E-02
 cg2d: Sum(rhs),rhsMax =  -1.82820425465025E-11  9.17248383145066E-02
 cg2d: Sum(rhs),rhsMax =  -1.81205050964195E-11  9.21652773805600E-02
 cg2d: Sum(rhs),rhsMax =  -1.79847248205078E-11  9.25848433811133E-02
 cg2d: Sum(rhs),rhsMax =  -1.78407288942140E-11  9.29833522405557E-02
 cg2d: Sum(rhs),rhsMax =  -1.76895165182600E-11  9.33606254917376E-02
 cg2d: Sum(rhs),rhsMax =  -1.75497394394597E-11  9.37164902731577E-02
 cg2d: Sum(rhs),rhsMax =  -1.74983361134196E-11  9.40507793332801E-02
 cg2d: Sum(rhs),rhsMax =  -1.74650294226808E-11  9.43633311447544E-02
 cg2d: Sum(rhs),rhsMax =  -1.74671388464276E-11  9.46539902262417E-02
 cg2d: Sum(rhs),rhsMax =  -1.74654735118907E-11  9.49226077522109E-02
 cg2d: Sum(rhs),rhsMax =  -1.74413816722563E-11  9.51690425030945E-02
 cg2d: Sum(rhs),rhsMax =  -1.74639191996562E-11  9.53931621722206E-02
 cg2d: Sum(rhs),rhsMax =  -1.74277259290534E-11  9.55948450053376E-02
 cg2d: Sum(rhs),rhsMax =  -1.74202874347884E-11  9.57739817071170E-02
 cg2d: Sum(rhs),rhsMax =  -1.74058545354683E-11  9.59304775107069E-02
 cg2d: Sum(rhs),rhsMax =  -1.73960845728516E-11  9.60642542749536E-02
 cg2d: Sum(rhs),rhsMax =  -1.73874248332595E-11  9.61752524525465E-02
 cg2d: Sum(rhs),rhsMax =  -1.74008585318575E-11  9.62634327576596E-02
 cg2d: Sum(rhs),rhsMax =  -1.74265046837263E-11  9.63287773830602E-02
 cg2d: Sum(rhs),rhsMax =  -1.74240621930721E-11  9.63712906324457E-02
 cg2d: Sum(rhs),rhsMax =  -1.74247283268869E-11  9.63909988416709E-02
 cg2d: Sum(rhs),rhsMax =  -1.74333880664790E-11  9.63879495273390E-02
 cg2d: Sum(rhs),rhsMax =  -1.74863457047536E-11  9.63622097547422E-02
 cg2d: Sum(rhs),rhsMax =  -1.75147674141840E-11  9.63138637750313E-02
 cg2d: Sum(rhs),rhsMax =  -1.74880110392905E-11  9.62430100381015E-02
 cg2d: Sum(rhs),rhsMax =  -1.75034431393328E-11  9.61497577458225E-02
 cg2d: Sum(rhs),rhsMax =  -1.74791292550935E-11  9.60342231565652E-02
 cg2d: Sum(rhs),rhsMax =  -1.74371628247627E-11  9.58965258904417E-02
 cg2d: Sum(rhs),rhsMax =  -1.74065206692831E-11  9.57367855074527E-02
 cg2d: Sum(rhs),rhsMax =  -1.74059655577707E-11  9.55551186354338E-02
 cg2d: Sum(rhs),rhsMax =  -1.73763226030133E-11  9.53516369102344E-02
 cg2d: Sum(rhs),rhsMax =  -1.73311365259110E-11  9.51264459536311E-02
 cg2d: Sum(rhs),rhsMax =  -1.73102643330481E-11  9.48796455470632E-02
 cg2d: Sum(rhs),rhsMax =  -1.72900582739999E-11  9.46113311032347E-02
 cg2d: Sum(rhs),rhsMax =  -1.72349912119785E-11  9.43215964370060E-02
 cg2d: Sum(rhs),rhsMax =  -1.71787029046300E-11  9.40105377378763E-02
 cg2d: Sum(rhs),rhsMax =  -1.71225256195839E-11  9.36782585454499E-02
 cg2d: Sum(rhs),rhsMax =  -1.70352620898484E-11  9.33248754346336E-02
 cg2d: Sum(rhs),rhsMax =  -1.73319136820282E-11  9.29505240369955E-02
 cg2d: Sum(rhs),rhsMax =  -1.73306924367012E-11  9.25553649667220E-02
 cg2d: Sum(rhs),rhsMax =  -1.73165926042884E-11  9.21395891909037E-02
 cg2d: Sum(rhs),rhsMax =  -1.73498992950272E-11  9.17034223895827E-02
 cg2d: Sum(rhs),rhsMax =  -1.73829839411610E-11  9.12471278934491E-02
 cg2d: Sum(rhs),rhsMax =  -1.74428249621883E-11  9.07710078654780E-02
 cg2d: Sum(rhs),rhsMax =  -1.75184311501653E-11  9.02754025027421E-02
 cg2d: Sum(rhs),rhsMax =  -1.77041714621851E-11  8.97606871683767E-02
 cg2d: Sum(rhs),rhsMax =  -1.77046155513949E-11  8.92272675106928E-02
 cg2d: Sum(rhs),rhsMax =  -1.76952896779881E-11  8.86755727743923E-02
 cg2d: Sum(rhs),rhsMax =  -1.77092784880983E-11  8.81060476449324E-02
 cg2d: Sum(rhs),rhsMax =  -1.77287073910293E-11  8.75191430795254E-02
 cg2d: Sum(rhs),rhsMax =  -1.77697856429404E-11  8.69153066574929E-02
 cg2d: Sum(rhs),rhsMax =  -1.77965420178339E-11  8.62949730224109E-02
 cg2d: Sum(rhs),rhsMax =  -1.78167480768820E-11  8.56585549863343E-02
 cg2d: Sum(rhs),rhsMax =  -1.78898007519024E-11  8.50064358233127E-02
 cg2d: Sum(rhs),rhsMax =  -1.79182224613328E-11  8.43389632003304E-02
 cg2d: Sum(rhs),rhsMax =  -1.79756209917059E-11  8.36564450863466E-02
 cg2d: Sum(rhs),rhsMax =  -1.80108150615865E-11  8.29591478536017E-02
 cg2d: Sum(rhs),rhsMax =  -1.80614412315094E-11  8.22472966499588E-02
 cg2d: Sum(rhs),rhsMax =  -1.81126225129447E-11  8.15210779867215E-02
 cg2d: Sum(rhs),rhsMax =  -1.81700210433178E-11  8.07806443619628E-02
 cg2d: Sum(rhs),rhsMax =  -1.81977766189334E-11  8.00261206267364E-02
 cg2d: Sum(rhs),rhsMax =  -1.82334147780239E-11  7.92576117314360E-02
 cg2d: Sum(rhs),rhsMax =  -1.82797110781507E-11  7.84752114250640E-02
 cg2d: Sum(rhs),rhsMax =  -1.83271176013022E-11  7.76790114277676E-02
 cg2d: Sum(rhs),rhsMax =  -1.84602333419548E-11  7.68691106073333E-02
 cg2d: Sum(rhs),rhsMax =  -1.85966797516812E-11  7.60456237108555E-02
 cg2d: Sum(rhs),rhsMax =  -1.87483362168450E-11  7.52086892467664E-02
 cg2d: Sum(rhs),rhsMax =  -1.89117610460698E-11  7.43584761768764E-02
 cg2d: Sum(rhs),rhsMax =  -1.90676363587272E-11  7.34951891592680E-02
 cg2d: Sum(rhs),rhsMax =  -1.92397209275441E-11  7.26190721754557E-02
 cg2d: Sum(rhs),rhsMax =  -1.94265714625885E-11  7.17304104727488E-02
 cg2d: Sum(rhs),rhsMax =  -1.96086480386271E-11  7.08295308483363E-02
 cg2d: Sum(rhs),rhsMax =  -1.97949434621592E-11  6.99168003886288E-02
 cg2d: Sum(rhs),rhsMax =  -2.00015559670419E-11  6.89926238501251E-02
 cg2d: Sum(rhs),rhsMax =  -2.02046157582458E-11  6.80574399222355E-02
 cg2d: Sum(rhs),rhsMax =  -2.04114503077335E-11  6.71117166500396E-02
 cg2d: Sum(rhs),rhsMax =  -2.06293870874674E-11  6.61559462989785E-02
 cg2d: Sum(rhs),rhsMax =  -2.08655315248052E-11  6.51906399206189E-02
 cg2d: Sum(rhs),rhsMax =  -2.11171080621853E-11  6.42163218936894E-02
 cg2d: Sum(rhs),rhsMax =  -2.13735695808737E-11  6.32335246558809E-02
 cg2d: Sum(rhs),rhsMax =  -2.16339168801483E-11  6.22427837967037E-02
 cg2d: Sum(rhs),rhsMax =  -2.19093632125578E-11  6.12446336366230E-02
 cg2d: Sum(rhs),rhsMax =  -2.21924700838372E-11  6.02396033769686E-02
 cg2d: Sum(rhs),rhsMax =  -2.25001128839608E-11  5.92282138746282E-02
 cg2d: Sum(rhs),rhsMax =  -2.27969865207456E-11  5.82109750542577E-02
 cg2d: Sum(rhs),rhsMax =  -2.31210606216337E-11  5.71883839682411E-02
 cg2d: Sum(rhs),rhsMax =  -2.34600117110517E-11  5.61609234994188E-02
 cg2d: Sum(rhs),rhsMax =  -2.38230546401041E-11  5.51290616920728E-02
 cg2d: Sum(rhs),rhsMax =  -2.41997533123595E-11  5.40932516937025E-02
 cg2d: Sum(rhs),rhsMax =  -2.45883313709783E-11  5.30539322884170E-02
 cg2d: Sum(rhs),rhsMax =  -2.49926745965467E-11  5.20115289995578E-02
 cg2d: Sum(rhs),rhsMax =  -2.54224419293791E-11  5.09664557319980E-02
 cg2d: Sum(rhs),rhsMax =  -2.58606469571987E-11  4.99191169117440E-02
 cg2d: Sum(rhs),rhsMax =  -2.63319366311521E-11  4.88699100612899E-02
 cg2d: Sum(rhs),rhsMax =  -2.68258193436566E-11  4.78192287242013E-02
 cg2d: Sum(rhs),rhsMax =  -2.73443490073078E-11  4.67674656235529E-02
 cg2d: Sum(rhs),rhsMax =  -2.78887468674327E-11  4.57150159093467E-02
 cg2d: Sum(rhs),rhsMax =  -2.84492984725659E-11  4.46622803240624E-02
 cg2d: Sum(rhs),rhsMax =  -2.90327761831577E-11  4.36096680976428E-02
 cg2d: Sum(rhs),rhsMax =  -2.97004643101673E-11  4.25575993776840E-02
 cg2d: Sum(rhs),rhsMax =  -3.04101743786589E-11  4.15065070105443E-02
 cg2d: Sum(rhs),rhsMax =  -3.11567438515681E-11  4.04568375159570E-02
 cg2d: Sum(rhs),rhsMax =  -3.19466675335889E-11  3.94090511409981E-02
 cg2d: Sum(rhs),rhsMax =  -3.27818328038632E-11  3.83636209363237E-02
 cg2d: Sum(rhs),rhsMax =  -3.36506378317836E-11  3.73210308640403E-02
 cg2d: Sum(rhs),rhsMax =  -3.45733996987008E-11  3.62817730167933E-02
 cg2d: Sum(rhs),rhsMax =  -3.55311891020449E-11  3.52463440954662E-02
 cg2d: Sum(rhs),rhsMax =  -3.65636410037951E-11  3.42152413522669E-02
 cg2d: Sum(rhs),rhsMax =  -3.76359499121293E-11  3.31889582472050E-02
 cg2d: Sum(rhs),rhsMax =  -3.87847531868601E-11  3.21679801075379E-02
 cg2d: Sum(rhs),rhsMax =  -3.99829613861868E-11  3.11527800793588E-02
 cg2d: Sum(rhs),rhsMax =  -4.12598843979595E-11  3.01438156337121E-02
 cg2d: Sum(rhs),rhsMax =  -4.26111090856551E-11  2.91415258682397E-02
 cg2d: Sum(rhs),rhsMax =  -4.40653902256116E-11  2.81463297931489E-02
 cg2d: Sum(rhs),rhsMax =  -4.56083226740844E-11  2.71586257236195E-02
 cg2d: Sum(rhs),rhsMax =  -4.70522232287607E-11  2.62938261447888E-02
 cg2d: Sum(rhs),rhsMax =  -4.56374105173296E-11  2.70531300609891E-02
 cg2d: Sum(rhs),rhsMax =  -4.43772518732288E-11  2.78050868051115E-02
 cg2d: Sum(rhs),rhsMax =  -4.31522595434330E-11  2.85493248103882E-02
 cg2d: Sum(rhs),rhsMax =  -4.19970030973715E-11  2.92854846750979E-02
 cg2d: Sum(rhs),rhsMax =  -4.09675054297010E-11  3.00132220794646E-02
 cg2d: Sum(rhs),rhsMax =  -3.99394232963868E-11  3.07322098140559E-02
 cg2d: Sum(rhs),rhsMax =  -3.90164636709933E-11  3.14421388923726E-02
 cg2d: Sum(rhs),rhsMax =  -3.80868045435356E-11  3.21427199136847E-02
 cg2d: Sum(rhs),rhsMax =  -3.72467612308469E-11  3.28336814702960E-02
 cg2d: Sum(rhs),rhsMax =  -3.62968405331898E-11  3.35147681430645E-02
 cg2d: Sum(rhs),rhsMax =  -3.55624973913393E-11  3.41857388877823E-02
 cg2d: Sum(rhs),rhsMax =  -3.48357176438441E-11  3.48463654951885E-02
 cg2d: Sum(rhs),rhsMax =  -3.41696670957958E-11  3.54964308238062E-02
 cg2d: Sum(rhs),rhsMax =  -3.35371452830913E-11  3.61357270912645E-02
 cg2d: Sum(rhs),rhsMax =  -3.28598814824943E-11  3.67640545527599E-02
 cg2d: Sum(rhs),rhsMax =  -3.22298854271708E-11  3.73812201474644E-02
 cg2d: Sum(rhs),rhsMax =  -3.16163484281873E-11  3.79870362932936E-02
 cg2d: Sum(rhs),rhsMax =  -3.10712011675207E-11  3.85813199881777E-02
 cg2d: Sum(rhs),rhsMax =  -3.05194758354332E-11  3.91638923085300E-02
 cg2d: Sum(rhs),rhsMax =  -3.00259261898361E-11  3.97345787604338E-02
 cg2d: Sum(rhs),rhsMax =  -2.95169999553480E-11  4.02932086422268E-02
 cg2d: Sum(rhs),rhsMax =  -2.91141555308627E-11  4.08396145190796E-02
 cg2d: Sum(rhs),rhsMax =  -2.88941648385332E-11  4.13736300481284E-02
 cg2d: Sum(rhs),rhsMax =  -2.84627876823151E-11  4.18950901308511E-02
 cg2d: Sum(rhs),rhsMax =  -2.80575562783270E-11  4.24038319209031E-02
 cg2d: Sum(rhs),rhsMax =  -2.76595968351501E-11  4.28996956484303E-02
 cg2d: Sum(rhs),rhsMax =  -2.73129852068621E-11  4.33825250939305E-02
 cg2d: Sum(rhs),rhsMax =  -2.69386735141097E-11  4.38521680145913E-02
 cg2d: Sum(rhs),rhsMax =  -2.66062172293857E-11  4.43084768132898E-02
 cg2d: Sum(rhs),rhsMax =  -2.63062349681320E-11  4.47513095193147E-02
 cg2d: Sum(rhs),rhsMax =  -2.59970378557739E-11  4.51805304396302E-02
 cg2d: Sum(rhs),rhsMax =  -2.57315835305860E-11  4.55960095901620E-02
 cg2d: Sum(rhs),rhsMax =  -2.54560816870253E-11  4.59976266464229E-02
 cg2d: Sum(rhs),rhsMax =  -2.51265119821653E-11  4.63852725209663E-02
 cg2d: Sum(rhs),rhsMax =  -2.48457920903888E-11  4.67588492625278E-02
 cg2d: Sum(rhs),rhsMax =  -2.45403697363145E-11  4.71182692660711E-02
 cg2d: Sum(rhs),rhsMax =  -2.42730835431360E-11  4.74634542870820E-02
 cg2d: Sum(rhs),rhsMax =  -2.40162889575402E-11  4.77943342355609E-02
 cg2d: Sum(rhs),rhsMax =  -2.37992958673772E-11  4.81108455211367E-02
 cg2d: Sum(rhs),rhsMax =  -2.35658159652985E-11  4.84129287629518E-02
 cg2d: Sum(rhs),rhsMax =  -2.33566499474591E-11  4.87005258035371E-02
 cg2d: Sum(rhs),rhsMax =  -2.31742958156644E-11  4.89735764366261E-02
 cg2d: Sum(rhs),rhsMax =  -2.29652963312788E-11  4.92320137104408E-02
 cg2d: Sum(rhs),rhsMax =  -2.28003171898195E-11  4.94757592186416E-02
 cg2d: Sum(rhs),rhsMax =  -2.26577645534576E-11  4.97047184572156E-02
 cg2d: Sum(rhs),rhsMax =  -2.25089946681578E-11  4.99187762465776E-02
 cg2d: Sum(rhs),rhsMax =  -2.23535634447103E-11  5.01177924198677E-02
 cg2d: Sum(rhs),rhsMax =  -2.22287188655912E-11  5.03015981669124E-02
 cg2d: Sum(rhs),rhsMax =  -2.20926610339234E-11  5.04699934991762E-02
 cg2d: Sum(rhs),rhsMax =  -2.20438112208399E-11  5.06227461901828E-02
 cg2d: Sum(rhs),rhsMax =  -2.19080864560794E-11  5.07595927684319E-02
 cg2d: Sum(rhs),rhsMax =  -2.18292606213311E-11  5.08802417406083E-02
 cg2d: Sum(rhs),rhsMax =  -2.17494355858605E-11  5.09843789356507E-02
 cg2d: Sum(rhs),rhsMax =  -2.16928697227559E-11  5.10716749308023E-02
 cg2d: Sum(rhs),rhsMax =  -2.15974460537893E-11  5.11417945181355E-02
 cg2d: Sum(rhs),rhsMax =  -2.16834883381978E-11  5.11944077789746E-02
 cg2d: Sum(rhs),rhsMax =  -2.17085793785543E-11  5.12292021929291E-02
 cg2d: Sum(rhs),rhsMax =  -2.17832973881116E-11  5.12458950683305E-02
 cg2d: Sum(rhs),rhsMax =  -2.17679207992205E-11  5.12442455531412E-02
 cg2d: Sum(rhs),rhsMax =  -2.18219331493685E-11  5.12240654892361E-02
 cg2d: Sum(rhs),rhsMax =  -2.18947637797839E-11  5.11852284501757E-02
 cg2d: Sum(rhs),rhsMax =  -2.19571028026166E-11  5.11276764238278E-02
 cg2d: Sum(rhs),rhsMax =  -2.20634066572245E-11  5.10514237661954E-02
 cg2d: Sum(rhs),rhsMax =  -2.21510587650187E-11  5.09565582462951E-02
 cg2d: Sum(rhs),rhsMax =  -2.23102092355987E-11  5.08432391971318E-02
 cg2d: Sum(rhs),rhsMax =  -2.23951968081337E-11  5.07116929670439E-02
 cg2d: Sum(rhs),rhsMax =  -2.25159890732129E-11  5.05622060159581E-02
 cg2d: Sum(rhs),rhsMax =  -2.26432206318350E-11  5.03951161146133E-02
 cg2d: Sum(rhs),rhsMax =  -2.28057572826401E-11  5.02108021730299E-02
 cg2d: Sum(rhs),rhsMax =  -2.29301577725494E-11  5.00096736991281E-02
 cg2d: Sum(rhs),rhsMax =  -2.31067387446160E-11  4.97921598723409E-02
 cg2d: Sum(rhs),rhsMax =  -2.32390218180001E-11  4.95586972424555E-02
 cg2d: Sum(rhs),rhsMax =  -2.34586794434222E-11  4.93097188017939E-02
(PID.TID 0000.0001)      cg2d_init_res =   3.43756723559591E-02
(PID.TID 0000.0001)      cg2d_iters(min,last) =      -1      35
(PID.TID 0000.0001)      cg2d_last_res =   6.66245242814877E-14
(PID.TID 0000.0001) // =======================================================
(PID.TID 0000.0001) // Begin MONITOR dynamic field statistics
(PID.TID 0000.0001) // =======================================================
(PID.TID 0000.0001) %MON time_tsnumber                =                  5760
(PID.TID 0000.0001) %MON time_secondsf                =   8.6400000000000E+04
(PID.TID 0000.0001) %MON dynstat_eta_max              =   8.5705139305309E-03
(PID.TID 0000.0001) %MON dynstat_eta_min              =  -9.1386377356105E-03
(PID.TID 0000.0001) %MON dynstat_eta_mean             =   2.4150633949372E-15
(PID.TID 0000.0001) %MON dynstat_eta_sd               =   5.6811339650337E-03
(PID.TID 0000.0001) %MON dynstat_eta_del2             =   1.6659804746575E-05
(PID.TID 0000.0001) %MON dynstat_uvel_max             =   7.0885918812344E-01
(PID.TID 0000.0001) %MON dynstat_uvel_min             =  -3.7170259693913E-01
(PID.TID 0000.0001) %MON dynstat_uvel_mean            =   1.0762268961399E-01
(PID.TID 0000.0001) %MON dynstat_uvel_sd              =   8.2802784958971E-02
(PID.TID 0000.0001) %MON dynstat_uvel_del2            =   1.8373709153258E-04
(PID.TID 0000.0001) %MON dynstat_vvel_max             =   0.0000000000000E+00
(PID.TID 0000.0001) %MON dynstat_vvel_min             =   0.0000000000000E+00
(PID.TID 0000.0001) %MON dynstat_vvel_mean            =   0.0000000000000E+00
(PID.TID 0000.0001) %MON dynstat_vvel_sd              =   0.0000000000000E+00
(PID.TID 0000.0001) %MON dynstat_vvel_del2            =   0.0000000000000E+00
(PID.TID 0000.0001) %MON dynstat_wvel_max             =   3.1426098932419E-03
(PID.TID 0000.0001) %MON dynstat_wvel_min             =  -9.8275155459968E-03
(PID.TID 0000.0001) %MON dynstat_wvel_mean            =  -3.4264529991627E-21
(PID.TID 0000.0001) %MON dynstat_wvel_sd              =   5.3191387019813E-04
(PID.TID 0000.0001) %MON dynstat_wvel_del2            =   8.6774086560013E-06
(PID.TID 0000.0001) %MON dynstat_theta_max            =   1.5000000000013E+01
(PID.TID 0000.0001) %MON dynstat_theta_min            =   9.9999999999905E+00
(PID.TID 0000.0001) %MON dynstat_theta_mean           =   1.2512733634355E+01
(PID.TID 0000.0001) %MON dynstat_theta_sd             =   2.4416370727233E+00
(PID.TID 0000.0001) %MON dynstat_theta_del2           =   1.0287353607384E-03
(PID.TID 0000.0001) %MON dynstat_salt_max             =   3.5000000000000E+01
(PID.TID 0000.0001) %MON dynstat_salt_min             =   3.5000000000000E+01
(PID.TID 0000.0001) %MON dynstat_salt_mean            =   3.5000000000000E+01
(PID.TID 0000.0001) %MON dynstat_salt_sd              =   3.9790393202566E-13
(PID.TID 0000.0001) %MON dynstat_salt_del2            =   0.0000000000000E+00
(PID.TID 0000.0001) %MON dynstat_sst_max              =   1.5000000000000E+01
(PID.TID 0000.0001) %MON dynstat_sst_min              =   1.4999999999996E+01
(PID.TID 0000.0001) %MON dynstat_sst_mean             =   1.4999999999999E+01
(PID.TID 0000.0001) %MON dynstat_sst_sd               =   8.5404008111966E-13
(PID.TID 0000.0001) %MON dynstat_sst_del2             =   1.2059350251449E-14
(PID.TID 0000.0001) %MON dynstat_sss_max              =   3.5000000000000E+01
(PID.TID 0000.0001) %MON dynstat_sss_min              =   3.5000000000000E+01
(PID.TID 0000.0001) %MON dynstat_sss_mean             =   3.5000000000000E+01
(PID.TID 0000.0001) %MON dynstat_sss_sd               =   5.6843418860808E-14
(PID.TID 0000.0001) %MON dynstat_sss_del2             =   0.0000000000000E+00
(PID.TID 0000.0001) %MON forcing_qnet_max             =   0.0000000000000E+00
(PID.TID 0000.0001) %MON forcing_qnet_min             =   0.0000000000000E+00
(PID.TID 0000.0001) %MON forcing_qnet_mean            =   0.0000000000000E+00
(PID.TID 0000.0001) %MON forcing_qnet_sd              =   0.0000000000000E+00
(PID.TID 0000.0001) %MON forcing_qnet_del2            =   0.0000000000000E+00
(PID.TID 0000.0001) %MON forcing_qsw_max              =   0.0000000000000E+00
(PID.TID 0000.0001) %MON forcing_qsw_min              =   0.0000000000000E+00
(PID.TID 0000.0001) %MON forcing_qsw_mean             =   0.0000000000000E+00
(PID.TID 0000.0001) %MON forcing_qsw_sd               =   0.0000000000000E+00
(PID.TID 0000.0001) %MON forcing_qsw_del2             =   0.0000000000000E+00
(PID.TID 0000.0001) %MON forcing_empmr_max            =   0.0000000000000E+00
(PID.TID 0000.0001) %MON forcing_empmr_min            =   0.0000000000000E+00
(PID.TID 0000.0001) %MON forcing_empmr_mean           =   0.0000000000000E+00
(PID.TID 0000.0001) %MON forcing_empmr_sd             =   0.0000000000000E+00
(PID.TID 0000.0001) %MON forcing_empmr_del2           =   0.0000000000000E+00
(PID.TID 0000.0001) %MON forcing_fu_max               =   0.0000000000000E+00
(PID.TID 0000.0001) %MON forcing_fu_min               =   0.0000000000000E+00
(PID.TID 0000.0001) %MON forcing_fu_mean              =   0.0000000000000E+00
(PID.TID 0000.0001) %MON forcing_fu_sd                =   0.0000000000000E+00
(PID.TID 0000.0001) %MON forcing_fu_del2              =   0.0000000000000E+00
(PID.TID 0000.0001) %MON forcing_fv_max               =   0.0000000000000E+00
(PID.TID 0000.0001) %MON forcing_fv_min               =   0.0000000000000E+00
(PID.TID 0000.0001) %MON forcing_fv_mean              =   0.0000000000000E+00
(PID.TID 0000.0001) %MON forcing_fv_sd                =   0.0000000000000E+00
(PID.TID 0000.0001) %MON forcing_fv_del2              =   0.0000000000000E+00
(PID.TID 0000.0001) %MON advcfl_uvel_max              =   5.3164439109258E-02
(PID.TID 0000.0001) %MON advcfl_vvel_max              =   0.0000000000000E+00
(PID.TID 0000.0001) %MON advcfl_wvel_max              =   1.3770003452296E-01
(PID.TID 0000.0001) %MON advcfl_W_hf_max              =   1.3954418694825E-01
(PID.TID 0000.0001) %MON pe_b_mean                    =   8.1284369700304E-07
(PID.TID 0000.0001) %MON ke_max                       =   1.8899255257671E-01
(PID.TID 0000.0001) %MON ke_mean                      =   9.2550506788128E-03
(PID.TID 0000.0001) %MON ke_vol                       =   9.5121673331316E+10
(PID.TID 0000.0001) %MON vort_r_min                   =   0.0000000000000E+00
(PID.TID 0000.0001) %MON vort_r_max                   =   0.0000000000000E+00
(PID.TID 0000.0001) %MON vort_a_mean                  =   0.0000000000000E+00
(PID.TID 0000.0001) %MON vort_a_sd                    =   0.0000000000000E+00
(PID.TID 0000.0001) %MON vort_p_mean                  =   0.0000000000000E+00
(PID.TID 0000.0001) %MON vort_p_sd                    =   0.0000000000000E+00
(PID.TID 0000.0001) %MON surfExpan_theta_mean         =   8.3763389320055E-19
(PID.TID 0000.0001) %MON surfExpan_salt_mean          =  -2.3184197794296E-19
(PID.TID 0000.0001) // =======================================================
(PID.TID 0000.0001) // End MONITOR dynamic field statistics
(PID.TID 0000.0001) // =======================================================
(PID.TID 0000.0001) // =======================================================
(PID.TID 0000.0001) // Begin OBCS MONITOR field statistics
(PID.TID 0000.0001) // =======================================================
(PID.TID 0000.0001) %MON obc_E_uVel_max               =   1.0505355776936E-01
(PID.TID 0000.0001) %MON obc_E_uVel_min               =   1.0505355776936E-01
(PID.TID 0000.0001) %MON obc_E_uVel_mean              =   1.0505355776936E-01
(PID.TID 0000.0001) %MON obc_E_uVel_sd                =  -6.9388939039072E-18
(PID.TID 0000.0001) %MON obc_E_uVel_Int               =   1.0505355776936E+05
(PID.TID 0000.0001) %MON obc_W_uVel_max               =   1.0505355776936E-01
(PID.TID 0000.0001) %MON obc_W_uVel_min               =   1.0505355776936E-01
(PID.TID 0000.0001) %MON obc_W_uVel_mean              =   1.0505355776936E-01
(PID.TID 0000.0001) %MON obc_W_uVel_sd                =  -6.9388939039072E-18
(PID.TID 0000.0001) %MON obc_W_uVel_Int               =   1.0505355776936E+05
(PID.TID 0000.0001) // =======================================================
(PID.TID 0000.0001) // End OBCS MONITOR field statistics
(PID.TID 0000.0001) // =======================================================
(PID.TID 0000.0001) %CHECKPOINT      5760 0000005760
 cg2d: Sum(rhs),rhsMax =  -2.36389796626213E-11  4.90456443961197E-02
 cg2d: Sum(rhs),rhsMax =  -2.38741248992369E-11  4.87668722759733E-02
 cg2d: Sum(rhs),rhsMax =  -2.41133224498924E-11  4.84737717317462E-02
 cg2d: Sum(rhs),rhsMax =  -2.43836617563886E-11  4.81666769079506E-02
 cg2d: Sum(rhs),rhsMax =  -2.46507259049622E-11  4.78458815758560E-02
 cg2d: Sum(rhs),rhsMax =  -2.49623099968233E-11  4.75116351493316E-02
 cg2d: Sum(rhs),rhsMax =  -2.52221576957368E-11  4.71641419045285E-02
 cg2d: Sum(rhs),rhsMax =  -2.55346854771688E-11  4.68035608850775E-02
 cg2d: Sum(rhs),rhsMax =  -2.58414400988727E-11  4.64300066185112E-02
 cg2d: Sum(rhs),rhsMax =  -2.61996535577680E-11  4.60435511487684E-02
 cg2d: Sum(rhs),rhsMax =  -2.65040211999690E-11  4.56442275794180E-02
 cg2d: Sum(rhs),rhsMax =  -2.68576827444633E-11  4.52320350223036E-02
 cg2d: Sum(rhs),rhsMax =  -2.71430655729432E-11  4.48069473615061E-02
 cg2d: Sum(rhs),rhsMax =  -2.74322786708581E-11  4.43689177317698E-02
 cg2d: Sum(rhs),rhsMax =  -2.77697309591929E-11  4.39178842171146E-02
 cg2d: Sum(rhs),rhsMax =  -2.81143996971878E-11  4.34537782923858E-02
 cg2d: Sum(rhs),rhsMax =  -2.84696710650678E-11  4.29765339944011E-02
 cg2d: Sum(rhs),rhsMax =  -2.88846169205215E-11  4.24860964916964E-02
 cg2d: Sum(rhs),rhsMax =  -2.92705304438812E-11  4.19824296505524E-02
 cg2d: Sum(rhs),rhsMax =  -2.96925262155412E-11  4.14655226598378E-02
 cg2d: Sum(rhs),rhsMax =  -3.01256797285987E-11  4.09353957995035E-02
 cg2d: Sum(rhs),rhsMax =  -3.06042968745146E-11  4.03921053024538E-02
 cg2d: Sum(rhs),rhsMax =  -3.11023429233614E-11  3.98357474474587E-02
 cg2d: Sum(rhs),rhsMax =  -3.15948933682364E-11  3.92664612567142E-02
 cg2d: Sum(rhs),rhsMax =  -3.21416782078643E-11  3.86844294412170E-02
 cg2d: Sum(rhs),rhsMax =  -3.27288196544373E-11  3.80898782088427E-02
 cg2d: Sum(rhs),rhsMax =  -3.33364169602390E-11  3.74830753653877E-02
 cg2d: Sum(rhs),rhsMax =  -3.40013850408383E-11  3.68643308221783E-02
 cg2d: Sum(rhs),rhsMax =  -3.46597750500166E-11  3.62339945294949E-02
 cg2d: Sum(rhs),rhsMax =  -3.53845563960675E-11  3.55924526401265E-02
 cg2d: Sum(rhs),rhsMax =  -3.61410346094715E-11  3.49401229262433E-02
 cg2d: Sum(rhs),rhsMax =  -3.69345942718979E-11  3.42774486216303E-02
 cg2d: Sum(rhs),rhsMax =  -3.77326503375741E-11  3.36048953266156E-02
 cg2d: Sum(rhs),rhsMax =  -3.85700360538976E-11  3.29229467719542E-02
 cg2d: Sum(rhs),rhsMax =  -3.94025923000640E-11  3.22320998080186E-02
 cg2d: Sum(rhs),rhsMax =  -4.03280048244525E-11  3.15328592739119E-02
 cg2d: Sum(rhs),rhsMax =  -4.12718470510498E-11  3.08257331862035E-02
 cg2d: Sum(rhs),rhsMax =  -4.23360721479860E-11  3.01112283859216E-02
 cg2d: Sum(rhs),rhsMax =  -4.34177208075148E-11  2.93898456496171E-02
 cg2d: Sum(rhs),rhsMax =  -4.45564713597024E-11  2.86620773645703E-02
 cg2d: Sum(rhs),rhsMax =  -4.57876722648187E-11  2.79284045030771E-02
 cg2d: Sum(rhs),rhsMax =  -4.71124389500588E-11  2.71892930627458E-02
 cg2d: Sum(rhs),rhsMax =  -4.85044088227582E-11  2.64451906941895E-02
 cg2d: Sum(rhs),rhsMax =  -4.99903729522799E-11  2.56965235156459E-02
 cg2d: Sum(rhs),rhsMax =  -5.08826869527468E-11  2.52665148079016E-02
 cg2d: Sum(rhs),rhsMax =  -4.91020557547017E-11  2.62158141681021E-02
 cg2d: Sum(rhs),rhsMax =  -4.74127404004321E-11  2.71722730762905E-02
 cg2d: Sum(rhs),rhsMax =  -4.58491300481256E-11  2.81355344788732E-02
 cg2d: Sum(rhs),rhsMax =  -4.43808323424832E-11  2.91052109506202E-02
 cg2d: Sum(rhs),rhsMax =  -4.29856705785880E-11  3.00808856394806E-02
 cg2d: Sum(rhs),rhsMax =  -4.16743306530520E-11  3.10621137924767E-02
 cg2d: Sum(rhs),rhsMax =  -4.04373201590147E-11  3.20484248388569E-02
 cg2d: Sum(rhs),rhsMax =  -3.92719190500657E-11  3.30393250068266E-02
 cg2d: Sum(rhs),rhsMax =  -3.81599751797523E-11  3.40343004490067E-02
 cg2d: Sum(rhs),rhsMax =  -3.71156438916387E-11  3.50328208475385E-02
 cg2d: Sum(rhs),rhsMax =  -3.61148333460903E-11  3.60343434609809E-02
 cg2d: Sum(rhs),rhsMax =  -3.51776940910042E-11  3.70383175609978E-02
 cg2d: Sum(rhs),rhsMax =  -3.43026718141459E-11  3.80441891874634E-02
 cg2d: Sum(rhs),rhsMax =  -3.34570704474402E-11  3.90514061272138E-02
 cg2d: Sum(rhs),rhsMax =  -3.26543236894850E-11  4.00594229964584E-02
 cg2d: Sum(rhs),rhsMax =  -3.18845505553611E-11  4.10677062828081E-02
 cg2d: Sum(rhs),rhsMax =  -3.11557446508459E-11  4.20757391833494E-02
 cg2d: Sum(rhs),rhsMax =  -3.04588576582887E-11  4.30830260635510E-02
 cg2d: Sum(rhs),rhsMax =  -2.98071567428337E-11  4.40890963609104E-02
 cg2d: Sum(rhs),rhsMax =  -2.91708324162698E-11  4.50935077689937E-02
 cg2d: Sum(rhs),rhsMax =  -2.86387580317182E-11  4.60958485614245E-02
 cg2d: Sum(rhs),rhsMax =  -2.81390466483344E-11  4.70957389596721E-02
 cg2d: Sum(rhs),rhsMax =  -2.76414446886974E-11  4.80928314785048E-02
 cg2d: Sum(rhs),rhsMax =  -2.71677125240899E-11  4.90868102486516E-02
 cg2d: Sum(rhs),rhsMax =  -2.67172950429995E-11  5.00773893658571E-02
 cg2d: Sum(rhs),rhsMax =  -2.62797561489947E-11  5.10643103612602E-02
 cg2d: Sum(rhs),rhsMax =  -2.58715271428400E-11  5.20473389251176E-02
 cg2d: Sum(rhs),rhsMax =  -2.54615217798460E-11  5.30262610408142E-02
 cg2d: Sum(rhs),rhsMax =  -2.50659493161720E-11  5.40008786978997E-02
 cg2d: Sum(rhs),rhsMax =  -2.46198617048776E-11  5.49710053522192E-02
 cg2d: Sum(rhs),rhsMax =  -2.42827979946014E-11  5.59364612901329E-02
 cg2d: Sum(rhs),rhsMax =  -2.39602782059478E-11  5.68970690354292E-02
 cg2d: Sum(rhs),rhsMax =  -2.36353159266400E-11  5.78526489153438E-02
 cg2d: Sum(rhs),rhsMax =  -2.33106867142396E-11  5.88030148794704E-02
 cg2d: Sum(rhs),rhsMax =  -2.30083729846342E-11  5.97479706450466E-02
 cg2d: Sum(rhs),rhsMax =  -2.27148300169233E-11  6.06873062258779E-02
 cg2d: Sum(rhs),rhsMax =  -2.24220642053297E-11  6.16207948906149E-02
 cg2d: Sum(rhs),rhsMax =  -2.21551665902098E-11  6.25481905887069E-02
 cg2d: Sum(rhs),rhsMax =  -2.19136930823538E-11  6.34692258776784E-02
 cg2d: Sum(rhs),rhsMax =  -2.16496820470979E-11  6.43836103814703E-02
 cg2d: Sum(rhs),rhsMax =  -2.14037676471435E-11  6.52910298044761E-02
 cg2d: Sum(rhs),rhsMax =  -2.11773931724224E-11  6.61911455158846E-02
 cg2d: Sum(rhs),rhsMax =  -2.09472439394176E-11  6.70835947136096E-02
 cg2d: Sum(rhs),rhsMax =  -2.07431849474915E-11  6.79679911597611E-02
 cg2d: Sum(rhs),rhsMax =  -2.05426786692442E-11  6.88439264551740E-02
 cg2d: Sum(rhs),rhsMax =  -2.03440597701388E-11  6.97109718084426E-02
 cg2d: Sum(rhs),rhsMax =  -2.01408889566324E-11  7.05686802379311E-02
 cg2d: Sum(rhs),rhsMax =  -1.99664729194637E-11  7.14165891309217E-02
 cg2d: Sum(rhs),rhsMax =  -1.97799554513267E-11  7.22542230738882E-02
 cg2d: Sum(rhs),rhsMax =  -1.96216376480152E-11  7.30810968628738E-02
 cg2d: Sum(rhs),rhsMax =  -1.95222726873112E-11  7.38967186032450E-02
 cg2d: Sum(rhs),rhsMax =  -1.94319005331067E-11  7.47005928130933E-02
 cg2d: Sum(rhs),rhsMax =  -1.93518534530313E-11  7.54922234530768E-02
 cg2d: Sum(rhs),rhsMax =  -1.92739157967026E-11  7.62711168160445E-02
 cg2d: Sum(rhs),rhsMax =  -1.92014182331945E-11  7.70367842207883E-02
 cg2d: Sum(rhs),rhsMax =  -1.90889526408000E-11  7.77887444643133E-02
 cg2d: Sum(rhs),rhsMax =  -1.89994686650152E-11  7.85265259950893E-02
 cg2d: Sum(rhs),rhsMax =  -1.89125382021871E-11  7.92496687775393E-02
 cg2d: Sum(rhs),rhsMax =  -1.88202786688407E-11  7.99577258147468E-02
 cg2d: Sum(rhs),rhsMax =  -1.87355686520618E-11  8.06502643030657E-02
 cg2d: Sum(rhs),rhsMax =  -1.86566317950110E-11  8.13268663984432E-02
 cg2d: Sum(rhs),rhsMax =  -1.85690351983681E-11  8.19871295728813E-02
 cg2d: Sum(rhs),rhsMax =  -1.84928738988788E-11  8.26306665442048E-02
 cg2d: Sum(rhs),rhsMax =  -1.84368076361352E-11  8.32571047697578E-02
 cg2d: Sum(rhs),rhsMax =  -1.83675297193986E-11  8.38660854987949E-02
 cg2d: Sum(rhs),rhsMax =  -1.83089099436984E-11  8.44572624153384E-02
 cg2d: Sum(rhs),rhsMax =  -1.82561743500287E-11  8.50302998997337E-02
 cg2d: Sum(rhs),rhsMax =  -1.81951120836743E-11  8.55848709553045E-02
 cg2d: Sum(rhs),rhsMax =  -1.81334947058076E-11  8.61206548786869E-02
 cg2d: Sum(rhs),rhsMax =  -1.81247239439131E-11  8.66373347881585E-02
 cg2d: Sum(rhs),rhsMax =  -1.81304971036411E-11  8.71345951055688E-02
 cg2d: Sum(rhs),rhsMax =  -1.81463732928933E-11  8.76121191622592E-02
 cg2d: Sum(rhs),rhsMax =  -1.81250570108205E-11  8.80695870999835E-02
 cg2d: Sum(rhs),rhsMax =  -1.80812032013478E-11  8.85066742456565E-02
 cg2d: Sum(rhs),rhsMax =  -1.80699899487990E-11  8.89230501440507E-02
 cg2d: Sum(rhs),rhsMax =  -1.80300219199125E-11  8.93183784287559E-02
 cg2d: Sum(rhs),rhsMax =  -1.80209180911106E-11  8.96923176969353E-02
 cg2d: Sum(rhs),rhsMax =  -1.79933845600999E-11  9.00445235263142E-02
 cg2d: Sum(rhs),rhsMax =  -1.79961601176615E-11  9.03746517331303E-02
 cg2d: Sum(rhs),rhsMax =  -1.79691816981631E-11  9.06823629179268E-02
 cg2d: Sum(rhs),rhsMax =  -1.79181114390303E-11  9.09673282831331E-02
 cg2d: Sum(rhs),rhsMax =  -1.78669301575951E-11  9.12292366341217E-02
 cg2d: Sum(rhs),rhsMax =  -1.78979053799821E-11  9.14678023965382E-02
 cg2d: Sum(rhs),rhsMax =  -1.78912440418344E-11  9.16827744010488E-02
 cg2d: Sum(rhs),rhsMax =  -1.79040116066176E-11  9.18739451073651E-02
 cg2d: Sum(rhs),rhsMax =  -1.79012360490560E-11  9.20411598686358E-02
 cg2d: Sum(rhs),rhsMax =  -1.78920211979516E-11  9.21843257816878E-02
 cg2d: Sum(rhs),rhsMax =  -1.79070092087841E-11  9.23034196345789E-02
 cg2d: Sum(rhs),rhsMax =  -1.79261050448076E-11  9.23984944444055E-02
 cg2d: Sum(rhs),rhsMax =  -1.79811721068290E-11  9.24696841486278E-02
 cg2d: Sum(rhs),rhsMax =  -1.78321801769243E-11  9.25172060053601E-02
 cg2d: Sum(rhs),rhsMax =  -1.78258519056840E-11  9.25413603781915E-02
 cg2d: Sum(rhs),rhsMax =  -1.78130843409008E-11  9.25425276997014E-02
 cg2d: Sum(rhs),rhsMax =  -1.78782544324463E-11  9.25211625477808E-02
 cg2d: Sum(rhs),rhsMax =  -1.77587944349966E-11  9.24777849217712E-02
 cg2d: Sum(rhs),rhsMax =  -1.76635372994838E-11  9.24129689591122E-02
 cg2d: Sum(rhs),rhsMax =  -1.76623160541567E-11  9.23273294817808E-02
 cg2d: Sum(rhs),rhsMax =  -1.76416659058987E-11  9.22215068866016E-02
 cg2d: Sum(rhs),rhsMax =  -1.76033632115491E-11  9.20961509882184E-02
 cg2d: Sum(rhs),rhsMax =  -1.75961467618890E-11  9.19519044811732E-02
 cg2d: Sum(rhs),rhsMax =  -1.75719438999522E-11  9.17893867034424E-02
 cg2d: Sum(rhs),rhsMax =  -1.75293113358066E-11  9.16091783594624E-02
 cg2d: Sum(rhs),rhsMax =  -1.74871228608708E-11  9.14118078026085E-02
 cg2d: Sum(rhs),rhsMax =  -1.74468217650769E-11  9.11977393710242E-02
 cg2d: Sum(rhs),rhsMax =  -1.74134040520357E-11  9.09673641854218E-02
 cg2d: Sum(rhs),rhsMax =  -1.73754344245935E-11  9.07209936849062E-02
 cg2d: Sum(rhs),rhsMax =  -1.73505654288419E-11  9.04588560548259E-02
 cg2d: Sum(rhs),rhsMax =  -1.72737379955379E-11  9.01810955845545E-02
 cg2d: Sum(rhs),rhsMax =  -1.72076797255727E-11  8.98877748882262E-02
 cg2d: Sum(rhs),rhsMax =  -1.71546110649956E-11  8.95788798301102E-02
 cg2d: Sum(rhs),rhsMax =  -1.70895519957526E-11  8.92543269187107E-02
 cg2d: Sum(rhs),rhsMax =  -1.70419234279962E-11  8.89139728683284E-02
 cg2d: Sum(rhs),rhsMax =  -1.69821934292713E-11  8.85576259713632E-02
 cg2d: Sum(rhs),rhsMax =  -1.69940728156348E-11  8.81850588768255E-02
 cg2d: Sum(rhs),rhsMax =  -1.70079506034426E-11  8.77960223290376E-02
 cg2d: Sum(rhs),rhsMax =  -1.70308211977499E-11  8.73902593856327E-02
 cg2d: Sum(rhs),rhsMax =  -1.70240488372997E-11  8.69675196076767E-02
 cg2d: Sum(rhs),rhsMax =  -1.70407021826691E-11  8.65275727005497E-02
 cg2d: Sum(rhs),rhsMax =  -1.70586877956680E-11  8.60702210865341E-02
 cg2d: Sum(rhs),rhsMax =  -1.70680136690748E-11  8.55953109133650E-02
 cg2d: Sum(rhs),rhsMax =  -1.70654601561182E-11  8.51027410510421E-02
 cg2d: Sum(rhs),rhsMax =  -1.70944369770609E-11  8.45924697040849E-02
 cg2d: Sum(rhs),rhsMax =  -1.70808922561605E-11  8.40645183680101E-02
 cg2d: Sum(rhs),rhsMax =  -1.71233027757012E-11  8.35189729842596E-02
 cg2d: Sum(rhs),rhsMax =  -1.71698211204330E-11  8.29559822921716E-02
 cg2d: Sum(rhs),rhsMax =  -1.71965774953264E-11  8.23757535278089E-02
 cg2d: Sum(rhs),rhsMax =  -1.72531988695823E-11  8.17785457756221E-02
 cg2d: Sum(rhs),rhsMax =  -1.72859504488088E-11  8.11646614203530E-02
 cg2d: Sum(rhs),rhsMax =  -1.73288050575593E-11  8.05344362642516E-02
 cg2d: Sum(rhs),rhsMax =  -1.73709935324950E-11  7.98882289596508E-02
 cg2d: Sum(rhs),rhsMax =  -1.73930869706851E-11  7.92264104507175E-02
 cg2d: Sum(rhs),rhsMax =  -1.74436021183055E-11  7.85493541152229E-02
 cg2d: Sum(rhs),rhsMax =  -1.74980030465122E-11  7.78574272454725E-02
 cg2d: Sum(rhs),rhsMax =  -1.75439662797316E-11  7.71509844090578E-02
 cg2d: Sum(rhs),rhsMax =  -1.75681691416685E-11  7.64303630906935E-02
 cg2d: Sum(rhs),rhsMax =  -1.76081371705550E-11  7.56958818456471E-02
 cg2d: Sum(rhs),rhsMax =  -1.76559877829163E-11  7.49478410009853E-02
 cg2d: Sum(rhs),rhsMax =  -1.77030612391604E-11  7.41865257596436E-02
 cg2d: Sum(rhs),rhsMax =  -1.77453607363987E-11  7.34122113783242E-02
 cg2d: Sum(rhs),rhsMax =  -1.78785874993537E-11  7.26251699124574E-02
 cg2d: Sum(rhs),rhsMax =  -1.80014891881797E-11  7.18256779199542E-02
 cg2d: Sum(rhs),rhsMax =  -1.81352710626470E-11  7.10140244469641E-02
 cg2d: Sum(rhs),rhsMax =  -1.82746040522375E-11  7.01905186042554E-02
 cg2d: Sum(rhs),rhsMax =  -1.84352533239007E-11  6.93554960836889E-02
 cg2d: Sum(rhs),rhsMax =  -1.85774728933552E-11  6.85093240573283E-02
 cg2d: Sum(rhs),rhsMax =  -1.87317938937781E-11  6.76524040389052E-02
 cg2d: Sum(rhs),rhsMax =  -1.88810078682877E-11  6.67851724564447E-02
 cg2d: Sum(rhs),rhsMax =  -1.90389926046919E-11  6.59080988709073E-02
 cg2d: Sum(rhs),rhsMax =  -1.94447791201924E-11  6.50216819625931E-02
 cg2d: Sum(rhs),rhsMax =  -1.96679339481420E-11  6.41264435790313E-02
 cg2d: Sum(rhs),rhsMax =  -1.98846494825489E-11  6.32229212812211E-02
 cg2d: Sum(rhs),rhsMax =  -2.01056948867517E-11  6.23116599285557E-02
 cg2d: Sum(rhs),rhsMax =  -2.03317362945654E-11  6.13932029085383E-02
 cg2d: Sum(rhs),rhsMax =  -2.05844230549701E-11  6.04680835934850E-02
 cg2d: Sum(rhs),rhsMax =  -2.08361106146526E-11  5.95368176020492E-02
 cg2d: Sum(rhs),rhsMax =  -2.10992334714888E-11  5.85998963602433E-02
 cg2d: Sum(rhs),rhsMax =  -2.13716822017318E-11  5.76577823362015E-02
 cg2d: Sum(rhs),rhsMax =  -2.16733297975225E-11  5.67109061953470E-02
 cg2d: Sum(rhs),rhsMax =  -2.19040341420396E-11  5.57596659729653E-02
 cg2d: Sum(rhs),rhsMax =  -2.22051266263179E-11  5.48044282363524E-02
 cg2d: Sum(rhs),rhsMax =  -2.25037766199421E-11  5.38455310858564E-02
 cg2d: Sum(rhs),rhsMax =  -2.28480567798783E-11  5.28832887344556E-02
 cg2d: Sum(rhs),rhsMax =  -2.32107666420234E-11  5.19179973240242E-02
 cg2d: Sum(rhs),rhsMax =  -2.35704789020019E-11  5.09499415818157E-02
 cg2d: Sum(rhs),rhsMax =  -2.39449016170568E-11  4.99794018934600E-02
 cg2d: Sum(rhs),rhsMax =  -2.43312037184751E-11  4.90066613668110E-02
 cg2d: Sum(rhs),rhsMax =  -2.47371012562780E-11  4.80320124874880E-02
 cg2d: Sum(rhs),rhsMax =  -2.51519916005805E-11  4.70557630048914E-02
 cg2d: Sum(rhs),rhsMax =  -2.55951371208596E-11  4.60782407502205E-02
 cg2d: Sum(rhs),rhsMax =  -2.60614307912022E-11  4.50997971612421E-02
 cg2d: Sum(rhs),rhsMax =  -2.65314992198284E-11  4.41208093697097E-02
 cg2d: Sum(rhs),rhsMax =  -2.70323763373881E-11  4.31416807921715E-02
 cg2d: Sum(rhs),rhsMax =  -2.75515166237028E-11  4.21628402490412E-02
 cg2d: Sum(rhs),rhsMax =  -2.81005219093799E-11  4.11847397158562E-02
 cg2d: Sum(rhs),rhsMax =  -2.86687340533831E-11  4.02078508804758E-02
 cg2d: Sum(rhs),rhsMax =  -2.93335356005286E-11  3.92326607368797E-02
 cg2d: Sum(rhs),rhsMax =  -3.00475755388163E-11  3.82596664872985E-02
 cg2d: Sum(rhs),rhsMax =  -3.07839864710502E-11  3.72893700477206E-02
 cg2d: Sum(rhs),rhsMax =  -3.15722448185340E-11  3.63222724566823E-02
 cg2d: Sum(rhs),rhsMax =  -3.23955862135961E-11  3.53588684743697E-02
 cg2d: Sum(rhs),rhsMax =  -3.32499583421964E-11  3.43996416305020E-02
 cg2d: Sum(rhs),rhsMax =  -3.41499051259575E-11  3.34450599385090E-02
 cg2d: Sum(rhs),rhsMax =  -3.51009776800026E-11  3.24955724442926E-02
 cg2d: Sum(rhs),rhsMax =  -3.60803609211757E-11  3.15516067248566E-02
 cg2d: Sum(rhs),rhsMax =  -3.71305208801687E-11  3.06135673995271E-02
 cg2d: Sum(rhs),rhsMax =  -3.82486819994199E-11  2.96818356679300E-02
 cg2d: Sum(rhs),rhsMax =  -3.94327626107582E-11  2.87567698467602E-02
 cg2d: Sum(rhs),rhsMax =  -4.06982225698016E-11  2.78387068429129E-02
 cg2d: Sum(rhs),rhsMax =  -4.18428347526145E-11  2.70481334619810E-02
 cg2d: Sum(rhs),rhsMax =  -4.07408273783716E-11  2.77518340473450E-02
 cg2d: Sum(rhs),rhsMax =  -3.96789961998323E-11  2.84485996837972E-02
 cg2d: Sum(rhs),rhsMax =  -3.86793097550964E-11  2.91379986554586E-02
 cg2d: Sum(rhs),rhsMax =  -3.77418374331029E-11  2.98196002648381E-02
 cg2d: Sum(rhs),rhsMax =  -3.68754748958366E-11  3.04929791937589E-02
 cg2d: Sum(rhs),rhsMax =  -3.60495314155607E-11  3.11577194729224E-02
 cg2d: Sum(rhs),rhsMax =  -3.52396792302478E-11  3.18134182627209E-02
 cg2d: Sum(rhs),rhsMax =  -3.44943483499005E-11  3.24596891383530E-02
 cg2d: Sum(rhs),rhsMax =  -3.37941757910798E-11  3.30961646533923E-02
 cg2d: Sum(rhs),rhsMax =  -3.31122074204160E-11  3.37225000387364E-02
 cg2d: Sum(rhs),rhsMax =  -3.24735099921369E-11  3.43383744827386E-02
 cg2d: Sum(rhs),rhsMax =  -3.18155918277441E-11  3.49434924524221E-02
 cg2d: Sum(rhs),rhsMax =  -3.11601022762176E-11  3.55375857453097E-02
 cg2d: Sum(rhs),rhsMax =  -3.05837577485590E-11  3.61204159048479E-02
 cg2d: Sum(rhs),rhsMax =  -3.00460212265818E-11  3.66917769279226E-02
 cg2d: Sum(rhs),rhsMax =  -2.95099500391416E-11  3.72514977022687E-02
 cg2d: Sum(rhs),rhsMax =  -2.89992474478140E-11  3.77994438493773E-02
 cg2d: Sum(rhs),rhsMax =  -2.85094725605006E-11  3.83355188055245E-02
 cg2d: Sum(rhs),rhsMax =  -2.80462597590514E-11  3.88596639453282E-02
 cg2d: Sum(rhs),rhsMax =  -2.76171585600338E-11  3.93718574517143E-02
 cg2d: Sum(rhs),rhsMax =  -2.71835887133420E-11  3.98721115981079E-02
 cg2d: Sum(rhs),rhsMax =  -2.67773581086317E-11  4.03604682460520E-02
 cg2d: Sum(rhs),rhsMax =  -2.64064881072557E-11  4.08369924238367E-02
 cg2d: Sum(rhs),rhsMax =  -2.60531041185175E-11  4.13017638749977E-02
 cg2d: Sum(rhs),rhsMax =  -2.57266430381264E-11  4.17548670849814E-02
 cg2d: Sum(rhs),rhsMax =  -2.53849719022980E-11  4.21963804778560E-02
 cg2d: Sum(rhs),rhsMax =  -2.50268139545540E-11  4.26263651541103E-02
 cg2d: Sum(rhs),rhsMax =  -2.47452058843578E-11  4.30448535113633E-02
 cg2d: Sum(rhs),rhsMax =  -2.44324560583209E-11  4.34518392985444E-02
 cg2d: Sum(rhs),rhsMax =  -2.41656139543522E-11  4.38472695300682E-02
 cg2d: Sum(rhs),rhsMax =  -2.38986608280811E-11  4.42310387026331E-02
 cg2d: Sum(rhs),rhsMax =  -2.36660135932709E-11  4.46029857918947E-02
 cg2d: Sum(rhs),rhsMax =  -2.34158803458229E-11  4.49628943989540E-02
 cg2d: Sum(rhs),rhsMax =  -2.31483721080394E-11  4.53104955437884E-02
 cg2d: Sum(rhs),rhsMax =  -2.28321250794750E-11  4.56454739070456E-02
 cg2d: Sum(rhs),rhsMax =  -2.25499063866152E-11  4.59674787382039E-02
 cg2d: Sum(rhs),rhsMax =  -2.22836193941589E-11  4.62761353832775E-02
 cg2d: Sum(rhs),rhsMax =  -2.20234386283380E-11  4.65710574597111E-02
 cg2d: Sum(rhs),rhsMax =  -2.18058349155115E-11  4.68518596072544E-02
 cg2d: Sum(rhs),rhsMax =  -2.15913953383051E-11  4.71181702633746E-02
 cg2d: Sum(rhs),rhsMax =  -2.14085416061494E-11  4.73696436128833E-02
 cg2d: Sum(rhs),rhsMax =  -2.12476147787299E-11  4.76059698855446E-02
 cg2d: Sum(rhs),rhsMax =  -2.10654826915402E-11  4.78268834038193E-02
 cg2d: Sum(rhs),rhsMax =  -2.09146588936449E-11  4.80321680580710E-02
 cg2d: Sum(rhs),rhsMax =  -2.07397987672664E-11  4.82216601215892E-02
 cg2d: Sum(rhs),rhsMax =  -2.05917505269326E-11  4.83952484970100E-02
 cg2d: Sum(rhs),rhsMax =  -2.04730121744490E-11  4.85528726203759E-02
 cg2d: Sum(rhs),rhsMax =  -2.03273509136181E-11  4.86945183717049E-02
 cg2d: Sum(rhs),rhsMax =  -2.02060590481778E-11  4.88202124031955E-02
 cg2d: Sum(rhs),rhsMax =  -2.00724992183154E-11  4.89300153565296E-02
 cg2d: Sum(rhs),rhsMax =  -1.99188443517073E-11  4.90240144610971E-02
 cg2d: Sum(rhs),rhsMax =  -1.97524774314672E-11  4.91023159881668E-02
 cg2d: Sum(rhs),rhsMax =  -1.96604954538770E-11  4.91650379952219E-02
 cg2d: Sum(rhs),rhsMax =  -1.94857463498010E-11  4.92123038084012E-02
 cg2d: Sum(rhs),rhsMax =  -1.93880467236340E-11  4.92442364590722E-02
 cg2d: Sum(rhs),rhsMax =  -1.92953431010778E-11  4.92609539869829E-02
 cg2d: Sum(rhs),rhsMax =  -1.92146298871876E-11  4.92625661479246E-02
 cg2d: Sum(rhs),rhsMax =  -1.91983651198768E-11  4.92491726773491E-02
 cg2d: Sum(rhs),rhsMax =  -1.92688642819405E-11  4.92208629226729E-02
 cg2d: Sum(rhs),rhsMax =  -1.92911242535843E-11  4.91777165479357E-02
 cg2d: Sum(rhs),rhsMax =  -1.93114413349349E-11  4.91198050468279E-02
 cg2d: Sum(rhs),rhsMax =  -1.92990623482103E-11  4.90471939467230E-02
 cg2d: Sum(rhs),rhsMax =  -1.92919014097015E-11  4.89599444181646E-02
 cg2d: Sum(rhs),rhsMax =  -1.93299820594461E-11  4.88581161947139E-02
 cg2d: Sum(rhs),rhsMax =  -1.93761118261193E-11  4.87417708899242E-02
 cg2d: Sum(rhs),rhsMax =  -1.94207983028605E-11  4.86109723296871E-02
 cg2d: Sum(rhs),rhsMax =  -1.94949056897542E-11  4.84657882577464E-02
 cg2d: Sum(rhs),rhsMax =  -1.95876648234616E-11  4.83062914571862E-02
 cg2d: Sum(rhs),rhsMax =  -1.96343497016471E-11  4.81325595321033E-02
 cg2d: Sum(rhs),rhsMax =  -1.97143412705714E-11  4.79446736704314E-02
 cg2d: Sum(rhs),rhsMax =  -1.97973304416621E-11  4.77427168277055E-02
 cg2d: Sum(rhs),rhsMax =  -1.99104621678714E-11  4.75267717278381E-02
 cg2d: Sum(rhs),rhsMax =  -2.00316985221605E-11  4.72969195063513E-02
 cg2d: Sum(rhs),rhsMax =  -2.01517136311224E-11  4.70532383069555E-02
 cg2d: Sum(rhs),rhsMax =  -2.02781125224760E-11  4.67958016329523E-02
 cg2d: Sum(rhs),rhsMax =  -2.04178896012763E-11  4.65246785022887E-02
 cg2d: Sum(rhs),rhsMax =  -2.05430117361516E-11  4.62399330028144E-02
 cg2d: Sum(rhs),rhsMax =  -2.07370787208561E-11  4.59416255400868E-02
 cg2d: Sum(rhs),rhsMax =  -2.08988382155439E-11  4.56298151201481E-02
 cg2d: Sum(rhs),rhsMax =  -2.11095030344666E-11  4.53045620693225E-02
 cg2d: Sum(rhs),rhsMax =  -2.13154494055345E-11  4.49659309051588E-02
 cg2d: Sum(rhs),rhsMax =  -2.15253925794912E-11  4.46139932648296E-02
 cg2d: Sum(rhs),rhsMax =  -2.17633688848196E-11  4.42488308103666E-02
 cg2d: Sum(rhs),rhsMax =  -2.20113927085208E-11  4.38705379663610E-02
 cg2d: Sum(rhs),rhsMax =  -2.22312723785478E-11  4.34792243051693E-02
 cg2d: Sum(rhs),rhsMax =  -2.24968377260382E-11  4.30750164114777E-02
 cg2d: Sum(rhs),rhsMax =  -2.27511898209798E-11  4.26580591136666E-02
 cg2d: Sum(rhs),rhsMax =  -2.30064856054923E-11  4.22285160334725E-02
 cg2d: Sum(rhs),rhsMax =  -2.32955321699535E-11  4.17865694639335E-02
 cg2d: Sum(rhs),rhsMax =  -2.36223263172519E-11  4.13324196281981E-02
 cg2d: Sum(rhs),rhsMax =  -2.39434028159735E-11  4.08662833879166E-02
 cg2d: Sum(rhs),rhsMax =  -2.42850739518019E-11  4.03883923225373E-02
 cg2d: Sum(rhs),rhsMax =  -2.46111464541343E-11  3.98989909242737E-02
 cg2d: Sum(rhs),rhsMax =  -2.50148790570393E-11  3.93983343435515E-02
 cg2d: Sum(rhs),rhsMax =  -2.53937704197682E-11  3.88866858883360E-02
 cg2d: Sum(rhs),rhsMax =  -2.58170429479065E-11  3.83643145580940E-02
 cg2d: Sum(rhs),rhsMax =  -2.62553034868773E-11  3.78314927888177E-02
 cg2d: Sum(rhs),rhsMax =  -2.67077193694121E-11  3.72884943710148E-02
 cg2d: Sum(rhs),rhsMax =  -2.71851430255765E-11  3.67355925452541E-02
 cg2d: Sum(rhs),rhsMax =  -2.76743905569532E-11  3.61730583331141E-02
 cg2d: Sum(rhs),rhsMax =  -2.82073531199245E-11  3.56011591633162E-02
 cg2d: Sum(rhs),rhsMax =  -2.87629364770225E-11  3.50201578174209E-02
 cg2d: Sum(rhs),rhsMax =  -2.93545465712697E-11  3.44303116796874E-02
 cg2d: Sum(rhs),rhsMax =  -2.99806290904314E-11  3.38318722578721E-02
 cg2d: Sum(rhs),rhsMax =  -3.06645264736005E-11  3.32250849394069E-02
 cg2d: Sum(rhs),rhsMax =  -3.13369885596160E-11  3.26101889520360E-02
 cg2d: Sum(rhs),rhsMax =  -3.19847343055457E-11  3.19874175031402E-02
 cg2d: Sum(rhs),rhsMax =  -3.27033816693856E-11  3.13569980775731E-02
 cg2d: Sum(rhs),rhsMax =  -3.34200549179098E-11  3.07191528796018E-02
 cg2d: Sum(rhs),rhsMax =  -3.41595796787830E-11  3.00740993995914E-02
 cg2d: Sum(rhs),rhsMax =  -3.49654853681880E-11  2.94220510196097E-02
 cg2d: Sum(rhs),rhsMax =  -3.57856869137585E-11  2.87632178189987E-02
 cg2d: Sum(rhs),rhsMax =  -3.66615349189914E-11  2.80978075584875E-02
 cg2d: Sum(rhs),rhsMax =  -3.76151609859932E-11  2.74260266669361E-02
 cg2d: Sum(rhs),rhsMax =  -3.86114751282918E-11  2.67480809182252E-02
 cg2d: Sum(rhs),rhsMax =  -3.96670196689541E-11  2.60641766847448E-02
 cg2d: Sum(rhs),rhsMax =  -3.96368771138356E-11  2.61187250953381E-02
 cg2d: Sum(rhs),rhsMax =  -3.83952036830948E-11  2.69900193002841E-02
 cg2d: Sum(rhs),rhsMax =  -3.72419040051142E-11  2.78674226458617E-02
 cg2d: Sum(rhs),rhsMax =  -3.61287111338982E-11  2.87505881544348E-02
 cg2d: Sum(rhs),rhsMax =  -3.50802720205934E-11  2.96391824647236E-02
 cg2d: Sum(rhs),rhsMax =  -3.40819594768504E-11  3.05328856027915E-02
 cg2d: Sum(rhs),rhsMax =  -3.31457084001840E-11  3.14313904730501E-02
 cg2d: Sum(rhs),rhsMax =  -3.22575854916352E-11  3.23344021267867E-02
 cg2d: Sum(rhs),rhsMax =  -3.14172576842964E-11  3.32416368767388E-02
 cg2d: Sum(rhs),rhsMax =  -3.06084602108569E-11  3.41528213159738E-02
 cg2d: Sum(rhs),rhsMax =  -2.98475688609301E-11  3.50676912853155E-02
 cg2d: Sum(rhs),rhsMax =  -2.91136004193504E-11  3.59859908174941E-02
 cg2d: Sum(rhs),rhsMax =  -2.84269829897710E-11  3.69074710702019E-02
 cg2d: Sum(rhs),rhsMax =  -2.77838863027569E-11  3.78318892459926E-02
 cg2d: Sum(rhs),rhsMax =  -2.71447864186314E-11  3.87590074856167E-02
 cg2d: Sum(rhs),rhsMax =  -2.65269473054275E-11  3.96885917137596E-02
 cg2d: Sum(rhs),rhsMax =  -2.59483545761441E-11  4.06204104126303E-02
 cg2d: Sum(rhs),rhsMax =  -2.54745113892341E-11  4.15542332995104E-02
 cg2d: Sum(rhs),rhsMax =  -2.50049980721201E-11  4.24898298888754E-02
 cg2d: Sum(rhs),rhsMax =  -2.45625186856557E-11  4.34269679273789E-02
 cg2d: Sum(rhs),rhsMax =  -2.41321407301598E-11  4.43654116998543E-02
 cg2d: Sum(rhs),rhsMax =  -2.37082020682067E-11  4.53049202154428E-02
 cg2d: Sum(rhs),rhsMax =  -2.32918129228210E-11  4.62452452938973E-02
 cg2d: Sum(rhs),rhsMax =  -2.28994601059185E-11  4.71861295821298E-02
 cg2d: Sum(rhs),rhsMax =  -2.25228724559656E-11  4.81273045393872E-02
 cg2d: Sum(rhs),rhsMax =  -2.21245244347301E-11  4.90684884360957E-02
 cg2d: Sum(rhs),rhsMax =  -2.17904583266204E-11  5.00093844158091E-02
 cg2d: Sum(rhs),rhsMax =  -2.14676054710594E-11  5.09496786749059E-02
 cg2d: Sum(rhs),rhsMax =  -2.11655137860589E-11  5.18890388061115E-02
 cg2d: Sum(rhs),rhsMax =  -2.08515427146949E-11  5.28271123615820E-02
 cg2d: Sum(rhs),rhsMax =  -2.05638839290145E-11  5.37635256857301E-02
 cg2d: Sum(rhs),rhsMax =  -2.02730054965627E-11  5.46978830631893E-02
 cg2d: Sum(rhs),rhsMax =  -2.00116589965660E-11  5.56297662213509E-02
 cg2d: Sum(rhs),rhsMax =  -1.97566407678096E-11  5.65587342193377E-02
 cg2d: Sum(rhs),rhsMax =  -1.95089500110157E-11  5.74843237461918E-02
 cg2d: Sum(rhs),rhsMax =  -1.92540428045618E-11  5.84060498404546E-02
 cg2d: Sum(rhs),rhsMax =  -1.90203408578782E-11  5.93234070312987E-02
 cg2d: Sum(rhs),rhsMax =  -1.88039583903787E-11  6.02358708881578E-02
 cg2d: Sum(rhs),rhsMax =  -1.85862436552497E-11  6.11428999518336E-02
 cg2d: Sum(rhs),rhsMax =  -1.83868476000271E-11  6.20439380060947E-02
 cg2d: Sum(rhs),rhsMax =  -1.81967774182112E-11  6.29384166358394E-02
 cg2d: Sum(rhs),rhsMax =  -1.80130355076358E-11  6.38257580072025E-02
 cg2d: Sum(rhs),rhsMax =  -1.78219661250978E-11  6.47053777977597E-02
 cg2d: Sum(rhs),rhsMax =  -1.76391123929420E-11  6.55766882022803E-02
 cg2d: Sum(rhs),rhsMax =  -1.74789072104886E-11  6.64391009420038E-02
 cg2d: Sum(rhs),rhsMax =  -1.73405734216203E-11  6.72920302100123E-02
 cg2d: Sum(rhs),rhsMax =  -1.71289649131268E-11  6.81348955107947E-02
 cg2d: Sum(rhs),rhsMax =  -1.69702030206054E-11  6.89671243542446E-02
 cg2d: Sum(rhs),rhsMax =  -1.68011160539550E-11  6.97881547877751E-02
 cg2d: Sum(rhs),rhsMax =  -1.66613389751546E-11  7.05974377715357E-02
 cg2d: Sum(rhs),rhsMax =  -1.65732982893019E-11  7.13944394177141E-02
 cg2d: Sum(rhs),rhsMax =  -1.64869229379860E-11  7.21786431245708E-02
 cg2d: Sum(rhs),rhsMax =  -1.63895563787264E-11  7.29495516368200E-02
 cg2d: Sum(rhs),rhsMax =  -1.62984070684047E-11  7.37066890547410E-02
 cg2d: Sum(rhs),rhsMax =  -1.62857505259240E-11  7.44496027946767E-02
 cg2d: Sum(rhs),rhsMax =  -1.62337920883715E-11  7.51778654746756E-02
 cg2d: Sum(rhs),rhsMax =  -1.61761715133935E-11  7.58910766639722E-02
 cg2d: Sum(rhs),rhsMax =  -1.61368696183217E-11  7.65888644012319E-02
 cg2d: Sum(rhs),rhsMax =  -1.60885749167505E-11  7.72708863432765E-02
 cg2d: Sum(rhs),rhsMax =  -1.60437219065557E-11  7.79368303929748E-02
 cg2d: Sum(rhs),rhsMax =  -1.60050861452987E-11  7.85864146451196E-02
 cg2d: Sum(rhs),rhsMax =  -1.59656732279245E-11  7.92193864943706E-02
 cg2d: Sum(rhs),rhsMax =  -1.59112722997179E-11  7.98355207761672E-02
 cg2d: Sum(rhs),rhsMax =  -1.58832946794973E-11  8.04346168572861E-02
 cg2d: Sum(rhs),rhsMax =  -1.58670854233378E-11  8.10164946847456E-02
 cg2d: Sum(rhs),rhsMax =  -1.58267843275439E-11  8.15809898387147E-02
 cg2d: Sum(rhs),rhsMax =  -1.57970303504840E-11  8.21279477435635E-02
 cg2d: Sum(rhs),rhsMax =  -1.57788226928801E-11  8.26572172894901E-02
 cg2d: Sum(rhs),rhsMax =  -1.57523993848940E-11  8.31686441559665E-02
 cg2d: Sum(rhs),rhsMax =  -1.57470703143758E-11  8.36620642427406E-02
 cg2d: Sum(rhs),rhsMax =  -1.57116541998903E-11  8.41372976378062E-02
 cg2d: Sum(rhs),rhsMax =  -1.56855639588116E-11  8.45941435608890E-02
 cg2d: Sum(rhs),rhsMax =  -1.56612500745723E-11  8.50323767035268E-02
 cg2d: Sum(rhs),rhsMax =  -1.56659130112757E-11  8.54517453375758E-02
 cg2d: Sum(rhs),rhsMax =  -1.56568091824738E-11  8.58519714834863E-02
 cg2d: Sum(rhs),rhsMax =  -1.56517021565605E-11  8.62327533213183E-02
 cg2d: Sum(rhs),rhsMax =  -1.56350488111912E-11  8.65937698974371E-02
 cg2d: Sum(rhs),rhsMax =  -1.56125112837913E-11  8.69346880365265E-02
 cg2d: Sum(rhs),rhsMax =  -1.56430424169685E-11  8.72551712218233E-02
 cg2d: Sum(rhs),rhsMax =  -1.56852308919042E-11  8.75548900667750E-02
 cg2d: Sum(rhs),rhsMax =  -1.57245327869759E-11  8.78335338789538E-02
 cg2d: Sum(rhs),rhsMax =  -1.57684976187511E-11  8.80908227214520E-02
 cg2d: Sum(rhs),rhsMax =  -1.58000279526505E-11  8.83265193158984E-02
 cg2d: Sum(rhs),rhsMax =  -1.58266733052415E-11  8.85404401102648E-02
 cg2d: Sum(rhs),rhsMax =  -1.58398849592345E-11  8.87324648565435E-02
 cg2d: Sum(rhs),rhsMax =  -1.58678625794550E-11  8.89025441079461E-02
 cg2d: Sum(rhs),rhsMax =  -1.58817403672629E-11  8.90507041438791E-02
 cg2d: Sum(rhs),rhsMax =  -1.58886237500155E-11  8.91770489834454E-02
 cg2d: Sum(rhs),rhsMax =  -1.59213753292420E-11  8.92817593008967E-02
 cg2d: Sum(rhs),rhsMax =  -1.59221524853592E-11  8.93650882154405E-02
 cg2d: Sum(rhs),rhsMax =  -1.59520174847216E-11  8.94273541182963E-02
 cg2d: Sum(rhs),rhsMax =  -1.59795510157323E-11  8.94689308657265E-02
 cg2d: Sum(rhs),rhsMax =  -1.60074176136504E-11  8.94902358104248E-02
 cg2d: Sum(rhs),rhsMax =  -1.60099711266071E-11  8.94917162562192E-02
 cg2d: Sum(rhs),rhsMax =  -1.59581237113571E-11  8.94738349960934E-02
 cg2d: Sum(rhs),rhsMax =  -1.60119695280514E-11  8.94370556273112E-02
 cg2d: Sum(rhs),rhsMax =  -1.60083057920701E-11  8.93818283272954E-02
 cg2d: Sum(rhs),rhsMax =  -1.60208513122484E-11  8.93085767250478E-02
 cg2d: Sum(rhs),rhsMax =  -1.61075597304716E-11  8.92176864199504E-02
 cg2d: Sum(rhs),rhsMax =  -1.60915725189170E-11  8.91094955869270E-02
 cg2d: Sum(rhs),rhsMax =  -1.60268465165814E-11  8.89842879805647E-02
 cg2d: Sum(rhs),rhsMax =  -1.60035318330642E-11  8.88422885175127E-02
 cg2d: Sum(rhs),rhsMax =  -1.59807722610594E-11  8.86836614869281E-02
 cg2d: Sum(rhs),rhsMax =  -1.59728896775846E-11  8.85085113232139E-02
 cg2d: Sum(rhs),rhsMax =  -1.59680046962762E-11  8.83168857685217E-02
 cg2d: Sum(rhs),rhsMax =  -1.59365853846793E-11  8.81087811768447E-02
 cg2d: Sum(rhs),rhsMax =  -1.58784096981890E-11  8.78841496591385E-02
 cg2d: Sum(rhs),rhsMax =  -1.58302260189203E-11  8.76429077250161E-02
 cg2d: Sum(rhs),rhsMax =  -1.57609481021836E-11  8.73849460548228E-02
 cg2d: Sum(rhs),rhsMax =  -1.57062141070696E-11  8.71101400270603E-02
 cg2d: Sum(rhs),rhsMax =  -1.56600288292452E-11  8.68183606260819E-02
 cg2d: Sum(rhs),rhsMax =  -1.55838675297559E-11  8.65094853606382E-02
 cg2d: Sum(rhs),rhsMax =  -1.55467860807335E-11  8.61834088305874E-02
 cg2d: Sum(rhs),rhsMax =  -1.55112589439454E-11  8.58400525914710E-02
 cg2d: Sum(rhs),rhsMax =  -1.54942725316687E-11  8.54793739835742E-02
 cg2d: Sum(rhs),rhsMax =  -1.55266910439877E-11  8.51013736133894E-02
 cg2d: Sum(rhs),rhsMax =  -1.55822021952190E-11  8.47061012088907E-02
 cg2d: Sum(rhs),rhsMax =  -1.56478163759743E-11  8.42936596173686E-02
 cg2d: Sum(rhs),rhsMax =  -1.57461821359561E-11  8.38642067775451E-02
 cg2d: Sum(rhs),rhsMax =  -1.58250079707045E-11  8.34179555761003E-02
 cg2d: Sum(rhs),rhsMax =  -1.58675295125477E-11  8.29551715901181E-02
 cg2d: Sum(rhs),rhsMax =  -1.59321444925808E-11  8.24761688164694E-02
 cg2d: Sum(rhs),rhsMax =  -1.59804391941520E-11  8.19813035899839E-02
 cg2d: Sum(rhs),rhsMax =  -1.60010893424101E-11  8.14709669862873E-02
 cg2d: Sum(rhs),rhsMax =  -1.60358393230808E-11  8.09455760839137E-02
 cg2d: Sum(rhs),rhsMax =  -1.60613744526472E-11  8.04055645160543E-02
 cg2d: Sum(rhs),rhsMax =  -1.60931268311515E-11  7.98513727692920E-02
 cg2d: Sum(rhs),rhsMax =  -1.61461954917286E-11  7.92834386820328E-02
 cg2d: Sum(rhs),rhsMax =  -1.61665125730792E-11  7.87021885596432E-02
 cg2d: Sum(rhs),rhsMax =  -1.61848312529855E-11  7.81080292605772E-02
(PID.TID 0000.0001)      cg2d_init_res =   4.25613099420645E-02
(PID.TID 0000.0001)      cg2d_iters(min,last) =      -1      35
(PID.TID 0000.0001)      cg2d_last_res =   7.94762786977152E-14
(PID.TID 0000.0001) // =======================================================
(PID.TID 0000.0001) // Begin MONITOR dynamic field statistics
(PID.TID 0000.0001) // =======================================================
(PID.TID 0000.0001) %MON time_tsnumber                =                  6240
(PID.TID 0000.0001) %MON time_secondsf                =   9.3600000000000E+04
(PID.TID 0000.0001) %MON dynstat_eta_max              =   1.2822062430796E-02
(PID.TID 0000.0001) %MON dynstat_eta_min              =  -9.4434902534211E-03
(PID.TID 0000.0001) %MON dynstat_eta_mean             =   2.6141760822422E-15
(PID.TID 0000.0001) %MON dynstat_eta_sd               =   5.0511926947947E-03
(PID.TID 0000.0001) %MON dynstat_eta_del2             =   1.7026864965203E-05
(PID.TID 0000.0001) %MON dynstat_uvel_max             =   9.4108444764508E-01
(PID.TID 0000.0001) %MON dynstat_uvel_min             =  -1.3958238875902E-01
(PID.TID 0000.0001) %MON dynstat_uvel_mean            =   1.0865399951271E-01
(PID.TID 0000.0001) %MON dynstat_uvel_sd              =   8.2828861004024E-02
(PID.TID 0000.0001) %MON dynstat_uvel_del2            =   1.9452074509544E-04
(PID.TID 0000.0001) %MON dynstat_vvel_max             =   0.0000000000000E+00
(PID.TID 0000.0001) %MON dynstat_vvel_min             =   0.0000000000000E+00
(PID.TID 0000.0001) %MON dynstat_vvel_mean            =   0.0000000000000E+00
(PID.TID 0000.0001) %MON dynstat_vvel_sd              =   0.0000000000000E+00
(PID.TID 0000.0001) %MON dynstat_vvel_del2            =   0.0000000000000E+00
(PID.TID 0000.0001) %MON dynstat_wvel_max             =   7.1686869303807E-03
(PID.TID 0000.0001) %MON dynstat_wvel_min             =  -1.2236532709389E-02
(PID.TID 0000.0001) %MON dynstat_wvel_mean            =   5.3387231978146E-22
(PID.TID 0000.0001) %MON dynstat_wvel_sd              =   6.2705078308505E-04
(PID.TID 0000.0001) %MON dynstat_wvel_del2            =   1.0288291632041E-05
(PID.TID 0000.0001) %MON dynstat_theta_max            =   1.5000000000013E+01
(PID.TID 0000.0001) %MON dynstat_theta_min            =   9.9999999999896E+00
(PID.TID 0000.0001) %MON dynstat_theta_mean           =   1.2512030388185E+01
(PID.TID 0000.0001) %MON dynstat_theta_sd             =   2.4375984903984E+00
(PID.TID 0000.0001) %MON dynstat_theta_del2           =   9.7471559536450E-04
(PID.TID 0000.0001) %MON dynstat_salt_max             =   3.5000000000000E+01
(PID.TID 0000.0001) %MON dynstat_salt_min             =   3.5000000000000E+01
(PID.TID 0000.0001) %MON dynstat_salt_mean            =   3.5000000000000E+01
(PID.TID 0000.0001) %MON dynstat_salt_sd              =   3.9790393202566E-13
(PID.TID 0000.0001) %MON dynstat_salt_del2            =   0.0000000000000E+00
(PID.TID 0000.0001) %MON dynstat_sst_max              =   1.5000000000000E+01
(PID.TID 0000.0001) %MON dynstat_sst_min              =   1.4999999999996E+01
(PID.TID 0000.0001) %MON dynstat_sst_mean             =   1.4999999999999E+01
(PID.TID 0000.0001) %MON dynstat_sst_sd               =   8.9618397321241E-13
(PID.TID 0000.0001) %MON dynstat_sst_del2             =   1.2668925891317E-14
(PID.TID 0000.0001) %MON dynstat_sss_max              =   3.5000000000000E+01
(PID.TID 0000.0001) %MON dynstat_sss_min              =   3.5000000000000E+01
(PID.TID 0000.0001) %MON dynstat_sss_mean             =   3.5000000000000E+01
(PID.TID 0000.0001) %MON dynstat_sss_sd               =   5.6843418860808E-14
(PID.TID 0000.0001) %MON dynstat_sss_del2             =   0.0000000000000E+00
(PID.TID 0000.0001) %MON forcing_qnet_max             =   0.0000000000000E+00
(PID.TID 0000.0001) %MON forcing_qnet_min             =   0.0000000000000E+00
(PID.TID 0000.0001) %MON forcing_qnet_mean            =   0.0000000000000E+00
(PID.TID 0000.0001) %MON forcing_qnet_sd              =   0.0000000000000E+00
(PID.TID 0000.0001) %MON forcing_qnet_del2            =   0.0000000000000E+00
(PID.TID 0000.0001) %MON forcing_qsw_max              =   0.0000000000000E+00
(PID.TID 0000.0001) %MON forcing_qsw_min              =   0.0000000000000E+00
(PID.TID 0000.0001) %MON forcing_qsw_mean             =   0.0000000000000E+00
(PID.TID 0000.0001) %MON forcing_qsw_sd               =   0.0000000000000E+00
(PID.TID 0000.0001) %MON forcing_qsw_del2             =   0.0000000000000E+00
(PID.TID 0000.0001) %MON forcing_empmr_max            =   0.0000000000000E+00
(PID.TID 0000.0001) %MON forcing_empmr_min            =   0.0000000000000E+00
(PID.TID 0000.0001) %MON forcing_empmr_mean           =   0.0000000000000E+00
(PID.TID 0000.0001) %MON forcing_empmr_sd             =   0.0000000000000E+00
(PID.TID 0000.0001) %MON forcing_empmr_del2           =   0.0000000000000E+00
(PID.TID 0000.0001) %MON forcing_fu_max               =   0.0000000000000E+00
(PID.TID 0000.0001) %MON forcing_fu_min               =   0.0000000000000E+00
(PID.TID 0000.0001) %MON forcing_fu_mean              =   0.0000000000000E+00
(PID.TID 0000.0001) %MON forcing_fu_sd                =   0.0000000000000E+00
(PID.TID 0000.0001) %MON forcing_fu_del2              =   0.0000000000000E+00
(PID.TID 0000.0001) %MON forcing_fv_max               =   0.0000000000000E+00
(PID.TID 0000.0001) %MON forcing_fv_min               =   0.0000000000000E+00
(PID.TID 0000.0001) %MON forcing_fv_mean              =   0.0000000000000E+00
(PID.TID 0000.0001) %MON forcing_fv_sd                =   0.0000000000000E+00
(PID.TID 0000.0001) %MON forcing_fv_del2              =   0.0000000000000E+00
(PID.TID 0000.0001) %MON advcfl_uvel_max              =   7.0581333573381E-02
(PID.TID 0000.0001) %MON advcfl_vvel_max              =   0.0000000000000E+00
(PID.TID 0000.0001) %MON advcfl_wvel_max              =   1.7258585614810E-01
(PID.TID 0000.0001) %MON advcfl_W_hf_max              =   1.7489721813350E-01
(PID.TID 0000.0001) %MON pe_b_mean                    =   6.4257652359986E-07
(PID.TID 0000.0001) %MON ke_max                       =   2.2140998439986E-01
(PID.TID 0000.0001) %MON ke_mean                      =   9.3699942066467E-03
(PID.TID 0000.0001) %MON ke_vol                       =   9.5121673331316E+10
(PID.TID 0000.0001) %MON vort_r_min                   =   0.0000000000000E+00
(PID.TID 0000.0001) %MON vort_r_max                   =   0.0000000000000E+00
(PID.TID 0000.0001) %MON vort_a_mean                  =   0.0000000000000E+00
(PID.TID 0000.0001) %MON vort_a_sd                    =   0.0000000000000E+00
(PID.TID 0000.0001) %MON vort_p_mean                  =   0.0000000000000E+00
(PID.TID 0000.0001) %MON vort_p_sd                    =   0.0000000000000E+00
(PID.TID 0000.0001) %MON surfExpan_theta_mean         =  -1.9874164735713E-18
(PID.TID 0000.0001) %MON surfExpan_salt_mean          =   4.7532260939712E-19
(PID.TID 0000.0001) // =======================================================
(PID.TID 0000.0001) // End MONITOR dynamic field statistics
(PID.TID 0000.0001) // =======================================================
(PID.TID 0000.0001) // =======================================================
(PID.TID 0000.0001) // Begin OBCS MONITOR field statistics
(PID.TID 0000.0001) // =======================================================
(PID.TID 0000.0001) %MON obc_E_uVel_max               =   1.0505355776936E-01
(PID.TID 0000.0001) %MON obc_E_uVel_min               =   1.0505355776936E-01
(PID.TID 0000.0001) %MON obc_E_uVel_mean              =   1.0505355776936E-01
(PID.TID 0000.0001) %MON obc_E_uVel_sd                =  -6.9388939039072E-18
(PID.TID 0000.0001) %MON obc_E_uVel_Int               =   1.0505355776936E+05
(PID.TID 0000.0001) %MON obc_W_uVel_max               =   1.0505355776936E-01
(PID.TID 0000.0001) %MON obc_W_uVel_min               =   1.0505355776936E-01
(PID.TID 0000.0001) %MON obc_W_uVel_mean              =   1.0505355776936E-01
(PID.TID 0000.0001) %MON obc_W_uVel_sd                =  -6.9388939039072E-18
(PID.TID 0000.0001) %MON obc_W_uVel_Int               =   1.0505355776936E+05
(PID.TID 0000.0001) // =======================================================
(PID.TID 0000.0001) // End OBCS MONITOR field statistics
(PID.TID 0000.0001) // =======================================================
 cg2d: Sum(rhs),rhsMax =  -1.62062585573608E-11  7.75013415250891E-02
 cg2d: Sum(rhs),rhsMax =  -1.61933799702751E-11  7.68824747245485E-02
 cg2d: Sum(rhs),rhsMax =  -1.62952984439357E-11  7.62517431148608E-02
 cg2d: Sum(rhs),rhsMax =  -1.63450364354389E-11  7.56094235915572E-02
 cg2d: Sum(rhs),rhsMax =  -1.64080971032377E-11  7.49557548746154E-02
 cg2d: Sum(rhs),rhsMax =  -1.64813718228629E-11  7.42909380032282E-02
 cg2d: Sum(rhs),rhsMax =  -1.65381042194213E-11  7.36151379964934E-02
 cg2d: Sum(rhs),rhsMax =  -1.66268110390888E-11  7.29284865337751E-02
 cg2d: Sum(rhs),rhsMax =  -1.66880953500481E-11  7.22310855235031E-02
 cg2d: Sum(rhs),rhsMax =  -1.68465241756621E-11  7.15230114542104E-02
 cg2d: Sum(rhs),rhsMax =  -1.68534075584148E-11  7.08043204414737E-02
 cg2d: Sum(rhs),rhsMax =  -1.69918523695856E-11  7.00750539288757E-02
 cg2d: Sum(rhs),rhsMax =  -1.71329617160154E-11  6.93352449778670E-02
 cg2d: Sum(rhs),rhsMax =  -1.72719616386985E-11  6.85849250774862E-02
 cg2d: Sum(rhs),rhsMax =  -1.74060765800732E-11  6.78241313799723E-02
 cg2d: Sum(rhs),rhsMax =  -1.75557346437927E-11  6.70529142228593E-02
 cg2d: Sum(rhs),rhsMax =  -1.77186043615052E-11  6.62713447434857E-02
 cg2d: Sum(rhs),rhsMax =  -1.78576042841883E-11  6.54795223355933E-02
 cg2d: Sum(rhs),rhsMax =  -1.80340187228012E-11  6.46775816504692E-02
 cg2d: Sum(rhs),rhsMax =  -1.81952231059768E-11  6.38656988159276E-02
 cg2d: Sum(rhs),rhsMax =  -1.83664194963740E-11  6.30440965426823E-02
 cg2d: Sum(rhs),rhsMax =  -1.85326198831604E-11  6.22130478138726E-02
 cg2d: Sum(rhs),rhsMax =  -1.86002324653600E-11  6.13728779107003E-02
 cg2d: Sum(rhs),rhsMax =  -1.88596915862149E-11  6.05239646124863E-02
 cg2d: Sum(rhs),rhsMax =  -1.91133775473418E-11  5.96667365165892E-02
 cg2d: Sum(rhs),rhsMax =  -1.93821625416035E-11  5.88016695430896E-02
 cg2d: Sum(rhs),rhsMax =  -1.97670768642411E-11  5.79292818095731E-02
 cg2d: Sum(rhs),rhsMax =  -1.99755767482657E-11  5.70501271729712E-02
 cg2d: Sum(rhs),rhsMax =  -2.02166061669118E-11  5.61647878218915E-02
 cg2d: Sum(rhs),rhsMax =  -2.04581906970702E-11  5.52738663478943E-02
 cg2d: Sum(rhs),rhsMax =  -2.07360795201339E-11  5.43779777550764E-02
 cg2d: Sum(rhs),rhsMax =  -2.09969819309208E-11  5.34777418592936E-02
 cg2d: Sum(rhs),rhsMax =  -2.12907469432366E-11  5.25737764566035E-02
 cg2d: Sum(rhs),rhsMax =  -2.15892859145583E-11  5.16666915511928E-02
 cg2d: Sum(rhs),rhsMax =  -2.18979279154041E-11  5.07570848208202E-02
 cg2d: Sum(rhs),rhsMax =  -2.22127316540366E-11  4.98455383728326E-02
 cg2d: Sum(rhs),rhsMax =  -2.25438556711310E-11  4.89326167172537E-02
 cg2d: Sum(rhs),rhsMax =  -2.29090635350815E-11  4.80188657670302E-02
 cg2d: Sum(rhs),rhsMax =  -2.32821539825068E-11  4.71048125803867E-02
 cg2d: Sum(rhs),rhsMax =  -2.36636821249192E-11  4.61909654957821E-02
 cg2d: Sum(rhs),rhsMax =  -2.40641395699015E-11  4.52778142830625E-02
 cg2d: Sum(rhs),rhsMax =  -2.44826936501852E-11  4.43658299487591E-02
 cg2d: Sum(rhs),rhsMax =  -2.49056331114161E-11  4.34554638893928E-02
 cg2d: Sum(rhs),rhsMax =  -2.53372878233904E-11  4.25471461807963E-02
 cg2d: Sum(rhs),rhsMax =  -2.58139620790132E-11  4.16412829170525E-02
 cg2d: Sum(rhs),rhsMax =  -2.63219446239304E-11  4.07382526595969E-02
 cg2d: Sum(rhs),rhsMax =  -2.68347011278536E-11  3.98384022124753E-02
 cg2d: Sum(rhs),rhsMax =  -2.73426281616196E-11  3.89420420887870E-02
 cg2d: Sum(rhs),rhsMax =  -2.78956857613366E-11  3.80494421601111E-02
 cg2d: Sum(rhs),rhsMax =  -2.84615109258368E-11  3.71608280697720E-02
 cg2d: Sum(rhs),rhsMax =  -2.90474866382340E-11  3.62763790287021E-02
 cg2d: Sum(rhs),rhsMax =  -2.96669355748236E-11  3.53962275896389E-02
 cg2d: Sum(rhs),rhsMax =  -3.03121416855845E-11  3.45204619068819E-02
 cg2d: Sum(rhs),rhsMax =  -3.10474979059450E-11  3.36491308365661E-02
 cg2d: Sum(rhs),rhsMax =  -3.18389203890490E-11  3.27822520250302E-02
 cg2d: Sum(rhs),rhsMax =  -3.26627058733209E-11  3.19198228856679E-02
 cg2d: Sum(rhs),rhsMax =  -3.35108052418320E-11  3.10618340986431E-02
 cg2d: Sum(rhs),rhsMax =  -3.44183015421606E-11  3.02082850078788E-02
 cg2d: Sum(rhs),rhsMax =  -3.53606866010381E-11  2.93592000620971E-02
 cg2d: Sum(rhs),rhsMax =  -3.63724605989546E-11  2.85146452763671E-02
 cg2d: Sum(rhs),rhsMax =  -3.74354158783063E-11  2.76747435983540E-02
 cg2d: Sum(rhs),rhsMax =  -3.79252740323466E-11  2.72987406272128E-02
 cg2d: Sum(rhs),rhsMax =  -3.70210806455162E-11  2.79366300158028E-02
 cg2d: Sum(rhs),rhsMax =  -3.61470159360167E-11  2.85663802438440E-02
 cg2d: Sum(rhs),rhsMax =  -3.53718998535868E-11  2.91878905505916E-02
 cg2d: Sum(rhs),rhsMax =  -3.45988793171159E-11  2.98010820985857E-02
 cg2d: Sum(rhs),rhsMax =  -3.38674643884929E-11  3.04058847252333E-02
 cg2d: Sum(rhs),rhsMax =  -3.31711637324705E-11  3.10022249498651E-02
 cg2d: Sum(rhs),rhsMax =  -3.25356902877716E-11  3.15900154892333E-02
 cg2d: Sum(rhs),rhsMax =  -3.18826284817497E-11  3.21691484953332E-02
 cg2d: Sum(rhs),rhsMax =  -3.12293940707420E-11  3.27394917882607E-02
 cg2d: Sum(rhs),rhsMax =  -3.05745567752425E-11  3.33008871612231E-02
 cg2d: Sum(rhs),rhsMax =  -3.00110075679427E-11  3.38531515305791E-02
 cg2d: Sum(rhs),rhsMax =  -2.94399365996512E-11  3.43960806349365E-02
 cg2d: Sum(rhs),rhsMax =  -2.88839507867067E-11  3.49294545421235E-02
 cg2d: Sum(rhs),rhsMax =  -2.83437717740753E-11  3.54530442600086E-02
 cg2d: Sum(rhs),rhsMax =  -2.78712608547949E-11  3.59666187990402E-02
 cg2d: Sum(rhs),rhsMax =  -2.73988887133925E-11  3.64699520303963E-02
 cg2d: Sum(rhs),rhsMax =  -2.69183286771835E-11  3.69628287539870E-02
 cg2d: Sum(rhs),rhsMax =  -2.64905319902198E-11  3.74450495376718E-02
 cg2d: Sum(rhs),rhsMax =  -2.60547416974788E-11  3.79164340710536E-02
 cg2d: Sum(rhs),rhsMax =  -2.56825394284732E-11  3.83768229513863E-02
 cg2d: Sum(rhs),rhsMax =  -2.52659004829070E-11  3.88260779563990E-02
 cg2d: Sum(rhs),rhsMax =  -2.49257559037375E-11  3.92640809821136E-02
 cg2d: Sum(rhs),rhsMax =  -2.45644893315244E-11  3.96907319060671E-02
 cg2d: Sum(rhs),rhsMax =  -2.42375008951967E-11  4.01059457314144E-02
 cg2d: Sum(rhs),rhsMax =  -2.39149811065431E-11  4.05096491145129E-02
 cg2d: Sum(rhs),rhsMax =  -2.35859110020442E-11  4.09017766108792E-02
 cg2d: Sum(rhs),rhsMax =  -2.33388308679139E-11  4.12822669574249E-02
 cg2d: Sum(rhs),rhsMax =  -2.30437335879685E-11  4.16510595422250E-02
 cg2d: Sum(rhs),rhsMax =  -2.28039254146495E-11  4.20080911653407E-02
 cg2d: Sum(rhs),rhsMax =  -2.25315321955577E-11  4.23532931514521E-02
 cg2d: Sum(rhs),rhsMax =  -2.23113749697745E-11  4.26865888435869E-02
 cg2d: Sum(rhs),rhsMax =  -2.20679585716255E-11  4.30078914623959E-02
 cg2d: Sum(rhs),rhsMax =  -2.18643991800604E-11  4.33171022984093E-02
 cg2d: Sum(rhs),rhsMax =  -2.16666684593747E-11  4.36141092083635E-02
 cg2d: Sum(rhs),rhsMax =  -2.14778750340372E-11  4.38987854061844E-02
 cg2d: Sum(rhs),rhsMax =  -2.12768136442776E-11  4.41709885691018E-02
 cg2d: Sum(rhs),rhsMax =  -2.11121675697257E-11  4.44305603145505E-02
 cg2d: Sum(rhs),rhsMax =  -2.08835726489554E-11  4.46773261388108E-02
 cg2d: Sum(rhs),rhsMax =  -2.06600292429471E-11  4.49110959381857E-02
 cg2d: Sum(rhs),rhsMax =  -2.04670169701160E-11  4.51316652503486E-02
 cg2d: Sum(rhs),rhsMax =  -2.02610705990480E-11  4.53388173545477E-02
 cg2d: Sum(rhs),rhsMax =  -2.00701122388125E-11  4.55323263444441E-02
 cg2d: Sum(rhs),rhsMax =  -1.99064098538315E-11  4.57119613766607E-02
 cg2d: Sum(rhs),rhsMax =  -1.97291072367989E-11  4.58774916323242E-02
 cg2d: Sum(rhs),rhsMax =  -1.95731764129903E-11  4.60286922747210E-02
 cg2d: Sum(rhs),rhsMax =  -1.94627092220401E-11  4.61653512403027E-02
 cg2d: Sum(rhs),rhsMax =  -1.92998395043276E-11  4.62872764629491E-02
 cg2d: Sum(rhs),rhsMax =  -1.91888172018650E-11  4.63943030687987E-02
 cg2d: Sum(rhs),rhsMax =  -1.91005544714073E-11  4.64863000507522E-02
 cg2d: Sum(rhs),rhsMax =  -1.89844251430316E-11  4.65631759382869E-02
 cg2d: Sum(rhs),rhsMax =  -1.90238380604058E-11  4.66248830185906E-02
 cg2d: Sum(rhs),rhsMax =  -1.89184778953688E-11  4.66714197368623E-02
 cg2d: Sum(rhs),rhsMax =  -1.88112303511900E-11  4.67028309774618E-02
 cg2d: Sum(rhs),rhsMax =  -1.88745685747449E-11  4.67192061741203E-02
 cg2d: Sum(rhs),rhsMax =  -1.88806192902291E-11  4.67206752389331E-02
 cg2d: Sum(rhs),rhsMax =  -1.88895010744261E-11  4.67074024531622E-02
 cg2d: Sum(rhs),rhsMax =  -1.89224191871062E-11  4.66795786814374E-02
 cg2d: Sum(rhs),rhsMax =  -1.90278348632944E-11  4.66374124291273E-02
 cg2d: Sum(rhs),rhsMax =  -1.91671678528849E-11  4.65811203321813E-02
 cg2d: Sum(rhs),rhsMax =  -1.92796334452794E-11  4.65109178512906E-02
 cg2d: Sum(rhs),rhsMax =  -1.93577931462130E-11  4.64270106944493E-02
 cg2d: Sum(rhs),rhsMax =  -1.94242399942368E-11  4.63295870101829E-02
 cg2d: Sum(rhs),rhsMax =  -1.94104732287315E-11  4.62188109821955E-02
 cg2d: Sum(rhs),rhsMax =  -1.95343741182796E-11  4.60948187179185E-02
 cg2d: Sum(rhs),rhsMax =  -1.96613281211455E-11  4.59577163763420E-02
 cg2d: Sum(rhs),rhsMax =  -1.98033256459951E-11  4.58075803080327E-02
 cg2d: Sum(rhs),rhsMax =  -1.99177341286827E-11  4.56444591112361E-02
 cg2d: Sum(rhs),rhsMax =  -1.99971705860946E-11  4.54683773656765E-02
 cg2d: Sum(rhs),rhsMax =  -2.01320071724354E-11  4.52793406776015E-02
 cg2d: Sum(rhs),rhsMax =  -2.02262651072260E-11  4.50773416224233E-02
 cg2d: Sum(rhs),rhsMax =  -2.03485006622373E-11  4.48623661744296E-02
 cg2d: Sum(rhs),rhsMax =  -2.04724570629367E-11  4.46344002631580E-02
 cg2d: Sum(rhs),rhsMax =  -2.06053507589843E-11  4.43934360518397E-02
 cg2d: Sum(rhs),rhsMax =  -2.07541761554353E-11  4.41394776432028E-02
 cg2d: Sum(rhs),rhsMax =  -2.09109396465124E-11  4.38725458142748E-02
 cg2d: Sum(rhs),rhsMax =  -2.10977346704055E-11  4.35926816780799E-02
 cg2d: Sum(rhs),rhsMax =  -2.12868611626504E-11  4.32999492787077E-02
 cg2d: Sum(rhs),rhsMax =  -2.15122364366493E-11  4.29944370472053E-02
 cg2d: Sum(rhs),rhsMax =  -2.17008633285332E-11  4.26762580530749E-02
 cg2d: Sum(rhs),rhsMax =  -2.19451679051019E-11  4.23455491074519E-02
 cg2d: Sum(rhs),rhsMax =  -2.21515028542285E-11  4.20024687933916E-02
 cg2d: Sum(rhs),rhsMax =  -2.23525642439881E-11  4.16471946149671E-02
 cg2d: Sum(rhs),rhsMax =  -2.26036966921583E-11  4.12799199585660E-02
 cg2d: Sum(rhs),rhsMax =  -2.28233543175804E-11  4.09008503346157E-02
 cg2d: Sum(rhs),rhsMax =  -2.30789276578491E-11  4.05101994634044E-02
 cg2d: Sum(rhs),rhsMax =  -2.33217889444859E-11  4.01081855159815E-02
 cg2d: Sum(rhs),rhsMax =  -2.36058950164875E-11  3.96950276293866E-02
 cg2d: Sum(rhs),rhsMax =  -2.38981612277200E-11  3.92709428013644E-02
 cg2d: Sum(rhs),rhsMax =  -2.42081910073466E-11  3.88361432755054E-02
 cg2d: Sum(rhs),rhsMax =  -2.45207742999298E-11  3.83908345223907E-02
 cg2d: Sum(rhs),rhsMax =  -2.48454867790571E-11  3.79352139007647E-02
 cg2d: Sum(rhs),rhsMax =  -2.52201315387168E-11  3.74694700513641E-02
 cg2d: Sum(rhs),rhsMax =  -2.55985233010847E-11  3.69937830434459E-02
 cg2d: Sum(rhs),rhsMax =  -2.59458565743387E-11  3.65083252675550E-02
 cg2d: Sum(rhs),rhsMax =  -2.63604138517337E-11  3.60132630503511E-02
 cg2d: Sum(rhs),rhsMax =  -2.67254829378061E-11  3.55087589683577E-02
 cg2d: Sum(rhs),rhsMax =  -2.71757338854428E-11  3.49949748876698E-02
 cg2d: Sum(rhs),rhsMax =  -2.76239309204840E-11  3.44720754670891E-02
 cg2d: Sum(rhs),rhsMax =  -2.81351886233239E-11  3.39402318094033E-02
 cg2d: Sum(rhs),rhsMax =  -2.86637658053479E-11  3.33996256648633E-02
 cg2d: Sum(rhs),rhsMax =  -2.91861673717975E-11  3.28504538653948E-02
 cg2d: Sum(rhs),rhsMax =  -2.97616098432485E-11  3.22929325978161E-02
 cg2d: Sum(rhs),rhsMax =  -3.03567171400232E-11  3.17273011440712E-02
 cg2d: Sum(rhs),rhsMax =  -3.09707190448982E-11  3.11538247490107E-02
 cg2d: Sum(rhs),rhsMax =  -3.16491416407771E-11  3.05727963142197E-02
 cg2d: Sum(rhs),rhsMax =  -3.23446824879170E-11  2.99845365505295E-02
 cg2d: Sum(rhs),rhsMax =  -3.30215438326675E-11  2.93893923403677E-02
 cg2d: Sum(rhs),rhsMax =  -3.37679120776535E-11  2.87877333094391E-02
 cg2d: Sum(rhs),rhsMax =  -3.45521528055670E-11  2.81799464945582E-02
 cg2d: Sum(rhs),rhsMax =  -3.53465312574741E-11  2.75664290881669E-02
 cg2d: Sum(rhs),rhsMax =  -3.62378738127944E-11  2.69475795548647E-02
 cg2d: Sum(rhs),rhsMax =  -3.71172537150244E-11  2.63237877171543E-02
 cg2d: Sum(rhs),rhsMax =  -3.76555731040895E-11  2.59659300513765E-02
 cg2d: Sum(rhs),rhsMax =  -3.65766306131832E-11  2.67649081699459E-02
 cg2d: Sum(rhs),rhsMax =  -3.55590834555386E-11  2.75703376732189E-02
 cg2d: Sum(rhs),rhsMax =  -3.45741768548180E-11  2.83819196649219E-02
 cg2d: Sum(rhs),rhsMax =  -3.36455863170215E-11  2.91993349260559E-02
 cg2d: Sum(rhs),rhsMax =  -3.27527449606180E-11  3.00222400998046E-02
 cg2d: Sum(rhs),rhsMax =  -3.19086423949955E-11  3.08502650281091E-02
 cg2d: Sum(rhs),rhsMax =  -3.11251024953663E-11  3.16830115365385E-02
 cg2d: Sum(rhs),rhsMax =  -3.03416736180395E-11  3.25200539188123E-02
 cg2d: Sum(rhs),rhsMax =  -2.96110358455337E-11  3.33609413010656E-02
 cg2d: Sum(rhs),rhsMax =  -2.89168133882356E-11  3.42052019688244E-02
 cg2d: Sum(rhs),rhsMax =  -2.82557310882225E-11  3.50523496198417E-02
 cg2d: Sum(rhs),rhsMax =  -2.76183520497852E-11  3.59018913644131E-02
 cg2d: Sum(rhs),rhsMax =  -2.70313771366659E-11  3.67533371728701E-02
 cg2d: Sum(rhs),rhsMax =  -2.64566146768175E-11  3.76062103100661E-02
 cg2d: Sum(rhs),rhsMax =  -2.59572363603411E-11  3.84600581838766E-02
 cg2d: Sum(rhs),rhsMax =  -2.54802290378109E-11  3.93144629552147E-02
 cg2d: Sum(rhs),rhsMax =  -2.50298115567205E-11  4.01690512162031E-02
 cg2d: Sum(rhs),rhsMax =  -2.45867215475926E-11  4.10235020534635E-02
 cg2d: Sum(rhs),rhsMax =  -2.41747177831542E-11  4.18775528785220E-02
 cg2d: Sum(rhs),rhsMax =  -2.37687647342000E-11  4.27310025251790E-02
 cg2d: Sum(rhs),rhsMax =  -2.33992825116047E-11  4.35837112767145E-02
 cg2d: Sum(rhs),rhsMax =  -2.30384600286015E-11  4.44355976813818E-02
 cg2d: Sum(rhs),rhsMax =  -2.26899610211717E-11  4.52866322265217E-02
 cg2d: Sum(rhs),rhsMax =  -2.23562279799694E-11  4.61368281516994E-02
 cg2d: Sum(rhs),rhsMax =  -2.20486962021482E-11  4.69862298715506E-02
 cg2d: Sum(rhs),rhsMax =  -2.17474926955674E-11  4.78348996335715E-02
 cg2d: Sum(rhs),rhsMax =  -2.14481765681285E-11  4.86829031426813E-02
 cg2d: Sum(rhs),rhsMax =  -2.11546336004176E-11  4.95302949356622E-02
 cg2d: Sum(rhs),rhsMax =  -2.08807415802426E-11  5.03771042826932E-02
 cg2d: Sum(rhs),rhsMax =  -2.06114014744685E-11  5.12233223336547E-02
 cg2d: Sum(rhs),rhsMax =  -2.03588257363663E-11  5.20688911219768E-02
 cg2d: Sum(rhs),rhsMax =  -2.01201277860719E-11  5.29136949002696E-02
 cg2d: Sum(rhs),rhsMax =  -1.98722149846731E-11  5.37575541235345E-02
 cg2d: Sum(rhs),rhsMax =  -1.96344052127984E-11  5.46002222320747E-02
 cg2d: Sum(rhs),rhsMax =  -1.94108062956388E-11  5.54413852276623E-02
 cg2d: Sum(rhs),rhsMax =  -1.91857640885473E-11  5.62806638937243E-02
 cg2d: Sum(rhs),rhsMax =  -1.89892546131887E-11  5.71176183998878E-02
 cg2d: Sum(rhs),rhsMax =  -1.87817539298862E-11  5.79517549404668E-02
 cg2d: Sum(rhs),rhsMax =  -1.85842452538054E-11  5.87825339969780E-02
 cg2d: Sum(rhs),rhsMax =  -1.83900672467985E-11  5.96093797816765E-02
 cg2d: Sum(rhs),rhsMax =  -1.82005521764950E-11  6.04316904088795E-02
 cg2d: Sum(rhs),rhsMax =  -1.80342407674061E-11  6.12488483490187E-02
 cg2d: Sum(rhs),rhsMax =  -1.78695946928542E-11  6.20602307426485E-02
 cg2d: Sum(rhs),rhsMax =  -1.76925141204265E-11  6.28652191845311E-02
 cg2d: Sum(rhs),rhsMax =  -1.75325309825780E-11  6.36632086291583E-02
 cg2d: Sum(rhs),rhsMax =  -1.73732139785443E-11  6.44536151175353E-02
 cg2d: Sum(rhs),rhsMax =  -1.72251102270593E-11  6.52358820776218E-02
 cg2d: Sum(rhs),rhsMax =  -1.70826686129999E-11  6.60094850244120E-02
 cg2d: Sum(rhs),rhsMax =  -1.70240488372997E-11  6.67739345420144E-02
 cg2d: Sum(rhs),rhsMax =  -1.69642078162724E-11  6.75287775106667E-02
 cg2d: Sum(rhs),rhsMax =  -1.68937086542087E-11  6.82735966239055E-02
 cg2d: Sum(rhs),rhsMax =  -1.68662861455005E-11  6.90080083232368E-02
 cg2d: Sum(rhs),rhsMax =  -1.68437486181006E-11  6.97316593566308E-02
 cg2d: Sum(rhs),rhsMax =  -1.68285385626632E-11  7.04442222380965E-02
 cg2d: Sum(rhs),rhsMax =  -1.65371050186991E-11  7.11453899454520E-02
 cg2d: Sum(rhs),rhsMax =  -1.64461777529823E-11  7.18348702252129E-02
 cg2d: Sum(rhs),rhsMax =  -1.63794533492023E-11  7.25123798984569E-02
 cg2d: Sum(rhs),rhsMax =  -1.62935220870963E-11  7.31776395535435E-02
 cg2d: Sum(rhs),rhsMax =  -1.63055124957623E-11  7.38303689743787E-02
 cg2d: Sum(rhs),rhsMax =  -1.62712066043014E-11  7.44702835955442E-02
 cg2d: Sum(rhs),rhsMax =  -1.62511115675557E-11  7.50970922131801E-02
 cg2d: Sum(rhs),rhsMax =  -1.62326818653469E-11  7.57104960613313E-02
 cg2d: Sum(rhs),rhsMax =  -1.61911595242259E-11  7.63101892798549E-02
 cg2d: Sum(rhs),rhsMax =  -1.61813895616092E-11  7.68958606944756E-02
 cg2d: Sum(rhs),rhsMax =  -1.61571866996724E-11  7.74671967250966E-02
 cg2d: Sum(rhs),rhsMax =  -1.61275437449149E-11  7.80238851812931E-02
 cg2d: Sum(rhs),rhsMax =  -1.60919055858244E-11  7.85656196261686E-02
 cg2d: Sum(rhs),rhsMax =  -1.60617075195546E-11  7.90921039501629E-02
 cg2d: Sum(rhs),rhsMax =  -1.60080837474652E-11  7.96030567836217E-02
 cg2d: Sum(rhs),rhsMax =  -1.59630086926654E-11  8.00982153917308E-02
 cg2d: Sum(rhs),rhsMax =  -1.59110502551130E-11  8.05773387361775E-02
 cg2d: Sum(rhs),rhsMax =  -1.58738577837880E-11  8.10402094515851E-02
 cg2d: Sum(rhs),rhsMax =  -1.58293378405006E-11  8.14866345669546E-02
 cg2d: Sum(rhs),rhsMax =  -1.57915902576633E-11  8.19164448973743E-02
 cg2d: Sum(rhs),rhsMax =  -1.57454049798389E-11  8.23294931323670E-02
 cg2d: Sum(rhs),rhsMax =  -1.57917012799658E-11  8.27256507470351E-02
 cg2d: Sum(rhs),rhsMax =  -1.58048019116563E-11  8.31048039530075E-02
 cg2d: Sum(rhs),rhsMax =  -1.58250079707045E-11  8.34668489809451E-02
 cg2d: Sum(rhs),rhsMax =  -1.58071333800081E-11  8.38116870389524E-02
 cg2d: Sum(rhs),rhsMax =  -1.58257851268218E-11  8.41392193173261E-02
 cg2d: Sum(rhs),rhsMax =  -1.58569823938137E-11  8.44493424074851E-02
 cg2d: Sum(rhs),rhsMax =  -1.58819624118678E-11  8.47419444719701E-02
 cg2d: Sum(rhs),rhsMax =  -1.58774104974668E-11  8.50169024454642E-02
 cg2d: Sum(rhs),rhsMax =  -1.59020574486135E-11  8.52740804638027E-02
 cg2d: Sum(rhs),rhsMax =  -1.59314783587661E-11  8.55133296537487E-02
 cg2d: Sum(rhs),rhsMax =  -1.59163793256312E-11  8.57344892795469E-02
 cg2d: Sum(rhs),rhsMax =  -1.59636748264802E-11  8.59373891662904E-02
 cg2d: Sum(rhs),rhsMax =  -1.59933177812377E-11  8.61218532344677E-02
 cg2d: Sum(rhs),rhsMax =  -1.60077506805578E-11  8.62877039095159E-02
 cg2d: Sum(rhs),rhsMax =  -1.60399471482719E-11  8.64347671194760E-02
 cg2d: Sum(rhs),rhsMax =  -1.60427227058335E-11  8.65628775662528E-02
 cg2d: Sum(rhs),rhsMax =  -1.60467195087222E-11  8.66718839523062E-02
 cg2d: Sum(rhs),rhsMax =  -1.60420565720187E-11  8.67616538633490E-02
 cg2d: Sum(rhs),rhsMax =  -1.60280677619085E-11  8.68320780454481E-02
 cg2d: Sum(rhs),rhsMax =  -1.60086388589775E-11  8.68830738672281E-02
 cg2d: Sum(rhs),rhsMax =  -1.59661173171344E-11  8.69145878193766E-02
 cg2d: Sum(rhs),rhsMax =  -1.59552371314930E-11  8.69265969690136E-02
 cg2d: Sum(rhs),rhsMax =  -1.59682267408812E-11  8.69191093507476E-02
 cg2d: Sum(rhs),rhsMax =  -1.60254032266494E-11  8.68921633353276E-02
 cg2d: Sum(rhs),rhsMax =  -1.60828017570225E-11  8.68458260675133E-02
 cg2d: Sum(rhs),rhsMax =  -1.61048951952125E-11  8.67801911031723E-02
 cg2d: Sum(rhs),rhsMax =  -1.60864654930037E-11  8.66953754061419E-02
 cg2d: Sum(rhs),rhsMax =  -1.60547131144995E-11  8.65915158786645E-02
 cg2d: Sum(rhs),rhsMax =  -1.60282898065134E-11  8.64687656015193E-02
 cg2d: Sum(rhs),rhsMax =  -1.60271795834888E-11  8.63272899506696E-02
 cg2d: Sum(rhs),rhsMax =  -1.60256252712543E-11  8.61672627369417E-02
 cg2d: Sum(rhs),rhsMax =  -1.60044200114839E-11  8.59888624864459E-02
 cg2d: Sum(rhs),rhsMax =  -1.60110813496317E-11  8.57922689450867E-02
 cg2d: Sum(rhs),rhsMax =  -1.59885438222318E-11  8.55776598577259E-02
 cg2d: Sum(rhs),rhsMax =  -1.59856572423678E-11  8.53452080266788E-02
 cg2d: Sum(rhs),rhsMax =  -1.59736668337018E-11  8.50950786388736E-02
 cg2d: Sum(rhs),rhsMax =  -1.59754431905412E-11  8.48274268346332E-02
 cg2d: Sum(rhs),rhsMax =  -1.59816604394791E-11  8.45423954826214E-02
 cg2d: Sum(rhs),rhsMax =  -1.59928736920278E-11  8.42401131371468E-02
 cg2d: Sum(rhs),rhsMax =  -1.60107482827243E-11  8.39206921811513E-02
 cg2d: Sum(rhs),rhsMax =  -1.60130797510760E-11  8.35842271985119E-02
 cg2d: Sum(rhs),rhsMax =  -1.60340629662414E-11  8.32307936683606E-02
 cg2d: Sum(rhs),rhsMax =  -1.60523816461478E-11  8.28604471259290E-02
 cg2d: Sum(rhs),rhsMax =  -1.60942370541761E-11  8.24732229816093E-02
 cg2d: Sum(rhs),rhsMax =  -1.61478608262655E-11  8.20691372245032E-02
 cg2d: Sum(rhs),rhsMax =  -1.61857194314052E-11  8.16481882509745E-02
 cg2d: Sum(rhs),rhsMax =  -1.62303503969952E-11  8.12103600461401E-02
 cg2d: Sum(rhs),rhsMax =  -1.62756474963999E-11  8.07556269026371E-02
 cg2d: Sum(rhs),rhsMax =  -1.63175029044282E-11  8.02839597853358E-02
 cg2d: Sum(rhs),rhsMax =  -1.63918878470781E-11  7.97953343455119E-02
 cg2d: Sum(rhs),rhsMax =  -1.64480651321242E-11  7.92897404597509E-02
 cg2d: Sum(rhs),rhsMax =  -1.65085722869662E-11  7.87671930273324E-02
 cg2d: Sum(rhs),rhsMax =  -1.65600866353088E-11  7.82277436175204E-02
 cg2d: Sum(rhs),rhsMax =  -1.66106017829293E-11  7.76714924289854E-02
 cg2d: Sum(rhs),rhsMax =  -1.66787694766413E-11  7.70985999214932E-02
 cg2d: Sum(rhs),rhsMax =  -1.67363900516193E-11  7.65092974174753E-02
 cg2d: Sum(rhs),rhsMax =  -1.68068892136830E-11  7.59038959576772E-02
 cg2d: Sum(rhs),rhsMax =  -1.68659530785931E-11  7.52827927361530E-02
 cg2d: Sum(rhs),rhsMax =  -1.69423364226873E-11  7.46464745358954E-02
 cg2d: Sum(rhs),rhsMax =  -1.70247149711145E-11  7.39955177326552E-02
 cg2d: Sum(rhs),rhsMax =  -1.71160863260411E-11  7.33305846213993E-02
 cg2d: Sum(rhs),rhsMax =  -1.72182268443066E-11  7.26524160337768E-02
 cg2d: Sum(rhs),rhsMax =  -1.73283609683494E-11  7.19618204395606E-02
 cg2d: Sum(rhs),rhsMax =  -1.74680270248473E-11  7.12596599428289E-02
 cg2d: Sum(rhs),rhsMax =  -1.76545444929843E-11  7.05468337776533E-02
 cg2d: Sum(rhs),rhsMax =  -1.78773662540266E-11  6.98242600633856E-02
 cg2d: Sum(rhs),rhsMax =  -1.80756520862246E-11  6.90928566776665E-02
 cg2d: Sum(rhs),rhsMax =  -1.82841519702492E-11  6.83535221787939E-02
 cg2d: Sum(rhs),rhsMax =  -1.85260695673151E-11  6.76071176695349E-02
 cg2d: Sum(rhs),rhsMax =  -1.88385973487470E-11  6.68544504294308E-02
 cg2d: Sum(rhs),rhsMax =  -1.89207538525693E-11  6.60962600325444E-02
 cg2d: Sum(rhs),rhsMax =  -1.89669391303937E-11  6.53332075108710E-02
 cg2d: Sum(rhs),rhsMax =  -1.91406890337475E-11  6.45658679402646E-02
 cg2d: Sum(rhs),rhsMax =  -1.93250970781378E-11  6.37947266300837E-02
 cg2d: Sum(rhs),rhsMax =  -1.95197191743546E-11  6.30201789038408E-02
 cg2d: Sum(rhs),rhsMax =  -1.97113436684049E-11  6.22425332782419E-02
 cg2d: Sum(rhs),rhsMax =  -1.99019689617330E-11  6.14620176914220E-02
 cg2d: Sum(rhs),rhsMax =  -2.00971461694621E-11  6.06787883061311E-02
 cg2d: Sum(rhs),rhsMax =  -2.03066452542089E-11  5.98929403228906E-02
 cg2d: Sum(rhs),rhsMax =  -2.05219174986837E-11  5.91045201842991E-02
 cg2d: Sum(rhs),rhsMax =  -2.07542871777378E-11  5.83135385339152E-02
 cg2d: Sum(rhs),rhsMax =  -2.09965378417110E-11  5.75199833089556E-02
 cg2d: Sum(rhs),rhsMax =  -2.12441175762024E-11  5.67238323914603E-02
 cg2d: Sum(rhs),rhsMax =  -2.14883666416199E-11  5.59250653163616E-02
 cg2d: Sum(rhs),rhsMax =  -2.17378337552532E-11  5.51236736106930E-02
 cg2d: Sum(rhs),rhsMax =  -2.20120588423356E-11  5.43196694528486E-02
 cg2d: Sum(rhs),rhsMax =  -2.22956098028249E-11  5.35130924503438E-02
 cg2d: Sum(rhs),rhsMax =  -2.25647278639940E-11  5.27040144391409E-02
 cg2d: Sum(rhs),rhsMax =  -2.28564944748655E-11  5.18925423128289E-02
 cg2d: Sum(rhs),rhsMax =  -2.31517582882645E-11  5.10788189910097E-02
 cg2d: Sum(rhs),rhsMax =  -2.34617325567399E-11  5.02630227000669E-02
 cg2d: Sum(rhs),rhsMax =  -2.37786457191191E-11  4.94453648294407E-02
 cg2d: Sum(rhs),rhsMax =  -2.41079933793742E-11  4.86260866630463E-02
 cg2d: Sum(rhs),rhsMax =  -2.44587128328533E-11  4.78054553090090E-02
 cg2d: Sum(rhs),rhsMax =  -2.48328024810007E-11  4.69837591559212E-02
 cg2d: Sum(rhs),rhsMax =  -2.52136644895984E-11  4.61613031702936E-02
 cg2d: Sum(rhs),rhsMax =  -2.56163423806299E-11  4.53384043198996E-02
 cg2d: Sum(rhs),rhsMax =  -2.60070853741468E-11  4.45153873643776E-02
 cg2d: Sum(rhs),rhsMax =  -2.64260280324891E-11  4.36925812015567E-02
 cg2d: Sum(rhs),rhsMax =  -2.68503552725008E-11  4.28703158996845E-02
 cg2d: Sum(rhs),rhsMax =  -2.72991629302055E-11  4.20489204861942E-02
 cg2d: Sum(rhs),rhsMax =  -2.77537992587895E-11  4.12287215066578E-02
 cg2d: Sum(rhs),rhsMax =  -2.82298628917488E-11  4.04100423163396E-02
 cg2d: Sum(rhs),rhsMax =  -2.87140866639390E-11  3.95932030237723E-02
 cg2d: Sum(rhs),rhsMax =  -2.92134649804154E-11  3.87785209726818E-02
 cg2d: Sum(rhs),rhsMax =  -2.97456503872695E-11  3.79663116262377E-02
 cg2d: Sum(rhs),rhsMax =  -3.02983194089279E-11  3.71568897061742E-02
 cg2d: Sum(rhs),rhsMax =  -3.08721381792054E-11  3.63505704383183E-02
 cg2d: Sum(rhs),rhsMax =  -3.14684944768828E-11  3.55476707645715E-02
 cg2d: Sum(rhs),rhsMax =  -3.20962700861571E-11  3.47485103980853E-02
 cg2d: Sum(rhs),rhsMax =  -3.28150284722994E-11  3.39534126216298E-02
 cg2d: Sum(rhs),rhsMax =  -3.35609318113939E-11  3.31627047570906E-02
 cg2d: Sum(rhs),rhsMax =  -3.43602923891240E-11  3.23767182645770E-02
 cg2d: Sum(rhs),rhsMax =  -3.51441098445093E-11  3.15957884605831E-02
 cg2d: Sum(rhs),rhsMax =  -3.60081964245751E-11  3.08202538738592E-02
 cg2d: Sum(rhs),rhsMax =  -3.68836627906433E-11  3.00504552831262E-02
 cg2d: Sum(rhs),rhsMax =  -3.78184983329533E-11  2.92867345008573E-02
 cg2d: Sum(rhs),rhsMax =  -3.87742060681262E-11  2.85294329808985E-02
 cg2d: Sum(rhs),rhsMax =  -3.97763766368797E-11  2.77788903341167E-02
 cg2d: Sum(rhs),rhsMax =  -4.05219191534911E-11  2.72375387891825E-02
 cg2d: Sum(rhs),rhsMax =  -3.96749855191558E-11  2.78034112009189E-02
 cg2d: Sum(rhs),rhsMax =  -3.88372667359249E-11  2.83629440517160E-02
 cg2d: Sum(rhs),rhsMax =  -3.80574738390038E-11  2.89159490328664E-02
 cg2d: Sum(rhs),rhsMax =  -3.73132913455976E-11  2.94622454973549E-02
 cg2d: Sum(rhs),rhsMax =  -3.65997371298832E-11  3.00016610562434E-02
 cg2d: Sum(rhs),rhsMax =  -3.58454932403163E-11  3.05340320740316E-02
 cg2d: Sum(rhs),rhsMax =  -3.51628899608603E-11  3.10592038251759E-02
 cg2d: Sum(rhs),rhsMax =  -3.44751380221275E-11  3.15770303385014E-02
 cg2d: Sum(rhs),rhsMax =  -3.38541954886251E-11  3.20873739757276E-02
 cg2d: Sum(rhs),rhsMax =  -3.32307063810600E-11  3.25901046655045E-02
 cg2d: Sum(rhs),rhsMax =  -3.26494734026461E-11  3.30850987178754E-02
 cg2d: Sum(rhs),rhsMax =  -3.21156434779368E-11  3.35722373688784E-02
 cg2d: Sum(rhs),rhsMax =  -3.15630577230053E-11  3.40514049354780E-02
 cg2d: Sum(rhs),rhsMax =  -3.10686892879275E-11  3.45224866173524E-02
 cg2d: Sum(rhs),rhsMax =  -3.05722669402542E-11  3.49853660852942E-02
 cg2d: Sum(rhs),rhsMax =  -3.01699915050690E-11  3.54399230397102E-02
 cg2d: Sum(rhs),rhsMax =  -2.97311064656469E-11  3.58860308234261E-02
 cg2d: Sum(rhs),rhsMax =  -2.92950663727254E-11  3.63235541329411E-02
 cg2d: Sum(rhs),rhsMax =  -2.89032686673352E-11  3.67523472814651E-02
 cg2d: Sum(rhs),rhsMax =  -2.85143297862334E-11  3.71722528858347E-02
 cg2d: Sum(rhs),rhsMax =  -2.81573098170895E-11  3.75831010526670E-02
 cg2d: Sum(rhs),rhsMax =  -2.77936285097979E-11  3.79847092624640E-02
 cg2d: Sum(rhs),rhsMax =  -2.74897604679580E-11  3.83768828841566E-02
 cg2d: Sum(rhs),rhsMax =  -2.71699052145635E-11  3.87594162199799E-02
 cg2d: Sum(rhs),rhsMax =  -2.67687816357665E-11  3.91320939641594E-02
 cg2d: Sum(rhs),rhsMax =  -2.64429589336146E-11  3.94946929300199E-02
 cg2d: Sum(rhs),rhsMax =  -2.61478061425180E-11  3.98469838540905E-02
 cg2d: Sum(rhs),rhsMax =  -2.58326138258269E-11  4.01887330510379E-02
 cg2d: Sum(rhs),rhsMax =  -2.55397369919308E-11  4.05197037982753E-02
 cg2d: Sum(rhs),rhsMax =  -2.52585730109445E-11  4.08396575477715E-02
 cg2d: Sum(rhs),rhsMax =  -2.49605891511351E-11  4.11483548056421E-02
 cg2d: Sum(rhs),rhsMax =  -2.47059039892861E-11  4.14455553241214E-02
 cg2d: Sum(rhs),rhsMax =  -2.44688713735286E-11  4.17310181462045E-02
 cg2d: Sum(rhs),rhsMax =  -2.42090236746151E-11  4.20045018983099E-02
 cg2d: Sum(rhs),rhsMax =  -2.39960828984920E-11  4.22657653360363E-02
 cg2d: Sum(rhs),rhsMax =  -2.37631025967744E-11  4.25145681905609E-02
 cg2d: Sum(rhs),rhsMax =  -2.35592656494532E-11  4.27506724196889E-02
 cg2d: Sum(rhs),rhsMax =  -2.33519314996045E-11  4.29738439585182E-02
 cg2d: Sum(rhs),rhsMax =  -2.31411001472281E-11  4.31838549942563E-02
 cg2d: Sum(rhs),rhsMax =  -2.30244157073400E-11  4.33804867030014E-02
 cg2d: Sum(rhs),rhsMax =  -2.28257968082346E-11  4.35635322483126E-02
 cg2d: Sum(rhs),rhsMax =  -2.26956786697485E-11  4.37327998926709E-02
 cg2d: Sum(rhs),rhsMax =  -2.25557350574945E-11  4.38881159925241E-02
 cg2d: Sum(rhs),rhsMax =  -2.24178453578361E-11  4.40293276756592E-02
 cg2d: Sum(rhs),rhsMax =  -2.22958873585810E-11  4.41563050426973E-02
 cg2d: Sum(rhs),rhsMax =  -2.22065144050987E-11  4.42689427830665E-02
 cg2d: Sum(rhs),rhsMax =  -2.20464757560990E-11  4.43671611423095E-02
 cg2d: Sum(rhs),rhsMax =  -2.18628448678260E-11  4.44509063054091E-02
 cg2d: Sum(rhs),rhsMax =  -2.17814655201209E-11  4.45201501988018E-02
 cg2d: Sum(rhs),rhsMax =  -2.17236229005380E-11  4.45748898400880E-02
 cg2d: Sum(rhs),rhsMax =  -2.16356377258364E-11  4.46151462601848E-02
 cg2d: Sum(rhs),rhsMax =  -2.15318873841852E-11  4.46409631156773E-02
 cg2d: Sum(rhs),rhsMax =  -2.15195639086119E-11  4.46524051421514E-02
 cg2d: Sum(rhs),rhsMax =  -2.15595319374984E-11  4.46495565201964E-02
 cg2d: Sum(rhs),rhsMax =  -2.15376050327620E-11  4.46325189453140E-02
 cg2d: Sum(rhs),rhsMax =  -2.15837903105864E-11  4.46014096221196E-02
 cg2d: Sum(rhs),rhsMax =  -2.15951145854376E-11  4.45563592013254E-02
 cg2d: Sum(rhs),rhsMax =  -2.15866213792992E-11  4.44975095497573E-02
 cg2d: Sum(rhs),rhsMax =  -2.15855111562746E-11  4.44250113419330E-02
 cg2d: Sum(rhs),rhsMax =  -2.16056617041716E-11  4.43390215293167E-02
 cg2d: Sum(rhs),rhsMax =  -2.16710538403220E-11  4.42397006854156E-02
 cg2d: Sum(rhs),rhsMax =  -2.16945905684440E-11  4.41272101785524E-02
 cg2d: Sum(rhs),rhsMax =  -2.17179607631124E-11  4.40017091837732E-02
 cg2d: Sum(rhs),rhsMax =  -2.17649787082053E-11  4.38633516143380E-02
 cg2d: Sum(rhs),rhsMax =  -2.18297602216921E-11  4.37122830866130E-02
 cg2d: Sum(rhs),rhsMax =  -2.18889906200559E-11  4.35486380456152E-02
 cg2d: Sum(rhs),rhsMax =  -2.20082285729006E-11  4.33725371844826E-02
 cg2d: Sum(rhs),rhsMax =  -2.20760076885540E-11  4.31840853322358E-02
 cg2d: Sum(rhs),rhsMax =  -2.21989648885312E-11  4.29833700209328E-02
 cg2d: Sum(rhs),rhsMax =  -2.22979967823278E-11  4.27704608536732E-02
 cg2d: Sum(rhs),rhsMax =  -2.23980278768465E-11  4.25454098158995E-02
 cg2d: Sum(rhs),rhsMax =  -2.24966156814332E-11  4.23082526092759E-02
 cg2d: Sum(rhs),rhsMax =  -2.26188512364445E-11  4.20590110044040E-02
 cg2d: Sum(rhs),rhsMax =  -2.27959318088722E-11  4.17976960749026E-02
 cg2d: Sum(rhs),rhsMax =  -2.29840591003949E-11  4.15243122502600E-02
 cg2d: Sum(rhs),rhsMax =  -2.31673014106093E-11  4.12388621195246E-02
 cg2d: Sum(rhs),rhsMax =  -2.33739139154920E-11  4.09413512389124E-02
 cg2d: Sum(rhs),rhsMax =  -2.36005659459693E-11  4.06317929320543E-02
 cg2d: Sum(rhs),rhsMax =  -2.38077335623643E-11  4.03102129092780E-02
 cg2d: Sum(rhs),rhsMax =  -2.40265030093667E-11  3.99766534143237E-02
 cg2d: Sum(rhs),rhsMax =  -2.42890707546906E-11  3.96311766372384E-02
 cg2d: Sum(rhs),rhsMax =  -2.45306552848490E-11  3.92738672542715E-02
 cg2d: Sum(rhs),rhsMax =  -2.48202847163981E-11  3.89048340344963E-02
 cg2d: Sum(rhs),rhsMax =  -2.51130782835673E-11  3.85242105227388E-02
 cg2d: Sum(rhs),rhsMax =  -2.53842780129077E-11  3.81321548836512E-02
 cg2d: Sum(rhs),rhsMax =  -2.57051879781756E-11  3.77288490508165E-02
 cg2d: Sum(rhs),rhsMax =  -2.60561294762596E-11  3.73144973647326E-02
 cg2d: Sum(rhs),rhsMax =  -2.63929988975065E-11  3.68893248299295E-02
 cg2d: Sum(rhs),rhsMax =  -2.67720845492647E-11  3.64535752258968E-02
 cg2d: Sum(rhs),rhsMax =  -2.71482003544321E-11  3.60075086046219E-02
 cg2d: Sum(rhs),rhsMax =  -2.75433842400474E-11  3.55513989501662E-02
 cg2d: Sum(rhs),rhsMax =  -2.79473388875573E-11  3.50855319409058E-02
 cg2d: Sum(rhs),rhsMax =  -2.83788548216535E-11  3.46102024864947E-02
 cg2d: Sum(rhs),rhsMax =  -2.88686019533912E-11  3.41257121303362E-02
 cg2d: Sum(rhs),rhsMax =  -2.93233076709143E-11  3.36323664833820E-02
 cg2d: Sum(rhs),rhsMax =  -2.98550489885585E-11  3.31304727923328E-02
 cg2d: Sum(rhs),rhsMax =  -3.03613939545144E-11  3.26203376800301E-02
 cg2d: Sum(rhs),rhsMax =  -3.09478553894849E-11  3.21022650794243E-02
 cg2d: Sum(rhs),rhsMax =  -3.15478337897801E-11  3.15765544071945E-02
 cg2d: Sum(rhs),rhsMax =  -3.21976820205627E-11  3.10434990294382E-02
 cg2d: Sum(rhs),rhsMax =  -3.29220869316194E-11  3.05033850371395E-02
 cg2d: Sum(rhs),rhsMax =  -3.36442384368807E-11  2.99564904253526E-02
 cg2d: Sum(rhs),rhsMax =  -3.43989524365096E-11  2.94030845484019E-02
 cg2d: Sum(rhs),rhsMax =  -3.50822773609316E-11  2.88434278226906E-02
 cg2d: Sum(rhs),rhsMax =  -3.58192642213595E-11  2.82777716441856E-02
 cg2d: Sum(rhs),rhsMax =  -3.66189023548458E-11  2.77063584468422E-02
 cg2d: Sum(rhs),rhsMax =  -3.75868225432896E-11  2.71294218254802E-02
 cg2d: Sum(rhs),rhsMax =  -3.84600962188841E-11  2.65471866621095E-02
 cg2d: Sum(rhs),rhsMax =  -3.93630128492362E-11  2.59598692363755E-02
 cg2d: Sum(rhs),rhsMax =  -3.84179354995240E-11  2.66248120056867E-02
(PID.TID 0000.0001)      cg2d_init_res =   1.54248905189150E-01
(PID.TID 0000.0001)      cg2d_iters(min,last) =      -1      37
(PID.TID 0000.0001)      cg2d_last_res =   4.72151252907386E-14
(PID.TID 0000.0001) // =======================================================
(PID.TID 0000.0001) // Begin MONITOR dynamic field statistics
(PID.TID 0000.0001) // =======================================================
(PID.TID 0000.0001) %MON time_tsnumber                =                  6720
(PID.TID 0000.0001) %MON time_secondsf                =   1.0080000000000E+05
(PID.TID 0000.0001) %MON dynstat_eta_max              =   4.4843595748762E-03
(PID.TID 0000.0001) %MON dynstat_eta_min              =  -4.4027291052449E-03
(PID.TID 0000.0001) %MON dynstat_eta_mean             =   2.1320250492298E-15
(PID.TID 0000.0001) %MON dynstat_eta_sd               =   2.7667952409584E-03
(PID.TID 0000.0001) %MON dynstat_eta_del2             =   1.8224905464170E-05
(PID.TID 0000.0001) %MON dynstat_uvel_max             =   6.9598205420487E-01
(PID.TID 0000.0001) %MON dynstat_uvel_min             =  -1.1266098650775E-01
(PID.TID 0000.0001) %MON dynstat_uvel_mean            =   1.0710785352078E-01
(PID.TID 0000.0001) %MON dynstat_uvel_sd              =   8.2617128029259E-02
(PID.TID 0000.0001) %MON dynstat_uvel_del2            =   2.1863385533234E-04
(PID.TID 0000.0001) %MON dynstat_vvel_max             =   0.0000000000000E+00
(PID.TID 0000.0001) %MON dynstat_vvel_min             =   0.0000000000000E+00
(PID.TID 0000.0001) %MON dynstat_vvel_mean            =   0.0000000000000E+00
(PID.TID 0000.0001) %MON dynstat_vvel_sd              =   0.0000000000000E+00
(PID.TID 0000.0001) %MON dynstat_vvel_del2            =   0.0000000000000E+00
(PID.TID 0000.0001) %MON dynstat_wvel_max             =   5.5371158358217E-03
(PID.TID 0000.0001) %MON dynstat_wvel_min             =  -1.3486113725478E-02
(PID.TID 0000.0001) %MON dynstat_wvel_mean            =  -2.6436040128429E-20
(PID.TID 0000.0001) %MON dynstat_wvel_sd              =   6.0923830470902E-04
(PID.TID 0000.0001) %MON dynstat_wvel_del2            =   1.0721638532619E-05
(PID.TID 0000.0001) %MON dynstat_theta_max            =   1.5000000000014E+01
(PID.TID 0000.0001) %MON dynstat_theta_min            =   9.9999999999888E+00
(PID.TID 0000.0001) %MON dynstat_theta_mean           =   1.2511532379825E+01
(PID.TID 0000.0001) %MON dynstat_theta_sd             =   2.4335575460995E+00
(PID.TID 0000.0001) %MON dynstat_theta_del2           =   1.0214503853982E-03
(PID.TID 0000.0001) %MON dynstat_salt_max             =   3.5000000000000E+01
(PID.TID 0000.0001) %MON dynstat_salt_min             =   3.5000000000000E+01
(PID.TID 0000.0001) %MON dynstat_salt_mean            =   3.5000000000000E+01
(PID.TID 0000.0001) %MON dynstat_salt_sd              =   3.9790393202566E-13
(PID.TID 0000.0001) %MON dynstat_salt_del2            =   0.0000000000000E+00
(PID.TID 0000.0001) %MON dynstat_sst_max              =   1.5000000000000E+01
(PID.TID 0000.0001) %MON dynstat_sst_min              =   1.4999999999996E+01
(PID.TID 0000.0001) %MON dynstat_sst_mean             =   1.4999999999999E+01
(PID.TID 0000.0001) %MON dynstat_sst_sd               =   9.5147971424666E-13
(PID.TID 0000.0001) %MON dynstat_sst_del2             =   1.3705262219606E-14
(PID.TID 0000.0001) %MON dynstat_sss_max              =   3.5000000000000E+01
(PID.TID 0000.0001) %MON dynstat_sss_min              =   3.5000000000000E+01
(PID.TID 0000.0001) %MON dynstat_sss_mean             =   3.5000000000000E+01
(PID.TID 0000.0001) %MON dynstat_sss_sd               =   5.6843418860808E-14
(PID.TID 0000.0001) %MON dynstat_sss_del2             =   0.0000000000000E+00
(PID.TID 0000.0001) %MON forcing_qnet_max             =   0.0000000000000E+00
(PID.TID 0000.0001) %MON forcing_qnet_min             =   0.0000000000000E+00
(PID.TID 0000.0001) %MON forcing_qnet_mean            =   0.0000000000000E+00
(PID.TID 0000.0001) %MON forcing_qnet_sd              =   0.0000000000000E+00
(PID.TID 0000.0001) %MON forcing_qnet_del2            =   0.0000000000000E+00
(PID.TID 0000.0001) %MON forcing_qsw_max              =   0.0000000000000E+00
(PID.TID 0000.0001) %MON forcing_qsw_min              =   0.0000000000000E+00
(PID.TID 0000.0001) %MON forcing_qsw_mean             =   0.0000000000000E+00
(PID.TID 0000.0001) %MON forcing_qsw_sd               =   0.0000000000000E+00
(PID.TID 0000.0001) %MON forcing_qsw_del2             =   0.0000000000000E+00
(PID.TID 0000.0001) %MON forcing_empmr_max            =   0.0000000000000E+00
(PID.TID 0000.0001) %MON forcing_empmr_min            =   0.0000000000000E+00
(PID.TID 0000.0001) %MON forcing_empmr_mean           =   0.0000000000000E+00
(PID.TID 0000.0001) %MON forcing_empmr_sd             =   0.0000000000000E+00
(PID.TID 0000.0001) %MON forcing_empmr_del2           =   0.0000000000000E+00
(PID.TID 0000.0001) %MON forcing_fu_max               =   0.0000000000000E+00
(PID.TID 0000.0001) %MON forcing_fu_min               =   0.0000000000000E+00
(PID.TID 0000.0001) %MON forcing_fu_mean              =   0.0000000000000E+00
(PID.TID 0000.0001) %MON forcing_fu_sd                =   0.0000000000000E+00
(PID.TID 0000.0001) %MON forcing_fu_del2              =   0.0000000000000E+00
(PID.TID 0000.0001) %MON forcing_fv_max               =   0.0000000000000E+00
(PID.TID 0000.0001) %MON forcing_fv_min               =   0.0000000000000E+00
(PID.TID 0000.0001) %MON forcing_fv_mean              =   0.0000000000000E+00
(PID.TID 0000.0001) %MON forcing_fv_sd                =   0.0000000000000E+00
(PID.TID 0000.0001) %MON forcing_fv_del2              =   0.0000000000000E+00
(PID.TID 0000.0001) %MON advcfl_uvel_max              =   5.2198654065365E-02
(PID.TID 0000.0001) %MON advcfl_vvel_max              =   0.0000000000000E+00
(PID.TID 0000.0001) %MON advcfl_wvel_max              =   1.9961831082233E-01
(PID.TID 0000.0001) %MON advcfl_W_hf_max              =   2.0229170588217E-01
(PID.TID 0000.0001) %MON pe_b_mean                    =   1.9279289363527E-07
(PID.TID 0000.0001) %MON ke_max                       =   1.4865981820640E-01
(PID.TID 0000.0001) %MON ke_mean                      =   9.1836367309606E-03
(PID.TID 0000.0001) %MON ke_vol                       =   9.5121673331316E+10
(PID.TID 0000.0001) %MON vort_r_min                   =   0.0000000000000E+00
(PID.TID 0000.0001) %MON vort_r_max                   =   0.0000000000000E+00
(PID.TID 0000.0001) %MON vort_a_mean                  =   0.0000000000000E+00
(PID.TID 0000.0001) %MON vort_a_sd                    =   0.0000000000000E+00
(PID.TID 0000.0001) %MON vort_p_mean                  =   0.0000000000000E+00
(PID.TID 0000.0001) %MON vort_p_sd                    =   0.0000000000000E+00
(PID.TID 0000.0001) %MON surfExpan_theta_mean         =   2.2404408009046E-18
(PID.TID 0000.0001) %MON surfExpan_salt_mean          =  -1.4585560580227E-18
(PID.TID 0000.0001) // =======================================================
(PID.TID 0000.0001) // End MONITOR dynamic field statistics
(PID.TID 0000.0001) // =======================================================
(PID.TID 0000.0001) // =======================================================
(PID.TID 0000.0001) // Begin OBCS MONITOR field statistics
(PID.TID 0000.0001) // =======================================================
(PID.TID 0000.0001) %MON obc_E_uVel_max               =   1.0505355776936E-01
(PID.TID 0000.0001) %MON obc_E_uVel_min               =   1.0505355776936E-01
(PID.TID 0000.0001) %MON obc_E_uVel_mean              =   1.0505355776936E-01
(PID.TID 0000.0001) %MON obc_E_uVel_sd                =  -6.9388939039072E-18
(PID.TID 0000.0001) %MON obc_E_uVel_Int               =   1.0505355776936E+05
(PID.TID 0000.0001) %MON obc_W_uVel_max               =   1.0505355776936E-01
(PID.TID 0000.0001) %MON obc_W_uVel_min               =   1.0505355776936E-01
(PID.TID 0000.0001) %MON obc_W_uVel_mean              =   1.0505355776936E-01
(PID.TID 0000.0001) %MON obc_W_uVel_sd                =  -6.9388939039072E-18
(PID.TID 0000.0001) %MON obc_W_uVel_Int               =   1.0505355776936E+05
(PID.TID 0000.0001) // =======================================================
(PID.TID 0000.0001) // End OBCS MONITOR field statistics
(PID.TID 0000.0001) // =======================================================
 cg2d: Sum(rhs),rhsMax =  -3.74266451164118E-11  2.73612538852196E-02
 cg2d: Sum(rhs),rhsMax =  -3.64787089424112E-11  2.81038611975562E-02
 cg2d: Sum(rhs),rhsMax =  -3.55633300586078E-11  2.88523927793785E-02
 cg2d: Sum(rhs),rhsMax =  -3.46962458763755E-11  2.96066048635916E-02
 cg2d: Sum(rhs),rhsMax =  -3.38507555319723E-11  3.03662513963531E-02
 cg2d: Sum(rhs),rhsMax =  -3.30386273894590E-11  3.11310843038678E-02
 cg2d: Sum(rhs),rhsMax =  -3.22712967459893E-11  3.19008537361011E-02
 cg2d: Sum(rhs),rhsMax =  -3.15372172821071E-11  3.26753083137698E-02
 cg2d: Sum(rhs),rhsMax =  -3.09406389398248E-11  3.34541954066606E-02
 cg2d: Sum(rhs),rhsMax =  -3.03330693895987E-11  3.42372614682883E-02
 cg2d: Sum(rhs),rhsMax =  -2.97402102944488E-11  3.50242524434064E-02
 cg2d: Sum(rhs),rhsMax =  -2.91589530299063E-11  3.58149142508324E-02
 cg2d: Sum(rhs),rhsMax =  -2.86053958298282E-11  3.66089933255102E-02
 cg2d: Sum(rhs),rhsMax =  -2.80779288708288E-11  3.74062371828705E-02
 cg2d: Sum(rhs),rhsMax =  -2.75769407309667E-11  3.82063949483689E-02
 cg2d: Sum(rhs),rhsMax =  -2.70942712710109E-11  3.90092177789358E-02
 cg2d: Sum(rhs),rhsMax =  -2.66330846265816E-11  3.98144590941690E-02
 cg2d: Sum(rhs),rhsMax =  -2.61821120339789E-11  4.06218745358868E-02
 cg2d: Sum(rhs),rhsMax =  -2.57489030097702E-11  4.14312215864060E-02
 cg2d: Sum(rhs),rhsMax =  -2.53405629813130E-11  4.22422587984089E-02
 cg2d: Sum(rhs),rhsMax =  -2.49402720697844E-11  4.30547446162840E-02
 cg2d: Sum(rhs),rhsMax =  -2.45535813903075E-11  4.38684358234717E-02
 cg2d: Sum(rhs),rhsMax =  -2.41820452551167E-11  4.46830856668659E-02
 cg2d: Sum(rhs),rhsMax =  -2.38300490451593E-11  4.54984417546081E-02
 cg2d: Sum(rhs),rhsMax =  -2.34947616917225E-11  4.63142438543108E-02
 cg2d: Sum(rhs),rhsMax =  -2.31685226559364E-11  4.71302217370587E-02
 cg2d: Sum(rhs),rhsMax =  -2.28609353669640E-11  4.79460932173127E-02
 cg2d: Sum(rhs),rhsMax =  -2.25606200388029E-11  4.87615625296115E-02
 cg2d: Sum(rhs),rhsMax =  -2.22699636509560E-11  4.95763191607570E-02
 cg2d: Sum(rhs),rhsMax =  -2.19860796235594E-11  5.03900372234314E-02
 cg2d: Sum(rhs),rhsMax =  -2.17206252983715E-11  5.12023754174274E-02
 cg2d: Sum(rhs),rhsMax =  -2.14883666416199E-11  5.20129775821186E-02
 cg2d: Sum(rhs),rhsMax =  -2.13871143017741E-11  5.28214738027747E-02
 cg2d: Sum(rhs),rhsMax =  -2.11772821501199E-11  5.36274819977269E-02
 cg2d: Sum(rhs),rhsMax =  -2.09546824336826E-11  5.44306098861350E-02
 cg2d: Sum(rhs),rhsMax =  -2.07237560445606E-11  5.52304572187972E-02
 cg2d: Sum(rhs),rhsMax =  -2.04982697482592E-11  5.60266181472549E-02
 cg2d: Sum(rhs),rhsMax =  -2.02657890469027E-11  5.68186836082314E-02
 cg2d: Sum(rhs),rhsMax =  -2.00466310218417E-11  5.76062436090605E-02
 cg2d: Sum(rhs),rhsMax =  -1.98329130896013E-11  5.83888893125539E-02
 cg2d: Sum(rhs),rhsMax =  -1.96177518674290E-11  5.91662148340786E-02
 cg2d: Sum(rhs),rhsMax =  -1.94275706633107E-11  5.99378186788498E-02
 cg2d: Sum(rhs),rhsMax =  -1.92330595893964E-11  6.07033047532271E-02
 cg2d: Sum(rhs),rhsMax =  -1.90495397234258E-11  6.14622829009740E-02
 cg2d: Sum(rhs),rhsMax =  -1.88759008423744E-11  6.22143689211652E-02
 cg2d: Sum(rhs),rhsMax =  -1.86932691548236E-11  6.29591840342215E-02
 cg2d: Sum(rhs),rhsMax =  -1.85267357011298E-11  6.36963537759338E-02
 cg2d: Sum(rhs),rhsMax =  -1.83618675819730E-11  6.44255063192176E-02
 cg2d: Sum(rhs),rhsMax =  -1.82079906707600E-11  6.51462702485986E-02
 cg2d: Sum(rhs),rhsMax =  -1.80686576811695E-11  6.58582718631962E-02
 cg2d: Sum(rhs),rhsMax =  -1.78980164022846E-11  6.65611321145150E-02
 cg2d: Sum(rhs),rhsMax =  -1.77730052897118E-11  6.72544633451686E-02
 cg2d: Sum(rhs),rhsMax =  -1.76253456274367E-11  6.79378660502635E-02
 cg2d: Sum(rhs),rhsMax =  -1.75540693092557E-11  6.86109259258456E-02
 cg2d: Sum(rhs),rhsMax =  -1.75108816335978E-11  6.92732115134873E-02
 cg2d: Sum(rhs),rhsMax =  -1.74643632888660E-11  6.99242727735635E-02
 cg2d: Sum(rhs),rhsMax =  -1.74049663570486E-11  7.05636409021145E-02
 cg2d: Sum(rhs),rhsMax =  -1.73583369900143E-11  7.11908296724920E-02
 cg2d: Sum(rhs),rhsMax =  -1.73092651323259E-11  7.18053384992228E-02
 cg2d: Sum(rhs),rhsMax =  -1.72650782559458E-11  7.24066573544862E-02
 cg2d: Sum(rhs),rhsMax =  -1.72527547803725E-11  7.29942735360374E-02
 cg2d: Sum(rhs),rhsMax =  -1.72091230155047E-11  7.35676801483247E-02
 cg2d: Sum(rhs),rhsMax =  -1.72009073651225E-11  7.41263860177420E-02
 cg2d: Sum(rhs),rhsMax =  -1.72200032011460E-11  7.46699266295332E-02
 cg2d: Sum(rhs),rhsMax =  -1.71623826261680E-11  7.51978755594588E-02
 cg2d: Sum(rhs),rhsMax =  -1.70990999137643E-11  7.57098557886173E-02
 cg2d: Sum(rhs),rhsMax =  -1.70692349144019E-11  7.62055502434515E-02
 cg2d: Sum(rhs),rhsMax =  -1.70238267926948E-11  7.66847109006840E-02
 cg2d: Sum(rhs),rhsMax =  -1.69814162731541E-11  7.71471658407968E-02
 cg2d: Sum(rhs),rhsMax =  -1.69363412183543E-11  7.75928237220065E-02
 cg2d: Sum(rhs),rhsMax =  -1.68898228736225E-11  7.80216752740985E-02
 cg2d: Sum(rhs),rhsMax =  -1.68506320008532E-11  7.84337915695060E-02
 cg2d: Sum(rhs),rhsMax =  -1.68125513511086E-11  7.88293190068339E-02
 cg2d: Sum(rhs),rhsMax =  -1.67643676718399E-11  7.92084711274132E-02
 cg2d: Sum(rhs),rhsMax =  -1.67061919853495E-11  7.95715175657686E-02
 cg2d: Sum(rhs),rhsMax =  -1.65235602977987E-11  7.99187705979692E-02
 cg2d: Sum(rhs),rhsMax =  -1.65526481410438E-11  8.02505698856998E-02
 cg2d: Sum(rhs),rhsMax =  -1.66608948859448E-11  8.05672661131504E-02
 cg2d: Sum(rhs),rhsMax =  -1.66501257226059E-11  8.08692042807136E-02
 cg2d: Sum(rhs),rhsMax =  -1.67373892523415E-11  8.11567074097926E-02
 cg2d: Sum(rhs),rhsMax =  -1.64469549090995E-11  8.14300613918018E-02
 cg2d: Sum(rhs),rhsMax =  -1.64721569717585E-11  8.16895016411627E-02
 cg2d: Sum(rhs),rhsMax =  -1.64810387559555E-11  8.19352021043787E-02
 cg2d: Sum(rhs),rhsMax =  -1.65362168402794E-11  8.21672670439103E-02
 cg2d: Sum(rhs),rhsMax =  -1.66030522663618E-11  8.23857258670715E-02
 cg2d: Sum(rhs),rhsMax =  -1.66547886593094E-11  8.25905311170722E-02
 cg2d: Sum(rhs),rhsMax =  -1.66893165953752E-11  8.27815595954128E-02
 cg2d: Sum(rhs),rhsMax =  -1.67214020407869E-11  8.29586164502573E-02
 cg2d: Sum(rhs),rhsMax =  -1.67521552185690E-11  8.31214419502607E-02
 cg2d: Sum(rhs),rhsMax =  -1.67638125603276E-11  8.32697205712394E-02
 cg2d: Sum(rhs),rhsMax =  -1.68353109231134E-11  8.34030919554048E-02
 cg2d: Sum(rhs),rhsMax =  -1.68470792871744E-11  8.35211632589172E-02
 cg2d: Sum(rhs),rhsMax =  -1.67735825229443E-11  8.36235223811898E-02
 cg2d: Sum(rhs),rhsMax =  -1.67661440286793E-11  8.37097515658063E-02
 cg2d: Sum(rhs),rhsMax =  -1.68305369641075E-11  8.37794408752068E-02
 cg2d: Sum(rhs),rhsMax =  -1.68545177814394E-11  8.38322010669026E-02
 cg2d: Sum(rhs),rhsMax =  -1.68947078549309E-11  8.38676754361088E-02
 cg2d: Sum(rhs),rhsMax =  -1.69121383564175E-11  8.38855502373531E-02
 cg2d: Sum(rhs),rhsMax =  -1.68609570749823E-11  8.38855633553962E-02
 cg2d: Sum(rhs),rhsMax =  -1.69633196378527E-11  8.38675109635972E-02
 cg2d: Sum(rhs),rhsMax =  -1.69392277982183E-11  8.38312519856653E-02
 cg2d: Sum(rhs),rhsMax =  -1.69048108844549E-11  8.37767102617183E-02
 cg2d: Sum(rhs),rhsMax =  -1.68788316656787E-11  8.37038744134856E-02
 cg2d: Sum(rhs),rhsMax =  -1.68679514800374E-11  8.36127955004333E-02
 cg2d: Sum(rhs),rhsMax =  -1.68559610713714E-11  8.35035826516088E-02
 cg2d: Sum(rhs),rhsMax =  -1.68365321684405E-11  8.33763969468125E-02
 cg2d: Sum(rhs),rhsMax =  -1.68064451244732E-11  8.32314438964342E-02
 cg2d: Sum(rhs),rhsMax =  -1.68015601431648E-11  8.30689649228522E-02
 cg2d: Sum(rhs),rhsMax =  -1.67679203855187E-11  8.28892282828673E-02
 cg2d: Sum(rhs),rhsMax =  -1.67509339732419E-11  8.26925198747185E-02
 cg2d: Sum(rhs),rhsMax =  -1.67329483602430E-11  8.24791343515150E-02
 cg2d: Sum(rhs),rhsMax =  -1.67210689738795E-11  8.22493669178824E-02
 cg2d: Sum(rhs),rhsMax =  -1.66971991788500E-11  8.20035061118892E-02
 cg2d: Sum(rhs),rhsMax =  -1.66996416695042E-11  8.17418277948126E-02
 cg2d: Sum(rhs),rhsMax =  -1.66944236212885E-11  8.14645904854774E-02
 cg2d: Sum(rhs),rhsMax =  -1.66944236212885E-11  8.11720320814039E-02
 cg2d: Sum(rhs),rhsMax =  -1.67158509256637E-11  8.08643679280865E-02
 cg2d: Sum(rhs),rhsMax =  -1.67731384337344E-11  8.05417901321878E-02
 cg2d: Sum(rhs),rhsMax =  -1.68262070943115E-11  8.02044679684046E-02
 cg2d: Sum(rhs),rhsMax =  -1.67301728026814E-11  7.98525492048400E-02
 cg2d: Sum(rhs),rhsMax =  -1.67665881178891E-11  7.94861621670162E-02
 cg2d: Sum(rhs),rhsMax =  -1.67902358683136E-11  7.91054183731808E-02
 cg2d: Sum(rhs),rhsMax =  -1.68061120575658E-11  7.87104155984815E-02
 cg2d: Sum(rhs),rhsMax =  -1.68526304022976E-11  7.83012412570585E-02
 cg2d: Sum(rhs),rhsMax =  -1.68731695282531E-11  7.78779760228808E-02
 cg2d: Sum(rhs),rhsMax =  -1.69093627988559E-11  7.74406976364702E-02
 cg2d: Sum(rhs),rhsMax =  -1.69312341924410E-11  7.69894848609064E-02
 cg2d: Sum(rhs),rhsMax =  -1.67946767604121E-11  7.65244215538263E-02
 cg2d: Sum(rhs),rhsMax =  -1.68836056246846E-11  7.60456008117411E-02
 cg2d: Sum(rhs),rhsMax =  -1.69407821104528E-11  7.55531291202949E-02
 cg2d: Sum(rhs),rhsMax =  -1.69873004551846E-11  7.50471304124392E-02
 cg2d: Sum(rhs),rhsMax =  -1.70415903610888E-11  7.45277499008878E-02
 cg2d: Sum(rhs),rhsMax =  -1.71029856943505E-11  7.39951575175794E-02
 cg2d: Sum(rhs),rhsMax =  -1.71541669757858E-11  7.34495507674774E-02
 cg2d: Sum(rhs),rhsMax =  -1.72041270118939E-11  7.28911567926854E-02
 cg2d: Sum(rhs),rhsMax =  -1.72656333674581E-11  7.23202334502137E-02
 cg2d: Sum(rhs),rhsMax =  -1.73253633661830E-11  7.17370692356710E-02
 cg2d: Sum(rhs),rhsMax =  -1.73814296289265E-11  7.11419819363022E-02
 cg2d: Sum(rhs),rhsMax =  -1.74462666535646E-11  7.05353159682463E-02
 cg2d: Sum(rhs),rhsMax =  -1.75235381760785E-11  6.99174384401907E-02
 cg2d: Sum(rhs),rhsMax =  -1.75953696057718E-11  6.92887340820044E-02
 cg2d: Sum(rhs),rhsMax =  -1.76850756261615E-11  6.86495992739299E-02
 cg2d: Sum(rhs),rhsMax =  -1.77523551414538E-11  6.80004355000466E-02
 cg2d: Sum(rhs),rhsMax =  -1.78620451762868E-11  6.73416426195128E-02
 cg2d: Sum(rhs),rhsMax =  -1.79856129989275E-11  6.66736123921628E-02
 cg2d: Sum(rhs),rhsMax =  -1.81933357268349E-11  6.59967227050266E-02
 cg2d: Sum(rhs),rhsMax =  -1.82434067852455E-11  6.53113329198220E-02
 cg2d: Sum(rhs),rhsMax =  -1.83226767092037E-11  6.46177806984400E-02
 cg2d: Sum(rhs),rhsMax =  -1.83877357784468E-11  6.39163805668195E-02
 cg2d: Sum(rhs),rhsMax =  -1.85591542134489E-11  6.32074243522617E-02
 cg2d: Sum(rhs),rhsMax =  -1.87279081131919E-11  6.24911835134838E-02
 cg2d: Sum(rhs),rhsMax =  -1.89047666410147E-11  6.17679132072654E-02
 cg2d: Sum(rhs),rhsMax =  -1.90747417860848E-11  6.10378578192649E-02
 cg2d: Sum(rhs),rhsMax =  -1.92538207599569E-11  6.03012575737954E-02
 cg2d: Sum(rhs),rhsMax =  -1.94516625029451E-11  5.95583557546309E-02
 cg2d: Sum(rhs),rhsMax =  -1.96448413092298E-11  5.88094060234690E-02
 cg2d: Sum(rhs),rhsMax =  -1.98534522155569E-11  5.80546793182678E-02
 cg2d: Sum(rhs),rhsMax =  -2.00546246276190E-11  5.72944698511630E-02
 cg2d: Sum(rhs),rhsMax =  -2.02725614073529E-11  5.65290998000460E-02
 cg2d: Sum(rhs),rhsMax =  -2.05002681497035E-11  5.57589223943420E-02
 cg2d: Sum(rhs),rhsMax =  -2.07112105243823E-11  5.49843232043914E-02
 cg2d: Sum(rhs),rhsMax =  -2.09523509653309E-11  5.42057195950727E-02
 cg2d: Sum(rhs),rhsMax =  -2.12111439523710E-11  5.34235584207916E-02
 cg2d: Sum(rhs),rhsMax =  -2.14706030732259E-11  5.26383121505839E-02
 cg2d: Sum(rhs),rhsMax =  -2.17378337552532E-11  5.18504737005438E-02
 cg2d: Sum(rhs),rhsMax =  -2.20268803197143E-11  5.10605503104817E-02
 cg2d: Sum(rhs),rhsMax =  -2.23184803971321E-11  5.02690568299226E-02
 cg2d: Sum(rhs),rhsMax =  -2.26169638573026E-11  4.94765087761034E-02
 cg2d: Sum(rhs),rhsMax =  -2.29178342969760E-11  4.86834154974585E-02
 cg2d: Sum(rhs),rhsMax =  -2.32260322086120E-11  4.78902737266467E-02
 cg2d: Sum(rhs),rhsMax =  -2.35558239580769E-11  4.70975617454031E-02
 cg2d: Sum(rhs),rhsMax =  -2.38952746478560E-11  4.63057343178958E-02
 cg2d: Sum(rhs),rhsMax =  -2.42388331628263E-11  4.55152184880078E-02
 cg2d: Sum(rhs),rhsMax =  -2.46034304041132E-11  4.47264102882015E-02
 cg2d: Sum(rhs),rhsMax =  -2.49698040022395E-11  4.39396723567729E-02
 cg2d: Sum(rhs),rhsMax =  -2.53416176931864E-11  4.31553324630780E-02
 cg2d: Sum(rhs),rhsMax =  -2.57306953521663E-11  4.23736829251820E-02
 cg2d: Sum(rhs),rhsMax =  -2.61425325831510E-11  4.15949809119226E-02
 cg2d: Sum(rhs),rhsMax =  -2.65563682155801E-11  4.08194496350909E-02
 cg2d: Sum(rhs),rhsMax =  -2.69829159016410E-11  4.00472804506616E-02
 cg2d: Sum(rhs),rhsMax =  -2.74249511988955E-11  3.92786358937025E-02
 cg2d: Sum(rhs),rhsMax =  -2.78848610868465E-11  3.85136536640080E-02
 cg2d: Sum(rhs),rhsMax =  -2.83649215226944E-11  3.77524515550426E-02
 cg2d: Sum(rhs),rhsMax =  -2.88529755643196E-11  3.69951332766759E-02
 cg2d: Sum(rhs),rhsMax =  -2.93629009995300E-11  3.62417950646639E-02
 cg2d: Sum(rhs),rhsMax =  -2.99031355233126E-11  3.54925329019888E-02
 cg2d: Sum(rhs),rhsMax =  -3.04454239596907E-11  3.47474501063761E-02
 cg2d: Sum(rhs),rhsMax =  -3.10117487245520E-11  3.40066649732970E-02
 cg2d: Sum(rhs),rhsMax =  -3.16043302639457E-11  3.32703181134484E-02
 cg2d: Sum(rhs),rhsMax =  -3.22343263192693E-11  3.25385790959636E-02
 cg2d: Sum(rhs),rhsMax =  -3.28575500141426E-11  3.18116520091612E-02
 cg2d: Sum(rhs),rhsMax =  -3.35283467656211E-11  3.10897795822386E-02
 cg2d: Sum(rhs),rhsMax =  -3.42150752175030E-11  3.03732455733294E-02
 cg2d: Sum(rhs),rhsMax =  -3.49159867685245E-11  2.96623752177727E-02
 cg2d: Sum(rhs),rhsMax =  -3.57391061189816E-11  2.89575336384610E-02
 cg2d: Sum(rhs),rhsMax =  -3.65749652786462E-11  2.82591222388162E-02
 cg2d: Sum(rhs),rhsMax =  -3.74492659105385E-11  2.75675732183804E-02
 cg2d: Sum(rhs),rhsMax =  -3.83533760306420E-11  2.68833424613067E-02
 cg2d: Sum(rhs),rhsMax =  -3.76471631646780E-11  2.73888955087872E-02
 cg2d: Sum(rhs),rhsMax =  -3.68926694749305E-11  2.78937969727391E-02
 cg2d: Sum(rhs),rhsMax =  -3.62418012267440E-11  2.83921124318407E-02
 cg2d: Sum(rhs),rhsMax =  -3.54895557386214E-11  2.88838660888226E-02
 cg2d: Sum(rhs),rhsMax =  -3.47742321049616E-11  2.93690720246372E-02
 cg2d: Sum(rhs),rhsMax =  -3.40958650202339E-11  2.98477280083040E-02
 cg2d: Sum(rhs),rhsMax =  -3.34575058630326E-11  3.03198098524835E-02
 cg2d: Sum(rhs),rhsMax =  -3.28422167933384E-11  3.07852665302818E-02
 cg2d: Sum(rhs),rhsMax =  -3.22467920421676E-11  3.12440162512805E-02
 cg2d: Sum(rhs),rhsMax =  -3.16692158608411E-11  3.16959436754977E-02
 cg2d: Sum(rhs),rhsMax =  -3.11319928170128E-11  3.21408984134226E-02
 cg2d: Sum(rhs),rhsMax =  -3.06361325197457E-11  3.25786949123209E-02
 cg2d: Sum(rhs),rhsMax =  -3.01703384497642E-11  3.30091137645685E-02
 cg2d: Sum(rhs),rhsMax =  -2.96938584831707E-11  3.34319043997223E-02
 cg2d: Sum(rhs),rhsMax =  -2.92589286132738E-11  3.38467890433197E-02
 cg2d: Sum(rhs),rhsMax =  -2.88547241655834E-11  3.42534677598206E-02
 cg2d: Sum(rhs),rhsMax =  -2.84120504900898E-11  3.46516243121926E-02
 cg2d: Sum(rhs),rhsMax =  -2.80647172168358E-11  3.50409325396531E-02
 cg2d: Sum(rhs),rhsMax =  -2.76937917043085E-11  3.54210629597106E-02
 cg2d: Sum(rhs),rhsMax =  -2.73953915108649E-11  3.57916893058485E-02
 cg2d: Sum(rhs),rhsMax =  -2.70587996453742E-11  3.61524947106701E-02
 cg2d: Sum(rhs),rhsMax =  -2.67673661014101E-11  3.65031772740826E-02
 cg2d: Sum(rhs),rhsMax =  -2.64163135810236E-11  3.68434548039538E-02
 cg2d: Sum(rhs),rhsMax =  -2.61541621693340E-11  3.71730685693455E-02
 cg2d: Sum(rhs),rhsMax =  -2.58624510696137E-11  3.74917859648142E-02
 cg2d: Sum(rhs),rhsMax =  -2.54939125365894E-11  3.77994020534155E-02
 cg2d: Sum(rhs),rhsMax =  -2.52270704326207E-11  3.80957400293379E-02
 cg2d: Sum(rhs),rhsMax =  -2.48772114019857E-11  3.83806506958591E-02
 cg2d: Sum(rhs),rhsMax =  -2.45329867532007E-11  3.86540111168295E-02
 cg2d: Sum(rhs),rhsMax =  -2.42033615371895E-11  3.89157234003781E-02
 cg2d: Sum(rhs),rhsMax =  -2.39008257629791E-11  3.91657111137617E-02
 cg2d: Sum(rhs),rhsMax =  -2.35512165325247E-11  3.94039160857778E-02
 cg2d: Sum(rhs),rhsMax =  -2.33188468534706E-11  3.96302955490809E-02
 cg2d: Sum(rhs),rhsMax =  -2.30702124071058E-11  3.98448194234453E-02
 cg2d: Sum(rhs),rhsMax =  -2.28506658039862E-11  4.00474676659218E-02
 cg2d: Sum(rhs),rhsMax =  -2.26262897307095E-11  4.02382277486425E-02
 cg2d: Sum(rhs),rhsMax =  -2.24628093903334E-11  4.04170923858645E-02
 cg2d: Sum(rhs),rhsMax =  -2.23191465309469E-11  4.05840575697643E-02
 cg2d: Sum(rhs),rhsMax =  -2.21649920639777E-11  4.07391209029660E-02
 cg2d: Sum(rhs),rhsMax =  -2.19986251437376E-11  4.08822801532413E-02
 cg2d: Sum(rhs),rhsMax =  -2.19076423668696E-11  4.10135319343006E-02
 cg2d: Sum(rhs),rhsMax =  -2.18393081397039E-11  4.11328704184411E-02
 cg2d: Sum(rhs),rhsMax =  -2.17780238287446E-11  4.12402859918466E-02
 cg2d: Sum(rhs),rhsMax =  -2.17304507721394E-11  4.13357638146489E-02
 cg2d: Sum(rhs),rhsMax =  -2.17056927986903E-11  4.14192823135264E-02
 cg2d: Sum(rhs),rhsMax =  -2.16702766842047E-11  4.14908116936554E-02
 cg2d: Sum(rhs),rhsMax =  -2.16520690266009E-11  4.15503126043599E-02
 cg2d: Sum(rhs),rhsMax =  -2.16267004304882E-11  4.15977351278148E-02
 cg2d: Sum(rhs),rhsMax =  -2.15588102925324E-11  4.16330182796880E-02
 cg2d: Sum(rhs),rhsMax =  -2.15407691683822E-11  4.16560901991826E-02
 cg2d: Sum(rhs),rhsMax =  -2.15202855535779E-11  4.16668691748090E-02
 cg2d: Sum(rhs),rhsMax =  -2.15186757301922E-11  4.16652655998836E-02
 cg2d: Sum(rhs),rhsMax =  -2.15161222172355E-11  4.16511848680504E-02
 cg2d: Sum(rhs),rhsMax =  -2.15067963438287E-11  4.16245311339925E-02
 cg2d: Sum(rhs),rhsMax =  -2.15443218820610E-11  4.15852117797315E-02
 cg2d: Sum(rhs),rhsMax =  -2.15801820857564E-11  4.15331423538815E-02
 cg2d: Sum(rhs),rhsMax =  -2.16445750211847E-11  4.14682517055092E-02
 cg2d: Sum(rhs),rhsMax =  -2.16968110144933E-11  4.13904870134131E-02
 cg2d: Sum(rhs),rhsMax =  -2.17750817377294E-11  4.12998183856032E-02
 cg2d: Sum(rhs),rhsMax =  -2.18158824338843E-11  4.11962427437431E-02
 cg2d: Sum(rhs),rhsMax =  -2.19596008044221E-11  4.10797867303123E-02
 cg2d: Sum(rhs),rhsMax =  -2.20363172154237E-11  4.09505084422476E-02
 cg2d: Sum(rhs),rhsMax =  -2.21301865721557E-11  4.08084979011182E-02
 cg2d: Sum(rhs),rhsMax =  -2.22026286245125E-11  4.06538760897242E-02
 cg2d: Sum(rhs),rhsMax =  -2.22919460668436E-11  4.04867926826369E-02
 cg2d: Sum(rhs),rhsMax =  -2.24184559804996E-11  4.03074225783201E-02
 cg2d: Sum(rhs),rhsMax =  -2.25562901690068E-11  4.01159613089613E-02
 cg2d: Sum(rhs),rhsMax =  -2.26995644503347E-11  3.99126194481682E-02
 cg2d: Sum(rhs),rhsMax =  -2.28778662680895E-11  3.96976161976231E-02
 cg2d: Sum(rhs),rhsMax =  -2.30674368495443E-11  3.94711724044942E-02
 cg2d: Sum(rhs),rhsMax =  -2.32603381000729E-11  3.92335033436504E-02
 cg2d: Sum(rhs),rhsMax =  -2.34751107441866E-11  3.89848115738636E-02
 cg2d: Sum(rhs),rhsMax =  -2.37152797399887E-11  3.87252803189755E-02
 cg2d: Sum(rhs),rhsMax =  -2.39543107571905E-11  3.84550677419610E-02
 cg2d: Sum(rhs),rhsMax =  -2.42211806167347E-11  3.81743025223186E-02
 cg2d: Sum(rhs),rhsMax =  -2.44750886224665E-11  3.78830809323239E-02
 cg2d: Sum(rhs),rhsMax =  -2.47244447137973E-11  3.75814657908058E-02
 cg2d: Sum(rhs),rhsMax =  -2.50222620401530E-11  3.72694876191594E-02
 cg2d: Sum(rhs),rhsMax =  -2.52759757568555E-11  3.69471480287496E-02
 cg2d: Sum(rhs),rhsMax =  -2.55421794825850E-11  3.66144252283802E-02
 cg2d: Sum(rhs),rhsMax =  -2.58064958291726E-11  3.62712813980744E-02
 cg2d: Sum(rhs),rhsMax =  -2.61063115569726E-11  3.59176715659618E-02
 cg2d: Sum(rhs),rhsMax =  -2.64089583534854E-11  3.55535535203431E-02
 cg2d: Sum(rhs),rhsMax =  -2.67203759118928E-11  3.51788981888165E-02
 cg2d: Sum(rhs),rhsMax =  -2.70573285998665E-11  3.47936998537978E-02
 cg2d: Sum(rhs),rhsMax =  -2.74273936895497E-11  3.43979855722379E-02
 cg2d: Sum(rhs),rhsMax =  -2.77692313588318E-11  3.39918232118431E-02
 cg2d: Sum(rhs),rhsMax =  -2.81717565941975E-11  3.35753276336910E-02
 cg2d: Sum(rhs),rhsMax =  -2.85844126146628E-11  3.31486646807533E-02
 cg2d: Sum(rhs),rhsMax =  -2.89921420204564E-11  3.27120527663124E-02
 cg2d: Sum(rhs),rhsMax =  -2.94609198148166E-11  3.22657619894072E-02
 cg2d: Sum(rhs),rhsMax =  -2.99444496976164E-11  3.18101108370132E-02
 cg2d: Sum(rhs),rhsMax =  -3.04360980862839E-11  3.13454606500092E-02
 cg2d: Sum(rhs),rhsMax =  -3.09902034589804E-11  3.08722081442601E-02
 cg2d: Sum(rhs),rhsMax =  -3.15556053509525E-11  3.03907763716224E-02
 cg2d: Sum(rhs),rhsMax =  -3.21235954232457E-11  2.99016045463113E-02
 cg2d: Sum(rhs),rhsMax =  -3.27324521653960E-11  2.94051372970198E-02
 cg2d: Sum(rhs),rhsMax =  -3.33927260842692E-11  2.89018138659328E-02
 cg2d: Sum(rhs),rhsMax =  -3.40369746276714E-11  2.83920577742379E-02
 cg2d: Sum(rhs),rhsMax =  -3.47750023221849E-11  2.78762674236056E-02
 cg2d: Sum(rhs),rhsMax =  -3.54286183723573E-11  2.73548080554510E-02
 cg2d: Sum(rhs),rhsMax =  -3.61807112048140E-11  2.68280054855375E-02
 cg2d: Sum(rhs),rhsMax =  -3.69336783379026E-11  2.62961418832963E-02
 cg2d: Sum(rhs),rhsMax =  -3.77335107604182E-11  2.57594537472603E-02
 cg2d: Sum(rhs),rhsMax =  -3.69567709768148E-11  2.63358569255455E-02
 cg2d: Sum(rhs),rhsMax =  -3.60530216791943E-11  2.70190778129187E-02
 cg2d: Sum(rhs),rhsMax =  -3.51956797040032E-11  2.77104121408719E-02
 cg2d: Sum(rhs),rhsMax =  -3.43560180304792E-11  2.84094710719729E-02
 cg2d: Sum(rhs),rhsMax =  -3.36911609721824E-11  2.91158167163069E-02
 cg2d: Sum(rhs),rhsMax =  -3.30213079102748E-11  2.98289701618913E-02
 cg2d: Sum(rhs),rhsMax =  -3.22934456953305E-11  3.05484214092191E-02
 cg2d: Sum(rhs),rhsMax =  -3.15583115195750E-11  3.12736406737540E-02
 cg2d: Sum(rhs),rhsMax =  -3.09492431682656E-11  3.20040904570927E-02
 cg2d: Sum(rhs),rhsMax =  -3.03611580321217E-11  3.27392377592480E-02
 cg2d: Sum(rhs),rhsMax =  -2.97863400611220E-11  3.34785658118788E-02
 cg2d: Sum(rhs),rhsMax =  -2.92428303794168E-11  3.42215847539813E-02
 cg2d: Sum(rhs),rhsMax =  -2.87117551955873E-11  3.49678407442509E-02
 cg2d: Sum(rhs),rhsMax =  -2.81989986916642E-11  3.57169231044285E-02
 cg2d: Sum(rhs),rhsMax =  -2.77132761183907E-11  3.64684692017769E-02
 cg2d: Sum(rhs),rhsMax =  -2.72443179127890E-11  3.72221669072595E-02
 cg2d: Sum(rhs),rhsMax =  -2.67976196788311E-11  3.79777546067838E-02
 cg2d: Sum(rhs),rhsMax =  -2.63666866118228E-11  3.87350188632801E-02
 cg2d: Sum(rhs),rhsMax =  -2.59698929028218E-11  3.94937899412760E-02
 cg2d: Sum(rhs),rhsMax =  -2.55515608671431E-11  4.02539355007121E-02
 cg2d: Sum(rhs),rhsMax =  -2.51494380876238E-11  4.10153528385502E-02
 cg2d: Sum(rhs),rhsMax =  -2.47660225660695E-11  4.17779601025620E-02
 cg2d: Sum(rhs),rhsMax =  -2.44027020812609E-11  4.25416869211361E-02
 cg2d: Sum(rhs),rhsMax =  -2.40418795982578E-11  4.33064648875483E-02
 cg2d: Sum(rhs),rhsMax =  -2.37077024678456E-11  4.40722183101085E-02
 cg2d: Sum(rhs),rhsMax =  -2.33839059227137E-11  4.48388555952339E-02
 cg2d: Sum(rhs),rhsMax =  -2.30646612919827E-11  4.56062615737114E-02
 cg2d: Sum(rhs),rhsMax =  -2.27683982778615E-11  4.63742910161809E-02
 cg2d: Sum(rhs),rhsMax =  -2.24708029961107E-11  4.71427635167951E-02
 cg2d: Sum(rhs),rhsMax =  -2.21810347866835E-11  4.79114598579517E-02
 cg2d: Sum(rhs),rhsMax =  -2.19154139280420E-11  4.86801199068864E-02
 cg2d: Sum(rhs),rhsMax =  -2.16627271676373E-11  4.94484420386776E-02
 cg2d: Sum(rhs),rhsMax =  -2.14153139665996E-11  5.02160840308559E-02
 cg2d: Sum(rhs),rhsMax =  -2.11733963695337E-11  5.09826653325655E-02
 cg2d: Sum(rhs),rhsMax =  -2.09535722106580E-11  5.17477705758118E-02
 cg2d: Sum(rhs),rhsMax =  -2.06463734997442E-11  5.25109541657392E-02
 cg2d: Sum(rhs),rhsMax =  -2.03984606983454E-11  5.32717457688757E-02
 cg2d: Sum(rhs),rhsMax =  -2.01566541235820E-11  5.40296564933955E-02
 cg2d: Sum(rhs),rhsMax =  -1.99067429207389E-11  5.47841855433268E-02
 cg2d: Sum(rhs),rhsMax =  -1.96509475358653E-11  5.55348271211066E-02
 cg2d: Sum(rhs),rhsMax =  -1.96047622580409E-11  5.62810773487489E-02
 cg2d: Sum(rhs),rhsMax =  -1.94283478194279E-11  5.70224409786896E-02
 cg2d: Sum(rhs),rhsMax =  -1.92634797002711E-11  5.77584376715525E-02
 cg2d: Sum(rhs),rhsMax =  -1.90881754846828E-11  5.84886076301144E-02
 cg2d: Sum(rhs),rhsMax =  -1.89132043360019E-11  5.92125163969266E-02
 cg2d: Sum(rhs),rhsMax =  -1.87403426110677E-11  5.99297586474913E-02
 cg2d: Sum(rhs),rhsMax =  -1.85784720940774E-11  6.06399608414521E-02
 cg2d: Sum(rhs),rhsMax =  -1.84052773022358E-11  6.13427826305454E-02
 cg2d: Sum(rhs),rhsMax =  -1.82620585320592E-11  6.20379169632979E-02
 cg2d: Sum(rhs),rhsMax =  -1.81145098920865E-11  6.27250888698885E-02
 cg2d: Sum(rhs),rhsMax =  -1.80545578487568E-11  6.34040529692537E-02
 cg2d: Sum(rhs),rhsMax =  -1.80108150615865E-11  6.40745897749555E-02
 cg2d: Sum(rhs),rhsMax =  -1.79560810664725E-11  6.47365009335654E-02
 cg2d: Sum(rhs),rhsMax =  -1.78882464396679E-11  6.53896035838239E-02
 cg2d: Sum(rhs),rhsMax =  -1.78262959948938E-11  6.60337240610168E-02
 cg2d: Sum(rhs),rhsMax =  -1.77516890076390E-11  6.66686912204220E-02
 cg2d: Sum(rhs),rhsMax =  -1.77068359974442E-11  6.72943296798270E-02
 cg2d: Sum(rhs),rhsMax =  -1.76714198829586E-11  6.79104533102792E-02
 cg2d: Sum(rhs),rhsMax =  -1.76256786943441E-11  6.85168593038642E-02
 cg2d: Sum(rhs),rhsMax =  -1.75818248848714E-11  6.91133231473841E-02
 cg2d: Sum(rhs),rhsMax =  -1.75507386401819E-11  6.96995948079362E-02
 cg2d: Sum(rhs),rhsMax =  -1.74918968198767E-11  7.02753963941386E-02
 cg2d: Sum(rhs),rhsMax =  -1.74299463751026E-11  7.08404214946910E-02
 cg2d: Sum(rhs),rhsMax =  -1.73838721195807E-11  7.13943363153483E-02
 cg2d: Sum(rhs),rhsMax =  -1.73494552058173E-11  7.19367826392325E-02
 cg2d: Sum(rhs),rhsMax =  -1.72960534783329E-11  7.24673825286645E-02
 cg2d: Sum(rhs),rhsMax =  -1.72617475868719E-11  7.29857445762331E-02
 cg2d: Sum(rhs),rhsMax =  -1.72369896134228E-11  7.34914714070650E-02
 cg2d: Sum(rhs),rhsMax =  -1.71919145586230E-11  7.39841680417539E-02
 cg2d: Sum(rhs),rhsMax =  -1.71516134628291E-11  7.44634506620277E-02
 cg2d: Sum(rhs),rhsMax =  -1.71340719390400E-11  7.49289552845850E-02
 cg2d: Sum(rhs),rhsMax =  -1.71247460656332E-11  7.53803458412001E-02
 cg2d: Sum(rhs),rhsMax =  -1.71016534267210E-11  7.58173212020879E-02
 cg2d: Sum(rhs),rhsMax =  -1.70875535943082E-11  7.62396207511312E-02
 cg2d: Sum(rhs),rhsMax =  -1.70584657510631E-11  7.66470282229313E-02
 cg2d: Sum(rhs),rhsMax =  -1.70669034460502E-11  7.70393736335743E-02
 cg2d: Sum(rhs),rhsMax =  -1.70414793387863E-11  7.74165332680441E-02
 cg2d: Sum(rhs),rhsMax =  -1.70528036136375E-11  7.77784278148565E-02
 cg2d: Sum(rhs),rhsMax =  -1.71066494303318E-11  7.81250188508008E-02
 cg2d: Sum(rhs),rhsMax =  -1.71561653772301E-11  7.84563039657952E-02
 cg2d: Sum(rhs),rhsMax =  -1.71940239823698E-11  7.87723108733069E-02
 cg2d: Sum(rhs),rhsMax =  -1.72168945766771E-11  7.90730908731750E-02
 cg2d: Sum(rhs),rhsMax =  -1.72363234796080E-11  7.93587120228258E-02
 cg2d: Sum(rhs),rhsMax =  -1.72608594084522E-11  7.96292523353955E-02
 cg2d: Sum(rhs),rhsMax =  -1.72719616386985E-11  7.98847932674958E-02
 cg2d: Sum(rhs),rhsMax =  -1.72913905416294E-11  8.01254136949658E-02
 cg2d: Sum(rhs),rhsMax =  -1.73225878086214E-11  8.03511845115586E-02
 cg2d: Sum(rhs),rhsMax =  -1.73370207079415E-11  8.05621639311787E-02
 cg2d: Sum(rhs),rhsMax =  -1.73716596663098E-11  8.07583935345834E-02
 cg2d: Sum(rhs),rhsMax =  -1.73793202051797E-11  8.09398950787145E-02
 cg2d: Sum(rhs),rhsMax =  -1.74177339218318E-11  8.11066680801697E-02
 cg2d: Sum(rhs),rhsMax =  -1.74158465426899E-11  8.12586881900091E-02
 cg2d: Sum(rhs),rhsMax =  -1.74389391816021E-11  8.13959063893825E-02
 cg2d: Sum(rhs),rhsMax =  -1.74593672852552E-11  8.15182490476630E-02
 cg2d: Sum(rhs),rhsMax =  -1.74679160025448E-11  8.16256188903977E-02
 cg2d: Sum(rhs),rhsMax =  -1.74739112068778E-11  8.17178969182378E-02
 cg2d: Sum(rhs),rhsMax =  -1.74893433069201E-11  8.17949452969598E-02
 cg2d: Sum(rhs),rhsMax =  -1.74995573587466E-11  8.18566112022354E-02
 cg2d: Sum(rhs),rhsMax =  -1.75401915214479E-11  8.19027315530981E-02
 cg2d: Sum(rhs),rhsMax =  -1.75429670790095E-11  8.19331385096580E-02
 cg2d: Sum(rhs),rhsMax =  -1.75450765027563E-11  8.19476655498593E-02
 cg2d: Sum(rhs),rhsMax =  -1.76259007389490E-11  8.19461538842334E-02
 cg2d: Sum(rhs),rhsMax =  -1.76447745303676E-11  8.19284589238816E-02
 cg2d: Sum(rhs),rhsMax =  -1.76882952729329E-11  8.18944564919033E-02
 cg2d: Sum(rhs),rhsMax =  -1.77442505133740E-11  8.18440484647658E-02
 cg2d: Sum(rhs),rhsMax =  -1.77113879118451E-11  8.17771675532700E-02
 cg2d: Sum(rhs),rhsMax =  -1.76311187871647E-11  8.16937809800822E-02
 cg2d: Sum(rhs),rhsMax =  -1.75884862230191E-11  8.15938928757032E-02
 cg2d: Sum(rhs),rhsMax =  -1.75610637143109E-11  8.14775452976105E-02
 cg2d: Sum(rhs),rhsMax =  -1.75168768379308E-11  8.13448178664867E-02
 cg2d: Sum(rhs),rhsMax =  -1.74972258903949E-11  8.11958261009029E-02
 cg2d: Sum(rhs),rhsMax =  -1.74618097759094E-11  8.10307186140524E-02
 cg2d: Sum(rhs),rhsMax =  -1.74505965233607E-11  8.08496733980886E-02
 cg2d: Sum(rhs),rhsMax =  -1.74614767090020E-11  8.06528934639584E-02
 cg2d: Sum(rhs),rhsMax =  -1.74591452406503E-11  8.04406021229951E-02
 cg2d: Sum(rhs),rhsMax =  -1.74640302219586E-11  8.02130381907109E-02
 cg2d: Sum(rhs),rhsMax =  -1.74682490694522E-11  7.99704513686910E-02
 cg2d: Sum(rhs),rhsMax =  -1.74800174335132E-11  7.97130980014434E-02
 cg2d: Sum(rhs),rhsMax =  -1.74914527306669E-11  7.94412373668890E-02
 cg2d: Sum(rhs),rhsMax =  -1.74755765414147E-11  7.91551285881353E-02
 cg2d: Sum(rhs),rhsMax =  -1.74678049802424E-11  7.88550281935847E-02
 cg2d: Sum(rhs),rhsMax =  -1.74694703147793E-11  7.85411882993103E-02
 cg2d: Sum(rhs),rhsMax =  -1.74588121737429E-11  7.82138553463983E-02
 cg2d: Sum(rhs),rhsMax =  -1.74645853334709E-11  7.78732692990142E-02
 cg2d: Sum(rhs),rhsMax =  -1.74904535299447E-11  7.75196631970011E-02
 cg2d: Sum(rhs),rhsMax =  -1.75274239566647E-11  7.71532629590199E-02
 cg2d: Sum(rhs),rhsMax =  -1.75707226546251E-11  7.67742873464286E-02
 cg2d: Sum(rhs),rhsMax =  -1.76023640108269E-11  7.63829480211046E-02
 cg2d: Sum(rhs),rhsMax =  -1.76603176527124E-11  7.59794496586072E-02
 cg2d: Sum(rhs),rhsMax =  -1.77359238406893E-11  7.55639901076775E-02
 cg2d: Sum(rhs),rhsMax =  -1.78032033559816E-11  7.51367606146338E-02
 cg2d: Sum(rhs),rhsMax =  -1.79151138368638E-11  7.46979461538392E-02
 cg2d: Sum(rhs),rhsMax =  -1.81451520475662E-11  7.42477259208926E-02
 cg2d: Sum(rhs),rhsMax =  -1.82610593313370E-11  7.37862740520934E-02
 cg2d: Sum(rhs),rhsMax =  -1.83478787718627E-11  7.33137606313237E-02
 cg2d: Sum(rhs),rhsMax =  -1.84319226548268E-11  7.28303530337599E-02
 cg2d: Sum(rhs),rhsMax =  -1.85081949766186E-11  7.23362176353789E-02
 cg2d: Sum(rhs),rhsMax =  -1.86053394912733E-11  7.18315218893084E-02
 cg2d: Sum(rhs),rhsMax =  -1.86912707533793E-11  7.13164367365951E-02
 cg2d: Sum(rhs),rhsMax =  -1.87831972198182E-11  7.07911392824426E-02
 cg2d: Sum(rhs),rhsMax =  -1.89028792618728E-11  7.02558156325036E-02
 cg2d: Sum(rhs),rhsMax =  -1.90080173823048E-11  6.97106637509272E-02
 cg2d: Sum(rhs),rhsMax =  -1.91409110783525E-11  6.91558961762578E-02
 cg2d: Sum(rhs),rhsMax =  -1.92705851276287E-11  6.85917424165078E-02
 cg2d: Sum(rhs),rhsMax =  -1.93985938423680E-11  6.80184508437473E-02
 cg2d: Sum(rhs),rhsMax =  -1.95571336902844E-11  6.74362899233639E-02
 cg2d: Sum(rhs),rhsMax =  -1.97245553223979E-11  6.68455486443165E-02
 cg2d: Sum(rhs),rhsMax =  -1.98889793523449E-11  6.62465360632321E-02
 cg2d: Sum(rhs),rhsMax =  -2.00306438102871E-11  6.56395799342689E-02
 cg2d: Sum(rhs),rhsMax =  -2.01512140307614E-11  6.50250244639521E-02
 cg2d: Sum(rhs),rhsMax =  -2.03060901426966E-11  6.44032272999995E-02
 cg2d: Sum(rhs),rhsMax =  -2.04342098797383E-11  6.37745559291524E-02
 cg2d: Sum(rhs),rhsMax =  -2.05586658807988E-11  6.31393837146906E-02
 cg2d: Sum(rhs),rhsMax =  -2.07417416575595E-11  6.24980858437783E-02
 cg2d: Sum(rhs),rhsMax =  -2.08504324916703E-11  6.18510354733797E-02
 cg2d: Sum(rhs),rhsMax =  -2.10216288820675E-11  6.11986003582913E-02
 cg2d: Sum(rhs),rhsMax =  -2.11909378933228E-11  6.05411402150479E-02
 cg2d: Sum(rhs),rhsMax =  -2.13890016809160E-11  5.98790050225041E-02
 cg2d: Sum(rhs),rhsMax =  -2.15826245764106E-11  5.92125343873613E-02
 cg2d: Sum(rhs),rhsMax =  -2.17738049812510E-11  5.85420580176263E-02
 cg2d: Sum(rhs),rhsMax =  -2.19803064638313E-11  5.78678972471736E-02
 cg2d: Sum(rhs),rhsMax =  -2.21879181694362E-11  5.71903674692519E-02
 cg2d: Sum(rhs),rhsMax =  -2.23949747635288E-11  5.65097812497340E-02
 cg2d: Sum(rhs),rhsMax =  -2.25968133094057E-11  5.58264518158873E-02
 cg2d: Sum(rhs),rhsMax =  -2.28157492898617E-11  5.51406965719307E-02
 cg2d: Sum(rhs),rhsMax =  -2.30433450099099E-11  5.44528402711649E-02
 cg2d: Sum(rhs),rhsMax =  -2.32640573472054E-11  5.37632174823664E-02
 cg2d: Sum(rhs),rhsMax =  -2.35070851672958E-11  5.30721740259034E-02
 cg2d: Sum(rhs),rhsMax =  -2.37626585075645E-11  5.23800671211687E-02
 cg2d: Sum(rhs),rhsMax =  -2.40060193945624E-11  5.16872640775745E-02
 cg2d: Sum(rhs),rhsMax =  -2.42528219729365E-11  5.09941394705665E-02
 cg2d: Sum(rhs),rhsMax =  -2.45112263819180E-11  5.03010708640490E-02
 cg2d: Sum(rhs),rhsMax =  -2.47679099452114E-11  4.96084332621140E-02
 cg2d: Sum(rhs),rhsMax =  -2.50260367984367E-11  4.89165925861261E-02
 cg2d: Sum(rhs),rhsMax =  -2.52723952876011E-11  4.82258985682119E-02
 cg2d: Sum(rhs),rhsMax =  -2.55757637290799E-11  4.75366775201586E-02
 cg2d: Sum(rhs),rhsMax =  -2.60544918972982E-11  4.68492254705943E-02
 cg2d: Sum(rhs),rhsMax =  -2.65575339497559E-11  4.61638021587294E-02
(PID.TID 0000.0001)      cg2d_init_res =   8.44881941870525E-02
(PID.TID 0000.0001)      cg2d_iters(min,last) =      -1      35
(PID.TID 0000.0001)      cg2d_last_res =   5.56662947040271E-14
(PID.TID 0000.0001) // =======================================================
(PID.TID 0000.0001) // Begin MONITOR dynamic field statistics
(PID.TID 0000.0001) // =======================================================
(PID.TID 0000.0001) %MON time_tsnumber                =                  7200
(PID.TID 0000.0001) %MON time_secondsf                =   1.0800000000000E+05
(PID.TID 0000.0001) %MON dynstat_eta_max              =   7.5757835187717E-03
(PID.TID 0000.0001) %MON dynstat_eta_min              =  -4.1945309183996E-03
(PID.TID 0000.0001) %MON dynstat_eta_mean             =   2.5396983698620E-15
(PID.TID 0000.0001) %MON dynstat_eta_sd               =   2.4786768597220E-03
(PID.TID 0000.0001) %MON dynstat_eta_del2             =   1.7185612783729E-05
(PID.TID 0000.0001) %MON dynstat_uvel_max             =   6.3716897009048E-01
(PID.TID 0000.0001) %MON dynstat_uvel_min             =  -1.1521642878770E-01
(PID.TID 0000.0001) %MON dynstat_uvel_mean            =   1.0878200609178E-01
(PID.TID 0000.0001) %MON dynstat_uvel_sd              =   8.2780235750802E-02
(PID.TID 0000.0001) %MON dynstat_uvel_del2            =   1.8848925880688E-04
(PID.TID 0000.0001) %MON dynstat_vvel_max             =   0.0000000000000E+00
(PID.TID 0000.0001) %MON dynstat_vvel_min             =   0.0000000000000E+00
(PID.TID 0000.0001) %MON dynstat_vvel_mean            =   0.0000000000000E+00
(PID.TID 0000.0001) %MON dynstat_vvel_sd              =   0.0000000000000E+00
(PID.TID 0000.0001) %MON dynstat_vvel_del2            =   0.0000000000000E+00
(PID.TID 0000.0001) %MON dynstat_wvel_max             =   3.6920379887544E-03
(PID.TID 0000.0001) %MON dynstat_wvel_min             =  -1.2121119174106E-02
(PID.TID 0000.0001) %MON dynstat_wvel_mean            =  -1.3379884894653E-20
(PID.TID 0000.0001) %MON dynstat_wvel_sd              =   5.6587082666668E-04
(PID.TID 0000.0001) %MON dynstat_wvel_del2            =   9.9251922158430E-06
(PID.TID 0000.0001) %MON dynstat_theta_max            =   1.5000000000014E+01
(PID.TID 0000.0001) %MON dynstat_theta_min            =   9.9999999999880E+00
(PID.TID 0000.0001) %MON dynstat_theta_mean           =   1.2511006195030E+01
(PID.TID 0000.0001) %MON dynstat_theta_sd             =   2.4295632755805E+00
(PID.TID 0000.0001) %MON dynstat_theta_del2           =   9.3849489415214E-04
(PID.TID 0000.0001) %MON dynstat_salt_max             =   3.5000000000000E+01
(PID.TID 0000.0001) %MON dynstat_salt_min             =   3.5000000000000E+01
(PID.TID 0000.0001) %MON dynstat_salt_mean            =   3.5000000000000E+01
(PID.TID 0000.0001) %MON dynstat_salt_sd              =   3.9790393202566E-13
(PID.TID 0000.0001) %MON dynstat_salt_del2            =   0.0000000000000E+00
(PID.TID 0000.0001) %MON dynstat_sst_max              =   1.5000000000000E+01
(PID.TID 0000.0001) %MON dynstat_sst_min              =   1.4999999999996E+01
(PID.TID 0000.0001) %MON dynstat_sst_mean             =   1.4999999999999E+01
(PID.TID 0000.0001) %MON dynstat_sst_sd               =   9.5749940896166E-13
(PID.TID 0000.0001) %MON dynstat_sst_del2             =   1.4037991204241E-14
(PID.TID 0000.0001) %MON dynstat_sss_max              =   3.5000000000000E+01
(PID.TID 0000.0001) %MON dynstat_sss_min              =   3.5000000000000E+01
(PID.TID 0000.0001) %MON dynstat_sss_mean             =   3.5000000000000E+01
(PID.TID 0000.0001) %MON dynstat_sss_sd               =   5.6843418860808E-14
(PID.TID 0000.0001) %MON dynstat_sss_del2             =   0.0000000000000E+00
(PID.TID 0000.0001) %MON forcing_qnet_max             =   0.0000000000000E+00
(PID.TID 0000.0001) %MON forcing_qnet_min             =   0.0000000000000E+00
(PID.TID 0000.0001) %MON forcing_qnet_mean            =   0.0000000000000E+00
(PID.TID 0000.0001) %MON forcing_qnet_sd              =   0.0000000000000E+00
(PID.TID 0000.0001) %MON forcing_qnet_del2            =   0.0000000000000E+00
(PID.TID 0000.0001) %MON forcing_qsw_max              =   0.0000000000000E+00
(PID.TID 0000.0001) %MON forcing_qsw_min              =   0.0000000000000E+00
(PID.TID 0000.0001) %MON forcing_qsw_mean             =   0.0000000000000E+00
(PID.TID 0000.0001) %MON forcing_qsw_sd               =   0.0000000000000E+00
(PID.TID 0000.0001) %MON forcing_qsw_del2             =   0.0000000000000E+00
(PID.TID 0000.0001) %MON forcing_empmr_max            =   0.0000000000000E+00
(PID.TID 0000.0001) %MON forcing_empmr_min            =   0.0000000000000E+00
(PID.TID 0000.0001) %MON forcing_empmr_mean           =   0.0000000000000E+00
(PID.TID 0000.0001) %MON forcing_empmr_sd             =   0.0000000000000E+00
(PID.TID 0000.0001) %MON forcing_empmr_del2           =   0.0000000000000E+00
(PID.TID 0000.0001) %MON forcing_fu_max               =   0.0000000000000E+00
(PID.TID 0000.0001) %MON forcing_fu_min               =   0.0000000000000E+00
(PID.TID 0000.0001) %MON forcing_fu_mean              =   0.0000000000000E+00
(PID.TID 0000.0001) %MON forcing_fu_sd                =   0.0000000000000E+00
(PID.TID 0000.0001) %MON forcing_fu_del2              =   0.0000000000000E+00
(PID.TID 0000.0001) %MON forcing_fv_max               =   0.0000000000000E+00
(PID.TID 0000.0001) %MON forcing_fv_min               =   0.0000000000000E+00
(PID.TID 0000.0001) %MON forcing_fv_mean              =   0.0000000000000E+00
(PID.TID 0000.0001) %MON forcing_fv_sd                =   0.0000000000000E+00
(PID.TID 0000.0001) %MON forcing_fv_del2              =   0.0000000000000E+00
(PID.TID 0000.0001) %MON advcfl_uvel_max              =   4.7787672756786E-02
(PID.TID 0000.0001) %MON advcfl_vvel_max              =   0.0000000000000E+00
(PID.TID 0000.0001) %MON advcfl_wvel_max              =   1.6592053024783E-01
(PID.TID 0000.0001) %MON advcfl_W_hf_max              =   1.6814262662799E-01
(PID.TID 0000.0001) %MON pe_b_mean                    =   1.5473081262397E-07
(PID.TID 0000.0001) %MON ke_max                       =   1.5754922515417E-01
(PID.TID 0000.0001) %MON ke_mean                      =   9.3799940403566E-03
(PID.TID 0000.0001) %MON ke_vol                       =   9.5121673331316E+10
(PID.TID 0000.0001) %MON vort_r_min                   =   0.0000000000000E+00
(PID.TID 0000.0001) %MON vort_r_max                   =   0.0000000000000E+00
(PID.TID 0000.0001) %MON vort_a_mean                  =   0.0000000000000E+00
(PID.TID 0000.0001) %MON vort_a_sd                    =   0.0000000000000E+00
(PID.TID 0000.0001) %MON vort_p_mean                  =   0.0000000000000E+00
(PID.TID 0000.0001) %MON vort_p_sd                    =   0.0000000000000E+00
(PID.TID 0000.0001) %MON surfExpan_theta_mean         =  -3.3044465048979E-18
(PID.TID 0000.0001) %MON surfExpan_salt_mean          =  -1.1121897295296E-18
(PID.TID 0000.0001) // =======================================================
(PID.TID 0000.0001) // End MONITOR dynamic field statistics
(PID.TID 0000.0001) // =======================================================
(PID.TID 0000.0001) // =======================================================
(PID.TID 0000.0001) // Begin OBCS MONITOR field statistics
(PID.TID 0000.0001) // =======================================================
(PID.TID 0000.0001) %MON obc_E_uVel_max               =   1.0505355776936E-01
(PID.TID 0000.0001) %MON obc_E_uVel_min               =   1.0505355776936E-01
(PID.TID 0000.0001) %MON obc_E_uVel_mean              =   1.0505355776936E-01
(PID.TID 0000.0001) %MON obc_E_uVel_sd                =  -6.9388939039072E-18
(PID.TID 0000.0001) %MON obc_E_uVel_Int               =   1.0505355776936E+05
(PID.TID 0000.0001) %MON obc_W_uVel_max               =   1.0505355776936E-01
(PID.TID 0000.0001) %MON obc_W_uVel_min               =   1.0505355776936E-01
(PID.TID 0000.0001) %MON obc_W_uVel_mean              =   1.0505355776936E-01
(PID.TID 0000.0001) %MON obc_W_uVel_sd                =  -6.9388939039072E-18
(PID.TID 0000.0001) %MON obc_W_uVel_Int               =   1.0505355776936E+05
(PID.TID 0000.0001) // =======================================================
(PID.TID 0000.0001) // End OBCS MONITOR field statistics
(PID.TID 0000.0001) // =======================================================
(PID.TID 0000.0001) %CHECKPOINT      7200 0000007200
(PID.TID 0000.0001)   Seconds in section "ALL                    [THE_MODEL_MAIN]":
(PID.TID 0000.0001)           User time:   308.51999999999998
(PID.TID 0000.0001)         System time:  0.39000000000000001
(PID.TID 0000.0001)     Wall clock time:   310.73694205284119
(PID.TID 0000.0001)          No. starts:           1
(PID.TID 0000.0001)           No. stops:           1
(PID.TID 0000.0001)   Seconds in section "INITIALISE_FIXED       [THE_MODEL_MAIN]":
(PID.TID 0000.0001)           User time:   4.0000000000000001E-002
(PID.TID 0000.0001)         System time:   0.0000000000000000
(PID.TID 0000.0001)     Wall clock time:   7.8119993209838867E-002
(PID.TID 0000.0001)          No. starts:           1
(PID.TID 0000.0001)           No. stops:           1
(PID.TID 0000.0001)   Seconds in section "THE_MAIN_LOOP          [THE_MODEL_MAIN]":
(PID.TID 0000.0001)           User time:   308.47999999999996
(PID.TID 0000.0001)         System time:  0.39000000000000001
(PID.TID 0000.0001)     Wall clock time:   310.65878987312317
(PID.TID 0000.0001)          No. starts:           1
(PID.TID 0000.0001)           No. stops:           1
(PID.TID 0000.0001)   Seconds in section "INITIALISE_VARIA    [THE_MAIN_LOOP]":
(PID.TID 0000.0001)           User time:   1.9999999999999997E-002
(PID.TID 0000.0001)         System time:   0.0000000000000000
(PID.TID 0000.0001)     Wall clock time:   3.8569927215576172E-002
(PID.TID 0000.0001)          No. starts:           1
(PID.TID 0000.0001)           No. stops:           1
(PID.TID 0000.0001)   Seconds in section "MAIN LOOP           [THE_MAIN_LOOP]":
(PID.TID 0000.0001)           User time:   308.45999999999998
(PID.TID 0000.0001)         System time:  0.39000000000000001
(PID.TID 0000.0001)     Wall clock time:   310.62018704414368
(PID.TID 0000.0001)          No. starts:           1
(PID.TID 0000.0001)           No. stops:           1
(PID.TID 0000.0001)   Seconds in section "MAIN_DO_LOOP        [THE_MAIN_LOOP]":
(PID.TID 0000.0001)           User time:   308.40000000000379
(PID.TID 0000.0001)         System time:  0.39000000000000046
(PID.TID 0000.0001)     Wall clock time:   310.55383419990540
(PID.TID 0000.0001)          No. starts:        7200
(PID.TID 0000.0001)           No. stops:        7200
(PID.TID 0000.0001)   Seconds in section "FORWARD_STEP        [MAIN_DO_LOOP]":
(PID.TID 0000.0001)           User time:   308.28000000000389
(PID.TID 0000.0001)         System time:  0.39000000000000046
(PID.TID 0000.0001)     Wall clock time:   310.41782450675964
(PID.TID 0000.0001)          No. starts:        7200
(PID.TID 0000.0001)           No. stops:        7200
(PID.TID 0000.0001)   Seconds in section "LOAD_FIELDS_DRIVER  [FORWARD_STEP]":
(PID.TID 0000.0001)           User time:  0.15000000000009095
(PID.TID 0000.0001)         System time:   0.0000000000000000
(PID.TID 0000.0001)     Wall clock time:  0.20439767837524414
(PID.TID 0000.0001)          No. starts:        7200
(PID.TID 0000.0001)           No. stops:        7200
(PID.TID 0000.0001)   Seconds in section "EXTERNAL_FLDS_LOAD [LOAD_FLDS_DRIVER]":
(PID.TID 0000.0001)           User time:   8.0000000000040927E-002
(PID.TID 0000.0001)         System time:   0.0000000000000000
(PID.TID 0000.0001)     Wall clock time:   6.8207979202270508E-002
(PID.TID 0000.0001)          No. starts:        7200
(PID.TID 0000.0001)           No. stops:        7200
(PID.TID 0000.0001)   Seconds in section "DO_ATMOSPHERIC_PHYS [FORWARD_STEP]":
(PID.TID 0000.0001)           User time:   6.9999999999993179E-002
(PID.TID 0000.0001)         System time:   0.0000000000000000
(PID.TID 0000.0001)     Wall clock time:   6.8201780319213867E-002
(PID.TID 0000.0001)          No. starts:        7200
(PID.TID 0000.0001)           No. stops:        7200
(PID.TID 0000.0001)   Seconds in section "DO_OCEANIC_PHYS     [FORWARD_STEP]":
(PID.TID 0000.0001)           User time:   117.60999999999825
(PID.TID 0000.0001)         System time:  0.14000000000000001
(PID.TID 0000.0001)     Wall clock time:   118.85660314559937
(PID.TID 0000.0001)          No. starts:        7200
(PID.TID 0000.0001)           No. stops:        7200
(PID.TID 0000.0001)   Seconds in section "DYNAMICS            [FORWARD_STEP]":
(PID.TID 0000.0001)           User time:   91.179999999996369
(PID.TID 0000.0001)         System time:   4.0000000000000036E-002
(PID.TID 0000.0001)     Wall clock time:   90.705980777740479
(PID.TID 0000.0001)          No. starts:        7200
(PID.TID 0000.0001)           No. stops:        7200
(PID.TID 0000.0001)   Seconds in section "SOLVE_FOR_PRESSURE  [FORWARD_STEP]":
(PID.TID 0000.0001)           User time:   3.3399999999993497
(PID.TID 0000.0001)         System time:   1.0000000000000009E-002
(PID.TID 0000.0001)     Wall clock time:   3.3089501857757568
(PID.TID 0000.0001)          No. starts:        7200
(PID.TID 0000.0001)           No. stops:        7200
(PID.TID 0000.0001)   Seconds in section "MOM_CORRECTION_STEP [FORWARD_STEP]":
(PID.TID 0000.0001)           User time:   3.3899999999996453
(PID.TID 0000.0001)         System time:   1.0000000000000009E-002
(PID.TID 0000.0001)     Wall clock time:   3.2883300781250000
(PID.TID 0000.0001)          No. starts:        7200
(PID.TID 0000.0001)           No. stops:        7200
(PID.TID 0000.0001)   Seconds in section "INTEGR_CONTINUITY   [FORWARD_STEP]":
(PID.TID 0000.0001)           User time:   1.5399999999999636
(PID.TID 0000.0001)         System time:   0.0000000000000000
(PID.TID 0000.0001)     Wall clock time:   1.6404552459716797
(PID.TID 0000.0001)          No. starts:        7200
(PID.TID 0000.0001)           No. stops:        7200
(PID.TID 0000.0001)   Seconds in section "BLOCKING_EXCHANGES  [FORWARD_STEP]":
(PID.TID 0000.0001)           User time:   8.8299999999936176
(PID.TID 0000.0001)         System time:   0.0000000000000000
(PID.TID 0000.0001)     Wall clock time:   8.6964042186737061
(PID.TID 0000.0001)          No. starts:       14400
(PID.TID 0000.0001)           No. stops:       14400
(PID.TID 0000.0001)   Seconds in section "THERMODYNAMICS      [FORWARD_STEP]":
(PID.TID 0000.0001)           User time:   80.459999999995603
(PID.TID 0000.0001)         System time:  0.11000000000000004
(PID.TID 0000.0001)     Wall clock time:   80.451801538467407
(PID.TID 0000.0001)          No. starts:        7200
(PID.TID 0000.0001)           No. stops:        7200
(PID.TID 0000.0001)   Seconds in section "TRC_CORRECTION_STEP [FORWARD_STEP]":
(PID.TID 0000.0001)           User time:   6.9999999999936335E-002
(PID.TID 0000.0001)         System time:   0.0000000000000000
(PID.TID 0000.0001)     Wall clock time:   6.9044589996337891E-002
(PID.TID 0000.0001)          No. starts:        7200
(PID.TID 0000.0001)           No. stops:        7200
(PID.TID 0000.0001)   Seconds in section "MONITOR             [FORWARD_STEP]":
(PID.TID 0000.0001)           User time:  0.12999999999999545
(PID.TID 0000.0001)         System time:   0.0000000000000000
(PID.TID 0000.0001)     Wall clock time:  0.11917066574096680
(PID.TID 0000.0001)          No. starts:        7200
(PID.TID 0000.0001)           No. stops:        7200
(PID.TID 0000.0001)   Seconds in section "DO_THE_MODEL_IO     [FORWARD_STEP]":
(PID.TID 0000.0001)           User time:  0.27999999999991587
(PID.TID 0000.0001)         System time:   7.0000000000000062E-002
(PID.TID 0000.0001)     Wall clock time:   1.7398366928100586
(PID.TID 0000.0001)          No. starts:        7200
(PID.TID 0000.0001)           No. stops:        7200
(PID.TID 0000.0001)   Seconds in section "DO_WRITE_PICKUP     [FORWARD_STEP]":
(PID.TID 0000.0001)           User time:  0.12999999999999545
(PID.TID 0000.0001)         System time:   1.0000000000000009E-002
(PID.TID 0000.0001)     Wall clock time:  0.23059916496276855
(PID.TID 0000.0001)          No. starts:        7200
(PID.TID 0000.0001)           No. stops:        7200
(PID.TID 0000.0001) // ======================================================
(PID.TID 0000.0001) // Tile <-> Tile communication statistics
(PID.TID 0000.0001) // ======================================================
(PID.TID 0000.0001) // o Tile number: 000001
(PID.TID 0000.0001) //         No. X exchanges =              0
(PID.TID 0000.0001) //            Max. X spins =              0
(PID.TID 0000.0001) //            Min. X spins =     1000000000
(PID.TID 0000.0001) //          Total. X spins =              0
(PID.TID 0000.0001) //            Avg. X spins =       0.00E+00
(PID.TID 0000.0001) //         No. Y exchanges =              0
(PID.TID 0000.0001) //            Max. Y spins =              0
(PID.TID 0000.0001) //            Min. Y spins =     1000000000
(PID.TID 0000.0001) //          Total. Y spins =              0
(PID.TID 0000.0001) //            Avg. Y spins =       0.00E+00
(PID.TID 0000.0001) // o Thread number: 000001
(PID.TID 0000.0001) //            No. barriers =        1630242
(PID.TID 0000.0001) //      Max. barrier spins =              1
(PID.TID 0000.0001) //      Min. barrier spins =              1
(PID.TID 0000.0001) //     Total barrier spins =        1630242
(PID.TID 0000.0001) //      Avg. barrier spins =       1.00E+00
PROGRAM MAIN: Execution ended Normally
