(PID.TID 0000.0001) 
(PID.TID 0000.0001) // ======================================================
(PID.TID 0000.0001) //                      MITgcm UV
(PID.TID 0000.0001) //                      =========
(PID.TID 0000.0001) // ======================================================
(PID.TID 0000.0001) // execution environment starting up...
(PID.TID 0000.0001) 
(PID.TID 0000.0001) // MITgcmUV version:  checkpoint65d
(PID.TID 0000.0001) // Build user:        hugke729
(PID.TID 0000.0001) // Build host:        hugke729
(PID.TID 0000.0001) // Build date:        Mon Apr 10 14:21:54 PDT 2017
(PID.TID 0000.0001) 
(PID.TID 0000.0001) // =======================================================
(PID.TID 0000.0001) // Execution Environment parameter file "eedata"
(PID.TID 0000.0001) // =======================================================
(PID.TID 0000.0001) ># Example "eedata" file
(PID.TID 0000.0001) ># Lines beginning "#" are comments
(PID.TID 0000.0001) ># nTx - No. threads per process in X
(PID.TID 0000.0001) ># nTy - No. threads per process in Y
(PID.TID 0000.0001) > &EEPARMS
(PID.TID 0000.0001) > /
(PID.TID 0000.0001) ># Note: Some systems use & as the
(PID.TID 0000.0001) ># namelist terminator. Other systems
(PID.TID 0000.0001) ># use a / character (as shown here).
(PID.TID 0000.0001) 
(PID.TID 0000.0001) // =======================================================
(PID.TID 0000.0001) // Computational Grid Specification ( see files "SIZE.h" )
(PID.TID 0000.0001) //                                  ( and "eedata"       )
(PID.TID 0000.0001) // =======================================================
(PID.TID 0000.0001)      nPx =    1 ; /* No. processes in X */
(PID.TID 0000.0001)      nPy =    1 ; /* No. processes in Y */
(PID.TID 0000.0001)      nSx =    1 ; /* No. tiles in X per process */
(PID.TID 0000.0001)      nSy =    1 ; /* No. tiles in Y per process */
(PID.TID 0000.0001)      sNx =  200 ; /* Tile size in X */
(PID.TID 0000.0001)      sNy =    1 ; /* Tile size in Y */
(PID.TID 0000.0001)      OLx =    2 ; /* Tile overlap distance in X */
(PID.TID 0000.0001)      OLy =    2 ; /* Tile overlap distance in Y */
(PID.TID 0000.0001)      nTx =    1 ; /* No. threads in X per process */
(PID.TID 0000.0001)      nTy =    1 ; /* No. threads in Y per process */
(PID.TID 0000.0001)       Nr =  100 ; /* No. levels in the vertical   */
(PID.TID 0000.0001)       Nx =  200 ; /* Total domain size in X ( = nPx*nSx*sNx ) */
(PID.TID 0000.0001)       Ny =    1 ; /* Total domain size in Y ( = nPy*nSy*sNy ) */
(PID.TID 0000.0001)   nTiles =    1 ; /* Total no. tiles per process ( = nSx*nSy ) */
(PID.TID 0000.0001)   nProcs =    1 ; /* Total no. processes ( = nPx*nPy ) */
(PID.TID 0000.0001) nThreads =    1 ; /* Total no. threads per process ( = nTx*nTy ) */
(PID.TID 0000.0001) usingMPI =    F ; /* Flag used to control whether MPI is in use */
(PID.TID 0000.0001)                   /*  note: To execute a program with MPI calls */
(PID.TID 0000.0001)                   /*  it must be launched appropriately e.g     */
(PID.TID 0000.0001)                   /*  "mpirun -np 64 ......"                    */
(PID.TID 0000.0001) useCoupler=    F ;/* Flag used to control communications with   */
(PID.TID 0000.0001)                   /*  other model components, through a coupler */
(PID.TID 0000.0001) debugMode =    F ; /* print debug msg. (sequence of S/R calls)  */
(PID.TID 0000.0001) printMapIncludesZeros=    F ; /* print zeros in Std.Output maps */
(PID.TID 0000.0001) maxLengthPrt1D=   65 /* maxLength of 1D array printed to StdOut */
(PID.TID 0000.0001) 
(PID.TID 0000.0001) // ======================================================
(PID.TID 0000.0001) // Mapping of tiles to threads
(PID.TID 0000.0001) // ======================================================
(PID.TID 0000.0001) // -o- Thread   1, tiles (   1:   1,   1:   1)
(PID.TID 0000.0001) 
(PID.TID 0000.0001) // ======================================================
(PID.TID 0000.0001) // Tile <-> Tile connectvity table
(PID.TID 0000.0001) // ======================================================
(PID.TID 0000.0001) // Tile number: 000001 (process no. = 000000)
(PID.TID 0000.0001) //        WEST: Tile = 000001, Process = 000000, Comm = put
(PID.TID 0000.0001) //                bi = 000001, bj = 000001
(PID.TID 0000.0001) //        EAST: Tile = 000001, Process = 000000, Comm = put
(PID.TID 0000.0001) //                bi = 000001, bj = 000001
(PID.TID 0000.0001) //       SOUTH: Tile = 000001, Process = 000000, Comm = put
(PID.TID 0000.0001) //                bi = 000001, bj = 000001
(PID.TID 0000.0001) //       NORTH: Tile = 000001, Process = 000000, Comm = put
(PID.TID 0000.0001) //                bi = 000001, bj = 000001
(PID.TID 0000.0001) 
(PID.TID 0000.0001)  INI_PARMS: opening model parameter file "data"
(PID.TID 0000.0001)  OPEN_COPY_DATA_FILE: opening file data
(PID.TID 0000.0001) // =======================================================
(PID.TID 0000.0001) // Parameter file "data"
(PID.TID 0000.0001) // =======================================================
(PID.TID 0000.0001) ># ====================
(PID.TID 0000.0001) ># | Model parameters |
(PID.TID 0000.0001) ># ====================
(PID.TID 0000.0001) >#
(PID.TID 0000.0001) ># See src/ini_parms.F for possible parameters.
(PID.TID 0000.0001) >#
(PID.TID 0000.0001) ># Continuous equation parameters
(PID.TID 0000.0001) > &PARM01
(PID.TID 0000.0001) > tRefFile='Tref.bin'
(PID.TID 0000.0001) > sRef= 25*35.,
(PID.TID 0000.0001) > viscAz=1.E-5,
(PID.TID 0000.0001) > viscAh=1.E-4,
(PID.TID 0000.0001) > no_slip_sides=.FALSE.,
(PID.TID 0000.0001) > no_slip_bottom=.FALSE.,
(PID.TID 0000.0001) > viscA4=0.E12,
(PID.TID 0000.0001) > diffKhT=1.E-4,
(PID.TID 0000.0001) > diffKzT=1.E-5,
(PID.TID 0000.0001) > diffKhS=1.E3,
(PID.TID 0000.0001) > diffKzS=1.E-5,
(PID.TID 0000.0001) > f0=0.E-4,
(PID.TID 0000.0001) > beta=0.0E-11,
(PID.TID 0000.0001) > tAlpha=2.E-4,
(PID.TID 0000.0001) > sBeta =0.E-4,
(PID.TID 0000.0001) > gravity=9.81,
(PID.TID 0000.0001) > gBaro=9.81,
(PID.TID 0000.0001) > rigidLid=.FALSE.,
(PID.TID 0000.0001) > implicitFreeSurface=.TRUE.,
(PID.TID 0000.0001) > eosType='LINEAR',
(PID.TID 0000.0001) > nonHydrostatic=.FALSE.,
(PID.TID 0000.0001) > readBinaryPrec=64,
(PID.TID 0000.0001) > useSingleCpuIO=.TRUE.
(PID.TID 0000.0001) > writeBinaryPrec=64,
(PID.TID 0000.0001) > writeStatePrec=64,
(PID.TID 0000.0001) > saltStepping=.FALSE.,
(PID.TID 0000.0001) ># minimum cell fraction.  This reduces steppiness..
(PID.TID 0000.0001) >  hFacMin=0.1,
(PID.TID 0000.0001) >  exactConserv=.FALSE.,
(PID.TID 0000.0001) >  implicitDiffusion=.TRUE.
(PID.TID 0000.0001) >  implicitViscosity=.TRUE.
(PID.TID 0000.0001) ># Superbee on:
(PID.TID 0000.0001) > tempAdvScheme=77,
(PID.TID 0000.0001) > staggerTimeStep=.TRUE.,
(PID.TID 0000.0001) >/
(PID.TID 0000.0001) >
(PID.TID 0000.0001) ># Elliptic solver parameters
(PID.TID 0000.0001) > &PARM02
(PID.TID 0000.0001) > cg2dMaxIters=1000,
(PID.TID 0000.0001) > cg2dTargetResidual=1.E-13,
(PID.TID 0000.0001) > cg3dMaxIters=400,
(PID.TID 0000.0001) > cg3dTargetResidual=1.E-13,
(PID.TID 0000.0001) >/
(PID.TID 0000.0001) >
(PID.TID 0000.0001) ># Time stepping parameters
(PID.TID 0000.0001) > &PARM03
(PID.TID 0000.0001) > niter0=0,
(PID.TID 0000.0001) ># times are in s
(PID.TID 0000.0001) > startTime=0,
(PID.TID 0000.0001) > endTime=108000,
(PID.TID 0000.0001) > deltaT=15,
(PID.TID 0000.0001) > abEps=0.1,
(PID.TID 0000.0001) ># once per tide checkpoint...
(PID.TID 0000.0001) > pChkptFreq=21600,
(PID.TID 0000.0001) > chkptFreq=0.0,
(PID.TID 0000.0001) > dumpFreq=7200,
(PID.TID 0000.0001) > monitorFreq=7200,
(PID.TID 0000.0001) ># Forcing for boundary condition files
(PID.TID 0000.0001) > periodicExternalForcing=.FALSE.,
(PID.TID 0000.0001) >/
(PID.TID 0000.0001) >
(PID.TID 0000.0001) ># Gridding parameters
(PID.TID 0000.0001) > &PARM04
(PID.TID 0000.0001) > usingCartesianGrid=.TRUE.,
(PID.TID 0000.0001) > usingSphericalPolarGrid=.FALSE.,
(PID.TID 0000.0001) > delXfile='delXvar.bin',
(PID.TID 0000.0001) > delY=5.e3,
(PID.TID 0000.0001) > delRfile = 'delZvar.bin',
(PID.TID 0000.0001) >/
(PID.TID 0000.0001) >
(PID.TID 0000.0001) ># Input datasets
(PID.TID 0000.0001) > &PARM05
(PID.TID 0000.0001) > bathyFile='topo.bin',
(PID.TID 0000.0001) > hydrogThetaFile='T0.bin',
(PID.TID 0000.0001) > checkIniTemp=.FALSE.,
(PID.TID 0000.0001) > uVelInitFile='U0.bin',
(PID.TID 0000.0001) > /
(PID.TID 0000.0001) 
(PID.TID 0000.0001)  INI_PARMS ; starts to read PARM01
(PID.TID 0000.0001)  INI_PARMS ; read PARM01 : OK
(PID.TID 0000.0001)  INI_PARMS ; starts to read PARM02
(PID.TID 0000.0001)  INI_PARMS ; read PARM02 : OK
(PID.TID 0000.0001)  INI_PARMS ; starts to read PARM03
(PID.TID 0000.0001)  INI_PARMS ; read PARM03 : OK
(PID.TID 0000.0001)  INI_PARMS ; starts to read PARM04
(PID.TID 0000.0001)  INI_PARMS ; read PARM04 : OK
(PID.TID 0000.0001)  INI_PARMS ; starts to read PARM05
(PID.TID 0000.0001)  INI_PARMS ; read PARM05 : OK
(PID.TID 0000.0001)  INI_PARMS: finished reading file "data"
(PID.TID 0000.0001)  PACKAGES_BOOT: opening data.pkg
(PID.TID 0000.0001)  OPEN_COPY_DATA_FILE: opening file data.pkg
(PID.TID 0000.0001) // =======================================================
(PID.TID 0000.0001) // Parameter file "data.pkg"
(PID.TID 0000.0001) // =======================================================
(PID.TID 0000.0001) ># Packages
(PID.TID 0000.0001) > &PACKAGES
(PID.TID 0000.0001) > useOBCS=.TRUE.,
(PID.TID 0000.0001) > useKL10=.TRUE.,
(PID.TID 0000.0001) > useDIAGNOSTICS=.FALSE.,
(PID.TID 0000.0001) > useMNC=.FALSE.,
(PID.TID 0000.0001) > /
(PID.TID 0000.0001) 
(PID.TID 0000.0001)  PACKAGES_BOOT: finished reading data.pkg
(PID.TID 0000.0001)  PACKAGES_BOOT: On/Off package Summary
 --------  pkgs with a standard "usePKG" On/Off switch in "data.pkg":  --------
 pkg/obcs                 compiled   and   used ( useOBCS                  = T )
 pkg/kl10                 compiled   and   used ( useKL10                  = T )
 -------- pkgs without standard "usePKG" On/Off switch in "data.pkg":  --------
 pkg/generic_advdiff      compiled   and   used ( useGAD                   = T )
 pkg/mom_common           compiled   and   used ( momStepping              = T )
 pkg/mom_vecinv           compiled but not used ( +vectorInvariantMomentum = F )
 pkg/mom_fluxform         compiled   and   used ( & not vectorInvariantMom = T )
 pkg/monitor              compiled   and   used ( monitorFreq > 0.         = T )
 pkg/debug                compiled but not used ( debugMode                = F )
 pkg/rw                   compiled   and   used
 pkg/mdsio                compiled   and   used
(PID.TID 0000.0001)  PACKAGES_BOOT: End of package Summary
(PID.TID 0000.0001) 
(PID.TID 0000.0001)  OBCS_READPARMS: opening data.obcs
(PID.TID 0000.0001)  OPEN_COPY_DATA_FILE: opening file data.obcs
(PID.TID 0000.0001) // =======================================================
(PID.TID 0000.0001) // Parameter file "data.obcs"
(PID.TID 0000.0001) // =======================================================
(PID.TID 0000.0001) ># Open-boundaries
(PID.TID 0000.0001) > &OBCS_PARM01
(PID.TID 0000.0001) > OB_Iwest=1*1,
(PID.TID 0000.0001) > OB_Ieast=1*-1,
(PID.TID 0000.0001) > OB_Jnorth=100*0,
(PID.TID 0000.0001) > OB_Jsouth=100*0,
(PID.TID 0000.0001) > useOBCSsponge=.TRUE.,
(PID.TID 0000.0001) > OBEuFile='U_in.bin',
(PID.TID 0000.0001) > OBWuFile='U_in.bin',
(PID.TID 0000.0001) > OBEtFile='TE.bin',
(PID.TID 0000.0001) > OBWtFile='TW.bin',
(PID.TID 0000.0001) > useOBCSprescribe=.TRUE.,
(PID.TID 0000.0001) > /
(PID.TID 0000.0001) >
(PID.TID 0000.0001) ># Orlanski parameters
(PID.TID 0000.0001) > &OBCS_PARM02
(PID.TID 0000.0001) >/
(PID.TID 0000.0001) >
(PID.TID 0000.0001) ># Sponge layer parameters
(PID.TID 0000.0001) > &OBCS_PARM03
(PID.TID 0000.0001) > Urelaxobcsinner=1000.,
(PID.TID 0000.0001) > Urelaxobcsbound=100.,
(PID.TID 0000.0001) > Vrelaxobcsinner=1000.0,
(PID.TID 0000.0001) > Vrelaxobcsbound=100.0,
(PID.TID 0000.0001) > spongeThickness=10,
(PID.TID 0000.0001) > /
(PID.TID 0000.0001) 
(PID.TID 0000.0001)  OBCS_READPARMS: finished reading data.obcs
(PID.TID 0000.0001)  OB_indexUnset = /* unset OB index value (i.e. no OB) */
(PID.TID 0000.0001)                       0
(PID.TID 0000.0001)     ;
(PID.TID 0000.0001)  Northern OB global indices : OB_Jnorth =
(PID.TID 0000.0001)   200 @        0                            /* I =  1:200 */
(PID.TID 0000.0001)  Southern OB global indices : OB_Jsouth =
(PID.TID 0000.0001)   200 @        0                            /* I =  1:200 */
(PID.TID 0000.0001)  Eastern  OB global indices : OB_Ieast =
(PID.TID 0000.0001)                     200                     /* J =  1 */
(PID.TID 0000.0001)  Western  OB global indices : OB_Iwest =
(PID.TID 0000.0001)                       1                     /* J =  1 */
(PID.TID 0000.0001) 
(PID.TID 0000.0001)  KL10_READPARMS: opening data.kl10
(PID.TID 0000.0001)  OPEN_COPY_DATA_FILE: opening file data.kl10
(PID.TID 0000.0001) // =======================================================
(PID.TID 0000.0001) // Parameter file "data.kl10"
(PID.TID 0000.0001) // =======================================================
(PID.TID 0000.0001) ># =====================================================================
(PID.TID 0000.0001) ># | Parameters for Klymak and Legg (2010) vertical mixing scheme      |
(PID.TID 0000.0001) ># =====================================================================
(PID.TID 0000.0001) > &KL10_PARM01
(PID.TID 0000.0001) > KLwriteState=.TRUE.,
(PID.TID 0000.0001) >/
(PID.TID 0000.0001) 
(PID.TID 0000.0001)  KL10_READPARMS: finished reading data.kl10
(PID.TID 0000.0001) SET_PARMS: done
(PID.TID 0000.0001)  MDS_READVEC_LOC: open file: delXvar.bin
(PID.TID 0000.0001) S/R LOAD_GRID_SPACING: delX loaded from file: delXvar.bin
(PID.TID 0000.0001)  MDS_READVEC_LOC: open file: delZvar.bin
(PID.TID 0000.0001) S/R LOAD_GRID_SPACING: delR loaded from file: delZvar.bin
(PID.TID 0000.0001) Enter INI_VERTICAL_GRID: setInterFDr=    T ; setCenterDr=    F
(PID.TID 0000.0001) %MON XC_max                       =   9.9471849328752E+04
(PID.TID 0000.0001) %MON XC_min                       =   6.3164731900833E+02
(PID.TID 0000.0001) %MON XC_mean                      =   5.2906107272275E+04
(PID.TID 0000.0001) %MON XC_sd                        =   2.2139310392762E+04
(PID.TID 0000.0001) %MON XG_max                       =   9.8943698657505E+04
(PID.TID 0000.0001) %MON XG_min                       =   0.0000000000000E+00
(PID.TID 0000.0001) %MON XG_mean                      =   5.2656107272275E+04
(PID.TID 0000.0001) %MON XG_sd                        =   2.2172561685063E+04
(PID.TID 0000.0001) %MON DXC_max                      =   1.2503953509116E+03
(PID.TID 0000.0001) %MON DXC_min                      =   2.0000000000000E+02
(PID.TID 0000.0001) %MON DXC_mean                     =   5.0000000000000E+02
(PID.TID 0000.0001) %MON DXC_sd                       =   2.8531736750525E+02
(PID.TID 0000.0001) %MON DXF_max                      =   1.2632946380167E+03
(PID.TID 0000.0001) %MON DXF_min                      =   2.0000000000000E+02
(PID.TID 0000.0001) %MON DXF_mean                     =   5.0000000000000E+02
(PID.TID 0000.0001) %MON DXF_sd                       =   2.8547066202794E+02
(PID.TID 0000.0001) %MON DXG_max                      =   1.2632946380167E+03
(PID.TID 0000.0001) %MON DXG_min                      =   2.0000000000000E+02
(PID.TID 0000.0001) %MON DXG_mean                     =   5.0000000000000E+02
(PID.TID 0000.0001) %MON DXG_sd                       =   2.8547066202794E+02
(PID.TID 0000.0001) %MON DXV_max                      =   1.2503953509116E+03
(PID.TID 0000.0001) %MON DXV_min                      =   2.0000000000000E+02
(PID.TID 0000.0001) %MON DXV_mean                     =   5.0000000000000E+02
(PID.TID 0000.0001) %MON DXV_sd                       =   2.8531736750525E+02
(PID.TID 0000.0001) %MON YC_max                       =   2.5000000000000E+03
(PID.TID 0000.0001) %MON YC_min                       =   2.5000000000000E+03
(PID.TID 0000.0001) %MON YC_mean                      =   2.5000000000000E+03
(PID.TID 0000.0001) %MON YC_sd                        =   0.0000000000000E+00
(PID.TID 0000.0001) %MON YG_max                       =   0.0000000000000E+00
(PID.TID 0000.0001) %MON YG_min                       =   0.0000000000000E+00
(PID.TID 0000.0001) %MON YG_mean                      =   0.0000000000000E+00
(PID.TID 0000.0001) %MON YG_sd                        =   0.0000000000000E+00
(PID.TID 0000.0001) %MON DYC_max                      =   5.0000000000000E+03
(PID.TID 0000.0001) %MON DYC_min                      =   5.0000000000000E+03
(PID.TID 0000.0001) %MON DYC_mean                     =   5.0000000000000E+03
(PID.TID 0000.0001) %MON DYC_sd                       =   0.0000000000000E+00
(PID.TID 0000.0001) %MON DYF_max                      =   5.0000000000000E+03
(PID.TID 0000.0001) %MON DYF_min                      =   5.0000000000000E+03
(PID.TID 0000.0001) %MON DYF_mean                     =   5.0000000000000E+03
(PID.TID 0000.0001) %MON DYF_sd                       =   0.0000000000000E+00
(PID.TID 0000.0001) %MON DYG_max                      =   5.0000000000000E+03
(PID.TID 0000.0001) %MON DYG_min                      =   5.0000000000000E+03
(PID.TID 0000.0001) %MON DYG_mean                     =   5.0000000000000E+03
(PID.TID 0000.0001) %MON DYG_sd                       =   0.0000000000000E+00
(PID.TID 0000.0001) %MON DYU_max                      =   5.0000000000000E+03
(PID.TID 0000.0001) %MON DYU_min                      =   5.0000000000000E+03
(PID.TID 0000.0001) %MON DYU_mean                     =   5.0000000000000E+03
(PID.TID 0000.0001) %MON DYU_sd                       =   0.0000000000000E+00
(PID.TID 0000.0001) %MON RA_max                       =   6.3164731900833E+06
(PID.TID 0000.0001) %MON RA_min                       =   1.0000000000000E+06
(PID.TID 0000.0001) %MON RA_mean                      =   2.5000000000000E+06
(PID.TID 0000.0001) %MON RA_sd                        =   1.4273533101397E+06
(PID.TID 0000.0001) %MON RAW_max                      =   6.2519767545581E+06
(PID.TID 0000.0001) %MON RAW_min                      =   1.0000000000000E+06
(PID.TID 0000.0001) %MON RAW_mean                     =   2.5000000000000E+06
(PID.TID 0000.0001) %MON RAW_sd                       =   1.4265868375263E+06
(PID.TID 0000.0001) %MON RAS_max                      =   6.3164731900833E+06
(PID.TID 0000.0001) %MON RAS_min                      =   1.0000000000000E+06
(PID.TID 0000.0001) %MON RAS_mean                     =   2.5000000000000E+06
(PID.TID 0000.0001) %MON RAS_sd                       =   1.4273533101397E+06
(PID.TID 0000.0001) %MON RAZ_max                      =   6.2519767545581E+06
(PID.TID 0000.0001) %MON RAZ_min                      =   1.0000000000000E+06
(PID.TID 0000.0001) %MON RAZ_mean                     =   2.5000000000000E+06
(PID.TID 0000.0001) %MON RAZ_sd                       =   1.4265868375263E+06
(PID.TID 0000.0001) %MON AngleCS_max                  =   1.0000000000000E+00
(PID.TID 0000.0001) %MON AngleCS_min                  =   1.0000000000000E+00
(PID.TID 0000.0001) %MON AngleCS_mean                 =   1.0000000000000E+00
(PID.TID 0000.0001) %MON AngleCS_sd                   =   0.0000000000000E+00
(PID.TID 0000.0001) %MON AngleSN_max                  =   0.0000000000000E+00
(PID.TID 0000.0001) %MON AngleSN_min                  =   0.0000000000000E+00
(PID.TID 0000.0001) %MON AngleSN_mean                 =   0.0000000000000E+00
(PID.TID 0000.0001) %MON AngleSN_sd                   =   0.0000000000000E+00
(PID.TID 0000.0001)  MDS_READVEC_LOC: open file: Tref.bin
(PID.TID 0000.0001) S/R LOAD_REF_FILES: tRef loaded from file: Tref.bin
(PID.TID 0000.0001)  MDS_READ_FIELD: opening global file: topo.bin
(PID.TID 0000.0001) // =======================================================
(PID.TID 0000.0001) // Field Model R_low (ini_masks_etc)
(PID.TID 0000.0001) // CMIN =         -2.000000000000000E+02
(PID.TID 0000.0001) // CMAX =         -1.600499687630168E+02
(PID.TID 0000.0001) // CINT =          1.479630786554934E+00
(PID.TID 0000.0001) // SYMBOLS (CMIN->CMAX): -abcdefghijklmnopqrstuvwxyz+
(PID.TID 0000.0001) //                  0.0: .
(PID.TID 0000.0001) // RANGE I (Lo:Hi:Step):(    -1:   202:     1)
(PID.TID 0000.0001) // RANGE J (Lo:Hi:Step):(     3:    -1:    -1)
(PID.TID 0000.0001) // RANGE K (Lo:Hi:Step):(   1:   1:   1)
(PID.TID 0000.0001) // =======================================================
(PID.TID 0000.0001) K =   1
(PID.TID 0000.0001) //                I=8       I=18      I=28      I=38      I=48      I=58      I=68      I=78      I=88      I=98      I=108     I=118     I=128     I=138     I=148     I=158     I=168     I=178     I=188     I=198
(PID.TID 0000.0001) // |--J--|101234567|901234567|901234567|901234567|901234567|901234567|901234567|901234567|901234567|901234567|901234567|901234567|901234567|901234567|901234567|901234567|901234567|901234567|901234567|901234567|9012
(PID.TID 0000.0001) //      3 --------------------------------------------------------------------------aaaabbccdefghiklnpqstvwxyz++++zyxwvtsqpnlkihgfedccbbaaaa--------------------------------------------------------------------------
(PID.TID 0000.0001) //      2 --------------------------------------------------------------------------aaaabbccdefghiklnpqstvwxyz++++zyxwvtsqpnlkihgfedccbbaaaa--------------------------------------------------------------------------
(PID.TID 0000.0001) //      1 --------------------------------------------------------------------------aaaabbccdefghiklnpqstvwxyz++++zyxwvtsqpnlkihgfedccbbaaaa--------------------------------------------------------------------------
(PID.TID 0000.0001) //      0 --------------------------------------------------------------------------aaaabbccdefghiklnpqstvwxyz++++zyxwvtsqpnlkihgfedccbbaaaa--------------------------------------------------------------------------
(PID.TID 0000.0001) //     -1 --------------------------------------------------------------------------aaaabbccdefghiklnpqstvwxyz++++zyxwvtsqpnlkihgfedccbbaaaa--------------------------------------------------------------------------
(PID.TID 0000.0001) // =======================================================
(PID.TID 0000.0001) // END OF FIELD                                          =
(PID.TID 0000.0001) // =======================================================
(PID.TID 0000.0001) 
(PID.TID 0000.0001) // =======================================================
(PID.TID 0000.0001) // Field Model Ro_surf (ini_masks_etc)
(PID.TID 0000.0001) // CMIN =         -2.553512956637860E-14
(PID.TID 0000.0001) // CMAX =          8.815170815523743E-14
(PID.TID 0000.0001) // CINT =          4.210623619319112E-15
(PID.TID 0000.0001) // SYMBOLS (CMIN->CMAX): -abcdefghijklmnopqrstuvwxyz+
(PID.TID 0000.0001) //                  0.0: .
(PID.TID 0000.0001) // RANGE I (Lo:Hi:Step):(    -1:   202:     1)
(PID.TID 0000.0001) // RANGE J (Lo:Hi:Step):(     3:    -1:    -1)
(PID.TID 0000.0001) // RANGE K (Lo:Hi:Step):(   1:   1:   1)
(PID.TID 0000.0001) // =======================================================
(PID.TID 0000.0001) K =   1
(PID.TID 0000.0001) //                I=8       I=18      I=28      I=38      I=48      I=58      I=68      I=78      I=88      I=98      I=108     I=118     I=128     I=138     I=148     I=158     I=168     I=178     I=188     I=198
(PID.TID 0000.0001) // |--J--|101234567|901234567|901234567|901234567|901234567|901234567|901234567|901234567|901234567|901234567|901234567|901234567|901234567|901234567|901234567|901234567|901234567|901234567|901234567|901234567|9012
(PID.TID 0000.0001) //      3 nnnnnnnnnnnnnnnnnntntnttnntnnntntntntnntttnnntntntttnnnttttttnntntnnnnnntnntttt+t+tttgtnnn--------gggggggg--------nnntgttt+t+ttttnntnnnnnntntnnttttttnnntttntntnnntttnntntntntnnntnnttntntnnnnnnnnnnnnnnnnnn
(PID.TID 0000.0001) //      2 nnnnnnnnnnnnnnnnnntntnttnntnnntntntntnntttnnntntntttnnnttttttnntntnnnnnntnntttt+t+tttgtnnn--------gggggggg--------nnntgttt+t+ttttnntnnnnnntntnnttttttnnntttntntnnntttnntntntntnnntnnttntntnnnnnnnnnnnnnnnnnn
(PID.TID 0000.0001) //      1 nnnnnnnnnnnnnnnnnntntnttnntnnntntntntnntttnnntntntttnnnttttttnntntnnnnnntnntttt+t+tttgtnnn--------gggggggg--------nnntgttt+t+ttttnntnnnnnntntnnttttttnnntttntntnnntttnntntntntnnntnnttntntnnnnnnnnnnnnnnnnnn
(PID.TID 0000.0001) //      0 nnnnnnnnnnnnnnnnnntntnttnntnnntntntntnntttnnntntntttnnnttttttnntntnnnnnntnntttt+t+tttgtnnn--------gggggggg--------nnntgttt+t+ttttnntnnnnnntntnnttttttnnntttntntnnntttnntntntntnnntnnttntntnnnnnnnnnnnnnnnnnn
(PID.TID 0000.0001) //     -1 nnnnnnnnnnnnnnnnnntntnttnntnnntntntntnntttnnntntntttnnnttttttnntntnnnnnntnntttt+t+tttgtnnn--------gggggggg--------nnntgttt+t+ttttnntnnnnnntntnnttttttnnntttntntnnntttnntntntntnnntnnttntntnnnnnnnnnnnnnnnnnn
(PID.TID 0000.0001) // =======================================================
(PID.TID 0000.0001) // END OF FIELD                                          =
(PID.TID 0000.0001) // =======================================================
(PID.TID 0000.0001) 
(PID.TID 0000.0001) // =======================================================
(PID.TID 0000.0001) // Field hFacC at iteration          0
(PID.TID 0000.0001) // CMIN =          1.000000000000000E+00
(PID.TID 0000.0001) // CMAX =          1.000000000000000E+00
(PID.TID 0000.0001) // CINT =          0.000000000000000E+00
(PID.TID 0000.0001) // SYMBOLS (CMIN->CMAX): -abcdefghijklmnopqrstuvwxyz+
(PID.TID 0000.0001) //                  0.0: .
(PID.TID 0000.0001) // RANGE I (Lo:Hi:Step):(    -1:   202:     1)
(PID.TID 0000.0001) // RANGE J (Lo:Hi:Step):(     3:    -1:    -1)
(PID.TID 0000.0001) // RANGE K (Lo:Hi:Step):(   1:   1:   1)
(PID.TID 0000.0001) // =======================================================
(PID.TID 0000.0001) // =======================================================
(PID.TID 0000.0001) // END OF FIELD                                          =
(PID.TID 0000.0001) // =======================================================
(PID.TID 0000.0001) 
(PID.TID 0000.0001) // =======================================================
(PID.TID 0000.0001) // Field hFacW at iteration          0
(PID.TID 0000.0001) // CMIN =          1.000000000000000E+00
(PID.TID 0000.0001) // CMAX =          1.000000000000000E+00
(PID.TID 0000.0001) // CINT =          0.000000000000000E+00
(PID.TID 0000.0001) // SYMBOLS (CMIN->CMAX): -abcdefghijklmnopqrstuvwxyz+
(PID.TID 0000.0001) //                  0.0: .
(PID.TID 0000.0001) // RANGE I (Lo:Hi:Step):(    -1:   202:     1)
(PID.TID 0000.0001) // RANGE J (Lo:Hi:Step):(     3:    -1:    -1)
(PID.TID 0000.0001) // RANGE K (Lo:Hi:Step):(   1:   1:   1)
(PID.TID 0000.0001) // =======================================================
(PID.TID 0000.0001) // =======================================================
(PID.TID 0000.0001) // END OF FIELD                                          =
(PID.TID 0000.0001) // =======================================================
(PID.TID 0000.0001) 
(PID.TID 0000.0001) // =======================================================
(PID.TID 0000.0001) // Field hFacS at iteration          0
(PID.TID 0000.0001) // CMIN =          1.000000000000000E+00
(PID.TID 0000.0001) // CMAX =          1.000000000000000E+00
(PID.TID 0000.0001) // CINT =          0.000000000000000E+00
(PID.TID 0000.0001) // SYMBOLS (CMIN->CMAX): -abcdefghijklmnopqrstuvwxyz+
(PID.TID 0000.0001) //                  0.0: .
(PID.TID 0000.0001) // RANGE I (Lo:Hi:Step):(    -1:   202:     1)
(PID.TID 0000.0001) // RANGE J (Lo:Hi:Step):(     3:    -1:    -1)
(PID.TID 0000.0001) // RANGE K (Lo:Hi:Step):(   1:   1:   1)
(PID.TID 0000.0001) // =======================================================
(PID.TID 0000.0001) // =======================================================
(PID.TID 0000.0001) // END OF FIELD                                          =
(PID.TID 0000.0001) // =======================================================
(PID.TID 0000.0001) 
(PID.TID 0000.0001) GAD_INIT_FIXED: GAD_OlMinSize=  2  0  1
(PID.TID 0000.0001) 
(PID.TID 0000.0001) // ===================================
(PID.TID 0000.0001) // GAD parameters :
(PID.TID 0000.0001) // ===================================
(PID.TID 0000.0001) tempAdvScheme =   /* Temp. Horiz.Advection scheme selector */
(PID.TID 0000.0001)                      77
(PID.TID 0000.0001)     ;
(PID.TID 0000.0001) tempVertAdvScheme =   /* Temp. Vert. Advection scheme selector */
(PID.TID 0000.0001)                      77
(PID.TID 0000.0001)     ;
(PID.TID 0000.0001) tempMultiDimAdvec =   /* use Muti-Dim Advec method for Temp */
(PID.TID 0000.0001)                   T
(PID.TID 0000.0001)     ;
(PID.TID 0000.0001) tempSOM_Advection = /* use 2nd Order Moment Advection for Temp */
(PID.TID 0000.0001)                   F
(PID.TID 0000.0001)     ;
(PID.TID 0000.0001) AdamsBashforthGt = /* apply Adams-Bashforth extrapolation on Gt */
(PID.TID 0000.0001)                   F
(PID.TID 0000.0001)     ;
(PID.TID 0000.0001) AdamsBashforth_T = /* apply Adams-Bashforth extrapolation on Temp */
(PID.TID 0000.0001)                   F
(PID.TID 0000.0001)     ;
(PID.TID 0000.0001) saltAdvScheme =   /* Salt. Horiz.advection scheme selector */
(PID.TID 0000.0001)                       2
(PID.TID 0000.0001)     ;
(PID.TID 0000.0001) saltVertAdvScheme =   /* Salt. Vert. Advection scheme selector */
(PID.TID 0000.0001)                       2
(PID.TID 0000.0001)     ;
(PID.TID 0000.0001) saltMultiDimAdvec =   /* use Muti-Dim Advec method for Salt */
(PID.TID 0000.0001)                   F
(PID.TID 0000.0001)     ;
(PID.TID 0000.0001) saltSOM_Advection = /* use 2nd Order Moment Advection for Salt */
(PID.TID 0000.0001)                   F
(PID.TID 0000.0001)     ;
(PID.TID 0000.0001) AdamsBashforthGs = /* apply Adams-Bashforth extrapolation on Gs */
(PID.TID 0000.0001)                   F
(PID.TID 0000.0001)     ;
(PID.TID 0000.0001) AdamsBashforth_S = /* apply Adams-Bashforth extrapolation on Salt */
(PID.TID 0000.0001)                   F
(PID.TID 0000.0001)     ;
(PID.TID 0000.0001) // ===================================
(PID.TID 0000.0001) %MON fCori_max                    =   0.0000000000000E+00
(PID.TID 0000.0001) %MON fCori_min                    =   0.0000000000000E+00
(PID.TID 0000.0001) %MON fCori_mean                   =   0.0000000000000E+00
(PID.TID 0000.0001) %MON fCori_sd                     =   0.0000000000000E+00
(PID.TID 0000.0001) %MON fCoriG_max                   =   0.0000000000000E+00
(PID.TID 0000.0001) %MON fCoriG_min                   =   0.0000000000000E+00
(PID.TID 0000.0001) %MON fCoriG_mean                  =   0.0000000000000E+00
(PID.TID 0000.0001) %MON fCoriG_sd                    =   0.0000000000000E+00
(PID.TID 0000.0001) %MON fCoriCos_max                 =   0.0000000000000E+00
(PID.TID 0000.0001) %MON fCoriCos_min                 =   0.0000000000000E+00
(PID.TID 0000.0001) %MON fCoriCos_mean                =   0.0000000000000E+00
(PID.TID 0000.0001) %MON fCoriCos_sd                  =   0.0000000000000E+00
(PID.TID 0000.0001) INI_CG2D: CG2D normalisation factor =  2.0891347990989202E-04
(PID.TID 0000.0001) 
(PID.TID 0000.0001) // =======================================================
(PID.TID 0000.0001) // Model configuration
(PID.TID 0000.0001) // =======================================================
(PID.TID 0000.0001) //
(PID.TID 0000.0001) // "Physical" paramters ( PARM01 in namelist )
(PID.TID 0000.0001) //
(PID.TID 0000.0001) buoyancyRelation = /* Type of relation to get Buoyancy */
(PID.TID 0000.0001)               'OCEANIC'
(PID.TID 0000.0001)     ;
(PID.TID 0000.0001) fluidIsAir   =  /* fluid major constituent is Air */
(PID.TID 0000.0001)                   F
(PID.TID 0000.0001)     ;
(PID.TID 0000.0001) fluidIsWater =  /* fluid major constituent is Water */
(PID.TID 0000.0001)                   T
(PID.TID 0000.0001)     ;
(PID.TID 0000.0001) usingPCoords =  /* use p (or p*) vertical coordinate */
(PID.TID 0000.0001)                   F
(PID.TID 0000.0001)     ;
(PID.TID 0000.0001) usingZCoords =  /* use z (or z*) vertical coordinate */
(PID.TID 0000.0001)                   T
(PID.TID 0000.0001)     ;
(PID.TID 0000.0001) tRef =   /* Reference temperature profile ( oC or K ) */
(PID.TID 0000.0001)    86 @  1.500000000000000E+01,             /* K =  1: 86 */
(PID.TID 0000.0001)                 1.499933084687693E+01,      /* K = 87 */
(PID.TID 0000.0001)                 1.497717153877677E+01,      /* K = 88 */
(PID.TID 0000.0001)                 1.470721590167325E+01,      /* K = 89 */
(PID.TID 0000.0001)                 1.349735867339025E+01,      /* K = 90 */
(PID.TID 0000.0001)                 1.150264132660976E+01,      /* K = 91 */
(PID.TID 0000.0001)                 1.029278409832675E+01,      /* K = 92 */
(PID.TID 0000.0001)                 1.002282846122323E+01,      /* K = 93 */
(PID.TID 0000.0001)                 1.000066915312308E+01,      /* K = 94 */
(PID.TID 0000.0001)     6 @  1.000000000000000E+01              /* K = 95:100 */
(PID.TID 0000.0001)     ;
(PID.TID 0000.0001) sRef =   /* Reference salinity profile ( psu ) */
(PID.TID 0000.0001)   100 @  3.500000000000000E+01              /* K =  1:100 */
(PID.TID 0000.0001)     ;
(PID.TID 0000.0001) useStrainTensionVisc= /* Use StrainTension Form of Viscous Operator */
(PID.TID 0000.0001)                   F
(PID.TID 0000.0001)     ;
(PID.TID 0000.0001) useVariableVisc = /* Use variable horizontal viscosity */
(PID.TID 0000.0001)                   F
(PID.TID 0000.0001)     ;
(PID.TID 0000.0001) useHarmonicVisc = /* Use harmonic horizontal viscosity */
(PID.TID 0000.0001)                   T
(PID.TID 0000.0001)     ;
(PID.TID 0000.0001) useBiharmonicVisc= /* Use biharmonic horiz.  viscosity */
(PID.TID 0000.0001)                   F
(PID.TID 0000.0001)     ;
(PID.TID 0000.0001) useSmag3D = /* Use isotropic 3-D Smagorinsky viscosity */
(PID.TID 0000.0001)                   F
(PID.TID 0000.0001)     ;
(PID.TID 0000.0001) viscAh  =   /* Lateral harmonic viscosity ( m^2/s ) */
(PID.TID 0000.0001)                 1.000000000000000E-04
(PID.TID 0000.0001)     ;
(PID.TID 0000.0001) viscA4  =   /* Lateral biharmonic viscosity ( m^4/s ) */
(PID.TID 0000.0001)                 0.000000000000000E+00
(PID.TID 0000.0001)     ;
(PID.TID 0000.0001) no_slip_sides =  /* Viscous BCs: No-slip sides */
(PID.TID 0000.0001)                   F
(PID.TID 0000.0001)     ;
(PID.TID 0000.0001) sideDragFactor = /* side-drag scaling factor (non-dim) */
(PID.TID 0000.0001)                 2.000000000000000E+00
(PID.TID 0000.0001)     ;
(PID.TID 0000.0001) viscArNr = /* vertical profile of vertical viscosity ( m^2/s )*/
(PID.TID 0000.0001)   100 @  1.000000000000000E-05              /* K =  1:100 */
(PID.TID 0000.0001)     ;
(PID.TID 0000.0001) no_slip_bottom =  /* Viscous BCs: No-slip bottom */
(PID.TID 0000.0001)                   F
(PID.TID 0000.0001)     ;
(PID.TID 0000.0001) bottomDragLinear = /* linear bottom-drag coefficient ( m/s ) */
(PID.TID 0000.0001)                 0.000000000000000E+00
(PID.TID 0000.0001)     ;
(PID.TID 0000.0001) bottomDragQuadratic = /* quadratic bottom-drag coefficient (-) */
(PID.TID 0000.0001)                 0.000000000000000E+00
(PID.TID 0000.0001)     ;
(PID.TID 0000.0001) diffKhT =   /* Laplacian diffusion of heat laterally ( m^2/s ) */
(PID.TID 0000.0001)                 1.000000000000000E-04
(PID.TID 0000.0001)     ;
(PID.TID 0000.0001) diffK4T =   /* Biharmonic diffusion of heat laterally ( m^4/s ) */
(PID.TID 0000.0001)                 0.000000000000000E+00
(PID.TID 0000.0001)     ;
(PID.TID 0000.0001) diffKhS =   /* Laplacian diffusion of salt laterally ( m^2/s ) */
(PID.TID 0000.0001)                 1.000000000000000E+03
(PID.TID 0000.0001)     ;
(PID.TID 0000.0001) diffK4S =   /* Biharmonic diffusion of salt laterally ( m^4/s ) */
(PID.TID 0000.0001)                 0.000000000000000E+00
(PID.TID 0000.0001)     ;
(PID.TID 0000.0001) diffKrNrT = /* vertical profile of vertical diffusion of Temp ( m^2/s )*/
(PID.TID 0000.0001)   100 @  1.000000000000000E-05              /* K =  1:100 */
(PID.TID 0000.0001)     ;
(PID.TID 0000.0001) diffKrNrS = /* vertical profile of vertical diffusion of Salt ( m^2/s )*/
(PID.TID 0000.0001)   100 @  1.000000000000000E-05              /* K =  1:100 */
(PID.TID 0000.0001)     ;
(PID.TID 0000.0001) diffKrBL79surf = /* Surface diffusion for Bryan and Lewis 79 ( m^2/s ) */
(PID.TID 0000.0001)                 0.000000000000000E+00
(PID.TID 0000.0001)     ;
(PID.TID 0000.0001) diffKrBL79deep = /* Deep diffusion for Bryan and Lewis 1979 ( m^2/s ) */
(PID.TID 0000.0001)                 0.000000000000000E+00
(PID.TID 0000.0001)     ;
(PID.TID 0000.0001) diffKrBL79scl = /* Depth scale for Bryan and Lewis 1979 ( m ) */
(PID.TID 0000.0001)                 2.000000000000000E+02
(PID.TID 0000.0001)     ;
(PID.TID 0000.0001) diffKrBL79Ho = /* Turning depth for Bryan and Lewis 1979 ( m ) */
(PID.TID 0000.0001)                -2.000000000000000E+03
(PID.TID 0000.0001)     ;
(PID.TID 0000.0001) ivdc_kappa = /* Implicit Vertical Diffusivity for Convection ( m^2/s) */
(PID.TID 0000.0001)                 0.000000000000000E+00
(PID.TID 0000.0001)     ;
(PID.TID 0000.0001) hMixCriteria=  /* Criteria for mixed-layer diagnostic */
(PID.TID 0000.0001)                -8.000000000000000E-01
(PID.TID 0000.0001)     ;
(PID.TID 0000.0001) dRhoSmall =  /* Parameter for mixed-layer diagnostic */
(PID.TID 0000.0001)                 1.000000000000000E-06
(PID.TID 0000.0001)     ;
(PID.TID 0000.0001) hMixSmooth=  /* Smoothing parameter for mixed-layer diagnostic */
(PID.TID 0000.0001)                 0.000000000000000E+00
(PID.TID 0000.0001)     ;
(PID.TID 0000.0001) eosType =  /* Type of Equation of State */
(PID.TID 0000.0001)               'LINEAR'
(PID.TID 0000.0001)     ;
(PID.TID 0000.0001) tAlpha = /* Linear EOS thermal expansion coefficient ( 1/oC ) */
(PID.TID 0000.0001)                 2.000000000000000E-04
(PID.TID 0000.0001)     ;
(PID.TID 0000.0001) sBeta  = /* Linear EOS haline contraction coefficient ( 1/psu ) */
(PID.TID 0000.0001)                 0.000000000000000E+00
(PID.TID 0000.0001)     ;
(PID.TID 0000.0001) rhoNil    = /* Reference density for Linear EOS ( kg/m^3 ) */
(PID.TID 0000.0001)                 9.998000000000000E+02
(PID.TID 0000.0001)     ;
(PID.TID 0000.0001) HeatCapacity_Cp =  /* Specific heat capacity ( J/kg/K ) */
(PID.TID 0000.0001)                 3.994000000000000E+03
(PID.TID 0000.0001)     ;
(PID.TID 0000.0001) celsius2K = /* 0 degree Celsius converted to Kelvin ( K ) */
(PID.TID 0000.0001)                 2.731500000000000E+02
(PID.TID 0000.0001)     ;
(PID.TID 0000.0001) rhoConst  = /* Reference density (Boussinesq)  ( kg/m^3 ) */
(PID.TID 0000.0001)                 9.998000000000000E+02
(PID.TID 0000.0001)     ;
(PID.TID 0000.0001) rhoFacC = /* normalized Reference density @ cell-Center (-) */
(PID.TID 0000.0001)   100 @  1.000000000000000E+00              /* K =  1:100 */
(PID.TID 0000.0001)     ;
(PID.TID 0000.0001) rhoFacF = /* normalized Reference density @ W-Interface (-) */
(PID.TID 0000.0001)   101 @  1.000000000000000E+00              /* K =  1:101 */
(PID.TID 0000.0001)     ;
(PID.TID 0000.0001) rhoConstFresh = /* Fresh-water reference density ( kg/m^3 ) */
(PID.TID 0000.0001)                 9.998000000000000E+02
(PID.TID 0000.0001)     ;
(PID.TID 0000.0001) gravity =   /* Gravitational acceleration ( m/s^2 ) */
(PID.TID 0000.0001)                 9.810000000000000E+00
(PID.TID 0000.0001)     ;
(PID.TID 0000.0001) gBaro =   /* Barotropic gravity ( m/s^2 ) */
(PID.TID 0000.0001)                 9.810000000000000E+00
(PID.TID 0000.0001)     ;
(PID.TID 0000.0001) rotationPeriod =   /* Rotation Period ( s ) */
(PID.TID 0000.0001)                 8.616400000000000E+04
(PID.TID 0000.0001)     ;
(PID.TID 0000.0001) omega =   /* Angular velocity ( rad/s ) */
(PID.TID 0000.0001)                 7.292123516990375E-05
(PID.TID 0000.0001)     ;
(PID.TID 0000.0001) f0 =   /* Reference coriolis parameter ( 1/s ) */
(PID.TID 0000.0001)                 0.000000000000000E+00
(PID.TID 0000.0001)     ;
(PID.TID 0000.0001) beta =   /* Beta ( 1/(m.s) ) */
(PID.TID 0000.0001)                 0.000000000000000E+00
(PID.TID 0000.0001)     ;
(PID.TID 0000.0001) fPrime =   /* Second coriolis parameter ( 1/s ) */
(PID.TID 0000.0001)                 0.000000000000000E+00
(PID.TID 0000.0001)     ;
(PID.TID 0000.0001) rigidLid =   /* Rigid lid on/off flag */
(PID.TID 0000.0001)                   F
(PID.TID 0000.0001)     ;
(PID.TID 0000.0001) implicitFreeSurface =   /* Implicit free surface on/off flag */
(PID.TID 0000.0001)                   T
(PID.TID 0000.0001)     ;
(PID.TID 0000.0001) freeSurfFac =   /* Implicit free surface factor */
(PID.TID 0000.0001)                 1.000000000000000E+00
(PID.TID 0000.0001)     ;
(PID.TID 0000.0001) implicSurfPress =  /* Surface Pressure implicit factor (0-1)*/
(PID.TID 0000.0001)                 1.000000000000000E+00
(PID.TID 0000.0001)     ;
(PID.TID 0000.0001) implicDiv2Dflow =  /* Barot. Flow Div. implicit factor (0-1)*/
(PID.TID 0000.0001)                 1.000000000000000E+00
(PID.TID 0000.0001)     ;
(PID.TID 0000.0001) uniformLin_PhiSurf = /* use uniform Bo_surf on/off flag*/
(PID.TID 0000.0001)                   T
(PID.TID 0000.0001)     ;
(PID.TID 0000.0001) uniformFreeSurfLev = /* free-surface level-index is uniform */
(PID.TID 0000.0001)                   T
(PID.TID 0000.0001)     ;
(PID.TID 0000.0001) hFacMin =   /* minimum partial cell factor (hFac) */
(PID.TID 0000.0001)                 1.000000000000000E-01
(PID.TID 0000.0001)     ;
(PID.TID 0000.0001) hFacMinDr = /* minimum partial cell thickness ( m) */
(PID.TID 0000.0001)                 0.000000000000000E+00
(PID.TID 0000.0001)     ;
(PID.TID 0000.0001) exactConserv =  /* Exact Volume Conservation on/off flag*/
(PID.TID 0000.0001)                   F
(PID.TID 0000.0001)     ;
(PID.TID 0000.0001) linFSConserveTr = /* Tracer correction for Lin Free Surface on/off flag*/
(PID.TID 0000.0001)                   F
(PID.TID 0000.0001)     ;
(PID.TID 0000.0001) nonlinFreeSurf = /* Non-linear Free Surf. options (-1,0,1,2,3)*/
(PID.TID 0000.0001)                       0
(PID.TID 0000.0001)      -1,0= Off ; 1,2,3= On, 2=+rescale gU,gV, 3=+update cg2d solv.
(PID.TID 0000.0001)     ;
(PID.TID 0000.0001) hFacInf =   /* lower threshold for hFac (nonlinFreeSurf only)*/
(PID.TID 0000.0001)                 2.000000000000000E-01
(PID.TID 0000.0001)     ;
(PID.TID 0000.0001) hFacSup =   /* upper threshold for hFac (nonlinFreeSurf only)*/
(PID.TID 0000.0001)                 2.000000000000000E+00
(PID.TID 0000.0001)     ;
(PID.TID 0000.0001) select_rStar = /* r* Vertical coord. options (=0 r coord.; >0 uses r*)*/
(PID.TID 0000.0001)                       0
(PID.TID 0000.0001)     ;
(PID.TID 0000.0001) useRealFreshWaterFlux = /* Real Fresh Water Flux on/off flag*/
(PID.TID 0000.0001)                   F
(PID.TID 0000.0001)     ;
(PID.TID 0000.0001) temp_EvPrRn = /* Temp. of Evap/Prec/R (UNSET=use local T)(oC)*/
(PID.TID 0000.0001)                 1.234567000000000E+05
(PID.TID 0000.0001)     ;
(PID.TID 0000.0001) salt_EvPrRn = /* Salin. of Evap/Prec/R (UNSET=use local S)(psu)*/
(PID.TID 0000.0001)                 0.000000000000000E+00
(PID.TID 0000.0001)     ;
(PID.TID 0000.0001) selectAddFluid = /* option for mass source/sink of fluid (=0: off) */
(PID.TID 0000.0001)                       0
(PID.TID 0000.0001)     ;
(PID.TID 0000.0001) temp_addMass = /* Temp. of addMass array (UNSET=use local T)(oC)*/
(PID.TID 0000.0001)                 1.234567000000000E+05
(PID.TID 0000.0001)     ;
(PID.TID 0000.0001) salt_addMass = /* Salin. of addMass array (UNSET=use local S)(psu)*/
(PID.TID 0000.0001)                 0.000000000000000E+00
(PID.TID 0000.0001)     ;
(PID.TID 0000.0001) convertFW2Salt = /* convert F.W. Flux to Salt Flux (-1=use local S)(psu)*/
(PID.TID 0000.0001)                 3.500000000000000E+01
(PID.TID 0000.0001)     ;
(PID.TID 0000.0001) use3Dsolver = /* use 3-D pressure solver on/off flag */
(PID.TID 0000.0001)                   F
(PID.TID 0000.0001)     ;
(PID.TID 0000.0001) nonHydrostatic =  /* Non-Hydrostatic on/off flag */
(PID.TID 0000.0001)                   F
(PID.TID 0000.0001)     ;
(PID.TID 0000.0001) nh_Am2 = /* Non-Hydrostatic terms scaling factor */
(PID.TID 0000.0001)                 1.000000000000000E+00
(PID.TID 0000.0001)     ;
(PID.TID 0000.0001) implicitNHPress = /* Non-Hyd Pressure implicit factor (0-1)*/
(PID.TID 0000.0001)                 1.000000000000000E+00
(PID.TID 0000.0001)     ;
(PID.TID 0000.0001) selectNHfreeSurf = /* Non-Hyd (free-)Surface option */
(PID.TID 0000.0001)                       0
(PID.TID 0000.0001)     ;
(PID.TID 0000.0001) quasiHydrostatic = /* Quasi-Hydrostatic on/off flag */
(PID.TID 0000.0001)                   F
(PID.TID 0000.0001)     ;
(PID.TID 0000.0001) calc_wVelocity = /* vertical velocity calculation on/off flag */
(PID.TID 0000.0001)                   T
(PID.TID 0000.0001)     ;
(PID.TID 0000.0001) momStepping =  /* Momentum equation on/off flag */
(PID.TID 0000.0001)                   T
(PID.TID 0000.0001)     ;
(PID.TID 0000.0001) vectorInvariantMomentum= /* Vector-Invariant Momentum on/off */
(PID.TID 0000.0001)                   F
(PID.TID 0000.0001)     ;
(PID.TID 0000.0001) momAdvection =  /* Momentum advection on/off flag */
(PID.TID 0000.0001)                   T
(PID.TID 0000.0001)     ;
(PID.TID 0000.0001) momViscosity =  /* Momentum viscosity on/off flag */
(PID.TID 0000.0001)                   T
(PID.TID 0000.0001)     ;
(PID.TID 0000.0001) momImplVertAdv= /* Momentum implicit vert. advection on/off*/
(PID.TID 0000.0001)                   F
(PID.TID 0000.0001)     ;
(PID.TID 0000.0001) implicitViscosity = /* Implicit viscosity on/off flag */
(PID.TID 0000.0001)                   T
(PID.TID 0000.0001)     ;
(PID.TID 0000.0001) metricTerms =  /* metric-Terms on/off flag */
(PID.TID 0000.0001)                   F
(PID.TID 0000.0001)     ;
(PID.TID 0000.0001) useNHMTerms = /* Non-Hydrostatic Metric-Terms on/off */
(PID.TID 0000.0001)                   F
(PID.TID 0000.0001)     ;
(PID.TID 0000.0001) selectCoriMap = /* Coriolis Map options (0,1,2,3)*/
(PID.TID 0000.0001)                       1
(PID.TID 0000.0001)     0= f-Plane ; 1= Beta-Plane ; 2= Spherical ; 3= read from file
(PID.TID 0000.0001)     ;
(PID.TID 0000.0001) use3dCoriolis = /* 3-D Coriolis on/off flag */
(PID.TID 0000.0001)                   F
(PID.TID 0000.0001)     ;
(PID.TID 0000.0001) useCoriolis =  /* Coriolis on/off flag */
(PID.TID 0000.0001)                   T
(PID.TID 0000.0001)     ;
(PID.TID 0000.0001) useCDscheme =  /* CD scheme on/off flag */
(PID.TID 0000.0001)                   F
(PID.TID 0000.0001)     ;
(PID.TID 0000.0001) useEnergyConservingCoriolis= /* Flx-Form Coriolis scheme flag */
(PID.TID 0000.0001)                   F
(PID.TID 0000.0001)     ;
(PID.TID 0000.0001) useJamartWetPoints= /* Coriolis WetPoints method flag */
(PID.TID 0000.0001)                   F
(PID.TID 0000.0001)     ;
(PID.TID 0000.0001) useJamartMomAdv= /* V.I Non-linear terms Jamart flag */
(PID.TID 0000.0001)                   F
(PID.TID 0000.0001)     ;
(PID.TID 0000.0001) useAbsVorticity= /* V.I Works with f+zeta in Coriolis */
(PID.TID 0000.0001)                   F
(PID.TID 0000.0001)     ;
(PID.TID 0000.0001) selectVortScheme= /* V.I Scheme selector for Vorticity-Term */
(PID.TID 0000.0001)               123456789
(PID.TID 0000.0001)    = 0 : enstrophy (Shallow-Water Eq.) conserving scheme by Sadourny, JAS 75
(PID.TID 0000.0001)    = 1 : same as 0 with modified hFac
(PID.TID 0000.0001)    = 2 : energy conserving scheme (used by Sadourny in JAS 75 paper)
(PID.TID 0000.0001)    = 3 : energy (general) and enstrophy (2D, nonDiv.) conserving scheme
(PID.TID 0000.0001)          from Sadourny (Burridge & Haseler, ECMWF Rep.4, 1977)
(PID.TID 0000.0001)     ;
(PID.TID 0000.0001) upwindVorticity= /* V.I Upwind bias vorticity flag */
(PID.TID 0000.0001)                   F
(PID.TID 0000.0001)     ;
(PID.TID 0000.0001) highOrderVorticity= /* V.I High order vort. advect. flag */
(PID.TID 0000.0001)                   F
(PID.TID 0000.0001)     ;
(PID.TID 0000.0001) upwindShear= /* V.I Upwind vertical Shear advection flag */
(PID.TID 0000.0001)                   F
(PID.TID 0000.0001)     ;
(PID.TID 0000.0001) selectKEscheme= /* V.I Kinetic Energy scheme selector */
(PID.TID 0000.0001)                       0
(PID.TID 0000.0001)     ;
(PID.TID 0000.0001) momForcing =  /* Momentum forcing on/off flag */
(PID.TID 0000.0001)                   T
(PID.TID 0000.0001)     ;
(PID.TID 0000.0001) momPressureForcing =  /* Momentum pressure term on/off flag */
(PID.TID 0000.0001)                   T
(PID.TID 0000.0001)     ;
(PID.TID 0000.0001) implicitIntGravWave= /* Implicit Internal Gravity Wave flag */
(PID.TID 0000.0001)                   F
(PID.TID 0000.0001)     ;
(PID.TID 0000.0001) staggerTimeStep =    /* Stagger time stepping on/off flag */
(PID.TID 0000.0001)                   T
(PID.TID 0000.0001)     ;
(PID.TID 0000.0001) doResetHFactors = /* reset thickness factors @ each time-step */
(PID.TID 0000.0001)                   F
(PID.TID 0000.0001)     ;
(PID.TID 0000.0001) multiDimAdvection =  /* enable/disable Multi-Dim Advection */
(PID.TID 0000.0001)                   T
(PID.TID 0000.0001)     ;
(PID.TID 0000.0001) useMultiDimAdvec =   /* Multi-Dim Advection is/is-not used */
(PID.TID 0000.0001)                   T
(PID.TID 0000.0001)     ;
(PID.TID 0000.0001) implicitDiffusion = /* Implicit Diffusion on/off flag */
(PID.TID 0000.0001)                   T
(PID.TID 0000.0001)     ;
(PID.TID 0000.0001) tempStepping =  /* Temperature equation on/off flag */
(PID.TID 0000.0001)                   T
(PID.TID 0000.0001)     ;
(PID.TID 0000.0001) tempAdvection = /* Temperature advection on/off flag */
(PID.TID 0000.0001)                   T
(PID.TID 0000.0001)     ;
(PID.TID 0000.0001) tempImplVertAdv = /* Temp. implicit vert. advection on/off */
(PID.TID 0000.0001)                   F
(PID.TID 0000.0001)     ;
(PID.TID 0000.0001) tempForcing  =  /* Temperature forcing on/off flag */
(PID.TID 0000.0001)                   T
(PID.TID 0000.0001)     ;
(PID.TID 0000.0001) doThetaClimRelax = /* apply SST relaxation on/off flag */
(PID.TID 0000.0001)                   F
(PID.TID 0000.0001)     ;
(PID.TID 0000.0001) tempIsActiveTr = /* Temp. is a dynamically Active Tracer */
(PID.TID 0000.0001)                   T
(PID.TID 0000.0001)     ;
(PID.TID 0000.0001) saltStepping =  /* Salinity equation on/off flag */
(PID.TID 0000.0001)                   F
(PID.TID 0000.0001)     ;
(PID.TID 0000.0001) saltAdvection = /* Salinity advection on/off flag */
(PID.TID 0000.0001)                   F
(PID.TID 0000.0001)     ;
(PID.TID 0000.0001) saltImplVertAdv = /* Sali. implicit vert. advection on/off */
(PID.TID 0000.0001)                   F
(PID.TID 0000.0001)     ;
(PID.TID 0000.0001) saltForcing  =  /* Salinity forcing on/off flag */
(PID.TID 0000.0001)                   F
(PID.TID 0000.0001)     ;
(PID.TID 0000.0001) doSaltClimRelax = /* apply SSS relaxation on/off flag */
(PID.TID 0000.0001)                   F
(PID.TID 0000.0001)     ;
(PID.TID 0000.0001) saltIsActiveTr = /* Salt  is a dynamically Active Tracer */
(PID.TID 0000.0001)                   F
(PID.TID 0000.0001)     ;
(PID.TID 0000.0001)  readBinaryPrec = /* Precision used for reading binary files */
(PID.TID 0000.0001)                      64
(PID.TID 0000.0001)     ;
(PID.TID 0000.0001) writeBinaryPrec = /* Precision used for writing binary files */
(PID.TID 0000.0001)                      64
(PID.TID 0000.0001)     ;
(PID.TID 0000.0001)  globalFiles = /* write "global" (=not per tile) files */
(PID.TID 0000.0001)                   F
(PID.TID 0000.0001)     ;
(PID.TID 0000.0001)  useSingleCpuIO = /* only master MPI process does I/O */
(PID.TID 0000.0001)                   T
(PID.TID 0000.0001)     ;
(PID.TID 0000.0001)  useSingleCpuInput = /* only master process reads input */
(PID.TID 0000.0001)                   T
(PID.TID 0000.0001)     ;
(PID.TID 0000.0001) /* debLev[*]  : level of debug & auxiliary message printing */
(PID.TID 0000.0001) debLevZero =  0 ; /* level of disabled aux. msg printing */
(PID.TID 0000.0001)    debLevA =  1 ; /* level of minimum  aux. msg printing */
(PID.TID 0000.0001)    debLevB =  2 ; /* level of low aux. print (report read-file opening)*/
(PID.TID 0000.0001)    debLevC =  3 ; /* level of moderate debug prt (most pkgs debug msg) */
(PID.TID 0000.0001)    debLevD =  4 ; /* level of enhanced debug prt (add DEBUG_STATS prt) */
(PID.TID 0000.0001)    debLevE =  5 ; /* level of extensive debug printing */
(PID.TID 0000.0001) debugLevel =  /* select debug printing level */
(PID.TID 0000.0001)                       2
(PID.TID 0000.0001)     ;
(PID.TID 0000.0001) //
(PID.TID 0000.0001) // Elliptic solver(s) paramters ( PARM02 in namelist )
(PID.TID 0000.0001) //
(PID.TID 0000.0001) cg2dMaxIters =   /* Upper limit on 2d con. grad iterations  */
(PID.TID 0000.0001)                    1000
(PID.TID 0000.0001)     ;
(PID.TID 0000.0001) cg2dChkResFreq =   /* 2d con. grad convergence test frequency */
(PID.TID 0000.0001)                       1
(PID.TID 0000.0001)     ;
(PID.TID 0000.0001) cg2dUseMinResSol= /* use cg2d last-iter(=0) / min-resid.(=1) solution */
(PID.TID 0000.0001)                       0
(PID.TID 0000.0001)     ;
(PID.TID 0000.0001) cg2dTargetResidual =   /* 2d con. grad target residual  */
(PID.TID 0000.0001)                 1.000000000000000E-13
(PID.TID 0000.0001)     ;
(PID.TID 0000.0001) cg2dTargetResWunit =   /* CG2d target residual [W units] */
(PID.TID 0000.0001)                -1.000000000000000E+00
(PID.TID 0000.0001)     ;
(PID.TID 0000.0001) cg2dPreCondFreq =   /* Freq. for updating cg2d preconditioner */
(PID.TID 0000.0001)                       1
(PID.TID 0000.0001)     ;
(PID.TID 0000.0001) useSRCGSolver =  /* use single reduction CG solver(s) */
(PID.TID 0000.0001)                   F
(PID.TID 0000.0001)     ;
(PID.TID 0000.0001) printResidualFreq = /* Freq. for printing CG residual */
(PID.TID 0000.0001)                       0
(PID.TID 0000.0001)     ;
(PID.TID 0000.0001) //
(PID.TID 0000.0001) // Time stepping paramters ( PARM03 in namelist )
(PID.TID 0000.0001) //
(PID.TID 0000.0001) deltaTMom =   /* Momentum equation timestep ( s ) */
(PID.TID 0000.0001)                 1.500000000000000E+01
(PID.TID 0000.0001)     ;
(PID.TID 0000.0001) deltaTFreeSurf = /* FreeSurface equation timestep ( s ) */
(PID.TID 0000.0001)                 1.500000000000000E+01
(PID.TID 0000.0001)     ;
(PID.TID 0000.0001) dTtracerLev =  /* Tracer equation timestep ( s ) */
(PID.TID 0000.0001)   100 @  1.500000000000000E+01              /* K =  1:100 */
(PID.TID 0000.0001)     ;
(PID.TID 0000.0001) deltaTClock  =   /* Model clock timestep ( s ) */
(PID.TID 0000.0001)                 1.500000000000000E+01
(PID.TID 0000.0001)     ;
(PID.TID 0000.0001) cAdjFreq =   /* Convective adjustment interval ( s ) */
(PID.TID 0000.0001)                 0.000000000000000E+00
(PID.TID 0000.0001)     ;
(PID.TID 0000.0001) momForcingOutAB = /* =1: take Momentum Forcing out of Adams-Bash. stepping */
(PID.TID 0000.0001)                       0
(PID.TID 0000.0001)     ;
(PID.TID 0000.0001) tracForcingOutAB = /* =1: take T,S,pTr Forcing out of Adams-Bash. stepping */
(PID.TID 0000.0001)                       0
(PID.TID 0000.0001)     ;
(PID.TID 0000.0001) momDissip_In_AB = /* put Dissipation Tendency in Adams-Bash. stepping */
(PID.TID 0000.0001)                   T
(PID.TID 0000.0001)     ;
(PID.TID 0000.0001) doAB_onGtGs = /* apply AB on Tendencies (rather than on T,S)*/
(PID.TID 0000.0001)                   T
(PID.TID 0000.0001)     ;
(PID.TID 0000.0001) abEps =   /* Adams-Bashforth-2 stabilizing weight */
(PID.TID 0000.0001)                 1.000000000000000E-01
(PID.TID 0000.0001)     ;
(PID.TID 0000.0001) pickupStrictlyMatch= /* stop if pickup do not strictly match */
(PID.TID 0000.0001)                   T
(PID.TID 0000.0001)     ;
(PID.TID 0000.0001) nIter0   =   /* Run starting timestep number */
(PID.TID 0000.0001)                       0
(PID.TID 0000.0001)     ;
(PID.TID 0000.0001) nTimeSteps = /* Number of timesteps */
(PID.TID 0000.0001)                    7200
(PID.TID 0000.0001)     ;
(PID.TID 0000.0001) nEndIter =   /* Run ending timestep number */
(PID.TID 0000.0001)                    7200
(PID.TID 0000.0001)     ;
(PID.TID 0000.0001) baseTime =   /* Model base time ( s ) */
(PID.TID 0000.0001)                 0.000000000000000E+00
(PID.TID 0000.0001)     ;
(PID.TID 0000.0001) startTime =  /* Run start time ( s ) */
(PID.TID 0000.0001)                 0.000000000000000E+00
(PID.TID 0000.0001)     ;
(PID.TID 0000.0001) endTime  =   /* Integration ending time ( s ) */
(PID.TID 0000.0001)                 1.080000000000000E+05
(PID.TID 0000.0001)     ;
(PID.TID 0000.0001) pChkPtFreq = /* Permanent restart/pickup file interval ( s ) */
(PID.TID 0000.0001)                 2.160000000000000E+04
(PID.TID 0000.0001)     ;
(PID.TID 0000.0001) chkPtFreq  = /* Rolling restart/pickup file interval ( s ) */
(PID.TID 0000.0001)                 0.000000000000000E+00
(PID.TID 0000.0001)     ;
(PID.TID 0000.0001) pickup_write_mdsio =   /* Model IO flag. */
(PID.TID 0000.0001)                   T
(PID.TID 0000.0001)     ;
(PID.TID 0000.0001) pickup_read_mdsio =   /* Model IO flag. */
(PID.TID 0000.0001)                   T
(PID.TID 0000.0001)     ;
(PID.TID 0000.0001) pickup_write_immed =   /* Model IO flag. */
(PID.TID 0000.0001)                   F
(PID.TID 0000.0001)     ;
(PID.TID 0000.0001) writePickupAtEnd =   /* Model IO flag. */
(PID.TID 0000.0001)                   T
(PID.TID 0000.0001)     ;
(PID.TID 0000.0001) dumpFreq =   /* Model state write out interval ( s ). */
(PID.TID 0000.0001)                 7.200000000000000E+03
(PID.TID 0000.0001)     ;
(PID.TID 0000.0001) dumpInitAndLast= /* write out Initial & Last iter. model state */
(PID.TID 0000.0001)                   T
(PID.TID 0000.0001)     ;
(PID.TID 0000.0001) snapshot_mdsio =   /* Model IO flag. */
(PID.TID 0000.0001)                   T
(PID.TID 0000.0001)     ;
(PID.TID 0000.0001) monitorFreq =   /* Monitor output interval ( s ). */
(PID.TID 0000.0001)                 7.200000000000000E+03
(PID.TID 0000.0001)     ;
(PID.TID 0000.0001) monitorSelect = /* select group of variables to monitor */
(PID.TID 0000.0001)                       3
(PID.TID 0000.0001)     ;
(PID.TID 0000.0001) monitor_stdio =   /* Model IO flag. */
(PID.TID 0000.0001)                   T
(PID.TID 0000.0001)     ;
(PID.TID 0000.0001) externForcingPeriod =   /* forcing period (s) */
(PID.TID 0000.0001)                 0.000000000000000E+00
(PID.TID 0000.0001)     ;
(PID.TID 0000.0001) externForcingCycle =   /* period of the cyle (s). */
(PID.TID 0000.0001)                 0.000000000000000E+00
(PID.TID 0000.0001)     ;
(PID.TID 0000.0001) tauThetaClimRelax =   /* relaxation time scale (s) */
(PID.TID 0000.0001)                 0.000000000000000E+00
(PID.TID 0000.0001)     ;
(PID.TID 0000.0001) tauSaltClimRelax =   /* relaxation time scale (s) */
(PID.TID 0000.0001)                 0.000000000000000E+00
(PID.TID 0000.0001)     ;
(PID.TID 0000.0001) latBandClimRelax =   /* max. Lat. where relaxation */
(PID.TID 0000.0001)                 1.500000000000000E+04
(PID.TID 0000.0001)     ;
(PID.TID 0000.0001) //
(PID.TID 0000.0001) // Gridding paramters ( PARM04 in namelist )
(PID.TID 0000.0001) //
(PID.TID 0000.0001) usingCartesianGrid = /* Cartesian coordinates flag ( True/False ) */
(PID.TID 0000.0001)                   T
(PID.TID 0000.0001)     ;
(PID.TID 0000.0001) usingCylindricalGrid = /* Cylindrical coordinates flag ( True/False ) */
(PID.TID 0000.0001)                   F
(PID.TID 0000.0001)     ;
(PID.TID 0000.0001) usingSphericalPolarGrid = /* Spherical coordinates flag ( True/False ) */
(PID.TID 0000.0001)                   F
(PID.TID 0000.0001)     ;
(PID.TID 0000.0001) usingCurvilinearGrid = /* Curvilinear coordinates flag ( True/False ) */
(PID.TID 0000.0001)                   F
(PID.TID 0000.0001)     ;
(PID.TID 0000.0001) selectSigmaCoord = /* Hybrid-Sigma Vert. Coordinate option */
(PID.TID 0000.0001)                       0
(PID.TID 0000.0001)     ;
(PID.TID 0000.0001) Ro_SeaLevel = /* r(1) ( units of r ==  m ) */
(PID.TID 0000.0001)                 0.000000000000000E+00
(PID.TID 0000.0001)     ;
(PID.TID 0000.0001) rSigmaBnd = /* r/sigma transition ( units of r ==  m ) */
(PID.TID 0000.0001)                 1.234567000000000E+05
(PID.TID 0000.0001)     ;
(PID.TID 0000.0001) rkSign =   /* index orientation relative to vertical coordinate */
(PID.TID 0000.0001)                -1.000000000000000E+00
(PID.TID 0000.0001)     ;
(PID.TID 0000.0001) gravitySign = /* gravity orientation relative to vertical coordinate */
(PID.TID 0000.0001)                -1.000000000000000E+00
(PID.TID 0000.0001)     ;
(PID.TID 0000.0001) mass2rUnit = /* convert mass per unit area [kg/m2] to r-units [m] */
(PID.TID 0000.0001)                 1.000200040008002E-03
(PID.TID 0000.0001)     ;
(PID.TID 0000.0001) rUnit2mass = /* convert r-units [m] to mass per unit area [kg/m2] */
(PID.TID 0000.0001)                 9.998000000000000E+02
(PID.TID 0000.0001)     ;
(PID.TID 0000.0001) drC =   /* C spacing ( units of r ) */
(PID.TID 0000.0001)                 8.938271592110918E-01,      /* K =  1 */
(PID.TID 0000.0001)                 1.768619871431060E+00,      /* K =  2 */
(PID.TID 0000.0001)                 1.730956324465319E+00,      /* K =  3 */
(PID.TID 0000.0001)                 1.694094839487546E+00,      /* K =  4 */
(PID.TID 0000.0001)                 1.658018336230896E+00,      /* K =  5 */
(PID.TID 0000.0001)                 1.622710098160403E+00,      /* K =  6 */
(PID.TID 0000.0001)                 1.588153764727151E+00,      /* K =  7 */
(PID.TID 0000.0001)                 1.554333323787391E+00,      /* K =  8 */
(PID.TID 0000.0001)                 1.521233104183099E+00,      /* K =  9 */
(PID.TID 0000.0001)                 1.488837768480531E+00,      /* K = 10 */
(PID.TID 0000.0001)                 1.457132305863421E+00,      /* K = 11 */
(PID.TID 0000.0001)                 1.426102025177510E+00,      /* K = 12 */
(PID.TID 0000.0001)                 1.395732548123206E+00,      /* K = 13 */
(PID.TID 0000.0001)                 1.366009802593203E+00,      /* K = 14 */
(PID.TID 0000.0001)                 1.336920016151980E+00,      /* K = 15 */
(PID.TID 0000.0001)                 1.308449709654159E+00,      /* K = 16 */
(PID.TID 0000.0001)                 1.280585690998757E+00,      /* K = 17 */
(PID.TID 0000.0001)                 1.253315049016451E+00,      /* K = 18 */
(PID.TID 0000.0001)                 1.226625147487014E+00,      /* K = 19 */
(PID.TID 0000.0001)                 1.200503619284147E+00,      /* K = 20 */
(PID.TID 0000.0001)                 1.174938360645011E+00,      /* K = 21 */
(PID.TID 0000.0001)                 1.149917525561778E+00,      /* K = 22 */
(PID.TID 0000.0001)                 1.125429520292630E+00,      /* K = 23 */
(PID.TID 0000.0001)                 1.101462997989634E+00,      /* K = 24 */
(PID.TID 0000.0001)                 1.078006853441037E+00,      /* K = 25 */
(PID.TID 0000.0001)                 1.055050217925506E+00,      /* K = 26 */
(PID.TID 0000.0001)                 1.032582454175967E+00,      /* K = 27 */
(PID.TID 0000.0001)                 1.010593151450680E+00,      /* K = 28 */
(PID.TID 0000.0001)                 9.998584140034217E-01,      /* K = 29 */
(PID.TID 0000.0001)     3 @  1.000000000000000E+00,             /* K = 30: 32 */
(PID.TID 0000.0001)                 1.017434101955024E+00,      /* K = 33 */
(PID.TID 0000.0001)                 1.046126953380043E+00,      /* K = 34 */
(PID.TID 0000.0001)                 1.068889429292269E+00,      /* K = 35 */
(PID.TID 0000.0001)                 1.092147189555960E+00,      /* K = 36 */
(PID.TID 0000.0001)                 1.115911010968409E+00,      /* K = 37 */
(PID.TID 0000.0001)                 1.140191904817177E+00,      /* K = 38 */
(PID.TID 0000.0001)                 1.165001121982321E+00,      /* K = 39 */
(PID.TID 0000.0001)                 1.190350158149641E+00,      /* K = 40 */
(PID.TID 0000.0001)                 1.216250759137361E+00,      /* K = 41 */
(PID.TID 0000.0001)                 1.242714926338713E+00,      /* K = 42 */
(PID.TID 0000.0001)                 1.269754922282945E+00,      /* K = 43 */
(PID.TID 0000.0001)                 1.297383276317330E+00,      /* K = 44 */
(PID.TID 0000.0001)                 1.325612790412805E+00,      /* K = 45 */
(PID.TID 0000.0001)                 1.354456545095941E+00,      /* K = 46 */
(PID.TID 0000.0001)                 1.383927905509979E+00,      /* K = 47 */
(PID.TID 0000.0001)                 1.414040527607753E+00,      /* K = 48 */
(PID.TID 0000.0001)                 1.444808364479354E+00,      /* K = 49 */
(PID.TID 0000.0001)                 1.476245672817491E+00,      /* K = 50 */
(PID.TID 0000.0001)                 1.508367019523514E+00,      /* K = 51 */
(PID.TID 0000.0001)                 1.541187288457190E+00,      /* K = 52 */
(PID.TID 0000.0001)                 1.574721687333338E+00,      /* K = 53 */
(PID.TID 0000.0001)                 1.608985754768529E+00,      /* K = 54 */
(PID.TID 0000.0001)                 1.643995367481116E+00,      /* K = 55 */
(PID.TID 0000.0001)                 1.679766747647922E+00,      /* K = 56 */
(PID.TID 0000.0001)                 1.716316470421008E+00,      /* K = 57 */
(PID.TID 0000.0001)                 1.753661471607993E+00,      /* K = 58 */
(PID.TID 0000.0001)                 1.791819055519489E+00,      /* K = 59 */
(PID.TID 0000.0001)                 1.830806902987283E+00,      /* K = 60 */
(PID.TID 0000.0001)                 1.870643079556998E+00,      /* K = 61 */
(PID.TID 0000.0001)                 1.911346043858999E+00,      /* K = 62 */
(PID.TID 0000.0001)                 1.952934656161451E+00,      /* K = 63 */
(PID.TID 0000.0001)                 1.995428187109485E+00,      /* K = 64 */
(PID.TID 0000.0001)                 2.038846326654500E+00,      /* K = 65 */
(PID.TID 0000.0001)                 2.083209193177779E+00,      /* K = 66 */
(PID.TID 0000.0001)                 2.128537342812607E+00,      /* K = 67 */
(PID.TID 0000.0001)                 2.174851778969233E+00,      /* K = 68 */
(PID.TID 0000.0001)                 2.222173962067085E+00,      /* K = 69 */
(PID.TID 0000.0001)                 2.270525819478747E+00,      /* K = 70 */
(PID.TID 0000.0001)                 2.319929755690298E+00,      /* K = 71 */
(PID.TID 0000.0001)                 2.370408662682739E+00,      /* K = 72 */
(PID.TID 0000.0001)                 2.421985930539297E+00,      /* K = 73 */
(PID.TID 0000.0001)                 2.474685458283539E+00,      /* K = 74 */
(PID.TID 0000.0001)                 2.528531664953306E+00,      /* K = 75 */
(PID.TID 0000.0001)                 2.583549500915603E+00,      /* K = 76 */
(PID.TID 0000.0001)                 2.639764459427689E+00,      /* K = 77 */
(PID.TID 0000.0001)                 2.697202588449726E+00,      /* K = 78 */
(PID.TID 0000.0001)                 2.755890502714446E+00,      /* K = 79 */
(PID.TID 0000.0001)                 2.815855396059451E+00,      /* K = 80 */
(PID.TID 0000.0001)                 2.877125054027847E+00,      /* K = 81 */
(PID.TID 0000.0001)                 2.939727866743044E+00,      /* K = 82 */
(PID.TID 0000.0001)                 3.003692842063710E+00,      /* K = 83 */
(PID.TID 0000.0001)                 3.069049619024951E+00,      /* K = 84 */
(PID.TID 0000.0001)                 3.135828481571954E+00,      /* K = 85 */
(PID.TID 0000.0001)                 3.204060372592473E+00,      /* K = 86 */
(PID.TID 0000.0001)                 3.273776908254621E+00,      /* K = 87 */
(PID.TID 0000.0001)                 3.345010392656657E+00,      /* K = 88 */
(PID.TID 0000.0001)                 3.417793832795525E+00,      /* K = 89 */
(PID.TID 0000.0001)                 3.492160953861089E+00,      /* K = 90 */
(PID.TID 0000.0001)                 3.568146214863155E+00,      /* K = 91 */
(PID.TID 0000.0001)                 3.645784824598524E+00,      /* K = 92 */
(PID.TID 0000.0001)                 3.725112757965455E+00,      /* K = 93 */
(PID.TID 0000.0001)                 3.806166772633128E+00,      /* K = 94 */
(PID.TID 0000.0001)                 3.888984426073803E+00,      /* K = 95 */
(PID.TID 0000.0001)                 3.973604092965577E+00,      /* K = 96 */
(PID.TID 0000.0001)                 4.060064982973822E+00,      /* K = 97 */
(PID.TID 0000.0001)                 4.148407158919499E+00,      /* K = 98 */
(PID.TID 0000.0001)                 4.238671555342814E+00,      /* K = 99 */
(PID.TID 0000.0001)                 4.330899997470790E+00,      /* K =100 */
(PID.TID 0000.0001)                 2.188755257190682E+00       /* K =101 */
(PID.TID 0000.0001)     ;
(PID.TID 0000.0001) drF =   /* W spacing ( units of r ) */
(PID.TID 0000.0001)                 1.787654318422184E+00,      /* K =  1 */
(PID.TID 0000.0001)                 1.749585424439936E+00,      /* K =  2 */
(PID.TID 0000.0001)                 1.712327224490701E+00,      /* K =  3 */
(PID.TID 0000.0001)                 1.675862454484391E+00,      /* K =  4 */
(PID.TID 0000.0001)                 1.640174217977400E+00,      /* K =  5 */
(PID.TID 0000.0001)                 1.605245978343405E+00,      /* K =  6 */
(PID.TID 0000.0001)                 1.571061551110896E+00,      /* K =  7 */
(PID.TID 0000.0001)                 1.537605096463885E+00,      /* K =  8 */
(PID.TID 0000.0001)                 1.504861111902312E+00,      /* K =  9 */
(PID.TID 0000.0001)                 1.472814425058751E+00,      /* K = 10 */
(PID.TID 0000.0001)                 1.441450186668091E+00,      /* K = 11 */
(PID.TID 0000.0001)                 1.410753863686929E+00,      /* K = 12 */
(PID.TID 0000.0001)                 1.380711232559483E+00,      /* K = 13 */
(PID.TID 0000.0001)                 1.351308372626922E+00,      /* K = 14 */
(PID.TID 0000.0001)                 1.322531659677038E+00,      /* K = 15 */
(PID.TID 0000.0001)                 1.294367759631280E+00,      /* K = 16 */
(PID.TID 0000.0001)                 1.266803622366234E+00,      /* K = 17 */
(PID.TID 0000.0001)                 1.239826475666668E+00,      /* K = 18 */
(PID.TID 0000.0001)                 1.213423819307359E+00,      /* K = 19 */
(PID.TID 0000.0001)                 1.187583419260936E+00,      /* K = 20 */
(PID.TID 0000.0001)                 1.162293302029086E+00,      /* K = 21 */
(PID.TID 0000.0001)                 1.137541749094471E+00,      /* K = 22 */
(PID.TID 0000.0001)                 1.113317291490789E+00,      /* K = 23 */
(PID.TID 0000.0001)                 1.089608704488480E+00,      /* K = 24 */
(PID.TID 0000.0001)                 1.066405002393594E+00,      /* K = 25 */
(PID.TID 0000.0001)                 1.043695433457419E+00,      /* K = 26 */
(PID.TID 0000.0001)                 1.021469474894516E+00,      /* K = 27 */
(PID.TID 0000.0001)                 9.997168280068435E-01,      /* K = 28 */
(PID.TID 0000.0001)     4 @  1.000000000000000E+00,             /* K = 29: 32 */
(PID.TID 0000.0001)                 1.034868203910047E+00,      /* K = 33 */
(PID.TID 0000.0001)                 1.057385702850038E+00,      /* K = 34 */
(PID.TID 0000.0001)                 1.080393155734499E+00,      /* K = 35 */
(PID.TID 0000.0001)                 1.103901223377420E+00,      /* K = 36 */
(PID.TID 0000.0001)                 1.127920798559398E+00,      /* K = 37 */
(PID.TID 0000.0001)                 1.152463011074956E+00,      /* K = 38 */
(PID.TID 0000.0001)                 1.177539232889686E+00,      /* K = 39 */
(PID.TID 0000.0001)                 1.203161083409596E+00,      /* K = 40 */
(PID.TID 0000.0001)                 1.229340434865126E+00,      /* K = 41 */
(PID.TID 0000.0001)                 1.256089417812301E+00,      /* K = 42 */
(PID.TID 0000.0001)                 1.283420426753590E+00,      /* K = 43 */
(PID.TID 0000.0001)                 1.311346125881070E+00,      /* K = 44 */
(PID.TID 0000.0001)                 1.339879454944540E+00,      /* K = 45 */
(PID.TID 0000.0001)                 1.369033635247341E+00,      /* K = 46 */
(PID.TID 0000.0001)                 1.398822175772617E+00,      /* K = 47 */
(PID.TID 0000.0001)                 1.429258879442888E+00,      /* K = 48 */
(PID.TID 0000.0001)                 1.460357849515820E+00,      /* K = 49 */
(PID.TID 0000.0001)                 1.492133496119162E+00,      /* K = 50 */
(PID.TID 0000.0001)                 1.524600542927867E+00,      /* K = 51 */
(PID.TID 0000.0001)                 1.557774033986513E+00,      /* K = 52 */
(PID.TID 0000.0001)                 1.591669340680163E+00,      /* K = 53 */
(PID.TID 0000.0001)                 1.626302168856896E+00,      /* K = 54 */
(PID.TID 0000.0001)                 1.661688566105336E+00,      /* K = 55 */
(PID.TID 0000.0001)                 1.697844929190508E+00,      /* K = 56 */
(PID.TID 0000.0001)                 1.734788011651508E+00,      /* K = 57 */
(PID.TID 0000.0001)                 1.772534931564478E+00,      /* K = 58 */
(PID.TID 0000.0001)                 1.811103179474499E+00,      /* K = 59 */
(PID.TID 0000.0001)                 1.850510626500068E+00,      /* K = 60 */
(PID.TID 0000.0001)                 1.890775532613928E+00,      /* K = 61 */
(PID.TID 0000.0001)                 1.931916555104069E+00,      /* K = 62 */
(PID.TID 0000.0001)                 1.973952757218834E+00,      /* K = 63 */
(PID.TID 0000.0001)                 2.016903617000135E+00,      /* K = 64 */
(PID.TID 0000.0001)                 2.060789036308865E+00,      /* K = 65 */
(PID.TID 0000.0001)                 2.105629350046693E+00,      /* K = 66 */
(PID.TID 0000.0001)                 2.151445335578520E+00,      /* K = 67 */
(PID.TID 0000.0001)                 2.198258222359945E+00,      /* K = 68 */
(PID.TID 0000.0001)                 2.246089701774225E+00,      /* K = 69 */
(PID.TID 0000.0001)                 2.294961937183268E+00,      /* K = 70 */
(PID.TID 0000.0001)                 2.344897574197328E+00,      /* K = 71 */
(PID.TID 0000.0001)                 2.395919751168150E+00,      /* K = 72 */
(PID.TID 0000.0001)                 2.448052109910444E+00,      /* K = 73 */
(PID.TID 0000.0001)                 2.501318806656634E+00,      /* K = 74 */
(PID.TID 0000.0001)                 2.555744523249977E+00,      /* K = 75 */
(PID.TID 0000.0001)                 2.611354478581228E+00,      /* K = 76 */
(PID.TID 0000.0001)                 2.668174440274151E+00,      /* K = 77 */
(PID.TID 0000.0001)                 2.726230736625301E+00,      /* K = 78 */
(PID.TID 0000.0001)                 2.785550268803591E+00,      /* K = 79 */
(PID.TID 0000.0001)                 2.846160523315312E+00,      /* K = 80 */
(PID.TID 0000.0001)                 2.908089584740382E+00,      /* K = 81 */
(PID.TID 0000.0001)                 2.971366148745707E+00,      /* K = 82 */
(PID.TID 0000.0001)                 3.036019535381714E+00,      /* K = 83 */
(PID.TID 0000.0001)                 3.102079702668187E+00,      /* K = 84 */
(PID.TID 0000.0001)                 3.169577260475721E+00,      /* K = 85 */
(PID.TID 0000.0001)                 3.238543484709223E+00,      /* K = 86 */
(PID.TID 0000.0001)                 3.309010331800017E+00,      /* K = 87 */
(PID.TID 0000.0001)                 3.381010453513297E+00,      /* K = 88 */
(PID.TID 0000.0001)                 3.454577212077754E+00,      /* K = 89 */
(PID.TID 0000.0001)                 3.529744695644424E+00,      /* K = 90 */
(PID.TID 0000.0001)                 3.606547734081887E+00,      /* K = 91 */
(PID.TID 0000.0001)                 3.685021915115160E+00,      /* K = 92 */
(PID.TID 0000.0001)                 3.765203600815750E+00,      /* K = 93 */
(PID.TID 0000.0001)                 3.847129944450507E+00,      /* K = 94 */
(PID.TID 0000.0001)                 3.930838907697098E+00,      /* K = 95 */
(PID.TID 0000.0001)                 4.016369278234057E+00,      /* K = 96 */
(PID.TID 0000.0001)                 4.103760687713586E+00,      /* K = 97 */
(PID.TID 0000.0001)                 4.193053630125410E+00,      /* K = 98 */
(PID.TID 0000.0001)                 4.284289480560216E+00,      /* K = 99 */
(PID.TID 0000.0001)                 4.377510514381364E+00       /* K =100 */
(PID.TID 0000.0001)     ;
(PID.TID 0000.0001) delX = /* U spacing ( m - cartesian, degrees - spherical ) */
(PID.TID 0000.0001)                 1.263294638016668E+03,      /* I =  1 */
(PID.TID 0000.0001)                 1.237496063806571E+03,      /* I =  2 */
(PID.TID 0000.0001)                 1.212224339320398E+03,      /* I =  3 */
(PID.TID 0000.0001)      . . .
(PID.TID 0000.0001)                 4.790113490274632E+02,      /* I = 48 */
(PID.TID 0000.0001)                 4.692291418815790E+02,      /* I = 49 */
(PID.TID 0000.0001)                 4.596467036489769E+02,      /* I = 50 */
(PID.TID 0000.0001)                 4.502599547167311E+02,      /* I = 51 */
(PID.TID 0000.0001)                 4.410648987843862E+02,      /* I = 52 */
(PID.TID 0000.0001)                 4.320576211625778E+02,      /* I = 53 */
(PID.TID 0000.0001)      . . .
(PID.TID 0000.0001)                 2.000000000000000E+02,      /* I = 98 */
(PID.TID 0000.0001)                 2.000000000000000E+02,      /* I = 99 */
(PID.TID 0000.0001)                 2.000000000000000E+02,      /* I =100 */
(PID.TID 0000.0001)                 2.000000000000000E+02,      /* I =101 */
(PID.TID 0000.0001)                 2.000000000000000E+02,      /* I =102 */
(PID.TID 0000.0001)                 2.000000000000000E+02,      /* I =103 */
(PID.TID 0000.0001)      . . .
(PID.TID 0000.0001)                 3.612641354876311E+02,      /* I =148 */
(PID.TID 0000.0001)                 3.687955530665730E+02,      /* I =149 */
(PID.TID 0000.0001)                 3.764839811128614E+02,      /* I =150 */
(PID.TID 0000.0001)                 3.843326928863569E+02,      /* I =151 */
(PID.TID 0000.0001)                 3.923450298858749E+02,      /* I =152 */
(PID.TID 0000.0001)                 4.005244032717896E+02,      /* I =153 */
(PID.TID 0000.0001)      . . .
(PID.TID 0000.0001)                 1.013599012055986E+03,      /* I =198 */
(PID.TID 0000.0001)                 1.034729915092050E+03,      /* I =199 */
(PID.TID 0000.0001)                 1.056301342495056E+03       /* I =200 */
(PID.TID 0000.0001)     ;
(PID.TID 0000.0001) delY = /* V spacing ( m - cartesian, degrees - spherical ) */
(PID.TID 0000.0001)                 5.000000000000000E+03       /* J =  1 */
(PID.TID 0000.0001)     ;
(PID.TID 0000.0001) xgOrigin = /* X-axis origin of West  edge (cartesian: m, lat-lon: deg) */
(PID.TID 0000.0001)                 0.000000000000000E+00
(PID.TID 0000.0001)     ;
(PID.TID 0000.0001) ygOrigin = /* Y-axis origin of South edge (cartesian: m, lat-lon: deg) */
(PID.TID 0000.0001)                 0.000000000000000E+00
(PID.TID 0000.0001)     ;
(PID.TID 0000.0001) rSphere =  /* Radius ( ignored - cartesian, m - spherical ) */
(PID.TID 0000.0001)                 6.370000000000000E+06
(PID.TID 0000.0001)     ;
(PID.TID 0000.0001) deepAtmosphere = /* Deep/Shallow Atmosphere flag (True/False) */
(PID.TID 0000.0001)                   F
(PID.TID 0000.0001)     ;
(PID.TID 0000.0001) xC =  /* xC(:,1,:,1) : P-point X coord ( deg. or m if cartesian) */
(PID.TID 0000.0001)                 6.316473190083342E+02,      /* I =  1 */
(PID.TID 0000.0001)                 1.882042669919954E+03,      /* I =  2 */
(PID.TID 0000.0001)                 3.106902871483439E+03,      /* I =  3 */
(PID.TID 0000.0001)      . . .
(PID.TID 0000.0001)                 3.864398747251778E+04,      /* I = 48 */
(PID.TID 0000.0001)                 3.911810771797229E+04,      /* I = 49 */
(PID.TID 0000.0001)                 3.958254564073758E+04,      /* I = 50 */
(PID.TID 0000.0001)                 4.003749896992043E+04,      /* I = 51 */
(PID.TID 0000.0001)                 4.048316139667099E+04,      /* I = 52 */
(PID.TID 0000.0001)                 4.091972265664447E+04,      /* I = 53 */
(PID.TID 0000.0001)      . . .
(PID.TID 0000.0001)                 5.369999999999999E+04,      /* I = 98 */
(PID.TID 0000.0001)                 5.389999999999999E+04,      /* I = 99 */
(PID.TID 0000.0001)                 5.409999999999999E+04,      /* I =100 */
(PID.TID 0000.0001)                 5.429999999999999E+04,      /* I =101 */
(PID.TID 0000.0001)                 5.449999999999999E+04,      /* I =102 */
(PID.TID 0000.0001)                 5.469999999999999E+04,      /* I =103 */
(PID.TID 0000.0001)      . . .
(PID.TID 0000.0001)                 6.578505387737689E+04,      /* I =148 */
(PID.TID 0000.0001)                 6.615008372165399E+04,      /* I =149 */
(PID.TID 0000.0001)                 6.652272348874371E+04,      /* I =150 */
(PID.TID 0000.0001)                 6.690313182574332E+04,      /* I =151 */
(PID.TID 0000.0001)                 6.729147068712943E+04,      /* I =152 */
(PID.TID 0000.0001)                 6.768790540370827E+04,      /* I =153 */
(PID.TID 0000.0001)      . . .
(PID.TID 0000.0001)                 9.740216923638493E+04,      /* I =198 */
(PID.TID 0000.0001)                 9.842633369995895E+04,      /* I =199 */
(PID.TID 0000.0001)                 9.947184932875249E+04       /* I =200 */
(PID.TID 0000.0001)     ;
(PID.TID 0000.0001) yC =  /* yC(1,:,1,:) : P-point Y coord ( deg. or m if cartesian) */
(PID.TID 0000.0001)                 2.500000000000000E+03       /* J =  1 */
(PID.TID 0000.0001)     ;
(PID.TID 0000.0001) rcoord = /* P-point R coordinate (  units of r ) */
(PID.TID 0000.0001)                -8.938271592110918E-01,      /* K =  1 */
(PID.TID 0000.0001)                -2.662447030642152E+00,      /* K =  2 */
(PID.TID 0000.0001)                -4.393403355107470E+00,      /* K =  3 */
(PID.TID 0000.0001)                -6.087498194595016E+00,      /* K =  4 */
(PID.TID 0000.0001)                -7.745516530825912E+00,      /* K =  5 */
(PID.TID 0000.0001)                -9.368226628986314E+00,      /* K =  6 */
(PID.TID 0000.0001)                -1.095638039371346E+01,      /* K =  7 */
(PID.TID 0000.0001)                -1.251071371750086E+01,      /* K =  8 */
(PID.TID 0000.0001)                -1.403194682168395E+01,      /* K =  9 */
(PID.TID 0000.0001)                -1.552078459016449E+01,      /* K = 10 */
(PID.TID 0000.0001)                -1.697791689602791E+01,      /* K = 11 */
(PID.TID 0000.0001)                -1.840401892120542E+01,      /* K = 12 */
(PID.TID 0000.0001)                -1.979975146932862E+01,      /* K = 13 */
(PID.TID 0000.0001)                -2.116576127192182E+01,      /* K = 14 */
(PID.TID 0000.0001)                -2.250268128807380E+01,      /* K = 15 */
(PID.TID 0000.0001)                -2.381113099772796E+01,      /* K = 16 */
(PID.TID 0000.0001)                -2.509171668872672E+01,      /* K = 17 */
(PID.TID 0000.0001)                -2.634503173774317E+01,      /* K = 18 */
(PID.TID 0000.0001)                -2.757165688523018E+01,      /* K = 19 */
(PID.TID 0000.0001)                -2.877216050451432E+01,      /* K = 20 */
(PID.TID 0000.0001)                -2.994709886515934E+01,      /* K = 21 */
(PID.TID 0000.0001)                -3.109701639072112E+01,      /* K = 22 */
(PID.TID 0000.0001)                -3.222244591101374E+01,      /* K = 23 */
(PID.TID 0000.0001)                -3.332390890900338E+01,      /* K = 24 */
(PID.TID 0000.0001)                -3.440191576244442E+01,      /* K = 25 */
(PID.TID 0000.0001)                -3.545696598036992E+01,      /* K = 26 */
(PID.TID 0000.0001)                -3.648954843454589E+01,      /* K = 27 */
(PID.TID 0000.0001)                -3.750014158599657E+01,      /* K = 28 */
(PID.TID 0000.0001)                -3.849999999999999E+01,      /* K = 29 */
(PID.TID 0000.0001)                -3.949999999999999E+01,      /* K = 30 */
(PID.TID 0000.0001)                -4.049999999999999E+01,      /* K = 31 */
(PID.TID 0000.0001)                -4.149999999999999E+01,      /* K = 32 */
(PID.TID 0000.0001)                -4.251743410195501E+01,      /* K = 33 */
(PID.TID 0000.0001)                -4.356356105533506E+01,      /* K = 34 */
(PID.TID 0000.0001)                -4.463245048462733E+01,      /* K = 35 */
(PID.TID 0000.0001)                -4.572459767418329E+01,      /* K = 36 */
(PID.TID 0000.0001)                -4.684050868515170E+01,      /* K = 37 */
(PID.TID 0000.0001)                -4.798070058996888E+01,      /* K = 38 */
(PID.TID 0000.0001)                -4.914570171195120E+01,      /* K = 39 */
(PID.TID 0000.0001)                -5.033605187010084E+01,      /* K = 40 */
(PID.TID 0000.0001)                -5.155230262923820E+01,      /* K = 41 */
(PID.TID 0000.0001)                -5.279501755557691E+01,      /* K = 42 */
(PID.TID 0000.0001)                -5.406477247785985E+01,      /* K = 43 */
(PID.TID 0000.0001)                -5.536215575417719E+01,      /* K = 44 */
(PID.TID 0000.0001)                -5.668776854458999E+01,      /* K = 45 */
(PID.TID 0000.0001)                -5.804222508968594E+01,      /* K = 46 */
(PID.TID 0000.0001)                -5.942615299519591E+01,      /* K = 47 */
(PID.TID 0000.0001)                -6.084019352280367E+01,      /* K = 48 */
(PID.TID 0000.0001)                -6.228500188728302E+01,      /* K = 49 */
(PID.TID 0000.0001)                -6.376124756010051E+01,      /* K = 50 */
(PID.TID 0000.0001)                -6.526961457962403E+01,      /* K = 51 */
(PID.TID 0000.0001)                -6.681080186808123E+01,      /* K = 52 */
(PID.TID 0000.0001)                -6.838552355541457E+01,      /* K = 53 */
(PID.TID 0000.0001)                -6.999450931018309E+01,      /* K = 54 */
(PID.TID 0000.0001)                -7.163850467766420E+01,      /* K = 55 */
(PID.TID 0000.0001)                -7.331827142531212E+01,      /* K = 56 */
(PID.TID 0000.0001)                -7.503458789573313E+01,      /* K = 57 */
(PID.TID 0000.0001)                -7.678824936734112E+01,      /* K = 58 */
(PID.TID 0000.0001)                -7.858006842286061E+01,      /* K = 59 */
(PID.TID 0000.0001)                -8.041087532584788E+01,      /* K = 60 */
(PID.TID 0000.0001)                -8.228151840540488E+01,      /* K = 61 */
(PID.TID 0000.0001)                -8.419286444926388E+01,      /* K = 62 */
(PID.TID 0000.0001)                -8.614579910542533E+01,      /* K = 63 */
(PID.TID 0000.0001)                -8.814122729253481E+01,      /* K = 64 */
(PID.TID 0000.0001)                -9.018007361918930E+01,      /* K = 65 */
(PID.TID 0000.0001)                -9.226328281236708E+01,      /* K = 66 */
(PID.TID 0000.0001)                -9.439182015517969E+01,      /* K = 67 */
(PID.TID 0000.0001)                -9.656667193414891E+01,      /* K = 68 */
(PID.TID 0000.0001)                -9.878884589621600E+01,      /* K = 69 */
(PID.TID 0000.0001)                -1.010593717156948E+02,      /* K = 70 */
(PID.TID 0000.0001)                -1.033793014713850E+02,      /* K = 71 */
(PID.TID 0000.0001)                -1.057497101340678E+02,      /* K = 72 */
(PID.TID 0000.0001)                -1.081716960646071E+02,      /* K = 73 */
(PID.TID 0000.0001)                -1.106463815228906E+02,      /* K = 74 */
(PID.TID 0000.0001)                -1.131749131878439E+02,      /* K = 75 */
(PID.TID 0000.0001)                -1.157584626887595E+02,      /* K = 76 */
(PID.TID 0000.0001)                -1.183982271481872E+02,      /* K = 77 */
(PID.TID 0000.0001)                -1.210954297366370E+02,      /* K = 78 */
(PID.TID 0000.0001)                -1.238513202393514E+02,      /* K = 79 */
(PID.TID 0000.0001)                -1.266671756354109E+02,      /* K = 80 */
(PID.TID 0000.0001)                -1.295443006894387E+02,      /* K = 81 */
(PID.TID 0000.0001)                -1.324840285561818E+02,      /* K = 82 */
(PID.TID 0000.0001)                -1.354877213982455E+02,      /* K = 83 */
(PID.TID 0000.0001)                -1.385567710172704E+02,      /* K = 84 */
(PID.TID 0000.0001)                -1.416925994988424E+02,      /* K = 85 */
(PID.TID 0000.0001)                -1.448966598714348E+02,      /* K = 86 */
(PID.TID 0000.0001)                -1.481704367796895E+02,      /* K = 87 */
(PID.TID 0000.0001)                -1.515154471723461E+02,      /* K = 88 */
(PID.TID 0000.0001)                -1.549332410051417E+02,      /* K = 89 */
(PID.TID 0000.0001)                -1.584254019590028E+02,      /* K = 90 */
(PID.TID 0000.0001)                -1.619935481738659E+02,      /* K = 91 */
(PID.TID 0000.0001)                -1.656393329984645E+02,      /* K = 92 */
(PID.TID 0000.0001)                -1.693644457564299E+02,      /* K = 93 */
(PID.TID 0000.0001)                -1.731706125290630E+02,      /* K = 94 */
(PID.TID 0000.0001)                -1.770595969551368E+02,      /* K = 95 */
(PID.TID 0000.0001)                -1.810332010481024E+02,      /* K = 96 */
(PID.TID 0000.0001)                -1.850932660310762E+02,      /* K = 97 */
(PID.TID 0000.0001)                -1.892416731899957E+02,      /* K = 98 */
(PID.TID 0000.0001)                -1.934803447453386E+02,      /* K = 99 */
(PID.TID 0000.0001)                -1.978112447428094E+02       /* K =100 */
(PID.TID 0000.0001)     ;
(PID.TID 0000.0001) rF =   /* W-Interf. R coordinate (  units of r ) */
(PID.TID 0000.0001)                 0.000000000000000E+00,      /* K =  1 */
(PID.TID 0000.0001)                -1.787654318422184E+00,      /* K =  2 */
(PID.TID 0000.0001)                -3.537239742862120E+00,      /* K =  3 */
(PID.TID 0000.0001)                -5.249566967352821E+00,      /* K =  4 */
(PID.TID 0000.0001)                -6.925429421837212E+00,      /* K =  5 */
(PID.TID 0000.0001)                -8.565603639814611E+00,      /* K =  6 */
(PID.TID 0000.0001)                -1.017084961815802E+01,      /* K =  7 */
(PID.TID 0000.0001)                -1.174191116926891E+01,      /* K =  8 */
(PID.TID 0000.0001)                -1.327951626573280E+01,      /* K =  9 */
(PID.TID 0000.0001)                -1.478437737763511E+01,      /* K = 10 */
(PID.TID 0000.0001)                -1.625719180269386E+01,      /* K = 11 */
(PID.TID 0000.0001)                -1.769864198936195E+01,      /* K = 12 */
(PID.TID 0000.0001)                -1.910939585304888E+01,      /* K = 13 */
(PID.TID 0000.0001)                -2.049010708560836E+01,      /* K = 14 */
(PID.TID 0000.0001)                -2.184141545823529E+01,      /* K = 15 */
(PID.TID 0000.0001)                -2.316394711791232E+01,      /* K = 16 */
(PID.TID 0000.0001)                -2.445831487754360E+01,      /* K = 17 */
(PID.TID 0000.0001)                -2.572511849990983E+01,      /* K = 18 */
(PID.TID 0000.0001)                -2.696494497557650E+01,      /* K = 19 */
(PID.TID 0000.0001)                -2.817836879488386E+01,      /* K = 20 */
(PID.TID 0000.0001)                -2.936595221414479E+01,      /* K = 21 */
(PID.TID 0000.0001)                -3.052824551617388E+01,      /* K = 22 */
(PID.TID 0000.0001)                -3.166578726526835E+01,      /* K = 23 */
(PID.TID 0000.0001)                -3.277910455675914E+01,      /* K = 24 */
(PID.TID 0000.0001)                -3.386871326124762E+01,      /* K = 25 */
(PID.TID 0000.0001)                -3.493511826364121E+01,      /* K = 26 */
(PID.TID 0000.0001)                -3.597881369709863E+01,      /* K = 27 */
(PID.TID 0000.0001)                -3.700028317199315E+01,      /* K = 28 */
(PID.TID 0000.0001)                -3.799999999999999E+01,      /* K = 29 */
(PID.TID 0000.0001)                -3.899999999999999E+01,      /* K = 30 */
(PID.TID 0000.0001)                -3.999999999999999E+01,      /* K = 31 */
(PID.TID 0000.0001)                -4.099999999999999E+01,      /* K = 32 */
(PID.TID 0000.0001)                -4.199999999999999E+01,      /* K = 33 */
(PID.TID 0000.0001)                -4.303486820391004E+01,      /* K = 34 */
(PID.TID 0000.0001)                -4.409225390676008E+01,      /* K = 35 */
(PID.TID 0000.0001)                -4.517264706249458E+01,      /* K = 36 */
(PID.TID 0000.0001)                -4.627654828587200E+01,      /* K = 37 */
(PID.TID 0000.0001)                -4.740446908443139E+01,      /* K = 38 */
(PID.TID 0000.0001)                -4.855693209550635E+01,      /* K = 39 */
(PID.TID 0000.0001)                -4.973447132839603E+01,      /* K = 40 */
(PID.TID 0000.0001)                -5.093763241180563E+01,      /* K = 41 */
(PID.TID 0000.0001)                -5.216697284667075E+01,      /* K = 42 */
(PID.TID 0000.0001)                -5.342306226448305E+01,      /* K = 43 */
(PID.TID 0000.0001)                -5.470648269123664E+01,      /* K = 44 */
(PID.TID 0000.0001)                -5.601782881711772E+01,      /* K = 45 */
(PID.TID 0000.0001)                -5.735770827206225E+01,      /* K = 46 */
(PID.TID 0000.0001)                -5.872674190730960E+01,      /* K = 47 */
(PID.TID 0000.0001)                -6.012556408308221E+01,      /* K = 48 */
(PID.TID 0000.0001)                -6.155482296252510E+01,      /* K = 49 */
(PID.TID 0000.0001)                -6.301518081204092E+01,      /* K = 50 */
(PID.TID 0000.0001)                -6.450731430816009E+01,      /* K = 51 */
(PID.TID 0000.0001)                -6.603191485108796E+01,      /* K = 52 */
(PID.TID 0000.0001)                -6.758968888507448E+01,      /* K = 53 */
(PID.TID 0000.0001)                -6.918135822575464E+01,      /* K = 54 */
(PID.TID 0000.0001)                -7.080766039461153E+01,      /* K = 55 */
(PID.TID 0000.0001)                -7.246934896071687E+01,      /* K = 56 */
(PID.TID 0000.0001)                -7.416719388990738E+01,      /* K = 57 */
(PID.TID 0000.0001)                -7.590198190155888E+01,      /* K = 58 */
(PID.TID 0000.0001)                -7.767451683312336E+01,      /* K = 59 */
(PID.TID 0000.0001)                -7.948562001259786E+01,      /* K = 60 */
(PID.TID 0000.0001)                -8.133613063909793E+01,      /* K = 61 */
(PID.TID 0000.0001)                -8.322690617171186E+01,      /* K = 62 */
(PID.TID 0000.0001)                -8.515882272681593E+01,      /* K = 63 */
(PID.TID 0000.0001)                -8.713277548403477E+01,      /* K = 64 */
(PID.TID 0000.0001)                -8.914967910103491E+01,      /* K = 65 */
(PID.TID 0000.0001)                -9.121046813734377E+01,      /* K = 66 */
(PID.TID 0000.0001)                -9.331609748739046E+01,      /* K = 67 */
(PID.TID 0000.0001)                -9.546754282296898E+01,      /* K = 68 */
(PID.TID 0000.0001)                -9.766580104532892E+01,      /* K = 69 */
(PID.TID 0000.0001)                -9.991189074710314E+01,      /* K = 70 */
(PID.TID 0000.0001)                -1.022068526842864E+02,      /* K = 71 */
(PID.TID 0000.0001)                -1.045517502584838E+02,      /* K = 72 */
(PID.TID 0000.0001)                -1.069476700096519E+02,      /* K = 73 */
(PID.TID 0000.0001)                -1.093957221195624E+02,      /* K = 74 */
(PID.TID 0000.0001)                -1.118970409262190E+02,      /* K = 75 */
(PID.TID 0000.0001)                -1.144527854494690E+02,      /* K = 76 */
(PID.TID 0000.0001)                -1.170641399280502E+02,      /* K = 77 */
(PID.TID 0000.0001)                -1.197323143683244E+02,      /* K = 78 */
(PID.TID 0000.0001)                -1.224585451049496E+02,      /* K = 79 */
(PID.TID 0000.0001)                -1.252440953737532E+02,      /* K = 80 */
(PID.TID 0000.0001)                -1.280902558970685E+02,      /* K = 81 */
(PID.TID 0000.0001)                -1.309983454818089E+02,      /* K = 82 */
(PID.TID 0000.0001)                -1.339697116305547E+02,      /* K = 83 */
(PID.TID 0000.0001)                -1.370057311659364E+02,      /* K = 84 */
(PID.TID 0000.0001)                -1.401078108686046E+02,      /* K = 85 */
(PID.TID 0000.0001)                -1.432773881290803E+02,      /* K = 86 */
(PID.TID 0000.0001)                -1.465159316137895E+02,      /* K = 87 */
(PID.TID 0000.0001)                -1.498249419455895E+02,      /* K = 88 */
(PID.TID 0000.0001)                -1.532059523991028E+02,      /* K = 89 */
(PID.TID 0000.0001)                -1.566605296111806E+02,      /* K = 90 */
(PID.TID 0000.0001)                -1.601902743068250E+02,      /* K = 91 */
(PID.TID 0000.0001)                -1.637968220409069E+02,      /* K = 92 */
(PID.TID 0000.0001)                -1.674818439560220E+02,      /* K = 93 */
(PID.TID 0000.0001)                -1.712470475568378E+02,      /* K = 94 */
(PID.TID 0000.0001)                -1.750941775012883E+02,      /* K = 95 */
(PID.TID 0000.0001)                -1.790250164089854E+02,      /* K = 96 */
(PID.TID 0000.0001)                -1.830413856872194E+02,      /* K = 97 */
(PID.TID 0000.0001)                -1.871451463749330E+02,      /* K = 98 */
(PID.TID 0000.0001)                -1.913382000050584E+02,      /* K = 99 */
(PID.TID 0000.0001)                -1.956224894856186E+02,      /* K =100 */
(PID.TID 0000.0001)                -2.000000000000000E+02       /* K =101 */
(PID.TID 0000.0001)     ;
(PID.TID 0000.0001) deepFacC = /* deep-model grid factor @ cell-Center (-) */
(PID.TID 0000.0001)   100 @  1.000000000000000E+00              /* K =  1:100 */
(PID.TID 0000.0001)     ;
(PID.TID 0000.0001) deepFacF = /* deep-model grid factor @ W-Interface (-) */
(PID.TID 0000.0001)   101 @  1.000000000000000E+00              /* K =  1:101 */
(PID.TID 0000.0001)     ;
(PID.TID 0000.0001) rVel2wUnit = /* convert units: rVel -> wSpeed (=1 if z-coord)*/
(PID.TID 0000.0001)   101 @  1.000000000000000E+00              /* K =  1:101 */
(PID.TID 0000.0001)     ;
(PID.TID 0000.0001) wUnit2rVel = /* convert units: wSpeed -> rVel (=1 if z-coord)*/
(PID.TID 0000.0001)   101 @  1.000000000000000E+00              /* K =  1:101 */
(PID.TID 0000.0001)     ;
(PID.TID 0000.0001) dBdrRef = /* Vertical grad. of reference buoyancy [(m/s/r)^2] */
(PID.TID 0000.0001)    86 @  0.000000000000000E+00,             /* K =  1: 86 */
(PID.TID 0000.0001)                 4.010286785761223E-07,      /* K = 87 */
(PID.TID 0000.0001)                 1.299743719420113E-05,      /* K = 88 */
(PID.TID 0000.0001)                 1.549692538253218E-04,      /* K = 89 */
(PID.TID 0000.0001)                 6.797338133188684E-04,      /* K = 90 */
(PID.TID 0000.0001)                 1.096825970326280E-03,      /* K = 91 */
(PID.TID 0000.0001)                 6.510916019715050E-04,      /* K = 92 */
(PID.TID 0000.0001)                 1.421844100865257E-04,      /* K = 93 */
(PID.TID 0000.0001)                 1.142266355880870E-05,      /* K = 94 */
(PID.TID 0000.0001)                 3.375890164712781E-07,      /* K = 95 */
(PID.TID 0000.0001)     5 @  0.000000000000000E+00              /* K = 96:100 */
(PID.TID 0000.0001)     ;
(PID.TID 0000.0001) rotateGrid = /* use rotated grid ( True/False ) */
(PID.TID 0000.0001)                   F
(PID.TID 0000.0001)     ;
(PID.TID 0000.0001) phiEuler = /* Euler angle, rotation about original z-coordinate [rad] */
(PID.TID 0000.0001)                 0.000000000000000E+00
(PID.TID 0000.0001)     ;
(PID.TID 0000.0001) thetaEuler = /* Euler angle, rotation about new x-coordinate [rad] */
(PID.TID 0000.0001)                 0.000000000000000E+00
(PID.TID 0000.0001)     ;
(PID.TID 0000.0001) psiEuler = /* Euler angle, rotation about new z-coordinate [rad] */
(PID.TID 0000.0001)                 0.000000000000000E+00
(PID.TID 0000.0001)     ;
(PID.TID 0000.0001) dxF =  /* dxF(:,1,:,1) ( units: m ) */
(PID.TID 0000.0001)                 1.263294638016668E+03,      /* I =  1 */
(PID.TID 0000.0001)                 1.237496063806571E+03,      /* I =  2 */
(PID.TID 0000.0001)                 1.212224339320398E+03,      /* I =  3 */
(PID.TID 0000.0001)      . . .
(PID.TID 0000.0001)                 4.790113490274632E+02,      /* I = 48 */
(PID.TID 0000.0001)                 4.692291418815790E+02,      /* I = 49 */
(PID.TID 0000.0001)                 4.596467036489769E+02,      /* I = 50 */
(PID.TID 0000.0001)                 4.502599547167311E+02,      /* I = 51 */
(PID.TID 0000.0001)                 4.410648987843862E+02,      /* I = 52 */
(PID.TID 0000.0001)                 4.320576211625778E+02,      /* I = 53 */
(PID.TID 0000.0001)      . . .
(PID.TID 0000.0001)                 2.000000000000000E+02,      /* I = 98 */
(PID.TID 0000.0001)                 2.000000000000000E+02,      /* I = 99 */
(PID.TID 0000.0001)                 2.000000000000000E+02,      /* I =100 */
(PID.TID 0000.0001)                 2.000000000000000E+02,      /* I =101 */
(PID.TID 0000.0001)                 2.000000000000000E+02,      /* I =102 */
(PID.TID 0000.0001)                 2.000000000000000E+02,      /* I =103 */
(PID.TID 0000.0001)      . . .
(PID.TID 0000.0001)                 3.612641354876311E+02,      /* I =148 */
(PID.TID 0000.0001)                 3.687955530665730E+02,      /* I =149 */
(PID.TID 0000.0001)                 3.764839811128614E+02,      /* I =150 */
(PID.TID 0000.0001)                 3.843326928863569E+02,      /* I =151 */
(PID.TID 0000.0001)                 3.923450298858749E+02,      /* I =152 */
(PID.TID 0000.0001)                 4.005244032717896E+02,      /* I =153 */
(PID.TID 0000.0001)      . . .
(PID.TID 0000.0001)                 1.013599012055986E+03,      /* I =198 */
(PID.TID 0000.0001)                 1.034729915092050E+03,      /* I =199 */
(PID.TID 0000.0001)                 1.056301342495056E+03       /* I =200 */
(PID.TID 0000.0001)     ;
(PID.TID 0000.0001) dxF =  /* dxF(1,:,1,:) ( units: m ) */
(PID.TID 0000.0001)                 1.263294638016668E+03       /* J =  1 */
(PID.TID 0000.0001)     ;
(PID.TID 0000.0001) dyF =  /* dyF(:,1,:,1) ( units: m ) */
(PID.TID 0000.0001)   200 @  5.000000000000000E+03              /* I =  1:200 */
(PID.TID 0000.0001)     ;
(PID.TID 0000.0001) dyF =  /* dyF(1,:,1,:) ( units: m ) */
(PID.TID 0000.0001)                 5.000000000000000E+03       /* J =  1 */
(PID.TID 0000.0001)     ;
(PID.TID 0000.0001) dxG =  /* dxG(:,1,:,1) ( units: m ) */
(PID.TID 0000.0001)                 1.263294638016668E+03,      /* I =  1 */
(PID.TID 0000.0001)                 1.237496063806571E+03,      /* I =  2 */
(PID.TID 0000.0001)                 1.212224339320398E+03,      /* I =  3 */
(PID.TID 0000.0001)      . . .
(PID.TID 0000.0001)                 4.790113490274632E+02,      /* I = 48 */
(PID.TID 0000.0001)                 4.692291418815790E+02,      /* I = 49 */
(PID.TID 0000.0001)                 4.596467036489769E+02,      /* I = 50 */
(PID.TID 0000.0001)                 4.502599547167311E+02,      /* I = 51 */
(PID.TID 0000.0001)                 4.410648987843862E+02,      /* I = 52 */
(PID.TID 0000.0001)                 4.320576211625778E+02,      /* I = 53 */
(PID.TID 0000.0001)      . . .
(PID.TID 0000.0001)                 2.000000000000000E+02,      /* I = 98 */
(PID.TID 0000.0001)                 2.000000000000000E+02,      /* I = 99 */
(PID.TID 0000.0001)                 2.000000000000000E+02,      /* I =100 */
(PID.TID 0000.0001)                 2.000000000000000E+02,      /* I =101 */
(PID.TID 0000.0001)                 2.000000000000000E+02,      /* I =102 */
(PID.TID 0000.0001)                 2.000000000000000E+02,      /* I =103 */
(PID.TID 0000.0001)      . . .
(PID.TID 0000.0001)                 3.612641354876311E+02,      /* I =148 */
(PID.TID 0000.0001)                 3.687955530665730E+02,      /* I =149 */
(PID.TID 0000.0001)                 3.764839811128614E+02,      /* I =150 */
(PID.TID 0000.0001)                 3.843326928863569E+02,      /* I =151 */
(PID.TID 0000.0001)                 3.923450298858749E+02,      /* I =152 */
(PID.TID 0000.0001)                 4.005244032717896E+02,      /* I =153 */
(PID.TID 0000.0001)      . . .
(PID.TID 0000.0001)                 1.013599012055986E+03,      /* I =198 */
(PID.TID 0000.0001)                 1.034729915092050E+03,      /* I =199 */
(PID.TID 0000.0001)                 1.056301342495056E+03       /* I =200 */
(PID.TID 0000.0001)     ;
(PID.TID 0000.0001) dxG =  /* dxG(1,:,1,:) ( units: m ) */
(PID.TID 0000.0001)                 1.263294638016668E+03       /* J =  1 */
(PID.TID 0000.0001)     ;
(PID.TID 0000.0001) dyG =  /* dyG(:,1,:,1) ( units: m ) */
(PID.TID 0000.0001)   200 @  5.000000000000000E+03              /* I =  1:200 */
(PID.TID 0000.0001)     ;
(PID.TID 0000.0001) dyG =  /* dyG(1,:,1,:) ( units: m ) */
(PID.TID 0000.0001)                 5.000000000000000E+03       /* J =  1 */
(PID.TID 0000.0001)     ;
(PID.TID 0000.0001) dxC =  /* dxC(:,1,:,1) ( units: m ) */
(PID.TID 0000.0001)                 1.159797990255862E+03,      /* I =  1 */
(PID.TID 0000.0001)                 1.250395350911620E+03,      /* I =  2 */
(PID.TID 0000.0001)                 1.224860201563485E+03,      /* I =  3 */
(PID.TID 0000.0001)      . . .
(PID.TID 0000.0001)                 4.840044193881684E+02,      /* I = 48 */
(PID.TID 0000.0001)                 4.741202454545211E+02,      /* I = 49 */
(PID.TID 0000.0001)                 4.644379227652780E+02,      /* I = 50 */
(PID.TID 0000.0001)                 4.549533291828540E+02,      /* I = 51 */
(PID.TID 0000.0001)                 4.456624267505587E+02,      /* I = 52 */
(PID.TID 0000.0001)                 4.365612599734820E+02,      /* I = 53 */
(PID.TID 0000.0001)      . . .
(PID.TID 0000.0001)                 2.000000000000000E+02,      /* I = 98 */
(PID.TID 0000.0001)                 2.000000000000000E+02,      /* I = 99 */
(PID.TID 0000.0001)                 2.000000000000000E+02,      /* I =100 */
(PID.TID 0000.0001)                 2.000000000000000E+02,      /* I =101 */
(PID.TID 0000.0001)                 2.000000000000000E+02,      /* I =102 */
(PID.TID 0000.0001)                 2.000000000000000E+02,      /* I =103 */
(PID.TID 0000.0001)      . . .
(PID.TID 0000.0001)                 3.575753287246037E+02,      /* I =148 */
(PID.TID 0000.0001)                 3.650298442771020E+02,      /* I =149 */
(PID.TID 0000.0001)                 3.726397670897172E+02,      /* I =150 */
(PID.TID 0000.0001)                 3.804083369996092E+02,      /* I =151 */
(PID.TID 0000.0001)                 3.883388613861159E+02,      /* I =152 */
(PID.TID 0000.0001)                 3.964347165788323E+02,      /* I =153 */
(PID.TID 0000.0001)      . . .
(PID.TID 0000.0001)                 1.003249324601893E+03,      /* I =198 */
(PID.TID 0000.0001)                 1.024164463574018E+03,      /* I =199 */
(PID.TID 0000.0001)                 1.045515628793553E+03       /* I =200 */
(PID.TID 0000.0001)     ;
(PID.TID 0000.0001) dxC =  /* dxC(1,:,1,:) ( units: m ) */
(PID.TID 0000.0001)                 1.159797990255862E+03       /* J =  1 */
(PID.TID 0000.0001)     ;
(PID.TID 0000.0001) dyC =  /* dyC(:,1,:,1) ( units: m ) */
(PID.TID 0000.0001)   200 @  5.000000000000000E+03              /* I =  1:200 */
(PID.TID 0000.0001)     ;
(PID.TID 0000.0001) dyC =  /* dyC(1,:,1,:) ( units: m ) */
(PID.TID 0000.0001)                 5.000000000000000E+03       /* J =  1 */
(PID.TID 0000.0001)     ;
(PID.TID 0000.0001) dxV =  /* dxV(:,1,:,1) ( units: m ) */
(PID.TID 0000.0001)                 1.159797990255862E+03,      /* I =  1 */
(PID.TID 0000.0001)                 1.250395350911620E+03,      /* I =  2 */
(PID.TID 0000.0001)                 1.224860201563485E+03,      /* I =  3 */
(PID.TID 0000.0001)      . . .
(PID.TID 0000.0001)                 4.840044193881684E+02,      /* I = 48 */
(PID.TID 0000.0001)                 4.741202454545211E+02,      /* I = 49 */
(PID.TID 0000.0001)                 4.644379227652780E+02,      /* I = 50 */
(PID.TID 0000.0001)                 4.549533291828540E+02,      /* I = 51 */
(PID.TID 0000.0001)                 4.456624267505587E+02,      /* I = 52 */
(PID.TID 0000.0001)                 4.365612599734820E+02,      /* I = 53 */
(PID.TID 0000.0001)      . . .
(PID.TID 0000.0001)                 2.000000000000000E+02,      /* I = 98 */
(PID.TID 0000.0001)                 2.000000000000000E+02,      /* I = 99 */
(PID.TID 0000.0001)                 2.000000000000000E+02,      /* I =100 */
(PID.TID 0000.0001)                 2.000000000000000E+02,      /* I =101 */
(PID.TID 0000.0001)                 2.000000000000000E+02,      /* I =102 */
(PID.TID 0000.0001)                 2.000000000000000E+02,      /* I =103 */
(PID.TID 0000.0001)      . . .
(PID.TID 0000.0001)                 3.575753287246037E+02,      /* I =148 */
(PID.TID 0000.0001)                 3.650298442771020E+02,      /* I =149 */
(PID.TID 0000.0001)                 3.726397670897172E+02,      /* I =150 */
(PID.TID 0000.0001)                 3.804083369996092E+02,      /* I =151 */
(PID.TID 0000.0001)                 3.883388613861159E+02,      /* I =152 */
(PID.TID 0000.0001)                 3.964347165788323E+02,      /* I =153 */
(PID.TID 0000.0001)      . . .
(PID.TID 0000.0001)                 1.003249324601893E+03,      /* I =198 */
(PID.TID 0000.0001)                 1.024164463574018E+03,      /* I =199 */
(PID.TID 0000.0001)                 1.045515628793553E+03       /* I =200 */
(PID.TID 0000.0001)     ;
(PID.TID 0000.0001) dxV =  /* dxV(1,:,1,:) ( units: m ) */
(PID.TID 0000.0001)                 1.159797990255862E+03       /* J =  1 */
(PID.TID 0000.0001)     ;
(PID.TID 0000.0001) dyU =  /* dyU(:,1,:,1) ( units: m ) */
(PID.TID 0000.0001)   200 @  5.000000000000000E+03              /* I =  1:200 */
(PID.TID 0000.0001)     ;
(PID.TID 0000.0001) dyU =  /* dyU(1,:,1,:) ( units: m ) */
(PID.TID 0000.0001)                 5.000000000000000E+03       /* J =  1 */
(PID.TID 0000.0001)     ;
(PID.TID 0000.0001) rA  =  /* rA (:,1,:,1) ( units: m^2 ) */
(PID.TID 0000.0001)                 6.316473190083342E+06,      /* I =  1 */
(PID.TID 0000.0001)                 6.187480319032855E+06,      /* I =  2 */
(PID.TID 0000.0001)                 6.061121696601991E+06,      /* I =  3 */
(PID.TID 0000.0001)      . . .
(PID.TID 0000.0001)                 2.395056745137316E+06,      /* I = 48 */
(PID.TID 0000.0001)                 2.346145709407895E+06,      /* I = 49 */
(PID.TID 0000.0001)                 2.298233518244884E+06,      /* I = 50 */
(PID.TID 0000.0001)                 2.251299773583656E+06,      /* I = 51 */
(PID.TID 0000.0001)                 2.205324493921931E+06,      /* I = 52 */
(PID.TID 0000.0001)                 2.160288105812889E+06,      /* I = 53 */
(PID.TID 0000.0001)      . . .
(PID.TID 0000.0001)                 1.000000000000000E+06,      /* I = 98 */
(PID.TID 0000.0001)                 1.000000000000000E+06,      /* I = 99 */
(PID.TID 0000.0001)                 1.000000000000000E+06,      /* I =100 */
(PID.TID 0000.0001)                 1.000000000000000E+06,      /* I =101 */
(PID.TID 0000.0001)                 1.000000000000000E+06,      /* I =102 */
(PID.TID 0000.0001)                 1.000000000000000E+06,      /* I =103 */
(PID.TID 0000.0001)      . . .
(PID.TID 0000.0001)                 1.806320677438155E+06,      /* I =148 */
(PID.TID 0000.0001)                 1.843977765332865E+06,      /* I =149 */
(PID.TID 0000.0001)                 1.882419905564307E+06,      /* I =150 */
(PID.TID 0000.0001)                 1.921663464431785E+06,      /* I =151 */
(PID.TID 0000.0001)                 1.961725149429375E+06,      /* I =152 */
(PID.TID 0000.0001)                 2.002622016358948E+06,      /* I =153 */
(PID.TID 0000.0001)      . . .
(PID.TID 0000.0001)                 5.067995060279928E+06,      /* I =198 */
(PID.TID 0000.0001)                 5.173649575460250E+06,      /* I =199 */
(PID.TID 0000.0001)                 5.281506712475282E+06       /* I =200 */
(PID.TID 0000.0001)     ;
(PID.TID 0000.0001) rA  =  /* rA (1,:,1,:) ( units: m^2 ) */
(PID.TID 0000.0001)                 6.316473190083342E+06       /* J =  1 */
(PID.TID 0000.0001)     ;
(PID.TID 0000.0001) rAw =  /* rAw(:,1,:,1) ( units: m^2 ) */
(PID.TID 0000.0001)                 5.798989951279311E+06,      /* I =  1 */
(PID.TID 0000.0001)                 6.251976754558099E+06,      /* I =  2 */
(PID.TID 0000.0001)                 6.124301007817423E+06,      /* I =  3 */
(PID.TID 0000.0001)      . . .
(PID.TID 0000.0001)                 2.420022096940842E+06,      /* I = 48 */
(PID.TID 0000.0001)                 2.370601227272606E+06,      /* I = 49 */
(PID.TID 0000.0001)                 2.322189613826390E+06,      /* I = 50 */
(PID.TID 0000.0001)                 2.274766645914270E+06,      /* I = 51 */
(PID.TID 0000.0001)                 2.228312133752794E+06,      /* I = 52 */
(PID.TID 0000.0001)                 2.182806299867410E+06,      /* I = 53 */
(PID.TID 0000.0001)      . . .
(PID.TID 0000.0001)                 1.000000000000000E+06,      /* I = 98 */
(PID.TID 0000.0001)                 1.000000000000000E+06,      /* I = 99 */
(PID.TID 0000.0001)                 1.000000000000000E+06,      /* I =100 */
(PID.TID 0000.0001)                 1.000000000000000E+06,      /* I =101 */
(PID.TID 0000.0001)                 1.000000000000000E+06,      /* I =102 */
(PID.TID 0000.0001)                 1.000000000000000E+06,      /* I =103 */
(PID.TID 0000.0001)      . . .
(PID.TID 0000.0001)                 1.787876643623018E+06,      /* I =148 */
(PID.TID 0000.0001)                 1.825149221385510E+06,      /* I =149 */
(PID.TID 0000.0001)                 1.863198835448586E+06,      /* I =150 */
(PID.TID 0000.0001)                 1.902041684998046E+06,      /* I =151 */
(PID.TID 0000.0001)                 1.941694306930580E+06,      /* I =152 */
(PID.TID 0000.0001)                 1.982173582894161E+06,      /* I =153 */
(PID.TID 0000.0001)      . . .
(PID.TID 0000.0001)                 5.016246623009465E+06,      /* I =198 */
(PID.TID 0000.0001)                 5.120822317870088E+06,      /* I =199 */
(PID.TID 0000.0001)                 5.227578143967765E+06       /* I =200 */
(PID.TID 0000.0001)     ;
(PID.TID 0000.0001) rAw =  /* rAw(1,:,1,:) ( units: m^2 ) */
(PID.TID 0000.0001)                 5.798989951279311E+06       /* J =  1 */
(PID.TID 0000.0001)     ;
(PID.TID 0000.0001) rAs =  /* rAs(:,1,:,1) ( units: m^2 ) */
(PID.TID 0000.0001)                 6.316473190083342E+06,      /* I =  1 */
(PID.TID 0000.0001)                 6.187480319032855E+06,      /* I =  2 */
(PID.TID 0000.0001)                 6.061121696601991E+06,      /* I =  3 */
(PID.TID 0000.0001)      . . .
(PID.TID 0000.0001)                 2.395056745137316E+06,      /* I = 48 */
(PID.TID 0000.0001)                 2.346145709407895E+06,      /* I = 49 */
(PID.TID 0000.0001)                 2.298233518244884E+06,      /* I = 50 */
(PID.TID 0000.0001)                 2.251299773583656E+06,      /* I = 51 */
(PID.TID 0000.0001)                 2.205324493921931E+06,      /* I = 52 */
(PID.TID 0000.0001)                 2.160288105812889E+06,      /* I = 53 */
(PID.TID 0000.0001)      . . .
(PID.TID 0000.0001)                 1.000000000000000E+06,      /* I = 98 */
(PID.TID 0000.0001)                 1.000000000000000E+06,      /* I = 99 */
(PID.TID 0000.0001)                 1.000000000000000E+06,      /* I =100 */
(PID.TID 0000.0001)                 1.000000000000000E+06,      /* I =101 */
(PID.TID 0000.0001)                 1.000000000000000E+06,      /* I =102 */
(PID.TID 0000.0001)                 1.000000000000000E+06,      /* I =103 */
(PID.TID 0000.0001)      . . .
(PID.TID 0000.0001)                 1.806320677438155E+06,      /* I =148 */
(PID.TID 0000.0001)                 1.843977765332865E+06,      /* I =149 */
(PID.TID 0000.0001)                 1.882419905564307E+06,      /* I =150 */
(PID.TID 0000.0001)                 1.921663464431785E+06,      /* I =151 */
(PID.TID 0000.0001)                 1.961725149429375E+06,      /* I =152 */
(PID.TID 0000.0001)                 2.002622016358948E+06,      /* I =153 */
(PID.TID 0000.0001)      . . .
(PID.TID 0000.0001)                 5.067995060279928E+06,      /* I =198 */
(PID.TID 0000.0001)                 5.173649575460250E+06,      /* I =199 */
(PID.TID 0000.0001)                 5.281506712475282E+06       /* I =200 */
(PID.TID 0000.0001)     ;
(PID.TID 0000.0001) rAs =  /* rAs(1,:,1,:) ( units: m^2 ) */
(PID.TID 0000.0001)                 6.316473190083342E+06       /* J =  1 */
(PID.TID 0000.0001)     ;
(PID.TID 0000.0001) globalArea = /* Integrated horizontal Area (m^2) */
(PID.TID 0000.0001)                 4.884020200974414E+08
(PID.TID 0000.0001)     ;
(PID.TID 0000.0001) // =======================================================
(PID.TID 0000.0001) // End of Model config. summary
(PID.TID 0000.0001) // =======================================================
(PID.TID 0000.0001) 
(PID.TID 0000.0001) == Packages configuration : Check & print summary ==
(PID.TID 0000.0001) 
(PID.TID 0000.0001) OBCS_CHECK: #define ALLOW_OBCS
(PID.TID 0000.0001) OBCS_CHECK: start summary:
(PID.TID 0000.0001) useOBCSprescribe = /* prescribe OB values */
(PID.TID 0000.0001)                   T
(PID.TID 0000.0001)     ;
(PID.TID 0000.0001) useOBCSbalance = /* balance the flow through OB */
(PID.TID 0000.0001)                   F
(PID.TID 0000.0001)     ;
(PID.TID 0000.0001) OBCS_uvApplyFac = /* Factor to apply to U,V 2nd column/row */
(PID.TID 0000.0001)                 1.000000000000000E+00
(PID.TID 0000.0001)     ;
(PID.TID 0000.0001) OBCS_u1_adv_T = /* Temp uses upwind adv-scheme @ OB */
(PID.TID 0000.0001)                       0
(PID.TID 0000.0001)     ;
(PID.TID 0000.0001) OBCS_u1_adv_S = /* Salt uses upwind adv-scheme @ OB */
(PID.TID 0000.0001)                       0
(PID.TID 0000.0001)     ;
(PID.TID 0000.0001) OBCS_monitorFreq = /* monitor output frequency [s] */
(PID.TID 0000.0001)                 7.200000000000000E+03
(PID.TID 0000.0001)     ;
(PID.TID 0000.0001) OBCS_monSelect = /* select group of variables to monitor */
(PID.TID 0000.0001)                       0
(PID.TID 0000.0001)     ;
(PID.TID 0000.0001) useOBCStides = /* apply tidal forcing through OB */
(PID.TID 0000.0001)                   F
(PID.TID 0000.0001)     ;
(PID.TID 0000.0001) tidalPeriod = /* (s) */
(PID.TID 0000.0001)    10 @  0.000000000000000E+00              /* I =  1: 10 */
(PID.TID 0000.0001)     ;
(PID.TID 0000.0001) OB_indexNone = /* null value for OB index (i.e. no OB) */
(PID.TID 0000.0001)                     -99
(PID.TID 0000.0001)     ;
(PID.TID 0000.0001) ======== Tile bi=   1 , bj=   1 ========
(PID.TID 0000.0001)  OB_Jn = /* Northern OB local indices */
(PID.TID 0000.0001)   204 @      -99                            /* I = -1:202 */
(PID.TID 0000.0001)  OB_Js = /* Southern OB local indices */
(PID.TID 0000.0001)   204 @      -99                            /* I = -1:202 */
(PID.TID 0000.0001)  OB_Ie = /* Eastern OB local indices */
(PID.TID 0000.0001)     5 @      200                            /* J = -1:  3 */
(PID.TID 0000.0001)  OB_Iw = /* Western OB local indices */
(PID.TID 0000.0001)     5 @        1                            /* J = -1:  3 */
(PID.TID 0000.0001) OBCS_CHECK: end summary.
(PID.TID 0000.0001) OBCS_CHECK: set-up OK
(PID.TID 0000.0001) OBCS_CHECK: check Inside Mask and OB locations: OK
(PID.TID 0000.0001) KL10_CHECK: #define ALLOW_KL10
(PID.TID 0000.0001) GAD_CHECK: #define ALLOW_GENERIC_ADVDIFF
(PID.TID 0000.0001) // =======================================================
(PID.TID 0000.0001) // Check Model config. (CONFIG_CHECK):
(PID.TID 0000.0001) // CONFIG_CHECK : Normal End
(PID.TID 0000.0001) // =======================================================
(PID.TID 0000.0001) 
(PID.TID 0000.0001)  MDS_READ_FIELD: opening global file: U0.bin
(PID.TID 0000.0001)  MDS_READ_FIELD: opening global file: T0.bin
(PID.TID 0000.0001) Start initial hydrostatic pressure computation
(PID.TID 0000.0001) Pressure is predetermined for buoyancyRelation OCEANIC
(PID.TID 0000.0001) 
(PID.TID 0000.0001)  OBCS_FIELDS_LOAD: Reading initial data:         0  0.000000000000E+00
(PID.TID 0000.0001)  MDS_READ_SEC_YZ: opening global file: U_in.bin
(PID.TID 0000.0001)  MDS_READ_SEC_YZ: opening global file: TE.bin
(PID.TID 0000.0001)  MDS_READ_SEC_YZ: opening global file: U_in.bin
(PID.TID 0000.0001)  MDS_READ_SEC_YZ: opening global file: TW.bin
(PID.TID 0000.0001) // =======================================================
(PID.TID 0000.0001) // Model current state
(PID.TID 0000.0001) // =======================================================
(PID.TID 0000.0001) 
(PID.TID 0000.0001) // =======================================================
(PID.TID 0000.0001) // Begin MONITOR dynamic field statistics
(PID.TID 0000.0001) // =======================================================
(PID.TID 0000.0001) %MON time_tsnumber                =                     0
(PID.TID 0000.0001) %MON time_secondsf                =   0.0000000000000E+00
(PID.TID 0000.0001) %MON dynstat_eta_max              =   0.0000000000000E+00
(PID.TID 0000.0001) %MON dynstat_eta_min              =   0.0000000000000E+00
(PID.TID 0000.0001) %MON dynstat_eta_mean             =   0.0000000000000E+00
(PID.TID 0000.0001) %MON dynstat_eta_sd               =   0.0000000000000E+00
(PID.TID 0000.0001) %MON dynstat_eta_del2             =   0.0000000000000E+00
(PID.TID 0000.0001) %MON dynstat_uvel_max             =   1.1205712828732E-01
(PID.TID 0000.0001) %MON dynstat_uvel_min             =   1.1205712828732E-01
(PID.TID 0000.0001) %MON dynstat_uvel_mean            =   1.1205712828732E-01
(PID.TID 0000.0001) %MON dynstat_uvel_sd              =   8.4654505627668E-16
(PID.TID 0000.0001) %MON dynstat_uvel_del2            =   0.0000000000000E+00
(PID.TID 0000.0001) %MON dynstat_vvel_max             =   0.0000000000000E+00
(PID.TID 0000.0001) %MON dynstat_vvel_min             =   0.0000000000000E+00
(PID.TID 0000.0001) %MON dynstat_vvel_mean            =   0.0000000000000E+00
(PID.TID 0000.0001) %MON dynstat_vvel_sd              =   0.0000000000000E+00
(PID.TID 0000.0001) %MON dynstat_vvel_del2            =   0.0000000000000E+00
(PID.TID 0000.0001) %MON dynstat_wvel_max             =   1.3581893355502E-03
(PID.TID 0000.0001) %MON dynstat_wvel_min             =  -1.3871643145812E-03
(PID.TID 0000.0001) %MON dynstat_wvel_mean            =   1.4878545091170E-21
(PID.TID 0000.0001) %MON dynstat_wvel_sd              =   2.8329962232182E-04
(PID.TID 0000.0001) %MON dynstat_wvel_del2            =   4.2864059908991E-07
(PID.TID 0000.0001) %MON dynstat_theta_max            =   1.5000000000000E+01
(PID.TID 0000.0001) %MON dynstat_theta_min            =   1.0000000000000E+01
(PID.TID 0000.0001) %MON dynstat_theta_mean           =   1.4047647163004E+01
(PID.TID 0000.0001) %MON dynstat_theta_sd             =   1.9008375924656E+00
(PID.TID 0000.0001) %MON dynstat_theta_del2           =   0.0000000000000E+00
(PID.TID 0000.0001) %MON dynstat_salt_max             =   3.5000000000000E+01
(PID.TID 0000.0001) %MON dynstat_salt_min             =   3.5000000000000E+01
(PID.TID 0000.0001) %MON dynstat_salt_mean            =   3.5000000000000E+01
(PID.TID 0000.0001) %MON dynstat_salt_sd              =   3.0553337637684E-13
(PID.TID 0000.0001) %MON dynstat_salt_del2            =   0.0000000000000E+00
(PID.TID 0000.0001) %MON dynstat_sst_max              =   1.5000000000000E+01
(PID.TID 0000.0001) %MON dynstat_sst_min              =   1.5000000000000E+01
(PID.TID 0000.0001) %MON dynstat_sst_mean             =   1.5000000000000E+01
(PID.TID 0000.0001) %MON dynstat_sst_sd               =   1.4210854715202E-14
(PID.TID 0000.0001) %MON dynstat_sst_del2             =   0.0000000000000E+00
(PID.TID 0000.0001) %MON dynstat_sss_max              =   3.5000000000000E+01
(PID.TID 0000.0001) %MON dynstat_sss_min              =   3.5000000000000E+01
(PID.TID 0000.0001) %MON dynstat_sss_mean             =   3.5000000000000E+01
(PID.TID 0000.0001) %MON dynstat_sss_sd               =   2.8421709430404E-14
(PID.TID 0000.0001) %MON dynstat_sss_del2             =   0.0000000000000E+00
(PID.TID 0000.0001) %MON forcing_qnet_max             =   0.0000000000000E+00
(PID.TID 0000.0001) %MON forcing_qnet_min             =   0.0000000000000E+00
(PID.TID 0000.0001) %MON forcing_qnet_mean            =   0.0000000000000E+00
(PID.TID 0000.0001) %MON forcing_qnet_sd              =   0.0000000000000E+00
(PID.TID 0000.0001) %MON forcing_qnet_del2            =   0.0000000000000E+00
(PID.TID 0000.0001) %MON forcing_qsw_max              =   0.0000000000000E+00
(PID.TID 0000.0001) %MON forcing_qsw_min              =   0.0000000000000E+00
(PID.TID 0000.0001) %MON forcing_qsw_mean             =   0.0000000000000E+00
(PID.TID 0000.0001) %MON forcing_qsw_sd               =   0.0000000000000E+00
(PID.TID 0000.0001) %MON forcing_qsw_del2             =   0.0000000000000E+00
(PID.TID 0000.0001) %MON forcing_empmr_max            =   0.0000000000000E+00
(PID.TID 0000.0001) %MON forcing_empmr_min            =   0.0000000000000E+00
(PID.TID 0000.0001) %MON forcing_empmr_mean           =   0.0000000000000E+00
(PID.TID 0000.0001) %MON forcing_empmr_sd             =   0.0000000000000E+00
(PID.TID 0000.0001) %MON forcing_empmr_del2           =   0.0000000000000E+00
(PID.TID 0000.0001) %MON forcing_fu_max               =   0.0000000000000E+00
(PID.TID 0000.0001) %MON forcing_fu_min               =   0.0000000000000E+00
(PID.TID 0000.0001) %MON forcing_fu_mean              =   0.0000000000000E+00
(PID.TID 0000.0001) %MON forcing_fu_sd                =   0.0000000000000E+00
(PID.TID 0000.0001) %MON forcing_fu_del2              =   0.0000000000000E+00
(PID.TID 0000.0001) %MON forcing_fv_max               =   0.0000000000000E+00
(PID.TID 0000.0001) %MON forcing_fv_min               =   0.0000000000000E+00
(PID.TID 0000.0001) %MON forcing_fv_mean              =   0.0000000000000E+00
(PID.TID 0000.0001) %MON forcing_fv_sd                =   0.0000000000000E+00
(PID.TID 0000.0001) %MON forcing_fv_del2              =   0.0000000000000E+00
(PID.TID 0000.0001) %MON advcfl_uvel_max              =   8.4042846215487E-03
(PID.TID 0000.0001) %MON advcfl_vvel_max              =   0.0000000000000E+00
(PID.TID 0000.0001) %MON advcfl_wvel_max              =   2.3279069677278E-02
(PID.TID 0000.0001) %MON advcfl_W_hf_max              =   2.0813358478923E-02
(PID.TID 0000.0001) %MON pe_b_mean                    =   0.0000000000000E+00
(PID.TID 0000.0001) %MON ke_max                       =   6.3220842996666E-03
(PID.TID 0000.0001) %MON ke_mean                      =   6.2764247304136E-03
(PID.TID 0000.0001) %MON ke_vol                       =   9.6656965507697E+10
(PID.TID 0000.0001) %MON vort_r_min                   =   0.0000000000000E+00
(PID.TID 0000.0001) %MON vort_r_max                   =   0.0000000000000E+00
(PID.TID 0000.0001) %MON vort_a_mean                  =   0.0000000000000E+00
(PID.TID 0000.0001) %MON vort_a_sd                    =   0.0000000000000E+00
(PID.TID 0000.0001) %MON vort_p_mean                  =   0.0000000000000E+00
(PID.TID 0000.0001) %MON vort_p_sd                    =   0.0000000000000E+00
(PID.TID 0000.0001) %MON surfExpan_theta_mean         =   2.9644404498926E-20
(PID.TID 0000.0001) %MON surfExpan_salt_mean          =   1.6016254680126E-19
(PID.TID 0000.0001) // =======================================================
(PID.TID 0000.0001) // End MONITOR dynamic field statistics
(PID.TID 0000.0001) // =======================================================
(PID.TID 0000.0001) // =======================================================
(PID.TID 0000.0001) // Begin OBCS MONITOR field statistics
(PID.TID 0000.0001) // =======================================================
(PID.TID 0000.0001) %MON obc_E_uVel_max               =   1.1205712828732E-01
(PID.TID 0000.0001) %MON obc_E_uVel_min               =   1.1205712828732E-01
(PID.TID 0000.0001) %MON obc_E_uVel_mean              =   1.1205712828732E-01
(PID.TID 0000.0001) %MON obc_E_uVel_sd                =   0.0000000000000E+00
(PID.TID 0000.0001) %MON obc_E_uVel_Int               =   1.1205712828732E+05
(PID.TID 0000.0001) %MON obc_W_uVel_max               =   1.1205712828732E-01
(PID.TID 0000.0001) %MON obc_W_uVel_min               =   1.1205712828732E-01
(PID.TID 0000.0001) %MON obc_W_uVel_mean              =   1.1205712828732E-01
(PID.TID 0000.0001) %MON obc_W_uVel_sd                =   0.0000000000000E+00
(PID.TID 0000.0001) %MON obc_W_uVel_Int               =   1.1205712828732E+05
(PID.TID 0000.0001) // =======================================================
(PID.TID 0000.0001) // End OBCS MONITOR field statistics
(PID.TID 0000.0001) // =======================================================
(PID.TID 0000.0001) SOLVE_FOR_PRESSURE: putPmEinXvector =    F
 cg2d: Sum(rhs),rhsMax =  -3.16197817830392E-15  1.93370928535275E-02
 cg2d: Sum(rhs),rhsMax =   8.97624146434096E-15  3.23555381587747E-02
 cg2d: Sum(rhs),rhsMax =   9.17078368053563E-16  4.08391511965075E-02
 cg2d: Sum(rhs),rhsMax =   7.35791872022018E-14  4.59138492333569E-02
 cg2d: Sum(rhs),rhsMax =   2.22917490416332E-13  4.88462295173292E-02
 cg2d: Sum(rhs),rhsMax =   3.50286431502464E-13  5.07463937035472E-02
 cg2d: Sum(rhs),rhsMax =   3.82079088292814E-13  5.21880636983515E-02
 cg2d: Sum(rhs),rhsMax =   4.42935210428953E-13  5.34441675024564E-02
 cg2d: Sum(rhs),rhsMax =   5.63895713205388E-13  5.46857583247639E-02
 cg2d: Sum(rhs),rhsMax =   6.70263142599022E-13  5.58553466510847E-02
 cg2d: Sum(rhs),rhsMax =   7.96660247176299E-13  5.69941280847355E-02
 cg2d: Sum(rhs),rhsMax =   6.88163388785259E-13  5.81365142831422E-02
 cg2d: Sum(rhs),rhsMax =   6.39875311316115E-13  5.92714723420844E-02
 cg2d: Sum(rhs),rhsMax =   5.14579032369665E-13  6.04164957786301E-02
 cg2d: Sum(rhs),rhsMax =   3.47249092419765E-13  6.15619528200522E-02
 cg2d: Sum(rhs),rhsMax =   2.73193495793878E-13  6.26805425531780E-02
 cg2d: Sum(rhs),rhsMax =   2.31942059711640E-13  6.37354418543228E-02
 cg2d: Sum(rhs),rhsMax =   2.70334253627058E-13  6.47436635415680E-02
 cg2d: Sum(rhs),rhsMax =   1.82746224510636E-13  6.58678768476203E-02
 cg2d: Sum(rhs),rhsMax =   2.20250029359848E-13  6.68202522745705E-02
 cg2d: Sum(rhs),rhsMax =   1.50878162905102E-13  6.79173471102538E-02
 cg2d: Sum(rhs),rhsMax =   1.07413015135531E-13  6.88270416741782E-02
 cg2d: Sum(rhs),rhsMax =   2.39425654563543E-13  6.99222536682080E-02
 cg2d: Sum(rhs),rhsMax =   3.58376708349324E-13  7.08331078058924E-02
 cg2d: Sum(rhs),rhsMax =   3.79893213684856E-13  7.18228754473657E-02
 cg2d: Sum(rhs),rhsMax =   4.01406949037362E-13  7.28329956179578E-02
 cg2d: Sum(rhs),rhsMax =   5.06804981926276E-13  7.37309060664797E-02
 cg2d: Sum(rhs),rhsMax =   6.22243224167215E-13  7.45703228285420E-02
 cg2d: Sum(rhs),rhsMax =   7.45791240213073E-13  7.55964655363612E-02
 cg2d: Sum(rhs),rhsMax =   8.70709003825848E-13  7.65552618814158E-02
 cg2d: Sum(rhs),rhsMax =   9.55418683485634E-13  7.74634220853296E-02
 cg2d: Sum(rhs),rhsMax =   1.03200620656585E-12  7.83356587790389E-02
 cg2d: Sum(rhs),rhsMax =   1.09297022387461E-12  7.91846229407205E-02
 cg2d: Sum(rhs),rhsMax =   1.18625218697467E-12  8.00208706681295E-02
 cg2d: Sum(rhs),rhsMax =   1.25421255412622E-12  8.08528476436893E-02
 cg2d: Sum(rhs),rhsMax =   1.31623433940325E-12  8.16868811891178E-02
 cg2d: Sum(rhs),rhsMax =   1.36754279775331E-12  8.25271722086306E-02
 cg2d: Sum(rhs),rhsMax =   1.43120281251297E-12  8.33757818985497E-02
 cg2d: Sum(rhs),rhsMax =   1.48248947839935E-12  8.42326102189817E-02
 cg2d: Sum(rhs),rhsMax =   1.50566798612362E-12  8.50953651892290E-02
 cg2d: Sum(rhs),rhsMax =   1.59252992737446E-12  8.59595240079332E-02
 cg2d: Sum(rhs),rhsMax =   1.64031982441415E-12  8.68182888874596E-02
 cg2d: Sum(rhs),rhsMax =   1.65435026788785E-12  8.76625423767365E-02
 cg2d: Sum(rhs),rhsMax =   1.67428571007378E-12  8.84808088781967E-02
 cg2d: Sum(rhs),rhsMax =   1.84668946801025E-12  8.92592311166641E-02
 cg2d: Sum(rhs),rhsMax =   1.95495702959292E-12  8.99815726358126E-02
 cg2d: Sum(rhs),rhsMax =   2.03706496115785E-12  9.06292602890604E-02
 cg2d: Sum(rhs),rhsMax =   1.89219473423208E-12  9.14521115468021E-02
 cg2d: Sum(rhs),rhsMax =   1.81166193158333E-12  9.23496494707603E-02
 cg2d: Sum(rhs),rhsMax =   1.83017490051895E-12  9.31587894594131E-02
 cg2d: Sum(rhs),rhsMax =   1.82578951957169E-12  9.38529175940316E-02
 cg2d: Sum(rhs),rhsMax =   1.79961601176615E-12  9.44035510214391E-02
 cg2d: Sum(rhs),rhsMax =   1.86578530403381E-12  9.53043081244808E-02
 cg2d: Sum(rhs),rhsMax =   1.99584793136864E-12  9.61676151006168E-02
 cg2d: Sum(rhs),rhsMax =   2.09254835681350E-12  9.68553794604969E-02
 cg2d: Sum(rhs),rhsMax =   2.17870166352441E-12  9.73361442837573E-02
 cg2d: Sum(rhs),rhsMax =   2.17570406135792E-12  9.99883102293300E-02
 cg2d: Sum(rhs),rhsMax =   2.17681428438254E-12  1.03792599207109E-01
 cg2d: Sum(rhs),rhsMax =   2.14217532601424E-12  1.09304674857444E-01
 cg2d: Sum(rhs),rhsMax =   2.04647410129155E-12  1.17043322748935E-01
 cg2d: Sum(rhs),rhsMax =   1.85362836191416E-12  1.27806996086014E-01
 cg2d: Sum(rhs),rhsMax =   1.61848312529855E-12  1.40533139864799E-01
 cg2d: Sum(rhs),rhsMax =   1.40842892903947E-12  1.52672224026149E-01
 cg2d: Sum(rhs),rhsMax =   1.25510712933874E-12  1.63659654757135E-01
 cg2d: Sum(rhs),rhsMax =   9.84323733632664E-13  1.73156472197577E-01
 cg2d: Sum(rhs),rhsMax =   7.69828645275084E-13  1.80869886270049E-01
 cg2d: Sum(rhs),rhsMax =   5.69988500842555E-13  1.86569002720423E-01
 cg2d: Sum(rhs),rhsMax =   3.64486218984439E-13  1.90096698895298E-01
 cg2d: Sum(rhs),rhsMax =   2.18935980456081E-13  1.91376798029750E-01
 cg2d: Sum(rhs),rhsMax =   6.22835116814713E-14  1.90416116931874E-01
 cg2d: Sum(rhs),rhsMax =  -1.13686837721616E-13  1.87301414507249E-01
 cg2d: Sum(rhs),rhsMax =  -1.66533453693773E-13  1.82191697009227E-01
 cg2d: Sum(rhs),rhsMax =  -2.56350496385949E-13  1.75306696117958E-01
 cg2d: Sum(rhs),rhsMax =  -3.74367203903603E-13  1.66912593976930E-01
 cg2d: Sum(rhs),rhsMax =  -4.11892742135933E-13  1.67211635523696E-01
 cg2d: Sum(rhs),rhsMax =  -4.53082016349526E-13  1.78371257393142E-01
 cg2d: Sum(rhs),rhsMax =  -4.98379115754233E-13  1.88200245864645E-01
 cg2d: Sum(rhs),rhsMax =  -5.51114709423928E-13  1.96439693413928E-01
 cg2d: Sum(rhs),rhsMax =  -6.05404615328098E-13  2.02875700207941E-01
 cg2d: Sum(rhs),rhsMax =  -6.83897383169096E-13  2.07349077600227E-01
 cg2d: Sum(rhs),rhsMax =  -7.24809101626533E-13  2.09762148812129E-01
 cg2d: Sum(rhs),rhsMax =  -7.70272734484934E-13  2.10082242759537E-01
 cg2d: Sum(rhs),rhsMax =  -8.21620549373847E-13  2.08341727786270E-01
 cg2d: Sum(rhs),rhsMax =  -8.99613716853764E-13  2.04634688233010E-01
 cg2d: Sum(rhs),rhsMax =  -1.01807451358127E-12  1.99110584120894E-01
 cg2d: Sum(rhs),rhsMax =  -1.17680865052705E-12  1.91965432235364E-01
 cg2d: Sum(rhs),rhsMax =  -1.27839405728025E-12  1.83431189668360E-01
 cg2d: Sum(rhs),rhsMax =  -1.40221168010157E-12  1.73764099303527E-01
 cg2d: Sum(rhs),rhsMax =  -1.58434376729133E-12  1.63232769420978E-01
 cg2d: Sum(rhs),rhsMax =  -1.79073422756915E-12  1.52106709791224E-01
 cg2d: Sum(rhs),rhsMax =  -2.04114503077335E-12  1.40645945755251E-01
 cg2d: Sum(rhs),rhsMax =  -2.27165508626115E-12  1.29092193825556E-01
 cg2d: Sum(rhs),rhsMax =  -2.52836640513010E-12  1.17661923468858E-01
 cg2d: Sum(rhs),rhsMax =  -2.83192913563823E-12  1.06541464685467E-01
 cg2d: Sum(rhs),rhsMax =  -3.19075321719708E-12  9.58841656486634E-02
 cg2d: Sum(rhs),rhsMax =  -3.64967778221370E-12  8.58094712716319E-02
 cg2d: Sum(rhs),rhsMax =  -3.99959232399993E-12  8.06580598203415E-02
 cg2d: Sum(rhs),rhsMax =  -4.16425227633965E-12  7.85317735157220E-02
 cg2d: Sum(rhs),rhsMax =  -4.28389268503082E-12  7.67615054079465E-02
 cg2d: Sum(rhs),rhsMax =  -4.41779945958842E-12  7.52332846669310E-02
 cg2d: Sum(rhs),rhsMax =  -4.50979531496642E-12  7.40750485117251E-02
 cg2d: Sum(rhs),rhsMax =  -4.64560334645370E-12  7.27362872236386E-02
 cg2d: Sum(rhs),rhsMax =  -4.80877837549798E-12  7.13841188339075E-02
 cg2d: Sum(rhs),rhsMax =  -4.94939506046066E-12  7.02353240850148E-02
 cg2d: Sum(rhs),rhsMax =  -5.13472597774012E-12  6.89699391585197E-02
 cg2d: Sum(rhs),rhsMax =  -5.26104160236684E-12  6.76875363096285E-02
 cg2d: Sum(rhs),rhsMax =  -5.42454275942461E-12  6.65709620840102E-02
 cg2d: Sum(rhs),rhsMax =  -5.57898865993778E-12  6.53632902223491E-02
 cg2d: Sum(rhs),rhsMax =  -5.74944952758116E-12  6.40880403492459E-02
 cg2d: Sum(rhs),rhsMax =  -5.86521109458005E-12  6.30062645133817E-02
 cg2d: Sum(rhs),rhsMax =  -6.04745420407227E-12  6.18590151215380E-02
 cg2d: Sum(rhs),rhsMax =  -6.23863460891272E-12  6.06623978950654E-02
 cg2d: Sum(rhs),rhsMax =  -6.41614539276247E-12  5.95074696300716E-02
 cg2d: Sum(rhs),rhsMax =  -6.56881493643624E-12  5.84207365234527E-02
 cg2d: Sum(rhs),rhsMax =  -6.73670147444128E-12  5.72973492634078E-02
 cg2d: Sum(rhs),rhsMax =  -7.03890418174424E-12  5.61494470313482E-02
 cg2d: Sum(rhs),rhsMax =  -7.31793098340816E-12  5.50169010020774E-02
 cg2d: Sum(rhs),rhsMax =  -7.55849202671577E-12  5.39576446108352E-02
 cg2d: Sum(rhs),rhsMax =  -7.80727565929951E-12  5.28788991193783E-02
 cg2d: Sum(rhs),rhsMax =  -7.98945978819354E-12  5.17879242655809E-02
 cg2d: Sum(rhs),rhsMax =  -8.13968337176618E-12  5.06903414029835E-02
 cg2d: Sum(rhs),rhsMax =  -8.29741830798980E-12  4.95901887142444E-02
 cg2d: Sum(rhs),rhsMax =  -8.50571002519729E-12  4.85475367381828E-02
 cg2d: Sum(rhs),rhsMax =  -8.61578863808887E-12  4.74982311296114E-02
 cg2d: Sum(rhs),rhsMax =  -8.77000555510321E-12  4.64394588787609E-02
 cg2d: Sum(rhs),rhsMax =  -8.91349494214211E-12  4.53704522276121E-02
 cg2d: Sum(rhs),rhsMax =  -9.09886749278499E-12  4.42883988454557E-02
 cg2d: Sum(rhs),rhsMax =  -9.31819205129969E-12  4.31882395112078E-02
 cg2d: Sum(rhs),rhsMax =  -9.53002954329207E-12  4.20624615548112E-02
 cg2d: Sum(rhs),rhsMax =  -9.77257857970315E-12  4.09225848760018E-02
 cg2d: Sum(rhs),rhsMax =  -1.00307470662919E-11  3.97501247066769E-02
 cg2d: Sum(rhs),rhsMax =  -1.03213618207754E-11  3.85150468123848E-02
 cg2d: Sum(rhs),rhsMax =  -1.06617562001254E-11  3.72008914321116E-02
 cg2d: Sum(rhs),rhsMax =  -1.10495501637331E-11  3.57891627276675E-02
 cg2d: Sum(rhs),rhsMax =  -1.14879217250063E-11  3.42907715137657E-02
 cg2d: Sum(rhs),rhsMax =  -1.20387241842046E-11  3.26886184064236E-02
 cg2d: Sum(rhs),rhsMax =  -1.26876772976736E-11  3.09341009194444E-02
 cg2d: Sum(rhs),rhsMax =  -1.33937999580169E-11  2.90616487864873E-02
 cg2d: Sum(rhs),rhsMax =  -1.42798273206068E-11  2.70369063820391E-02
 cg2d: Sum(rhs),rhsMax =  -1.53965173943504E-11  2.48696599408548E-02
 cg2d: Sum(rhs),rhsMax =  -1.69492198054400E-11  2.25517369238134E-02
 cg2d: Sum(rhs),rhsMax =  -1.89757237700761E-11  2.01107906878897E-02
 cg2d: Sum(rhs),rhsMax =  -2.17118129031135E-11  1.75263196290614E-02
 cg2d: Sum(rhs),rhsMax =  -2.55606924515206E-11  1.48439834286356E-02
 cg2d: Sum(rhs),rhsMax =  -3.13373771376746E-11  1.20680276682350E-02
 cg2d: Sum(rhs),rhsMax =  -4.09120515243444E-11  9.21334875424190E-03
 cg2d: Sum(rhs),rhsMax =  -5.95307692030644E-11  6.32575315900066E-03
 cg2d: Sum(rhs),rhsMax =  -1.09707021245242E-10  3.42944086190892E-03
 cg2d: Sum(rhs),rhsMax =  -1.66226143960557E-10  2.26333258906984E-03
 cg2d: Sum(rhs),rhsMax =  -1.48991374793184E-10  2.52512142012624E-03
 cg2d: Sum(rhs),rhsMax =  -7.05120406507831E-11  5.33339167280991E-03
 cg2d: Sum(rhs),rhsMax =  -4.64726590543307E-11  8.08306660528891E-03
 cg2d: Sum(rhs),rhsMax =  -3.49333895144355E-11  1.07424580879406E-02
 cg2d: Sum(rhs),rhsMax =  -2.82535106421733E-11  1.32826234107641E-02
 cg2d: Sum(rhs),rhsMax =  -2.38142838782096E-11  1.56920875555745E-02
 cg2d: Sum(rhs),rhsMax =  -2.07416028796814E-11  1.79665533466112E-02
 cg2d: Sum(rhs),rhsMax =  -1.84991466589679E-11  2.00824708778936E-02
 cg2d: Sum(rhs),rhsMax =  -1.68016295321038E-11  2.20257588728869E-02
 cg2d: Sum(rhs),rhsMax =  -1.54647961103649E-11  2.38454365037947E-02
 cg2d: Sum(rhs),rhsMax =  -1.44063788676263E-11  2.54839726074753E-02
 cg2d: Sum(rhs),rhsMax =  -1.35562533420952E-11  2.70055666560424E-02
 cg2d: Sum(rhs),rhsMax =  -1.28361071771721E-11  2.83667873882541E-02
 cg2d: Sum(rhs),rhsMax =  -1.22332699525884E-11  2.96276236161632E-02
 cg2d: Sum(rhs),rhsMax =  -1.17345300143512E-11  3.07798905534776E-02
 cg2d: Sum(rhs),rhsMax =  -1.13017512015645E-11  3.18280092856183E-02
 cg2d: Sum(rhs),rhsMax =  -1.09295766881345E-11  3.27900175075128E-02
 cg2d: Sum(rhs),rhsMax =  -1.06096104124376E-11  3.37059949100824E-02
 cg2d: Sum(rhs),rhsMax =  -1.02719083239222E-11  3.45702941555065E-02
 cg2d: Sum(rhs),rhsMax =  -1.00218167098376E-11  3.53864768595096E-02
 cg2d: Sum(rhs),rhsMax =  -9.78053749101093E-12  3.61633796198638E-02
 cg2d: Sum(rhs),rhsMax =  -9.55915901990068E-12  3.69076422642807E-02
 cg2d: Sum(rhs),rhsMax =  -9.31979493579149E-12  3.76240538239119E-02
 cg2d: Sum(rhs),rhsMax =  -9.05135688622494E-12  3.83158782733194E-02
 cg2d: Sum(rhs),rhsMax =  -8.80413797421653E-12  3.90061232296380E-02
 cg2d: Sum(rhs),rhsMax =  -8.58504933809456E-12  3.96934899365930E-02
 cg2d: Sum(rhs),rhsMax =  -8.44221914597654E-12  4.03654217756477E-02
 cg2d: Sum(rhs),rhsMax =  -8.32162116992663E-12  4.10220004189470E-02
 cg2d: Sum(rhs),rhsMax =  -8.19642964611234E-12  4.16626350284336E-02
 cg2d: Sum(rhs),rhsMax =  -8.04645239327328E-12  4.22861794307354E-02
 cg2d: Sum(rhs),rhsMax =  -7.94372900791984E-12  4.29257720894829E-02
 cg2d: Sum(rhs),rhsMax =  -7.90213727785982E-12  4.35799250398208E-02
 cg2d: Sum(rhs),rhsMax =  -7.88116794048221E-12  4.42207516070763E-02
 cg2d: Sum(rhs),rhsMax =  -7.88509535443183E-12  4.48469113276807E-02
 cg2d: Sum(rhs),rhsMax =  -7.91776366693142E-12  4.54575875429217E-02
 cg2d: Sum(rhs),rhsMax =  -7.83786924252183E-12  4.61287435357488E-02
 cg2d: Sum(rhs),rhsMax =  -7.76620434628228E-12  4.68071511199751E-02
 cg2d: Sum(rhs),rhsMax =  -7.66614549618794E-12  4.74833852441330E-02
 cg2d: Sum(rhs),rhsMax =  -7.60830287660497E-12  4.81638903250748E-02
 cg2d: Sum(rhs),rhsMax =  -7.56272822144410E-12  4.89081635049891E-02
 cg2d: Sum(rhs),rhsMax =  -7.46469205892275E-12  4.97303646952269E-02
 cg2d: Sum(rhs),rhsMax =  -7.39106952724056E-12  5.06040870892339E-02
 cg2d: Sum(rhs),rhsMax =  -7.28232404934026E-12  5.15582515719185E-02
 cg2d: Sum(rhs),rhsMax =  -7.16612880147238E-12  5.26328478409339E-02
 cg2d: Sum(rhs),rhsMax =  -7.03906377630403E-12  5.38809486047050E-02
 cg2d: Sum(rhs),rhsMax =  -6.90504597944397E-12  5.54202370833103E-02
 cg2d: Sum(rhs),rhsMax =  -6.73905375947470E-12  5.71236667215263E-02
 cg2d: Sum(rhs),rhsMax =  -6.56510956709155E-12  5.91235336548666E-02
 cg2d: Sum(rhs),rhsMax =  -6.35569374907163E-12  6.14245586212555E-02
 cg2d: Sum(rhs),rhsMax =  -6.13104012003873E-12  6.40990096352527E-02
 cg2d: Sum(rhs),rhsMax =  -5.86006243530335E-12  6.72520562285358E-02
 cg2d: Sum(rhs),rhsMax =  -5.60013146966298E-12  7.09610223558701E-02
 cg2d: Sum(rhs),rhsMax =  -5.36576338916461E-12  7.52165030151561E-02
 cg2d: Sum(rhs),rhsMax =  -5.13084019715393E-12  8.01122863019498E-02
 cg2d: Sum(rhs),rhsMax =  -4.91223728360524E-12  8.49777899465664E-02
 cg2d: Sum(rhs),rhsMax =  -4.71678252011998E-12  8.97401472250262E-02
 cg2d: Sum(rhs),rhsMax =  -4.53537207789623E-12  9.43544348686370E-02
 cg2d: Sum(rhs),rhsMax =  -4.39398517571021E-12  9.87756120287050E-02
 cg2d: Sum(rhs),rhsMax =  -4.25659507641285E-12  1.02959286174408E-01
 cg2d: Sum(rhs),rhsMax =  -4.16877643516500E-12  1.06862493652084E-01
 cg2d: Sum(rhs),rhsMax =  -4.06741307301672E-12  1.10444475200812E-01
 cg2d: Sum(rhs),rhsMax =  -3.99341670842546E-12  1.13667426285076E-01
 cg2d: Sum(rhs),rhsMax =  -3.99602573253333E-12  1.16497202354483E-01
 cg2d: Sum(rhs),rhsMax =  -4.02544664268589E-12  1.18903960078735E-01
 cg2d: Sum(rhs),rhsMax =  -4.05864231112218E-12  1.20862717206486E-01
 cg2d: Sum(rhs),rhsMax =  -4.10282918750227E-12  1.22353815917041E-01
 cg2d: Sum(rhs),rhsMax =  -4.13635792284595E-12  1.23363277272516E-01
 cg2d: Sum(rhs),rhsMax =  -4.17266221575119E-12  1.23883037546374E-01
 cg2d: Sum(rhs),rhsMax =  -4.20896650865643E-12  1.23911060700401E-01
 cg2d: Sum(rhs),rhsMax =  -4.25948165627688E-12  1.23451324925228E-01
 cg2d: Sum(rhs),rhsMax =  -4.33597602267355E-12  1.22513684883258E-01
 cg2d: Sum(rhs),rhsMax =  -4.42179626247707E-12  1.21113614857366E-01
 cg2d: Sum(rhs),rhsMax =  -4.55890880601828E-12  1.19271841383449E-01
 cg2d: Sum(rhs),rhsMax =  -4.74054129284696E-12  1.17013876904314E-01
 cg2d: Sum(rhs),rhsMax =  -4.91473528541064E-12  1.14369468585387E-01
 cg2d: Sum(rhs),rhsMax =  -5.02387020873130E-12  1.11371978407797E-01
 cg2d: Sum(rhs),rhsMax =  -5.21471754666436E-12  1.08057712047559E-01
 cg2d: Sum(rhs),rhsMax =  -5.41588995872644E-12  1.04620613017983E-01
 cg2d: Sum(rhs),rhsMax =  -5.39412958744379E-12  1.05287136025572E-01
 cg2d: Sum(rhs),rhsMax =  -5.37991873272858E-12  1.05561084627898E-01
 cg2d: Sum(rhs),rhsMax =  -5.41755529326338E-12  1.05442332140787E-01
 cg2d: Sum(rhs),rhsMax =  -5.48494583085812E-12  1.04935010660332E-01
 cg2d: Sum(rhs),rhsMax =  -5.60285151607331E-12  1.04047405736242E-01
 cg2d: Sum(rhs),rhsMax =  -5.75528513735435E-12  1.02791775307087E-01
 cg2d: Sum(rhs),rhsMax =  -5.97855098760647E-12  1.01184098160222E-01
 cg2d: Sum(rhs),rhsMax =  -6.24966745021993E-12  9.92437589996246E-02
 cg2d: Sum(rhs),rhsMax =  -6.50579590200095E-12  9.69931787057777E-02
 cg2d: Sum(rhs),rhsMax =  -6.72661926159890E-12  9.44573995877612E-02
 cg2d: Sum(rhs),rhsMax =  -6.97064628241151E-12  9.16636363570106E-02
 cg2d: Sum(rhs),rhsMax =  -7.39130978644198E-12  8.86408040795812E-02
 cg2d: Sum(rhs),rhsMax =  -7.58415552581937E-12  8.54190344069146E-02
 cg2d: Sum(rhs),rhsMax =  -7.82907072505168E-12  8.20291913851696E-02
 cg2d: Sum(rhs),rhsMax =  -8.11650746612713E-12  7.85023975584849E-02
 cg2d: Sum(rhs),rhsMax =  -8.40394420720258E-12  7.48695801581414E-02
 cg2d: Sum(rhs),rhsMax =  -8.76010375350234E-12  7.11610462422189E-02
 cg2d: Sum(rhs),rhsMax =  -9.12636632932617E-12  6.74060943540668E-02
 cg2d: Sum(rhs),rhsMax =  -9.50417522460612E-12  6.36326688427693E-02
 cg2d: Sum(rhs),rhsMax =  -9.96980276113391E-12  5.98670614108605E-02
 cg2d: Sum(rhs),rhsMax =  -1.04812825085787E-11  5.61336630163429E-02
 cg2d: Sum(rhs),rhsMax =  -1.11283204873303E-11  5.24547677151056E-02
 cg2d: Sum(rhs),rhsMax =  -1.18638432411444E-11  4.88504285866432E-02
 cg2d: Sum(rhs),rhsMax =  -1.26539889677701E-11  4.53383645480869E-02
 cg2d: Sum(rhs),rhsMax =  -1.35826905278691E-11  4.19339157037739E-02
 cg2d: Sum(rhs),rhsMax =  -1.46666012668106E-11  3.86500438656122E-02
 cg2d: Sum(rhs),rhsMax =  -1.58517643455980E-11  3.54973740229687E-02
 cg2d: Sum(rhs),rhsMax =  -1.63309366030262E-11  3.42498890279537E-02
 cg2d: Sum(rhs),rhsMax =  -1.66379132693351E-11  3.33221842367665E-02
 cg2d: Sum(rhs),rhsMax =  -1.69259051219228E-11  3.24701737603391E-02
 cg2d: Sum(rhs),rhsMax =  -1.72178937773992E-11  3.16741212830896E-02
 cg2d: Sum(rhs),rhsMax =  -1.74416037168612E-11  3.09668567581797E-02
 cg2d: Sum(rhs),rhsMax =  -1.77456938033060E-11  3.03644232174544E-02
 cg2d: Sum(rhs),rhsMax =  -1.80017112327846E-11  2.97671716033026E-02
 cg2d: Sum(rhs),rhsMax =  -1.81894499462487E-11  2.91736242415127E-02
 cg2d: Sum(rhs),rhsMax =  -1.84948167891719E-11  2.85838462063269E-02
 cg2d: Sum(rhs),rhsMax =  -1.87589388467302E-11  2.79975869824735E-02
 cg2d: Sum(rhs),rhsMax =  -1.90534255040120E-11  2.74142135934134E-02
 cg2d: Sum(rhs),rhsMax =  -1.93708382667523E-11  2.68390203479620E-02
 cg2d: Sum(rhs),rhsMax =  -1.96806460017740E-11  2.62703873548069E-02
 cg2d: Sum(rhs),rhsMax =  -2.00239269609881E-11  2.56987915137700E-02
 cg2d: Sum(rhs),rhsMax =  -2.04130046199680E-11  2.51220531457483E-02
 cg2d: Sum(rhs),rhsMax =  -2.08518480260267E-11  2.45374573933528E-02
 cg2d: Sum(rhs),rhsMax =  -2.13034312412930E-11  2.39417841431516E-02
 cg2d: Sum(rhs),rhsMax =  -2.17861145790366E-11  2.33313635513502E-02
 cg2d: Sum(rhs),rhsMax =  -2.23742691041195E-11  2.27153408933901E-02
 cg2d: Sum(rhs),rhsMax =  -2.29489691139229E-11  2.20779765402525E-02
 cg2d: Sum(rhs),rhsMax =  -2.36474312353963E-11  2.14134456793765E-02
 cg2d: Sum(rhs),rhsMax =  -2.43694300849917E-11  2.07173306113612E-02
 cg2d: Sum(rhs),rhsMax =  -2.50850017841087E-11  2.00012976164224E-02
 cg2d: Sum(rhs),rhsMax =  -2.60309343524945E-11  1.92488134133959E-02
 cg2d: Sum(rhs),rhsMax =  -2.71096686765837E-11  1.84528007149176E-02
 cg2d: Sum(rhs),rhsMax =  -2.84398893324322E-11  1.76322109020874E-02
 cg2d: Sum(rhs),rhsMax =  -2.99418267957208E-11  1.67615416374587E-02
 cg2d: Sum(rhs),rhsMax =  -3.16912052156226E-11  1.58576621877578E-02
 cg2d: Sum(rhs),rhsMax =  -3.39155648010347E-11  1.49049482979367E-02
 cg2d: Sum(rhs),rhsMax =  -3.63530039404480E-11  1.39195581927139E-02
 cg2d: Sum(rhs),rhsMax =  -3.94699273265076E-11  1.28870297940397E-02
 cg2d: Sum(rhs),rhsMax =  -4.31840119219373E-11  1.18186809489133E-02
 cg2d: Sum(rhs),rhsMax =  -4.78124762004484E-11  1.07139864478444E-02
 cg2d: Sum(rhs),rhsMax =  -5.37191957583616E-11  9.57187859019098E-03
 cg2d: Sum(rhs),rhsMax =  -6.12677131250905E-11  8.39684943556433E-03
 cg2d: Sum(rhs),rhsMax =  -7.15308368093304E-11  7.19565260947055E-03
 cg2d: Sum(rhs),rhsMax =  -8.62609983443008E-11  5.96964601897081E-03
 cg2d: Sum(rhs),rhsMax =  -1.09083297950008E-10  4.72211217330179E-03
 cg2d: Sum(rhs),rhsMax =  -1.34409372520850E-10  3.83513351375930E-03
 cg2d: Sum(rhs),rhsMax =  -1.31092026123270E-10  3.93173598873140E-03
 cg2d: Sum(rhs),rhsMax =  -1.28131283361199E-10  4.02526861640272E-03
 cg2d: Sum(rhs),rhsMax =  -1.25337962231242E-10  4.11729937158349E-03
 cg2d: Sum(rhs),rhsMax =  -1.22682530800944E-10  4.20938886126511E-03
 cg2d: Sum(rhs),rhsMax =  -1.20123022639973E-10  4.30310774289164E-03
 cg2d: Sum(rhs),rhsMax =  -1.17526877119190E-10  4.40005355871169E-03
 cg2d: Sum(rhs),rhsMax =  -9.42609323928423E-11  5.49197120407731E-03
 cg2d: Sum(rhs),rhsMax =  -7.69680985612808E-11  6.72672617874455E-03
 cg2d: Sum(rhs),rhsMax =  -6.52194964700925E-11  7.93977644906137E-03
 cg2d: Sum(rhs),rhsMax =  -5.67956792707491E-11  9.12951637804517E-03
 cg2d: Sum(rhs),rhsMax =  -5.04390418321066E-11  1.02889682761305E-02
 cg2d: Sum(rhs),rhsMax =  -4.55004367516665E-11  1.14190093599899E-02
 cg2d: Sum(rhs),rhsMax =  -4.15883993909461E-11  1.25190008393235E-02
 cg2d: Sum(rhs),rhsMax =  -3.83237885870358E-11  1.35807369497779E-02
 cg2d: Sum(rhs),rhsMax =  -3.56949469981771E-11  1.46165773407031E-02
 cg2d: Sum(rhs),rhsMax =  -3.34632321852268E-11  1.56101315438066E-02
 cg2d: Sum(rhs),rhsMax =  -3.15099613068526E-11  1.65794323901295E-02
 cg2d: Sum(rhs),rhsMax =  -2.98618907379478E-11  1.75086132833334E-02
 cg2d: Sum(rhs),rhsMax =  -2.84772760927865E-11  1.84111892649521E-02
 cg2d: Sum(rhs),rhsMax =  -2.72037392612390E-11  1.92831931520025E-02
 cg2d: Sum(rhs),rhsMax =  -2.60912957905646E-11  2.01220247780565E-02
 cg2d: Sum(rhs),rhsMax =  -2.51382803462263E-11  2.09417331154137E-02
 cg2d: Sum(rhs),rhsMax =  -2.42556530416493E-11  2.17369201432292E-02
 cg2d: Sum(rhs),rhsMax =  -2.35675368109867E-11  2.25068535741476E-02
 cg2d: Sum(rhs),rhsMax =  -2.28935204127367E-11  2.32538490962610E-02
 cg2d: Sum(rhs),rhsMax =  -2.22245555292488E-11  2.39907911534472E-02
 cg2d: Sum(rhs),rhsMax =  -2.16242024286828E-11  2.47111746897906E-02
 cg2d: Sum(rhs),rhsMax =  -2.11084483225932E-11  2.54144800982686E-02
 cg2d: Sum(rhs),rhsMax =  -2.06461514551393E-11  2.61018744527880E-02
 cg2d: Sum(rhs),rhsMax =  -2.01776373387474E-11  2.67741781912210E-02
 cg2d: Sum(rhs),rhsMax =  -1.97943883506468E-11  2.74440272477128E-02
 cg2d: Sum(rhs),rhsMax =  -1.93758342703632E-11  2.81035913183730E-02
 cg2d: Sum(rhs),rhsMax =  -1.90282234413530E-11  2.87506563023655E-02
 cg2d: Sum(rhs),rhsMax =  -1.86799464785281E-11  2.93852098854529E-02
 cg2d: Sum(rhs),rhsMax =  -1.83828507971384E-11  3.00070649876000E-02
 cg2d: Sum(rhs),rhsMax =  -1.81807902066566E-11  3.06323862722362E-02
 cg2d: Sum(rhs),rhsMax =  -1.79285475354618E-11  3.12503183854224E-02
 cg2d: Sum(rhs),rhsMax =  -1.76230141590850E-11  3.18570385146422E-02
 cg2d: Sum(rhs),rhsMax =  -1.73439040906942E-11  3.24522640007643E-02
 cg2d: Sum(rhs),rhsMax =  -1.70643499330936E-11  3.30432290997356E-02
 cg2d: Sum(rhs),rhsMax =  -1.67726943445246E-11  3.36427989023556E-02
 cg2d: Sum(rhs),rhsMax =  -1.64595004292778E-11  3.42336369967324E-02
 cg2d: Sum(rhs),rhsMax =  -1.60815805116954E-11  3.48163948437848E-02
 cg2d: Sum(rhs),rhsMax =  -1.55747637009540E-11  3.58004858942607E-02
 cg2d: Sum(rhs),rhsMax =  -1.49136258897897E-11  3.73152503866641E-02
 cg2d: Sum(rhs),rhsMax =  -1.41224809624418E-11  3.92613874501683E-02
 cg2d: Sum(rhs),rhsMax =  -1.33180133587985E-11  4.15306459767791E-02
 cg2d: Sum(rhs),rhsMax =  -1.25491839142455E-11  4.38513851430501E-02
 cg2d: Sum(rhs),rhsMax =  -1.17990062165063E-11  4.62153111870048E-02
 cg2d: Sum(rhs),rhsMax =  -1.11715081629882E-11  4.86133285432077E-02
 cg2d: Sum(rhs),rhsMax =  -1.05837560937516E-11  5.10355870924992E-02
 cg2d: Sum(rhs),rhsMax =  -1.00546238002153E-11  5.34715415438758E-02
 cg2d: Sum(rhs),rhsMax =  -9.55069356933791E-12  5.59100226626751E-02
 cg2d: Sum(rhs),rhsMax =  -9.10993502856172E-12  5.83393198327840E-02
 cg2d: Sum(rhs),rhsMax =  -8.72457661671433E-12  6.07472742016417E-02
 cg2d: Sum(rhs),rhsMax =  -8.35154168044028E-12  6.31213814478498E-02
 cg2d: Sum(rhs),rhsMax =  -7.96740451391997E-12  6.54489029904397E-02
 cg2d: Sum(rhs),rhsMax =  -7.68762831171443E-12  6.77169842619102E-02
 cg2d: Sum(rhs),rhsMax =  -7.40296712820054E-12  6.99127784915565E-02
 cg2d: Sum(rhs),rhsMax =  -7.16071646422733E-12  7.20235742961431E-02
 cg2d: Sum(rhs),rhsMax =  -6.90247858869952E-12  7.40369252570009E-02
 cg2d: Sum(rhs),rhsMax =  -6.60183019363103E-12  7.59407795718455E-02
 cg2d: Sum(rhs),rhsMax =  -6.29951646402560E-12  7.77236078285392E-02
 cg2d: Sum(rhs),rhsMax =  -6.06581451734201E-12  7.93745269341768E-02
 cg2d: Sum(rhs),rhsMax =  -5.90905102626493E-12  8.08834182625883E-02
 cg2d: Sum(rhs),rhsMax =  -5.77005110358186E-12  8.22410381532014E-02
 cg2d: Sum(rhs),rhsMax =  -5.54456480728049E-12  8.34391190029945E-02
 cg2d: Sum(rhs),rhsMax =  -5.58397772465469E-12  8.44704593392957E-02
 cg2d: Sum(rhs),rhsMax =  -5.63926683128102E-12  8.53290014429430E-02
 cg2d: Sum(rhs),rhsMax =  -5.73185943153476E-12  8.60098952883809E-02
 cg2d: Sum(rhs),rhsMax =  -5.79314374249407E-12  8.65095478190277E-02
 cg2d: Sum(rhs),rhsMax =  -5.85775872252725E-12  8.68256568312459E-02
 cg2d: Sum(rhs),rhsMax =  -5.77105030430403E-12  8.91885389254819E-02
 cg2d: Sum(rhs),rhsMax =  -5.67024205366806E-12  9.15966019461028E-02
 cg2d: Sum(rhs),rhsMax =  -5.56132917495233E-12  9.38586932245396E-02
 cg2d: Sum(rhs),rhsMax =  -5.41378053497965E-12  9.59618782015836E-02
 cg2d: Sum(rhs),rhsMax =  -5.34294830600857E-12  9.78940974566949E-02
 cg2d: Sum(rhs),rhsMax =  -5.25446353094594E-12  9.96442872268684E-02
 cg2d: Sum(rhs),rhsMax =  -5.24280618918738E-12  1.01202490072236E-01
 cg2d: Sum(rhs),rhsMax =  -5.23325827117560E-12  1.02559954073998E-01
 cg2d: Sum(rhs),rhsMax =  -5.23159293663866E-12  1.03709219111795E-01
 cg2d: Sum(rhs),rhsMax =  -5.22981657979926E-12  1.04644188994559E-01
 cg2d: Sum(rhs),rhsMax =  -5.23592280643470E-12  1.05360188406619E-01
 cg2d: Sum(rhs),rhsMax =  -5.25490762015579E-12  1.05854003874798E-01
 cg2d: Sum(rhs),rhsMax =  -5.27711208064829E-12  1.06123908229381E-01
 cg2d: Sum(rhs),rhsMax =  -5.32063282321360E-12  1.06169668315195E-01
 cg2d: Sum(rhs),rhsMax =  -5.35793631684101E-12  1.05992535945132E-01
 cg2d: Sum(rhs),rhsMax =  -5.41877653859046E-12  1.05595222367357E-01
 cg2d: Sum(rhs),rhsMax =  -5.49305045893789E-12  1.04981856779804E-01
 cg2d: Sum(rhs),rhsMax =  -5.57842660953156E-12  1.04157929666125E-01
 cg2d: Sum(rhs),rhsMax =  -5.68622926522266E-12  1.03130221970733E-01
 cg2d: Sum(rhs),rhsMax =  -5.83955106492340E-12  1.01906721303726E-01
 cg2d: Sum(rhs),rhsMax =  -6.00053340349405E-12  1.00496526582083E-01
 cg2d: Sum(rhs),rhsMax =  -6.17672579750206E-12  9.89097426299878E-02
 cg2d: Sum(rhs),rhsMax =  -6.36568575629326E-12  9.71573664472872E-02
 cg2d: Sum(rhs),rhsMax =  -6.58040288925577E-12  9.52511668788719E-02
 cg2d: Sum(rhs),rhsMax =  -6.83042511440135E-12  9.32035594346812E-02
 cg2d: Sum(rhs),rhsMax =  -7.01372293576696E-12  9.10274780825791E-02
 cg2d: Sum(rhs),rhsMax =  -7.25441928750570E-12  8.87362458462548E-02
 cg2d: Sum(rhs),rhsMax =  -7.50344231192912E-12  8.63434459811495E-02
 cg2d: Sum(rhs),rhsMax =  -7.74735831043927E-12  8.38627953620071E-02
 cg2d: Sum(rhs),rhsMax =  -8.02719002379604E-12  8.13080216544756E-02
 cg2d: Sum(rhs),rhsMax =  -8.34782243330778E-12  7.86927457179459E-02
 cg2d: Sum(rhs),rhsMax =  -8.66834382051707E-12  7.60303704864839E-02
 cg2d: Sum(rhs),rhsMax =  -9.03921382189310E-12  7.33339775120977E-02
 cg2d: Sum(rhs),rhsMax =  -9.43461975211335E-12  7.06162321197929E-02
 cg2d: Sum(rhs),rhsMax =  -9.85711512413445E-12  6.78892979454409E-02
 cg2d: Sum(rhs),rhsMax =  -1.03007047336234E-11  6.51647614315483E-02
 cg2d: Sum(rhs),rhsMax =  -1.07977515817481E-11  6.24535666763154E-02
 cg2d: Sum(rhs),rhsMax =  -1.13338782803396E-11  5.97659608454310E-02
 cg2d: Sum(rhs),rhsMax =  -1.19310117341342E-11  5.71114501971383E-02
 cg2d: Sum(rhs),rhsMax =  -1.25642829473804E-11  5.44987666069917E-02
 cg2d: Sum(rhs),rhsMax =  -1.32333033420196E-11  5.19358443002942E-02
 cg2d: Sum(rhs),rhsMax =  -1.39911415786287E-11  4.94298063805405E-02
 cg2d: Sum(rhs),rhsMax =  -1.47690748519835E-11  4.69869606267591E-02
 cg2d: Sum(rhs),rhsMax =  -1.56271662277163E-11  4.46128039354570E-02
 cg2d: Sum(rhs),rhsMax =  -1.65457092471399E-11  4.23120346917985E-02
 cg2d: Sum(rhs),rhsMax =  -1.75364722743154E-11  4.00885722900898E-02
 cg2d: Sum(rhs),rhsMax =  -1.86052284689708E-11  3.79455829766064E-02
 cg2d: Sum(rhs),rhsMax =  -1.95787275281134E-11  3.60744875640708E-02
 cg2d: Sum(rhs),rhsMax =  -2.00979233255794E-11  3.52727588690222E-02
 cg2d: Sum(rhs),rhsMax =  -2.05650496631904E-11  3.45092694408222E-02
 cg2d: Sum(rhs),rhsMax =  -2.09940398399056E-11  3.37647392881521E-02
 cg2d: Sum(rhs),rhsMax =  -2.14191997471858E-11  3.30195994648181E-02
 cg2d: Sum(rhs),rhsMax =  -2.19120277478169E-11  3.22772518740011E-02
 cg2d: Sum(rhs),rhsMax =  -2.25041096868495E-11  3.15417940125796E-02
 cg2d: Sum(rhs),rhsMax =  -2.30267471756918E-11  3.07814542993829E-02
 cg2d: Sum(rhs),rhsMax =  -2.35794161973502E-11  3.00264932872110E-02
 cg2d: Sum(rhs),rhsMax =  -2.42038056263993E-11  2.92414911380687E-02
 cg2d: Sum(rhs),rhsMax =  -2.47715181700414E-11  2.84469240563281E-02
 cg2d: Sum(rhs),rhsMax =  -2.54526399956490E-11  2.76202258878346E-02
 cg2d: Sum(rhs),rhsMax =  -2.62261878880565E-11  2.67801510869766E-02
 cg2d: Sum(rhs),rhsMax =  -2.70991562523193E-11  2.58976169511457E-02
 cg2d: Sum(rhs),rhsMax =  -2.79924972090839E-11  2.50071563107652E-02
 cg2d: Sum(rhs),rhsMax =  -2.89995250035702E-11  2.40751486565898E-02
 cg2d: Sum(rhs),rhsMax =  -3.01990654705264E-11  2.31135115544488E-02
 cg2d: Sum(rhs),rhsMax =  -3.15034109910073E-11  2.21290572960104E-02
 cg2d: Sum(rhs),rhsMax =  -3.29810623256321E-11  2.11073166261779E-02
 cg2d: Sum(rhs),rhsMax =  -3.46853101795830E-11  2.00523906808503E-02
 cg2d: Sum(rhs),rhsMax =  -3.65547037084468E-11  1.89791744491626E-02
 cg2d: Sum(rhs),rhsMax =  -3.87707088655986E-11  1.78737916586213E-02
 cg2d: Sum(rhs),rhsMax =  -4.12891387746583E-11  1.67392358638483E-02
 cg2d: Sum(rhs),rhsMax =  -4.42696435065670E-11  1.55785172742013E-02
 cg2d: Sum(rhs),rhsMax =  -4.77915484964342E-11  1.43946518926351E-02
 cg2d: Sum(rhs),rhsMax =  -5.20575804685564E-11  1.31942522145718E-02
 cg2d: Sum(rhs),rhsMax =  -5.72478731086790E-11  1.19748669165332E-02
 cg2d: Sum(rhs),rhsMax =  -6.37405683789893E-11  1.07393603055748E-02
 cg2d: Sum(rhs),rhsMax =  -7.21009918436266E-11  9.49096980969552E-03
 cg2d: Sum(rhs),rhsMax =  -8.30591151412818E-11  8.23304478963205E-03
 cg2d: Sum(rhs),rhsMax =  -9.79056835603842E-11  6.97297490476671E-03
 cg2d: Sum(rhs),rhsMax =  -1.02021169290367E-10  6.69146342068256E-03
 cg2d: Sum(rhs),rhsMax =  -1.02555852699027E-10  6.65079684526887E-03
 cg2d: Sum(rhs),rhsMax =  -1.02980846072853E-10  6.61399020714457E-03
 cg2d: Sum(rhs),rhsMax =  -1.03465458423102E-10  6.57994494281599E-03
 cg2d: Sum(rhs),rhsMax =  -1.03867137113411E-10  6.54751709396676E-03
 cg2d: Sum(rhs),rhsMax =  -1.04268149669906E-10  6.51551125051739E-03
 cg2d: Sum(rhs),rhsMax =  -1.04697917002738E-10  6.48267486384733E-03
 cg2d: Sum(rhs),rhsMax =  -1.05168762587482E-10  6.44769299094236E-03
 cg2d: Sum(rhs),rhsMax =  -1.05716879694739E-10  6.40918353415419E-03
 cg2d: Sum(rhs),rhsMax =  -1.06332498361894E-10  6.36569304528973E-03
 cg2d: Sum(rhs),rhsMax =  -1.04364294983839E-10  6.48035917194437E-03
 cg2d: Sum(rhs),rhsMax =  -8.90992835067550E-11  7.58456557851361E-03
 cg2d: Sum(rhs),rhsMax =  -7.80060460670029E-11  8.65730334270506E-03
 cg2d: Sum(rhs),rhsMax =  -6.95825619345669E-11  9.69605014787716E-03
 cg2d: Sum(rhs),rhsMax =  -6.30029362014284E-11  1.06984618070607E-02
 cg2d: Sum(rhs),rhsMax =  -5.76861891588010E-11  1.16760995959604E-02
 cg2d: Sum(rhs),rhsMax =  -5.33371680155881E-11  1.26173175600210E-02
 cg2d: Sum(rhs),rhsMax =  -4.96675478522945E-11  1.35185257137695E-02
 cg2d: Sum(rhs),rhsMax =  -4.65840699348519E-11  1.43924660729541E-02
 cg2d: Sum(rhs),rhsMax =  -4.39301928167879E-11  1.52327499282219E-02
 cg2d: Sum(rhs),rhsMax =  -4.16776058109747E-11  1.60310271849641E-02
 cg2d: Sum(rhs),rhsMax =  -3.96603305752308E-11  1.68143463966684E-02
 cg2d: Sum(rhs),rhsMax =  -3.79075659751038E-11  1.75553463252148E-02
 cg2d: Sum(rhs),rhsMax =  -3.63009067250175E-11  1.82791725576023E-02
 cg2d: Sum(rhs),rhsMax =  -3.49441309221987E-11  1.89693135746090E-02
 cg2d: Sum(rhs),rhsMax =  -3.36733141370615E-11  1.96483948714029E-02
 cg2d: Sum(rhs),rhsMax =  -3.25570681525278E-11  2.02959655443189E-02
 cg2d: Sum(rhs),rhsMax =  -3.14581416471782E-11  2.09475765126143E-02
 cg2d: Sum(rhs),rhsMax =  -3.05229869157486E-11  2.15818183143449E-02
 cg2d: Sum(rhs),rhsMax =  -2.94822638524650E-11  2.22066173316910E-02
 cg2d: Sum(rhs),rhsMax =  -2.85963683288593E-11  2.28503462813532E-02
 cg2d: Sum(rhs),rhsMax =  -2.77852463259620E-11  2.35021497971042E-02
 cg2d: Sum(rhs),rhsMax =  -2.70171385263751E-11  2.41735435553499E-02
 cg2d: Sum(rhs),rhsMax =  -2.63314023363215E-11  2.48780609061979E-02
 cg2d: Sum(rhs),rhsMax =  -2.55478416200106E-11  2.56308197317027E-02
 cg2d: Sum(rhs),rhsMax =  -2.48504272715167E-11  2.64485339594236E-02
 cg2d: Sum(rhs),rhsMax =  -2.40922282124245E-11  2.73635085062168E-02
(PID.TID 0000.0001)      cg2d_init_res =   2.54512122017012E-01
(PID.TID 0000.0001)      cg2d_iters(min,last) =      -1      39
(PID.TID 0000.0001)      cg2d_last_res =   5.07810151942718E-14
(PID.TID 0000.0001) // =======================================================
(PID.TID 0000.0001) // Begin MONITOR dynamic field statistics
(PID.TID 0000.0001) // =======================================================
(PID.TID 0000.0001) %MON time_tsnumber                =                   480
(PID.TID 0000.0001) %MON time_secondsf                =   7.2000000000000E+03
(PID.TID 0000.0001) %MON dynstat_eta_max              =   6.5678654340434E-03
(PID.TID 0000.0001) %MON dynstat_eta_min              =  -6.5399785793317E-03
(PID.TID 0000.0001) %MON dynstat_eta_mean             =   1.4552838494614E-15
(PID.TID 0000.0001) %MON dynstat_eta_sd               =   4.7198184251287E-03
(PID.TID 0000.0001) %MON dynstat_eta_del2             =   6.4168014670070E-07
(PID.TID 0000.0001) %MON dynstat_uvel_max             =   4.4987387466949E-01
(PID.TID 0000.0001) %MON dynstat_uvel_min             =   1.1283828884108E-02
(PID.TID 0000.0001) %MON dynstat_uvel_mean            =   1.1451149072662E-01
(PID.TID 0000.0001) %MON dynstat_uvel_sd              =   8.2398201291340E-03
(PID.TID 0000.0001) %MON dynstat_uvel_del2            =   4.3381913303253E-05
(PID.TID 0000.0001) %MON dynstat_vvel_max             =   0.0000000000000E+00
(PID.TID 0000.0001) %MON dynstat_vvel_min             =   0.0000000000000E+00
(PID.TID 0000.0001) %MON dynstat_vvel_mean            =   0.0000000000000E+00
(PID.TID 0000.0001) %MON dynstat_vvel_sd              =   0.0000000000000E+00
(PID.TID 0000.0001) %MON dynstat_vvel_del2            =   0.0000000000000E+00
(PID.TID 0000.0001) %MON dynstat_wvel_max             =   2.4377240300467E-03
(PID.TID 0000.0001) %MON dynstat_wvel_min             =  -2.6536308449151E-03
(PID.TID 0000.0001) %MON dynstat_wvel_mean            =  -5.4127642164930E-22
(PID.TID 0000.0001) %MON dynstat_wvel_sd              =   1.5009025301981E-04
(PID.TID 0000.0001) %MON dynstat_wvel_del2            =   1.7537243778066E-06
(PID.TID 0000.0001) %MON dynstat_theta_max            =   1.5000000000002E+01
(PID.TID 0000.0001) %MON dynstat_theta_min            =   9.9999999999991E+00
(PID.TID 0000.0001) %MON dynstat_theta_mean           =   1.4047646930400E+01
(PID.TID 0000.0001) %MON dynstat_theta_sd             =   1.9001681813721E+00
(PID.TID 0000.0001) %MON dynstat_theta_del2           =   1.3980399397460E-04
(PID.TID 0000.0001) %MON dynstat_salt_max             =   3.5000000000000E+01
(PID.TID 0000.0001) %MON dynstat_salt_min             =   3.5000000000000E+01
(PID.TID 0000.0001) %MON dynstat_salt_mean            =   3.5000000000000E+01
(PID.TID 0000.0001) %MON dynstat_salt_sd              =   3.0553337637684E-13
(PID.TID 0000.0001) %MON dynstat_salt_del2            =   0.0000000000000E+00
(PID.TID 0000.0001) %MON dynstat_sst_max              =   1.5000000000000E+01
(PID.TID 0000.0001) %MON dynstat_sst_min              =   1.5000000000000E+01
(PID.TID 0000.0001) %MON dynstat_sst_mean             =   1.5000000000000E+01
(PID.TID 0000.0001) %MON dynstat_sst_sd               =   1.0894423771193E-13
(PID.TID 0000.0001) %MON dynstat_sst_del2             =   9.3836906747668E-16
(PID.TID 0000.0001) %MON dynstat_sss_max              =   3.5000000000000E+01
(PID.TID 0000.0001) %MON dynstat_sss_min              =   3.5000000000000E+01
(PID.TID 0000.0001) %MON dynstat_sss_mean             =   3.5000000000000E+01
(PID.TID 0000.0001) %MON dynstat_sss_sd               =   2.8421709430404E-14
(PID.TID 0000.0001) %MON dynstat_sss_del2             =   0.0000000000000E+00
(PID.TID 0000.0001) %MON forcing_qnet_max             =   0.0000000000000E+00
(PID.TID 0000.0001) %MON forcing_qnet_min             =   0.0000000000000E+00
(PID.TID 0000.0001) %MON forcing_qnet_mean            =   0.0000000000000E+00
(PID.TID 0000.0001) %MON forcing_qnet_sd              =   0.0000000000000E+00
(PID.TID 0000.0001) %MON forcing_qnet_del2            =   0.0000000000000E+00
(PID.TID 0000.0001) %MON forcing_qsw_max              =   0.0000000000000E+00
(PID.TID 0000.0001) %MON forcing_qsw_min              =   0.0000000000000E+00
(PID.TID 0000.0001) %MON forcing_qsw_mean             =   0.0000000000000E+00
(PID.TID 0000.0001) %MON forcing_qsw_sd               =   0.0000000000000E+00
(PID.TID 0000.0001) %MON forcing_qsw_del2             =   0.0000000000000E+00
(PID.TID 0000.0001) %MON forcing_empmr_max            =   0.0000000000000E+00
(PID.TID 0000.0001) %MON forcing_empmr_min            =   0.0000000000000E+00
(PID.TID 0000.0001) %MON forcing_empmr_mean           =   0.0000000000000E+00
(PID.TID 0000.0001) %MON forcing_empmr_sd             =   0.0000000000000E+00
(PID.TID 0000.0001) %MON forcing_empmr_del2           =   0.0000000000000E+00
(PID.TID 0000.0001) %MON forcing_fu_max               =   0.0000000000000E+00
(PID.TID 0000.0001) %MON forcing_fu_min               =   0.0000000000000E+00
(PID.TID 0000.0001) %MON forcing_fu_mean              =   0.0000000000000E+00
(PID.TID 0000.0001) %MON forcing_fu_sd                =   0.0000000000000E+00
(PID.TID 0000.0001) %MON forcing_fu_del2              =   0.0000000000000E+00
(PID.TID 0000.0001) %MON forcing_fv_max               =   0.0000000000000E+00
(PID.TID 0000.0001) %MON forcing_fv_min               =   0.0000000000000E+00
(PID.TID 0000.0001) %MON forcing_fv_mean              =   0.0000000000000E+00
(PID.TID 0000.0001) %MON forcing_fv_sd                =   0.0000000000000E+00
(PID.TID 0000.0001) %MON forcing_fv_del2              =   0.0000000000000E+00
(PID.TID 0000.0001) %MON advcfl_uvel_max              =   3.3740540600211E-02
(PID.TID 0000.0001) %MON advcfl_vvel_max              =   0.0000000000000E+00
(PID.TID 0000.0001) %MON advcfl_wvel_max              =   1.0917940742186E-02
(PID.TID 0000.0001) %MON advcfl_W_hf_max              =   3.3740540600211E-02
(PID.TID 0000.0001) %MON pe_b_mean                    =   5.5212052130886E-07
(PID.TID 0000.0001) %MON ke_max                       =   5.0596625777534E-02
(PID.TID 0000.0001) %MON ke_mean                      =   6.5920200023554E-03
(PID.TID 0000.0001) %MON ke_vol                       =   9.6656965507697E+10
(PID.TID 0000.0001) %MON vort_r_min                   =   0.0000000000000E+00
(PID.TID 0000.0001) %MON vort_r_max                   =   0.0000000000000E+00
(PID.TID 0000.0001) %MON vort_a_mean                  =   0.0000000000000E+00
(PID.TID 0000.0001) %MON vort_a_sd                    =   0.0000000000000E+00
(PID.TID 0000.0001) %MON vort_p_mean                  =   0.0000000000000E+00
(PID.TID 0000.0001) %MON vort_p_sd                    =   0.0000000000000E+00
(PID.TID 0000.0001) %MON surfExpan_theta_mean         =   1.7876971793192E-19
(PID.TID 0000.0001) %MON surfExpan_salt_mean          =  -1.9087391758356E-19
(PID.TID 0000.0001) // =======================================================
(PID.TID 0000.0001) // End MONITOR dynamic field statistics
(PID.TID 0000.0001) // =======================================================
(PID.TID 0000.0001) // =======================================================
(PID.TID 0000.0001) // Begin OBCS MONITOR field statistics
(PID.TID 0000.0001) // =======================================================
(PID.TID 0000.0001) %MON obc_E_uVel_max               =   1.1205712828732E-01
(PID.TID 0000.0001) %MON obc_E_uVel_min               =   1.1205712828732E-01
(PID.TID 0000.0001) %MON obc_E_uVel_mean              =   1.1205712828732E-01
(PID.TID 0000.0001) %MON obc_E_uVel_sd                =   0.0000000000000E+00
(PID.TID 0000.0001) %MON obc_E_uVel_Int               =   1.1205712828732E+05
(PID.TID 0000.0001) %MON obc_W_uVel_max               =   1.1205712828732E-01
(PID.TID 0000.0001) %MON obc_W_uVel_min               =   1.1205712828732E-01
(PID.TID 0000.0001) %MON obc_W_uVel_mean              =   1.1205712828732E-01
(PID.TID 0000.0001) %MON obc_W_uVel_sd                =   0.0000000000000E+00
(PID.TID 0000.0001) %MON obc_W_uVel_Int               =   1.1205712828732E+05
(PID.TID 0000.0001) // =======================================================
(PID.TID 0000.0001) // End OBCS MONITOR field statistics
(PID.TID 0000.0001) // =======================================================
 cg2d: Sum(rhs),rhsMax =  -2.32376895503705E-11  2.84420384354753E-02
 cg2d: Sum(rhs),rhsMax =  -2.23019380740652E-11  2.96302897566781E-02
 cg2d: Sum(rhs),rhsMax =  -2.14328277348130E-11  3.09241369009300E-02
 cg2d: Sum(rhs),rhsMax =  -2.05511718753826E-11  3.23332211234457E-02
 cg2d: Sum(rhs),rhsMax =  -1.96701543941913E-11  3.38655358800524E-02
 cg2d: Sum(rhs),rhsMax =  -1.87739268575626E-11  3.55906204961530E-02
 cg2d: Sum(rhs),rhsMax =  -1.78401737827016E-11  3.75523293679739E-02
 cg2d: Sum(rhs),rhsMax =  -1.69809166727930E-11  3.95307081468652E-02
 cg2d: Sum(rhs),rhsMax =  -1.62177493656657E-11  4.15197923338169E-02
 cg2d: Sum(rhs),rhsMax =  -1.55132018342385E-11  4.35133131054291E-02
 cg2d: Sum(rhs),rhsMax =  -1.49019130368799E-11  4.55047298080377E-02
 cg2d: Sum(rhs),rhsMax =  -1.43132172780724E-11  4.74872660226097E-02
 cg2d: Sum(rhs),rhsMax =  -1.37699296409721E-11  4.94539489502745E-02
 cg2d: Sum(rhs),rhsMax =  -1.33050237494103E-11  5.13976518169316E-02
 cg2d: Sum(rhs),rhsMax =  -1.29073973731408E-11  5.33111389466546E-02
 cg2d: Sum(rhs),rhsMax =  -1.24845134230611E-11  5.51871131084486E-02
 cg2d: Sum(rhs),rhsMax =  -1.21154197785245E-11  5.70182647001809E-02
 cg2d: Sum(rhs),rhsMax =  -1.17880150085625E-11  5.87973222980857E-02
 cg2d: Sum(rhs),rhsMax =  -1.14911413717778E-11  6.05171040700921E-02
 cg2d: Sum(rhs),rhsMax =  -1.12398979013051E-11  6.21705695286494E-02
 cg2d: Sum(rhs),rhsMax =  -1.09994235941713E-11  6.37508710832513E-02
 cg2d: Sum(rhs),rhsMax =  -1.07751585431970E-11  6.52514048433674E-02
 cg2d: Sum(rhs),rhsMax =  -1.05917496995289E-11  6.66658601216100E-02
 cg2d: Sum(rhs),rhsMax =  -1.04126707256569E-11  6.79882670951526E-02
 cg2d: Sum(rhs),rhsMax =  -1.02569064353020E-11  6.92130420981052E-02
 cg2d: Sum(rhs),rhsMax =  -1.01046948586259E-11  7.03350300404170E-02
 cg2d: Sum(rhs),rhsMax =  -1.00625063836901E-11  7.13495434783315E-02
 cg2d: Sum(rhs),rhsMax =  -1.00207619979642E-11  7.22523978991924E-02
 cg2d: Sum(rhs),rhsMax =  -1.00254249346676E-11  7.30399428359200E-02
 cg2d: Sum(rhs),rhsMax =  -9.99600402451506E-12  7.37090884593577E-02
 cg2d: Sum(rhs),rhsMax =  -1.00121022583721E-11  7.42573273653601E-02
 cg2d: Sum(rhs),rhsMax =  -1.00087715892982E-11  7.46827513259440E-02
 cg2d: Sum(rhs),rhsMax =  -1.00434105476666E-11  7.49840628393249E-02
 cg2d: Sum(rhs),rhsMax =  -1.00841557326703E-11  7.51605813782978E-02
 cg2d: Sum(rhs),rhsMax =  -1.01035846356012E-11  7.52122443020923E-02
 cg2d: Sum(rhs),rhsMax =  -1.01385566608769E-11  7.51396024626223E-02
 cg2d: Sum(rhs),rhsMax =  -1.01972874588796E-11  7.49438106027336E-02
 cg2d: Sum(rhs),rhsMax =  -1.02579056360241E-11  7.46266127072923E-02
 cg2d: Sum(rhs),rhsMax =  -1.03398400952415E-11  7.41903225102643E-02
 cg2d: Sum(rhs),rhsMax =  -1.04262154465573E-11  7.36377994490699E-02
 cg2d: Sum(rhs),rhsMax =  -1.05551123397163E-11  7.29724203874834E-02
 cg2d: Sum(rhs),rhsMax =  -1.06744613148635E-11  7.21980474881163E-02
 cg2d: Sum(rhs),rhsMax =  -1.08428821476991E-11  7.13189926514382E-02
 cg2d: Sum(rhs),rhsMax =  -1.09628972566611E-11  7.03399789584634E-02
 cg2d: Sum(rhs),rhsMax =  -1.11921583112462E-11  6.92660995773171E-02
 cg2d: Sum(rhs),rhsMax =  -1.14367404435711E-11  6.81027746208953E-02
 cg2d: Sum(rhs),rhsMax =  -1.16412435247071E-11  6.71012441253912E-02
 cg2d: Sum(rhs),rhsMax =  -1.17504894703302E-11  6.69615825240616E-02
 cg2d: Sum(rhs),rhsMax =  -1.18216547662087E-11  6.67057707404084E-02
 cg2d: Sum(rhs),rhsMax =  -1.19411147636583E-11  6.63356962214202E-02
 cg2d: Sum(rhs),rhsMax =  -1.20994325669699E-11  6.58537637468090E-02
 cg2d: Sum(rhs),rhsMax =  -1.22751808717680E-11  6.52628727579815E-02
 cg2d: Sum(rhs),rhsMax =  -1.24588117600410E-11  6.45663911575149E-02
 cg2d: Sum(rhs),rhsMax =  -1.26759713836577E-11  6.37681258819894E-02
 cg2d: Sum(rhs),rhsMax =  -1.28914656727375E-11  6.28722905749312E-02
 cg2d: Sum(rhs),rhsMax =  -1.31897825994542E-11  6.18834707416162E-02
 cg2d: Sum(rhs),rhsMax =  -1.35410571644456E-11  6.08065867868494E-02
 cg2d: Sum(rhs),rhsMax =  -1.38694611351298E-11  5.96468553064662E-02
 cg2d: Sum(rhs),rhsMax =  -1.40606415399702E-11  5.84097490392117E-02
 cg2d: Sum(rhs),rhsMax =  -1.42346134879290E-11  5.71009558876093E-02
 cg2d: Sum(rhs),rhsMax =  -1.45736755996495E-11  5.57263374260234E-02
 cg2d: Sum(rhs),rhsMax =  -1.49226186962892E-11  5.42918872715546E-02
 cg2d: Sum(rhs),rhsMax =  -1.52948764764460E-11  5.28036897322809E-02
 cg2d: Sum(rhs),rhsMax =  -1.56969992559652E-11  5.12678791004133E-02
 cg2d: Sum(rhs),rhsMax =  -1.61695101752457E-11  4.96905999376688E-02
 cg2d: Sum(rhs),rhsMax =  -1.66188174333115E-11  4.80779686718747E-02
 cg2d: Sum(rhs),rhsMax =  -1.71449521246814E-11  4.64360368291016E-02
 cg2d: Sum(rhs),rhsMax =  -1.77051706629072E-11  4.47707561565136E-02
 cg2d: Sum(rhs),rhsMax =  -1.83116855012599E-11  4.30879458663187E-02
 cg2d: Sum(rhs),rhsMax =  -1.89877003009542E-11  4.13932622100360E-02
 cg2d: Sum(rhs),rhsMax =  -1.97118987799172E-11  3.96921705535601E-02
 cg2d: Sum(rhs),rhsMax =  -2.04949390791853E-11  3.79899200704172E-02
 cg2d: Sum(rhs),rhsMax =  -2.13000728166435E-11  3.62915211771710E-02
 cg2d: Sum(rhs),rhsMax =  -2.22487583911857E-11  3.46017257723308E-02
 cg2d: Sum(rhs),rhsMax =  -2.32395214183612E-11  3.29250103047121E-02
 cg2d: Sum(rhs),rhsMax =  -2.43370879005056E-11  3.12655616620473E-02
 cg2d: Sum(rhs),rhsMax =  -2.55508947333283E-11  2.96272658576341E-02
 cg2d: Sum(rhs),rhsMax =  -2.68517430512816E-11  2.80136994389727E-02
 cg2d: Sum(rhs),rhsMax =  -2.83683077029195E-11  2.64281235565038E-02
 cg2d: Sum(rhs),rhsMax =  -2.99560376504360E-11  2.48734805584892E-02
 cg2d: Sum(rhs),rhsMax =  -3.17333936905584E-11  2.33523929838717E-02
 cg2d: Sum(rhs),rhsMax =  -3.38573613589688E-11  2.18671648058698E-02
 cg2d: Sum(rhs),rhsMax =  -3.61827234840462E-11  2.04197847692700E-02
 cg2d: Sum(rhs),rhsMax =  -3.87878618113291E-11  1.90119316461959E-02
 cg2d: Sum(rhs),rhsMax =  -4.17410550568320E-11  1.76449812258294E-02
 cg2d: Sum(rhs),rhsMax =  -4.51089166020324E-11  1.63200148481427E-02
 cg2d: Sum(rhs),rhsMax =  -4.64406291200703E-11  1.58484654833915E-02
 cg2d: Sum(rhs),rhsMax =  -4.78217465627040E-11  1.53699482428607E-02
 cg2d: Sum(rhs),rhsMax =  -4.92944574048693E-11  1.48813902273809E-02
 cg2d: Sum(rhs),rhsMax =  -5.09485786892583E-11  1.43767922086728E-02
 cg2d: Sum(rhs),rhsMax =  -5.27580201747924E-11  1.38606724648010E-02
 cg2d: Sum(rhs),rhsMax =  -5.48202594430336E-11  1.33223725220196E-02
 cg2d: Sum(rhs),rhsMax =  -5.70392622023519E-11  1.27757361307009E-02
 cg2d: Sum(rhs),rhsMax =  -5.97119020895320E-11  1.22068807298855E-02
 cg2d: Sum(rhs),rhsMax =  -6.26602103537266E-11  1.16182648744185E-02
 cg2d: Sum(rhs),rhsMax =  -6.60673182828475E-11  1.10169050998529E-02
 cg2d: Sum(rhs),rhsMax =  -6.99880153831600E-11  1.03946103958995E-02
 cg2d: Sum(rhs),rhsMax =  -7.45697947834856E-11  9.75236385350377E-03
 cg2d: Sum(rhs),rhsMax =  -7.99659782835249E-11  9.09237409885978E-03
 cg2d: Sum(rhs),rhsMax =  -8.62883098307066E-11  8.41779374995285E-03
 cg2d: Sum(rhs),rhsMax =  -9.41119404629376E-11  7.72503649937902E-03
 cg2d: Sum(rhs),rhsMax =  -1.03741390478085E-10  7.01518416181321E-03
 cg2d: Sum(rhs),rhsMax =  -1.15879035533784E-10  6.28933081762704E-03
 cg2d: Sum(rhs),rhsMax =  -1.31502281286444E-10  5.54858185732702E-03
 cg2d: Sum(rhs),rhsMax =  -1.52399731723207E-10  4.79405345872711E-03
 cg2d: Sum(rhs),rhsMax =  -1.81533954535240E-10  4.02687245886973E-03
 cg2d: Sum(rhs),rhsMax =  -2.25196528091942E-10  3.24817657536944E-03
 cg2d: Sum(rhs),rhsMax =  -2.46976328277526E-10  2.96242912509644E-03
 cg2d: Sum(rhs),rhsMax =  -2.08770445375706E-10  3.50500174234201E-03
 cg2d: Sum(rhs),rhsMax =  -1.81354042894100E-10  4.03606106144174E-03
 cg2d: Sum(rhs),rhsMax =  -1.60577107166660E-10  4.55898617715043E-03
 cg2d: Sum(rhs),rhsMax =  -1.44137590751825E-10  5.08081986436713E-03
 cg2d: Sum(rhs),rhsMax =  -1.30871313785974E-10  5.59711006866464E-03
 cg2d: Sum(rhs),rhsMax =  -1.19928400543756E-10  6.11008738008638E-03
 cg2d: Sum(rhs),rhsMax =  -1.10723874513496E-10  6.62196410609545E-03
 cg2d: Sum(rhs),rhsMax =  -1.02807207191802E-10  7.13492839366304E-03
 cg2d: Sum(rhs),rhsMax =  -9.59844426162704E-11  7.65113841490302E-03
 cg2d: Sum(rhs),rhsMax =  -8.99011975974418E-11  8.17271656484765E-03
 cg2d: Sum(rhs),rhsMax =  -8.45097325452571E-11  8.70174362472668E-03
 cg2d: Sum(rhs),rhsMax =  -7.96798182989278E-11  9.24025284951944E-03
 cg2d: Sum(rhs),rhsMax =  -7.52584661256606E-11  9.79022394432649E-03
 cg2d: Sum(rhs),rhsMax =  -7.12687686643676E-11  1.03535769003077E-02
 cg2d: Sum(rhs),rhsMax =  -6.76061429061292E-11  1.09321656676702E-02
 cg2d: Sum(rhs),rhsMax =  -6.41230402109727E-11  1.15277716515059E-02
 cg2d: Sum(rhs),rhsMax =  -6.09836625642401E-11  1.21420970199595E-02
 cg2d: Sum(rhs),rhsMax =  -5.77325964812303E-11  1.28312492193508E-02
 cg2d: Sum(rhs),rhsMax =  -5.48205925099410E-11  1.35248264609064E-02
 cg2d: Sum(rhs),rhsMax =  -5.21740428638395E-11  1.42196597885666E-02
 cg2d: Sum(rhs),rhsMax =  -4.97940577659506E-11  1.49156003206610E-02
 cg2d: Sum(rhs),rhsMax =  -4.76195749499198E-11  1.56124347331741E-02
 cg2d: Sum(rhs),rhsMax =  -4.56699122963755E-11  1.63149905853363E-02
 cg2d: Sum(rhs),rhsMax =  -4.36031211137333E-11  1.70896087879895E-02
 cg2d: Sum(rhs),rhsMax =  -4.16844336825761E-11  1.79031192357036E-02
 cg2d: Sum(rhs),rhsMax =  -3.98734378848076E-11  1.87459221683520E-02
 cg2d: Sum(rhs),rhsMax =  -3.82081033478698E-11  1.96185297042415E-02
 cg2d: Sum(rhs),rhsMax =  -3.67141872459342E-11  2.05212949483844E-02
 cg2d: Sum(rhs),rhsMax =  -3.51971785050864E-11  2.14544054334227E-02
 cg2d: Sum(rhs),rhsMax =  -3.37525563054442E-11  2.24178769819711E-02
 cg2d: Sum(rhs),rhsMax =  -3.24404947349421E-11  2.34115480755355E-02
 cg2d: Sum(rhs),rhsMax =  -3.11493053573031E-11  2.44350748163686E-02
 cg2d: Sum(rhs),rhsMax =  -2.99531510705719E-11  2.54879265687885E-02
 cg2d: Sum(rhs),rhsMax =  -2.87740942184200E-11  2.65693823661954E-02
 cg2d: Sum(rhs),rhsMax =  -2.76754175132510E-11  2.76785281662714E-02
 cg2d: Sum(rhs),rhsMax =  -2.65405475374791E-11  2.88142550344185E-02
 cg2d: Sum(rhs),rhsMax =  -2.55999665910167E-11  2.99752583310850E-02
 cg2d: Sum(rhs),rhsMax =  -2.46600517783691E-11  3.11600379717991E-02
 cg2d: Sum(rhs),rhsMax =  -2.38822295273167E-11  3.23668998205390E-02
 cg2d: Sum(rhs),rhsMax =  -2.30215846386272E-11  3.35939582720937E-02
 cg2d: Sum(rhs),rhsMax =  -2.23239204899528E-11  3.48391400675182E-02
 cg2d: Sum(rhs),rhsMax =  -2.16657802809550E-11  3.61001893765150E-02
 cg2d: Sum(rhs),rhsMax =  -2.09809947193662E-11  3.73746741694582E-02
 cg2d: Sum(rhs),rhsMax =  -2.04316563667817E-11  3.86599938899101E-02
 cg2d: Sum(rhs),rhsMax =  -1.98205896140280E-11  3.99533884256425E-02
 cg2d: Sum(rhs),rhsMax =  -1.93938198833621E-11  4.12519483633640E-02
 cg2d: Sum(rhs),rhsMax =  -1.88258297839639E-11  4.25526265015697E-02
 cg2d: Sum(rhs),rhsMax =  -1.83830728417433E-11  4.38522505756047E-02
 cg2d: Sum(rhs),rhsMax =  -1.79535275535159E-11  4.51475371406766E-02
 cg2d: Sum(rhs),rhsMax =  -1.75576220229345E-11  4.64351065447576E-02
 cg2d: Sum(rhs),rhsMax =  -1.72173386658869E-11  4.77114989096798E-02
 cg2d: Sum(rhs),rhsMax =  -1.68112190834790E-11  4.89731910258329E-02
 cg2d: Sum(rhs),rhsMax =  -1.65147895359041E-11  5.02166140540471E-02
 cg2d: Sum(rhs),rhsMax =  -1.62239111034523E-11  5.14381719171932E-02
 cg2d: Sum(rhs),rhsMax =  -1.59308122249513E-11  5.26342602544499E-02
 cg2d: Sum(rhs),rhsMax =  -1.56616941637822E-11  5.38012858024519E-02
 cg2d: Sum(rhs),rhsMax =  -1.54283252840060E-11  5.49356860598678E-02
 cg2d: Sum(rhs),rhsMax =  -1.52152734855804E-11  5.60339490859568E-02
 cg2d: Sum(rhs),rhsMax =  -1.50083279137903E-11  5.70926332785774E-02
 cg2d: Sum(rhs),rhsMax =  -1.48316914305724E-11  5.81083869747330E-02
 cg2d: Sum(rhs),rhsMax =  -1.46771483855446E-11  5.90779677152808E-02
 cg2d: Sum(rhs),rhsMax =  -1.45237155635414E-11  5.99982610159723E-02
 cg2d: Sum(rhs),rhsMax =  -1.43893785775617E-11  6.08662984894298E-02
 cg2d: Sum(rhs),rhsMax =  -1.42703626693219E-11  6.16792751687140E-02
 cg2d: Sum(rhs),rhsMax =  -1.41974210166040E-11  6.24345658829048E-02
 cg2d: Sum(rhs),rhsMax =  -1.41002765019493E-11  6.31297405522014E-02
 cg2d: Sum(rhs),rhsMax =  -1.39754874339815E-11  6.40096075592381E-02
 cg2d: Sum(rhs),rhsMax =  -1.37234668073916E-11  6.56010768735419E-02
 cg2d: Sum(rhs),rhsMax =  -1.34630084858145E-11  6.71497854777483E-02
 cg2d: Sum(rhs),rhsMax =  -1.32580613154687E-11  6.86508662887272E-02
 cg2d: Sum(rhs),rhsMax =  -1.30615518401100E-11  7.00995538154866E-02
 cg2d: Sum(rhs),rhsMax =  -1.28435040380737E-11  7.14912101180405E-02
 cg2d: Sum(rhs),rhsMax =  -1.26610943951277E-11  7.28213502704240E-02
 cg2d: Sum(rhs),rhsMax =  -1.24922294730823E-11  7.40856671299476E-02
 cg2d: Sum(rhs),rhsMax =  -1.23587806655223E-11  7.52800552179794E-02
 cg2d: Sum(rhs),rhsMax =  -1.22237775457279E-11  7.64006335243454E-02
 cg2d: Sum(rhs),rhsMax =  -1.21281873433077E-11  7.74437670557603E-02
 cg2d: Sum(rhs),rhsMax =  -1.19921850227911E-11  7.84060869588561E-02
 cg2d: Sum(rhs),rhsMax =  -1.18738352483660E-11  7.92845090602140E-02
 cg2d: Sum(rhs),rhsMax =  -1.17680309941193E-11  8.00762506760153E-02
 cg2d: Sum(rhs),rhsMax =  -1.16635590075020E-11  8.07788455707586E-02
 cg2d: Sum(rhs),rhsMax =  -1.15727427640877E-11  8.13901569443306E-02
 cg2d: Sum(rhs),rhsMax =  -1.15077947171471E-11  8.19083883504583E-02
 cg2d: Sum(rhs),rhsMax =  -1.14627196623474E-11  8.23320924677249E-02
 cg2d: Sum(rhs),rhsMax =  -1.14452891608607E-11  8.26601776625910E-02
 cg2d: Sum(rhs),rhsMax =  -1.14248610572076E-11  8.28919123023281E-02
 cg2d: Sum(rhs),rhsMax =  -1.14158682507082E-11  8.30269267945515E-02
 cg2d: Sum(rhs),rhsMax =  -1.14346310198243E-11  8.30652133489714E-02
 cg2d: Sum(rhs),rhsMax =  -1.14870335465866E-11  8.30071234786780E-02
 cg2d: Sum(rhs),rhsMax =  -1.15787379684207E-11  8.28533632680398E-02
 cg2d: Sum(rhs),rhsMax =  -1.16813225758960E-11  8.26049864649074E-02
 cg2d: Sum(rhs),rhsMax =  -1.18278720151466E-11  8.22633854668415E-02
 cg2d: Sum(rhs),rhsMax =  -1.19350085370229E-11  8.18302802849113E-02
 cg2d: Sum(rhs),rhsMax =  -1.20677912107681E-11  8.13077056160542E-02
 cg2d: Sum(rhs),rhsMax =  -1.21929133456433E-11  8.06979961265684E-02
 cg2d: Sum(rhs),rhsMax =  -1.23449028777145E-11  8.00037700714033E-02
 cg2d: Sum(rhs),rhsMax =  -1.25041088594458E-11  7.92279113940672E-02
 cg2d: Sum(rhs),rhsMax =  -1.26718635584666E-11  7.83735504867955E-02
 cg2d: Sum(rhs),rhsMax =  -1.28715926805967E-11  7.74440437772995E-02
 cg2d: Sum(rhs),rhsMax =  -1.30706556689120E-11  7.64429523133925E-02
 cg2d: Sum(rhs),rhsMax =  -1.33443256444821E-11  7.53740195221934E-02
 cg2d: Sum(rhs),rhsMax =  -1.35652600263825E-11  7.42411483217326E-02
 cg2d: Sum(rhs),rhsMax =  -1.38838940344499E-11  7.30483777640384E-02
 cg2d: Sum(rhs),rhsMax =  -1.41714417978278E-11  7.17998594127874E-02
 cg2d: Sum(rhs),rhsMax =  -1.44974032778578E-11  7.04998336065916E-02
 cg2d: Sum(rhs),rhsMax =  -1.48316914305724E-11  6.91526057859822E-02
 cg2d: Sum(rhs),rhsMax =  -1.52288182064808E-11  6.77625230466862E-02
 cg2d: Sum(rhs),rhsMax =  -1.56020751873598E-11  6.63339510835040E-02
 cg2d: Sum(rhs),rhsMax =  -1.60164104201499E-11  6.48712516836244E-02
 cg2d: Sum(rhs),rhsMax =  -1.64703806149191E-11  6.33787608703294E-02
 cg2d: Sum(rhs),rhsMax =  -1.69063651966894E-11  6.18607678731079E-02
 cg2d: Sum(rhs),rhsMax =  -1.74172898326219E-11  6.03214950222599E-02
 cg2d: Sum(rhs),rhsMax =  -1.79701808988852E-11  5.87650786723536E-02
 cg2d: Sum(rhs),rhsMax =  -1.84993131924216E-11  5.71955512471741E-02
 cg2d: Sum(rhs),rhsMax =  -1.90835125479794E-11  5.56168244868081E-02
 cg2d: Sum(rhs),rhsMax =  -1.96842542266040E-11  5.40326739647089E-02
 cg2d: Sum(rhs),rhsMax =  -2.03210781535290E-11  5.24467249299821E-02
 cg2d: Sum(rhs),rhsMax =  -2.10014228230193E-11  5.08624395140945E-02
 cg2d: Sum(rhs),rhsMax =  -2.17644791078442E-11  4.92831053253864E-02
 cg2d: Sum(rhs),rhsMax =  -2.25103269357874E-11  4.77118254544254E-02
 cg2d: Sum(rhs),rhsMax =  -2.33270069927016E-11  4.61515098915791E-02
 cg2d: Sum(rhs),rhsMax =  -2.41099362696673E-11  4.46048683465817E-02
 cg2d: Sum(rhs),rhsMax =  -2.49728016044060E-11  4.30744044499973E-02
 cg2d: Sum(rhs),rhsMax =  -2.58725263435622E-11  4.15624113069622E-02
 cg2d: Sum(rhs),rhsMax =  -2.68209898734995E-11  4.00709683655897E-02
 cg2d: Sum(rhs),rhsMax =  -2.77459166753147E-11  3.86019395536000E-02
 cg2d: Sum(rhs),rhsMax =  -2.88126189573745E-11  3.71569726319645E-02
 cg2d: Sum(rhs),rhsMax =  -2.99034130790687E-11  3.57374997069542E-02
 cg2d: Sum(rhs),rhsMax =  -3.10814707304985E-11  3.43447388368521E-02
 cg2d: Sum(rhs),rhsMax =  -3.24017479513827E-11  3.29796966647373E-02
 cg2d: Sum(rhs),rhsMax =  -3.36823902102878E-11  3.16431720088211E-02
 cg2d: Sum(rhs),rhsMax =  -3.50937057191913E-11  3.03357603316735E-02
 cg2d: Sum(rhs),rhsMax =  -3.66103813931318E-11  2.90578590314589E-02
 cg2d: Sum(rhs),rhsMax =  -3.81107367886102E-11  2.78096734655845E-02
 cg2d: Sum(rhs),rhsMax =  -3.98497901343831E-11  2.65912236342979E-02
 cg2d: Sum(rhs),rhsMax =  -4.16634504674107E-11  2.54023514537503E-02
 cg2d: Sum(rhs),rhsMax =  -4.35886882144132E-11  2.42427285494076E-02
 cg2d: Sum(rhs),rhsMax =  -4.56920057345656E-11  2.31118645020953E-02
 cg2d: Sum(rhs),rhsMax =  -4.79326578428640E-11  2.20091154810810E-02
 cg2d: Sum(rhs),rhsMax =  -5.03820318797921E-11  2.09336932016321E-02
 cg2d: Sum(rhs),rhsMax =  -5.29748467315017E-11  1.98846741481848E-02
 cg2d: Sum(rhs),rhsMax =  -5.58372237335902E-11  1.88610090100885E-02
 cg2d: Sum(rhs),rhsMax =  -5.89315263255230E-11  1.78615322769164E-02
 cg2d: Sum(rhs),rhsMax =  -6.22496498792202E-11  1.68849719463111E-02
 cg2d: Sum(rhs),rhsMax =  -6.59359233878831E-11  1.59299593075941E-02
 cg2d: Sum(rhs),rhsMax =  -6.99575952722853E-11  1.49950387637665E-02
 cg2d: Sum(rhs),rhsMax =  -7.44532213658999E-11  1.40786776575417E-02
 cg2d: Sum(rhs),rhsMax =  -7.93947130262040E-11  1.31792760738207E-02
 cg2d: Sum(rhs),rhsMax =  -8.50189918466526E-11  1.22951765936053E-02
 cg2d: Sum(rhs),rhsMax =  -9.14250897210422E-11  1.14246739780479E-02
 cg2d: Sum(rhs),rhsMax =  -9.87638859584195E-11  1.05660247646162E-02
 cg2d: Sum(rhs),rhsMax =  -1.04863229211105E-10  9.94304033152979E-03
 cg2d: Sum(rhs),rhsMax =  -1.08115738584047E-10  9.64028393364489E-03
 cg2d: Sum(rhs),rhsMax =  -1.11563203120113E-10  9.33967394384548E-03
 cg2d: Sum(rhs),rhsMax =  -1.15216503004945E-10  9.03984064101268E-03
 cg2d: Sum(rhs),rhsMax =  -1.19133591880427E-10  8.73940056164344E-03
 cg2d: Sum(rhs),rhsMax =  -1.23360877068990E-10  8.43695879801256E-03
 cg2d: Sum(rhs),rhsMax =  -1.27927446413878E-10  8.13111147583359E-03
 cg2d: Sum(rhs),rhsMax =  -1.32962751919763E-10  7.82044843024864E-03
 cg2d: Sum(rhs),rhsMax =  -1.38512534775259E-10  7.50355609392208E-03
 cg2d: Sum(rhs),rhsMax =  -1.44707579252668E-10  7.17902061345154E-03
 cg2d: Sum(rhs),rhsMax =  -1.51697321371103E-10  6.84543120547392E-03
 cg2d: Sum(rhs),rhsMax =  -1.59651847297937E-10  6.50138376020618E-03
 cg2d: Sum(rhs),rhsMax =  -1.68827618551859E-10  6.14548469718470E-03
 cg2d: Sum(rhs),rhsMax =  -1.79489090257334E-10  5.77635507495932E-03
 cg2d: Sum(rhs),rhsMax =  -1.92180715785639E-10  5.39263495337367E-03
 cg2d: Sum(rhs),rhsMax =  -1.79431247637751E-10  5.77268208421299E-03
 cg2d: Sum(rhs),rhsMax =  -1.56754942359782E-10  6.60543355944565E-03
 cg2d: Sum(rhs),rhsMax =  -1.39343869776098E-10  7.42816926791621E-03
 cg2d: Sum(rhs),rhsMax =  -1.25405963391501E-10  8.24912509249760E-03
 cg2d: Sum(rhs),rhsMax =  -1.14096398995400E-10  9.06327913962273E-03
 cg2d: Sum(rhs),rhsMax =  -1.04622699392820E-10  9.88085653000948E-03
 cg2d: Sum(rhs),rhsMax =  -9.65587332313333E-11  1.06975241121187E-02
 cg2d: Sum(rhs),rhsMax =  -8.95757079621973E-11  1.15199314622817E-02
 cg2d: Sum(rhs),rhsMax =  -8.34388114157036E-11  1.23561135276334E-02
 cg2d: Sum(rhs),rhsMax =  -7.78809863821728E-11  1.32246633524470E-02
 cg2d: Sum(rhs),rhsMax =  -7.28691777057699E-11  1.41233010952286E-02
 cg2d: Sum(rhs),rhsMax =  -6.84730536160139E-11  1.50233737567830E-02
 cg2d: Sum(rhs),rhsMax =  -6.44200803812112E-11  1.59524349910557E-02
 cg2d: Sum(rhs),rhsMax =  -6.07454642143068E-11  1.69015824594750E-02
 cg2d: Sum(rhs),rhsMax =  -5.73824321392635E-11  1.78759516239025E-02
 cg2d: Sum(rhs),rhsMax =  -5.42785261181677E-11  1.88821843444826E-02
 cg2d: Sum(rhs),rhsMax =  -5.13195319573612E-11  1.99267296015205E-02
 cg2d: Sum(rhs),rhsMax =  -4.85715911935358E-11  2.10167545130771E-02
 cg2d: Sum(rhs),rhsMax =  -4.58339477482639E-11  2.22259142652501E-02
 cg2d: Sum(rhs),rhsMax =  -4.33637015184729E-11  2.34505577835234E-02
 cg2d: Sum(rhs),rhsMax =  -4.11977119085805E-11  2.46854890815984E-02
 cg2d: Sum(rhs),rhsMax =  -3.92729182507878E-11  2.59290532003734E-02
 cg2d: Sum(rhs),rhsMax =  -3.75266484553549E-11  2.71794692892038E-02
 cg2d: Sum(rhs),rhsMax =  -3.59161589358337E-11  2.84348366111677E-02
 cg2d: Sum(rhs),rhsMax =  -3.44422268483413E-11  2.96931412565445E-02
 cg2d: Sum(rhs),rhsMax =  -3.30672711434943E-11  3.09522635458229E-02
 cg2d: Sum(rhs),rhsMax =  -3.17637027791307E-11  3.22099860981697E-02
 cg2d: Sum(rhs),rhsMax =  -3.05900860197994E-11  3.34640025357974E-02
 cg2d: Sum(rhs),rhsMax =  -2.94986257642904E-11  3.47119267891624E-02
 cg2d: Sum(rhs),rhsMax =  -2.85241275044257E-11  3.59513029624997E-02
 cg2d: Sum(rhs),rhsMax =  -2.75974243457711E-11  3.71796157139560E-02
 cg2d: Sum(rhs),rhsMax =  -2.67297295408753E-11  3.83943010996108E-02
 cg2d: Sum(rhs),rhsMax =  -2.59520183121253E-11  3.95927578259921E-02
 cg2d: Sum(rhs),rhsMax =  -2.52594611893642E-11  4.07723588513628E-02
 cg2d: Sum(rhs),rhsMax =  -2.46150877458717E-11  4.19304632721188E-02
 cg2d: Sum(rhs),rhsMax =  -2.39721575923113E-11  4.30644284271617E-02
 cg2d: Sum(rhs),rhsMax =  -2.34321451131336E-11  4.41716221501232E-02
 cg2d: Sum(rhs),rhsMax =  -2.28909113886289E-11  4.52494350968906E-02
 cg2d: Sum(rhs),rhsMax =  -2.24323892794587E-11  4.62952930740379E-02
 cg2d: Sum(rhs),rhsMax =  -2.19790852185042E-11  4.73066692925362E-02
 cg2d: Sum(rhs),rhsMax =  -2.15999440555947E-11  4.82810964705294E-02
 cg2d: Sum(rhs),rhsMax =  -2.12275752531355E-11  4.92161787090243E-02
 cg2d: Sum(rhs),rhsMax =  -2.09156025832158E-11  5.01096030650759E-02
 cg2d: Sum(rhs),rhsMax =  -2.05765404714953E-11  5.09591507485199E-02
 cg2d: Sum(rhs),rhsMax =  -2.02853289721361E-11  5.17627078701181E-02
 cg2d: Sum(rhs),rhsMax =  -2.00401917282989E-11  5.25182756719313E-02
 cg2d: Sum(rhs),rhsMax =  -1.98040472909611E-11  5.32239801740835E-02
 cg2d: Sum(rhs),rhsMax =  -1.95879978903690E-11  5.38780811759649E-02
 cg2d: Sum(rhs),rhsMax =  -1.93931537495473E-11  5.44789805543553E-02
 cg2d: Sum(rhs),rhsMax =  -1.92258431397363E-11  5.50252298059417E-02
 cg2d: Sum(rhs),rhsMax =  -1.90927273990837E-11  5.55155367871835E-02
 cg2d: Sum(rhs),rhsMax =  -1.89626092605977E-11  5.59487716103959E-02
 cg2d: Sum(rhs),rhsMax =  -1.88826732028247E-11  5.63239716611894E-02
 cg2d: Sum(rhs),rhsMax =  -1.88168369774644E-11  5.66403457089663E-02
 cg2d: Sum(rhs),rhsMax =  -1.87625470715602E-11  5.68972770900297E-02
 cg2d: Sum(rhs),rhsMax =  -1.87462267930982E-11  5.70943259470302E-02
 cg2d: Sum(rhs),rhsMax =  -1.87484472391475E-11  5.72312305156723E-02
 cg2d: Sum(rhs),rhsMax =  -1.87573290233445E-11  5.73079074614297E-02
 cg2d: Sum(rhs),rhsMax =  -1.87961868292064E-11  5.73244512725369E-02
 cg2d: Sum(rhs),rhsMax =  -1.88431492631480E-11  5.72811327224039E-02
 cg2d: Sum(rhs),rhsMax =  -1.88529192257647E-11  5.71783964150042E-02
 cg2d: Sum(rhs),rhsMax =  -1.89643856174371E-11  5.70168574581912E-02
 cg2d: Sum(rhs),rhsMax =  -1.90163440549895E-11  5.67972972839349E-02
 cg2d: Sum(rhs),rhsMax =  -1.91078264322186E-11  5.65206586555105E-02
 cg2d: Sum(rhs),rhsMax =  -1.92303950541373E-11  5.61880399081405E-02
 cg2d: Sum(rhs),rhsMax =  -1.93990379315778E-11  5.58006884547310E-02
 cg2d: Sum(rhs),rhsMax =  -1.95732319241415E-11  5.53599936311230E-02
 cg2d: Sum(rhs),rhsMax =  -1.97858396333572E-11  5.48674789372680E-02
 cg2d: Sum(rhs),rhsMax =  -2.00834904262592E-11  5.43247937329140E-02
 cg2d: Sum(rhs),rhsMax =  -2.03569383572244E-11  5.37337044490830E-02
 cg2d: Sum(rhs),rhsMax =  -2.06925587775686E-11  5.30960853795463E-02
 cg2d: Sum(rhs),rhsMax =  -2.10635953123983E-11  5.24139091187954E-02
 cg2d: Sum(rhs),rhsMax =  -2.13293827044936E-11  5.18142107197868E-02
 cg2d: Sum(rhs),rhsMax =  -2.14673834264545E-11  5.15837189800428E-02
 cg2d: Sum(rhs),rhsMax =  -2.16451301326970E-11  5.12945169040699E-02
 cg2d: Sum(rhs),rhsMax =  -2.18471907231788E-11  5.09477190069245E-02
 cg2d: Sum(rhs),rhsMax =  -2.20946594353677E-11  5.05445981209086E-02
 cg2d: Sum(rhs),rhsMax =  -2.23403517907172E-11  5.00865777339183E-02
 cg2d: Sum(rhs),rhsMax =  -2.26754170995491E-11  4.95752236362872E-02
 cg2d: Sum(rhs),rhsMax =  -2.30643282250753E-11  4.90122349299005E-02
 cg2d: Sum(rhs),rhsMax =  -2.34606778448665E-11  4.83994344612151E-02
 cg2d: Sum(rhs),rhsMax =  -2.38692399179286E-11  4.77387587434672E-02
 cg2d: Sum(rhs),rhsMax =  -2.43709497027567E-11  4.70322474373713E-02
 cg2d: Sum(rhs),rhsMax =  -2.48281395442973E-11  4.62820324635603E-02
 cg2d: Sum(rhs),rhsMax =  -2.53823628781902E-11  4.54903268235158E-02
 cg2d: Sum(rhs),rhsMax =  -2.58451038348539E-11  4.46594132109198E-02
 cg2d: Sum(rhs),rhsMax =  -2.63541410916446E-11  4.37916324873811E-02
 cg2d: Sum(rhs),rhsMax =  -2.68951527715444E-11  4.28893721064045E-02
 cg2d: Sum(rhs),rhsMax =  -2.74206213290995E-11  4.19550545677168E-02
 cg2d: Sum(rhs),rhsMax =  -2.79702927485914E-11  4.09911259760017E-02
 cg2d: Sum(rhs),rhsMax =  -2.85949042222455E-11  4.00000447777379E-02
 cg2d: Sum(rhs),rhsMax =  -2.92730284456866E-11  3.89842707234795E-02
 cg2d: Sum(rhs),rhsMax =  -2.99748004195521E-11  3.79462541283762E-02
 cg2d: Sum(rhs),rhsMax =  -3.07326386561613E-11  3.68884254897581E-02
 cg2d: Sum(rhs),rhsMax =  -3.15587556087848E-11  3.58131855042428E-02
 cg2d: Sum(rhs),rhsMax =  -3.24567039911017E-11  3.47228955155664E-02
 cg2d: Sum(rhs),rhsMax =  -3.33908456440213E-11  3.36198684289621E-02
 cg2d: Sum(rhs),rhsMax =  -3.44021477971523E-11  3.25063601210760E-02
 cg2d: Sum(rhs),rhsMax =  -3.55058205059322E-11  3.13845613829167E-02
 cg2d: Sum(rhs),rhsMax =  -3.67836872072758E-11  3.02565904044071E-02
 cg2d: Sum(rhs),rhsMax =  -3.81322751152879E-11  2.91244858231002E-02
 cg2d: Sum(rhs),rhsMax =  -3.95879995451764E-11  2.79902003553481E-02
 cg2d: Sum(rhs),rhsMax =  -4.12331280230660E-11  2.68555950299729E-02
 cg2d: Sum(rhs),rhsMax =  -4.30653290806049E-11  2.57224340263255E-02
 cg2d: Sum(rhs),rhsMax =  -4.50119941319826E-11  2.45923801252717E-02
 cg2d: Sum(rhs),rhsMax =  -4.70934402585499E-11  2.34669907788896E-02
 cg2d: Sum(rhs),rhsMax =  -4.93538543366867E-11  2.23477148010914E-02
 cg2d: Sum(rhs),rhsMax =  -5.18191045628669E-11  2.12358896791311E-02
 cg2d: Sum(rhs),rhsMax =  -5.46624967512344E-11  2.01327394965602E-02
 cg2d: Sum(rhs),rhsMax =  -5.76111380823363E-11  1.90393734617176E-02
 cg2d: Sum(rhs),rhsMax =  -6.10119732513681E-11  1.79567850318457E-02
 cg2d: Sum(rhs),rhsMax =  -6.48355813481771E-11  1.68858516173513E-02
 cg2d: Sum(rhs),rhsMax =  -6.90741908115911E-11  1.58273348485665E-02
 cg2d: Sum(rhs),rhsMax =  -7.38987759874021E-11  1.47818813854174E-02
 cg2d: Sum(rhs),rhsMax =  -7.94083687694069E-11  1.37500242483347E-02
 cg2d: Sum(rhs),rhsMax =  -8.56976711816060E-11  1.27321846467739E-02
 cg2d: Sum(rhs),rhsMax =  -9.29760712864436E-11  1.17286742799847E-02
 cg2d: Sum(rhs),rhsMax =  -1.01513686345811E-10  1.07396980866424E-02
 cg2d: Sum(rhs),rhsMax =  -1.11569087302144E-10  9.76535741049749E-03
 cg2d: Sum(rhs),rhsMax =  -1.23704491095111E-10  8.80565354512576E-03
 cg2d: Sum(rhs),rhsMax =  -1.38565048324324E-10  7.86049164459292E-03
 cg2d: Sum(rhs),rhsMax =  -1.57133417388877E-10  6.92968496749486E-03
 cg2d: Sum(rhs),rhsMax =  -1.76076708768846E-10  6.18480190545825E-03
 cg2d: Sum(rhs),rhsMax =  -1.94584237611650E-10  5.59964561582496E-03
 cg2d: Sum(rhs),rhsMax =  -2.17746487507497E-10  5.00705347765816E-03
 cg2d: Sum(rhs),rhsMax =  -2.47431963806832E-10  4.40736288640682E-03
 cg2d: Sum(rhs),rhsMax =  -2.87058044001753E-10  3.80091558642176E-03
 cg2d: Sum(rhs),rhsMax =  -3.42367578731739E-10  3.18805823889689E-03
 cg2d: Sum(rhs),rhsMax =  -4.24919766039977E-10  2.56914305837481E-03
 cg2d: Sum(rhs),rhsMax =  -5.61461484943626E-10  1.94452850059493E-03
 cg2d: Sum(rhs),rhsMax =  -8.30640001225902E-10  1.31457998505280E-03
 cg2d: Sum(rhs),rhsMax =  -5.50800627330261E-10  1.98235949777247E-03
 cg2d: Sum(rhs),rhsMax =  -3.99072441759074E-10  2.73662051528834E-03
 cg2d: Sum(rhs),rhsMax =  -3.13343018198964E-10  3.48573668955629E-03
 cg2d: Sum(rhs),rhsMax =  -2.57915577783763E-10  4.23556456370683E-03
 cg2d: Sum(rhs),rhsMax =  -2.19163687198431E-10  4.98556159110172E-03
 cg2d: Sum(rhs),rhsMax =  -1.90625182305837E-10  5.73233012885321E-03
 cg2d: Sum(rhs),rhsMax =  -1.68591141047614E-10  6.48422835843659E-03
 cg2d: Sum(rhs),rhsMax =  -1.51097134803990E-10  7.23702613757872E-03
 cg2d: Sum(rhs),rhsMax =  -1.36813671502978E-10  8.00008549872281E-03
 cg2d: Sum(rhs),rhsMax =  -1.24809940160731E-10  8.77508526632855E-03
 cg2d: Sum(rhs),rhsMax =  -1.14725784428060E-10  9.55285953918005E-03
 cg2d: Sum(rhs),rhsMax =  -1.06127995280758E-10  1.03318644399064E-02
 cg2d: Sum(rhs),rhsMax =  -9.87313564237979E-11  1.11129059446009E-02
 cg2d: Sum(rhs),rhsMax =  -9.23352505566299E-11  1.18967526660830E-02
 cg2d: Sum(rhs),rhsMax =  -8.66209326488843E-11  1.26841309734641E-02
 cg2d: Sum(rhs),rhsMax =  -8.15807421616910E-11  1.34757203226671E-02
 cg2d: Sum(rhs),rhsMax =  -7.70765673507867E-11  1.42721488111219E-02
 cg2d: Sum(rhs),rhsMax =  -7.30548954663846E-11  1.50739889689697E-02
 cg2d: Sum(rhs),rhsMax =  -6.93471946533464E-11  1.58817538020382E-02
 cg2d: Sum(rhs),rhsMax =  -6.60207444269645E-11  1.66958931006380E-02
 cg2d: Sum(rhs),rhsMax =  -6.29329921508770E-11  1.75167900287207E-02
 cg2d: Sum(rhs),rhsMax =  -6.01709793102145E-11  1.83447580044168E-02
 cg2d: Sum(rhs),rhsMax =  -5.76738656832276E-11  1.91800378866302E-02
 cg2d: Sum(rhs),rhsMax =  -5.53410650638853E-11  2.00227954796810E-02
 cg2d: Sum(rhs),rhsMax =  -5.32152100163330E-11  2.08731193671440E-02
 cg2d: Sum(rhs),rhsMax =  -5.12105913230698E-11  2.17310190853495E-02
 cg2d: Sum(rhs),rhsMax =  -4.93640683885133E-11  2.25964236463066E-02
 cg2d: Sum(rhs),rhsMax =  -4.76578776442693E-11  2.34691804188179E-02
 cg2d: Sum(rhs),rhsMax =  -4.60240734412309E-11  2.43490543745009E-02
 cg2d: Sum(rhs),rhsMax =  -4.44635439578178E-11  2.52357277071343E-02
 cg2d: Sum(rhs),rhsMax =  -4.30322444344711E-11  2.61287998300743E-02
 cg2d: Sum(rhs),rhsMax =  -4.16942036451928E-11  2.70277877533845E-02
 cg2d: Sum(rhs),rhsMax =  -4.04100086726089E-11  2.79321268431260E-02
 cg2d: Sum(rhs),rhsMax =  -3.92001986426749E-11  2.88411719635389E-02
 cg2d: Sum(rhs),rhsMax =  -3.80855347259512E-11  2.97541990010305E-02
 cg2d: Sum(rhs),rhsMax =  -3.70081743028550E-11  3.06704067671228E-02
 cg2d: Sum(rhs),rhsMax =  -3.59143825789943E-11  3.15889192758789E-02
 cg2d: Sum(rhs),rhsMax =  -3.49609230454462E-11  3.25087883898091E-02
 cg2d: Sum(rhs),rhsMax =  -3.40798500531037E-11  3.34289968266017E-02
 cg2d: Sum(rhs),rhsMax =  -3.32098792910074E-11  3.43484615183526E-02
 cg2d: Sum(rhs),rhsMax =  -3.23903126542291E-11  3.52660373123552E-02
 cg2d: Sum(rhs),rhsMax =  -3.15414361296007E-11  3.61805210013556E-02
 cg2d: Sum(rhs),rhsMax =  -3.07734948634675E-11  3.70906556696772E-02
 cg2d: Sum(rhs),rhsMax =  -3.01230151933396E-11  3.79951353396922E-02
 cg2d: Sum(rhs),rhsMax =  -2.93944868445806E-11  3.88926099010466E-02
 cg2d: Sum(rhs),rhsMax =  -2.87767587536791E-11  3.97816903028869E-02
 cg2d: Sum(rhs),rhsMax =  -2.81707990268387E-11  4.06609539871058E-02
 cg2d: Sum(rhs),rhsMax =  -2.76301204138463E-11  4.15289505377477E-02
 cg2d: Sum(rhs),rhsMax =  -2.71080935476675E-11  4.23842075218417E-02
 cg2d: Sum(rhs),rhsMax =  -2.66282551564245E-11  4.32252364928331E-02
 cg2d: Sum(rhs),rhsMax =  -2.61533017464899E-11  4.40505391244745E-02
 cg2d: Sum(rhs),rhsMax =  -2.57291965510831E-11  4.48586134445857E-02
 cg2d: Sum(rhs),rhsMax =  -2.53379539572052E-11  4.56479601365832E-02
 cg2d: Sum(rhs),rhsMax =  -2.49766873849921E-11  4.64170888755137E-02
 cg2d: Sum(rhs),rhsMax =  -2.46211939725072E-11  4.71645246647552E-02
 cg2d: Sum(rhs),rhsMax =  -2.42841302622310E-11  4.78888141395876E-02
 cg2d: Sum(rhs),rhsMax =  -2.40555353414607E-11  4.85885318042395E-02
 cg2d: Sum(rhs),rhsMax =  -2.37556641025094E-11  4.92622861696200E-02
 cg2d: Sum(rhs),rhsMax =  -2.34829933276615E-11  4.99087257596559E-02
 cg2d: Sum(rhs),rhsMax =  -2.31473729073173E-11  5.08202603000530E-02
 cg2d: Sum(rhs),rhsMax =  -2.26850760398634E-11  5.20066052614876E-02
 cg2d: Sum(rhs),rhsMax =  -2.22238893954341E-11  5.31756578575748E-02
 cg2d: Sum(rhs),rhsMax =  -2.18126627871129E-11  5.43250037467902E-02
 cg2d: Sum(rhs),rhsMax =  -2.13982165320203E-11  5.54522335752719E-02
 cg2d: Sum(rhs),rhsMax =  -2.10441664094674E-11  5.65549521147492E-02
 cg2d: Sum(rhs),rhsMax =  -2.06826777926494E-11  5.76307874376933E-02
 cg2d: Sum(rhs),rhsMax =  -2.03620453831377E-11  5.86774000811745E-02
 cg2d: Sum(rhs),rhsMax =  -2.00445215980949E-11  5.96924921504384E-02
 cg2d: Sum(rhs),rhsMax =  -1.97817318081661E-11  6.06738163126846E-02
 cg2d: Sum(rhs),rhsMax =  -1.95130578362068E-11  6.16191846317045E-02
 cg2d: Sum(rhs),rhsMax =  -1.93046689744847E-11  6.25264771946382E-02
 cg2d: Sum(rhs),rhsMax =  -1.91165971941132E-11  6.33936504819435E-02
 cg2d: Sum(rhs),rhsMax =  -1.89224191871062E-11  6.42187454371550E-02
 cg2d: Sum(rhs),rhsMax =  -1.87684312535907E-11  6.49998951898659E-02
 cg2d: Sum(rhs),rhsMax =  -1.86447524086475E-11  6.57353323884411E-02
(PID.TID 0000.0001)      cg2d_init_res =   3.11212404271813E-02
(PID.TID 0000.0001)      cg2d_iters(min,last) =      -1      37
(PID.TID 0000.0001)      cg2d_last_res =   6.97095893624915E-14
(PID.TID 0000.0001) // =======================================================
(PID.TID 0000.0001) // Begin MONITOR dynamic field statistics
(PID.TID 0000.0001) // =======================================================
(PID.TID 0000.0001) %MON time_tsnumber                =                   960
(PID.TID 0000.0001) %MON time_secondsf                =   1.4400000000000E+04
(PID.TID 0000.0001) %MON dynstat_eta_max              =   1.1448474789679E-02
(PID.TID 0000.0001) %MON dynstat_eta_min              =  -1.1581978376086E-02
(PID.TID 0000.0001) %MON dynstat_eta_mean             =   2.7072315738417E-15
(PID.TID 0000.0001) %MON dynstat_eta_sd               =   7.7532532321459E-03
(PID.TID 0000.0001) %MON dynstat_eta_del2             =   9.9273268019083E-07
(PID.TID 0000.0001) %MON dynstat_uvel_max             =   4.1542001767962E-01
(PID.TID 0000.0001) %MON dynstat_uvel_min             =  -3.7322790773996E-01
(PID.TID 0000.0001) %MON dynstat_uvel_mean            =   1.1304755614157E-01
(PID.TID 0000.0001) %MON dynstat_uvel_sd              =   1.6322106086785E-02
(PID.TID 0000.0001) %MON dynstat_uvel_del2            =   6.2744733288977E-05
(PID.TID 0000.0001) %MON dynstat_vvel_max             =   0.0000000000000E+00
(PID.TID 0000.0001) %MON dynstat_vvel_min             =   0.0000000000000E+00
(PID.TID 0000.0001) %MON dynstat_vvel_mean            =   0.0000000000000E+00
(PID.TID 0000.0001) %MON dynstat_vvel_sd              =   0.0000000000000E+00
(PID.TID 0000.0001) %MON dynstat_vvel_del2            =   0.0000000000000E+00
(PID.TID 0000.0001) %MON dynstat_wvel_max             =   3.9977276794644E-03
(PID.TID 0000.0001) %MON dynstat_wvel_min             =  -5.1321105098154E-03
(PID.TID 0000.0001) %MON dynstat_wvel_mean            =  -5.2947767021135E-22
(PID.TID 0000.0001) %MON dynstat_wvel_sd              =   2.4311251225093E-04
(PID.TID 0000.0001) %MON dynstat_wvel_del2            =   3.8677682967374E-06
(PID.TID 0000.0001) %MON dynstat_theta_max            =   1.5000000000003E+01
(PID.TID 0000.0001) %MON dynstat_theta_min            =   9.9999999999983E+00
(PID.TID 0000.0001) %MON dynstat_theta_mean           =   1.4047647412203E+01
(PID.TID 0000.0001) %MON dynstat_theta_sd             =   1.8989594472658E+00
(PID.TID 0000.0001) %MON dynstat_theta_del2           =   2.4445890207378E-04
(PID.TID 0000.0001) %MON dynstat_salt_max             =   3.5000000000000E+01
(PID.TID 0000.0001) %MON dynstat_salt_min             =   3.5000000000000E+01
(PID.TID 0000.0001) %MON dynstat_salt_mean            =   3.5000000000000E+01
(PID.TID 0000.0001) %MON dynstat_salt_sd              =   3.0553337637684E-13
(PID.TID 0000.0001) %MON dynstat_salt_del2            =   0.0000000000000E+00
(PID.TID 0000.0001) %MON dynstat_sst_max              =   1.5000000000000E+01
(PID.TID 0000.0001) %MON dynstat_sst_min              =   1.5000000000000E+01
(PID.TID 0000.0001) %MON dynstat_sst_mean             =   1.5000000000000E+01
(PID.TID 0000.0001) %MON dynstat_sst_sd               =   1.2197337222552E-13
(PID.TID 0000.0001) %MON dynstat_sst_del2             =   2.2780895987338E-15
(PID.TID 0000.0001) %MON dynstat_sss_max              =   3.5000000000000E+01
(PID.TID 0000.0001) %MON dynstat_sss_min              =   3.5000000000000E+01
(PID.TID 0000.0001) %MON dynstat_sss_mean             =   3.5000000000000E+01
(PID.TID 0000.0001) %MON dynstat_sss_sd               =   2.8421709430404E-14
(PID.TID 0000.0001) %MON dynstat_sss_del2             =   0.0000000000000E+00
(PID.TID 0000.0001) %MON forcing_qnet_max             =   0.0000000000000E+00
(PID.TID 0000.0001) %MON forcing_qnet_min             =   0.0000000000000E+00
(PID.TID 0000.0001) %MON forcing_qnet_mean            =   0.0000000000000E+00
(PID.TID 0000.0001) %MON forcing_qnet_sd              =   0.0000000000000E+00
(PID.TID 0000.0001) %MON forcing_qnet_del2            =   0.0000000000000E+00
(PID.TID 0000.0001) %MON forcing_qsw_max              =   0.0000000000000E+00
(PID.TID 0000.0001) %MON forcing_qsw_min              =   0.0000000000000E+00
(PID.TID 0000.0001) %MON forcing_qsw_mean             =   0.0000000000000E+00
(PID.TID 0000.0001) %MON forcing_qsw_sd               =   0.0000000000000E+00
(PID.TID 0000.0001) %MON forcing_qsw_del2             =   0.0000000000000E+00
(PID.TID 0000.0001) %MON forcing_empmr_max            =   0.0000000000000E+00
(PID.TID 0000.0001) %MON forcing_empmr_min            =   0.0000000000000E+00
(PID.TID 0000.0001) %MON forcing_empmr_mean           =   0.0000000000000E+00
(PID.TID 0000.0001) %MON forcing_empmr_sd             =   0.0000000000000E+00
(PID.TID 0000.0001) %MON forcing_empmr_del2           =   0.0000000000000E+00
(PID.TID 0000.0001) %MON forcing_fu_max               =   0.0000000000000E+00
(PID.TID 0000.0001) %MON forcing_fu_min               =   0.0000000000000E+00
(PID.TID 0000.0001) %MON forcing_fu_mean              =   0.0000000000000E+00
(PID.TID 0000.0001) %MON forcing_fu_sd                =   0.0000000000000E+00
(PID.TID 0000.0001) %MON forcing_fu_del2              =   0.0000000000000E+00
(PID.TID 0000.0001) %MON forcing_fv_max               =   0.0000000000000E+00
(PID.TID 0000.0001) %MON forcing_fv_min               =   0.0000000000000E+00
(PID.TID 0000.0001) %MON forcing_fv_mean              =   0.0000000000000E+00
(PID.TID 0000.0001) %MON forcing_fv_sd                =   0.0000000000000E+00
(PID.TID 0000.0001) %MON forcing_fv_del2              =   0.0000000000000E+00
(PID.TID 0000.0001) %MON advcfl_uvel_max              =   3.1156501325972E-02
(PID.TID 0000.0001) %MON advcfl_vvel_max              =   0.0000000000000E+00
(PID.TID 0000.0001) %MON advcfl_wvel_max              =   2.3013876972170E-02
(PID.TID 0000.0001) %MON advcfl_W_hf_max              =   3.1156501325972E-02
(PID.TID 0000.0001) %MON pe_b_mean                    =   1.4898798428282E-06
(PID.TID 0000.0001) %MON ke_max                       =   6.2563356109401E-02
(PID.TID 0000.0001) %MON ke_mean                      =   6.5239342703611E-03
(PID.TID 0000.0001) %MON ke_vol                       =   9.6656965507697E+10
(PID.TID 0000.0001) %MON vort_r_min                   =   0.0000000000000E+00
(PID.TID 0000.0001) %MON vort_r_max                   =   0.0000000000000E+00
(PID.TID 0000.0001) %MON vort_a_mean                  =   0.0000000000000E+00
(PID.TID 0000.0001) %MON vort_a_sd                    =   0.0000000000000E+00
(PID.TID 0000.0001) %MON vort_p_mean                  =   0.0000000000000E+00
(PID.TID 0000.0001) %MON vort_p_sd                    =   0.0000000000000E+00
(PID.TID 0000.0001) %MON surfExpan_theta_mean         =  -1.4446478670768E-19
(PID.TID 0000.0001) %MON surfExpan_salt_mean          =   3.1424364480221E-20
(PID.TID 0000.0001) // =======================================================
(PID.TID 0000.0001) // End MONITOR dynamic field statistics
(PID.TID 0000.0001) // =======================================================
(PID.TID 0000.0001) // =======================================================
(PID.TID 0000.0001) // Begin OBCS MONITOR field statistics
(PID.TID 0000.0001) // =======================================================
(PID.TID 0000.0001) %MON obc_E_uVel_max               =   1.1205712828732E-01
(PID.TID 0000.0001) %MON obc_E_uVel_min               =   1.1205712828732E-01
(PID.TID 0000.0001) %MON obc_E_uVel_mean              =   1.1205712828732E-01
(PID.TID 0000.0001) %MON obc_E_uVel_sd                =   0.0000000000000E+00
(PID.TID 0000.0001) %MON obc_E_uVel_Int               =   1.1205712828732E+05
(PID.TID 0000.0001) %MON obc_W_uVel_max               =   1.1205712828732E-01
(PID.TID 0000.0001) %MON obc_W_uVel_min               =   1.1205712828732E-01
(PID.TID 0000.0001) %MON obc_W_uVel_mean              =   1.1205712828732E-01
(PID.TID 0000.0001) %MON obc_W_uVel_sd                =   0.0000000000000E+00
(PID.TID 0000.0001) %MON obc_W_uVel_Int               =   1.1205712828732E+05
(PID.TID 0000.0001) // =======================================================
(PID.TID 0000.0001) // End OBCS MONITOR field statistics
(PID.TID 0000.0001) // =======================================================
 cg2d: Sum(rhs),rhsMax =  -1.84778858880463E-11  6.64233961021042E-02
 cg2d: Sum(rhs),rhsMax =  -1.83469905934430E-11  6.70625382546411E-02
 cg2d: Sum(rhs),rhsMax =  -1.82270865067835E-11  6.76513295547086E-02
 cg2d: Sum(rhs),rhsMax =  -1.81094028661732E-11  6.81884648906700E-02
 cg2d: Sum(rhs),rhsMax =  -1.79785075715699E-11  6.86727681610338E-02
 cg2d: Sum(rhs),rhsMax =  -1.78809189677054E-11  6.91031965149355E-02
 cg2d: Sum(rhs),rhsMax =  -1.77985404192782E-11  6.94788439806582E-02
 cg2d: Sum(rhs),rhsMax =  -1.77433623349543E-11  6.97989444638866E-02
 cg2d: Sum(rhs),rhsMax =  -1.76670900131626E-11  7.00628741017678E-02
 cg2d: Sum(rhs),rhsMax =  -1.76434422627381E-11  7.02701529623563E-02
 cg2d: Sum(rhs),rhsMax =  -1.75920389366979E-11  7.04204460791027E-02
 cg2d: Sum(rhs),rhsMax =  -1.75779391042852E-11  7.05135638219241E-02
 cg2d: Sum(rhs),rhsMax =  -1.75761627474458E-11  7.05494616055886E-02
 cg2d: Sum(rhs),rhsMax =  -1.75942593827472E-11  7.05282389368810E-02
 cg2d: Sum(rhs),rhsMax =  -1.76533232476572E-11  7.04501378229349E-02
 cg2d: Sum(rhs),rhsMax =  -1.77394765543681E-11  7.03155405437022E-02
 cg2d: Sum(rhs),rhsMax =  -1.78517201021577E-11  7.01249668093904E-02
 cg2d: Sum(rhs),rhsMax =  -1.79924963816802E-11  6.98790703078540E-02
 cg2d: Sum(rhs),rhsMax =  -1.80733206178729E-11  6.95786346837812E-02
 cg2d: Sum(rhs),rhsMax =  -1.81846759872428E-11  6.92245689715705E-02
 cg2d: Sum(rhs),rhsMax =  -1.83423276567396E-11  6.88179025136875E-02
 cg2d: Sum(rhs),rhsMax =  -1.84808834902128E-11  6.83597793984031E-02
 cg2d: Sum(rhs),rhsMax =  -1.86486381892337E-11  6.78514524510474E-02
 cg2d: Sum(rhs),rhsMax =  -1.88324911221116E-11  6.72942768154821E-02
 cg2d: Sum(rhs),rhsMax =  -1.90387705600870E-11  6.66897031648344E-02
 cg2d: Sum(rhs),rhsMax =  -1.92791338449183E-11  6.60392705824631E-02
 cg2d: Sum(rhs),rhsMax =  -1.95063964980591E-11  6.53445991563962E-02
 cg2d: Sum(rhs),rhsMax =  -1.97956095959739E-11  6.46073823279812E-02
 cg2d: Sum(rhs),rhsMax =  -2.01033634184000E-11  6.38293790407475E-02
 cg2d: Sum(rhs),rhsMax =  -2.04104511070113E-11  6.30124057305527E-02
 cg2d: Sum(rhs),rhsMax =  -2.07402983676275E-11  6.21583282037825E-02
 cg2d: Sum(rhs),rhsMax =  -2.10849115944711E-11  6.12690534594930E-02
 cg2d: Sum(rhs),rhsMax =  -2.14532835940417E-11  6.03465214836798E-02
 cg2d: Sum(rhs),rhsMax =  -2.18420836972655E-11  5.93926970573910E-02
 cg2d: Sum(rhs),rhsMax =  -2.22792895243629E-11  5.84095616224540E-02
 cg2d: Sum(rhs),rhsMax =  -2.27264873586819E-11  5.73991052471760E-02
 cg2d: Sum(rhs),rhsMax =  -2.32276420319977E-11  5.63633187322628E-02
 cg2d: Sum(rhs),rhsMax =  -2.36900499217541E-11  5.53041858988249E-02
 cg2d: Sum(rhs),rhsMax =  -2.41083819574328E-11  5.42236760794237E-02
 cg2d: Sum(rhs),rhsMax =  -2.46094256084461E-11  5.31237368513415E-02
 cg2d: Sum(rhs),rhsMax =  -2.51125786832063E-11  5.20062870496314E-02
 cg2d: Sum(rhs),rhsMax =  -2.56376031515515E-11  5.08732100869367E-02
 cg2d: Sum(rhs),rhsMax =  -2.61624055752918E-11  4.97263476041585E-02
 cg2d: Sum(rhs),rhsMax =  -2.67783573093539E-11  4.85674934749378E-02
 cg2d: Sum(rhs),rhsMax =  -2.73996381139341E-11  4.73983881857365E-02
 cg2d: Sum(rhs),rhsMax =  -2.80577783229319E-11  4.62207136074251E-02
 cg2d: Sum(rhs),rhsMax =  -2.87798673781481E-11  4.50360881786390E-02
 cg2d: Sum(rhs),rhsMax =  -2.95041768794135E-11  4.38460625144900E-02
 cg2d: Sum(rhs),rhsMax =  -3.02720071232443E-11  4.26521154514905E-02
 cg2d: Sum(rhs),rhsMax =  -3.11056735924353E-11  4.14556505365494E-02
 cg2d: Sum(rhs),rhsMax =  -3.19562154516007E-11  4.02579929669294E-02
 cg2d: Sum(rhs),rhsMax =  -3.28930216397794E-11  3.90603869843484E-02
 cg2d: Sum(rhs),rhsMax =  -3.39449579556117E-11  3.78639937236941E-02
 cg2d: Sum(rhs),rhsMax =  -3.49663631382668E-11  3.66698895153986E-02
 cg2d: Sum(rhs),rhsMax =  -3.61127794334948E-11  3.54790646382654E-02
 cg2d: Sum(rhs),rhsMax =  -3.73252539986879E-11  3.42924225173202E-02
 cg2d: Sum(rhs),rhsMax =  -3.85884657561064E-11  3.31107793592036E-02
 cg2d: Sum(rhs),rhsMax =  -3.99700272879500E-11  3.19348642158103E-02
 cg2d: Sum(rhs),rhsMax =  -4.14435152862325E-11  3.07653194653155E-02
 cg2d: Sum(rhs),rhsMax =  -4.30119273531204E-11  2.96027016983780E-02
 cg2d: Sum(rhs),rhsMax =  -4.47081260901427E-11  2.84474829961060E-02
 cg2d: Sum(rhs),rhsMax =  -4.65185667763990E-11  2.73000525823352E-02
 cg2d: Sum(rhs),rhsMax =  -4.84556839097650E-11  2.61607188423208E-02
 cg2d: Sum(rhs),rhsMax =  -5.05858688271132E-11  2.50297116880247E-02
 cg2d: Sum(rhs),rhsMax =  -5.28992405435247E-11  2.39071852489891E-02
 cg2d: Sum(rhs),rhsMax =  -5.54662982210630E-11  2.27932208715851E-02
 cg2d: Sum(rhs),rhsMax =  -5.82596193510199E-11  2.16878304083973E-02
 cg2d: Sum(rhs),rhsMax =  -6.13201711630040E-11  2.05909597781194E-02
 cg2d: Sum(rhs),rhsMax =  -6.47240039342023E-11  1.95024927749035E-02
 cg2d: Sum(rhs),rhsMax =  -6.84803325157191E-11  1.84222551051538E-02
 cg2d: Sum(rhs),rhsMax =  -7.26607662926426E-11  1.73500186297623E-02
 cg2d: Sum(rhs),rhsMax =  -7.73567876422021E-11  1.62855057826356E-02
 cg2d: Sum(rhs),rhsMax =  -8.26479995552631E-11  1.52283941456437E-02
 cg2d: Sum(rhs),rhsMax =  -8.86948292588841E-11  1.41783211551026E-02
 cg2d: Sum(rhs),rhsMax =  -9.57117718414224E-11  1.31348889142989E-02
 cg2d: Sum(rhs),rhsMax =  -1.03779984605978E-10  1.20976690865418E-02
 cg2d: Sum(rhs),rhsMax =  -1.11483489106945E-10  1.12605786431498E-02
 cg2d: Sum(rhs),rhsMax =  -1.16609388811639E-10  1.07534508098571E-02
 cg2d: Sum(rhs),rhsMax =  -1.22309828931577E-10  1.02458197287176E-02
 cg2d: Sum(rhs),rhsMax =  -1.28613564243096E-10  9.73687785486223E-03
 cg2d: Sum(rhs),rhsMax =  -1.35657707289738E-10  9.22581435819496E-03
 cg2d: Sum(rhs),rhsMax =  -1.43588474443845E-10  8.71181831387356E-03
 cg2d: Sum(rhs),rhsMax =  -1.52622470217523E-10  8.19408193249888E-03
 cg2d: Sum(rhs),rhsMax =  -1.62958979643690E-10  7.67180382228489E-03
 cg2d: Sum(rhs),rhsMax =  -1.74909975392268E-10  7.14419227453743E-03
 cg2d: Sum(rhs),rhsMax =  -1.88987270277607E-10  6.61046856653513E-03
 cg2d: Sum(rhs),rhsMax =  -2.05768291294817E-10  6.06987027131875E-03
 cg2d: Sum(rhs),rhsMax =  -2.26125562718948E-10  5.52165456609160E-03
 cg2d: Sum(rhs),rhsMax =  -2.51409337792552E-10  4.96510153067037E-03
 cg2d: Sum(rhs),rhsMax =  -2.83637335840581E-10  4.39951742700770E-03
 cg2d: Sum(rhs),rhsMax =  -3.04627767455656E-10  4.09504438361021E-03
 cg2d: Sum(rhs),rhsMax =  -2.50519271993710E-10  4.97811857996779E-03
 cg2d: Sum(rhs),rhsMax =  -2.12645068220496E-10  5.86350307803589E-03
 cg2d: Sum(rhs),rhsMax =  -1.84390280821844E-10  6.75958047558583E-03
 cg2d: Sum(rhs),rhsMax =  -1.62765773081830E-10  7.65425231484294E-03
 cg2d: Sum(rhs),rhsMax =  -1.45496850678661E-10  8.56039374388313E-03
 cg2d: Sum(rhs),rhsMax =  -1.31416903401127E-10  9.47114402497713E-03
 cg2d: Sum(rhs),rhsMax =  -1.19743888415957E-10  1.03885882948803E-02
 cg2d: Sum(rhs),rhsMax =  -1.09832060113391E-10  1.13177665261834E-02
 cg2d: Sum(rhs),rhsMax =  -1.01388314410755E-10  1.22532064320727E-02
 cg2d: Sum(rhs),rhsMax =  -9.40280353578515E-11  1.32026628717591E-02
 cg2d: Sum(rhs),rhsMax =  -8.76281824879754E-11  1.41650981885647E-02
 cg2d: Sum(rhs),rhsMax =  -8.18486944886843E-11  1.51497711220351E-02
 cg2d: Sum(rhs),rhsMax =  -7.66889884928901E-11  1.61645762581354E-02
 cg2d: Sum(rhs),rhsMax =  -7.21200876796502E-11  1.71789578162647E-02
 cg2d: Sum(rhs),rhsMax =  -6.80587253221177E-11  1.81924067671260E-02
 cg2d: Sum(rhs),rhsMax =  -6.43938791178300E-11  1.92043549629001E-02
 cg2d: Sum(rhs),rhsMax =  -6.10850814375397E-11  2.02141763160069E-02
 cg2d: Sum(rhs),rhsMax =  -5.80673287231548E-11  2.12211882769633E-02
 cg2d: Sum(rhs),rhsMax =  -5.53678769499300E-11  2.22246536050397E-02
 cg2d: Sum(rhs),rhsMax =  -5.29276622529551E-11  2.32237824239447E-02
 cg2d: Sum(rhs),rhsMax =  -5.06854003212709E-11  2.42177345533376E-02
 cg2d: Sum(rhs),rhsMax =  -4.85713136377797E-11  2.52056221055832E-02
 cg2d: Sum(rhs),rhsMax =  -4.66527927400762E-11  2.61865123358844E-02
 cg2d: Sum(rhs),rhsMax =  -4.48591164214918E-11  2.71594307326975E-02
 cg2d: Sum(rhs),rhsMax =  -4.33495461749089E-11  2.81233643340860E-02
 cg2d: Sum(rhs),rhsMax =  -4.20312673554690E-11  2.90772652546175E-02
 cg2d: Sum(rhs),rhsMax =  -4.07704980887047E-11  3.00200544066104E-02
 cg2d: Sum(rhs),rhsMax =  -3.96034316452187E-11  3.09506253982772E-02
 cg2d: Sum(rhs),rhsMax =  -3.84983156465069E-11  3.18678485905443E-02
 cg2d: Sum(rhs),rhsMax =  -3.75020015042082E-11  3.27705752936610E-02
 cg2d: Sum(rhs),rhsMax =  -3.65756314124610E-11  3.36576420840761E-02
 cg2d: Sum(rhs),rhsMax =  -3.57159857244937E-11  3.45278752214316E-02
 cg2d: Sum(rhs),rhsMax =  -3.48990836229746E-11  3.53800951449277E-02
 cg2d: Sum(rhs),rhsMax =  -3.41104922085833E-11  3.62131210278079E-02
 cg2d: Sum(rhs),rhsMax =  -3.33790772799603E-11  3.70257753683275E-02
 cg2d: Sum(rhs),rhsMax =  -3.27027294133586E-11  3.78168885953108E-02
 cg2d: Sum(rhs),rhsMax =  -3.20500292971815E-11  3.85853036662655E-02
 cg2d: Sum(rhs),rhsMax =  -3.14860360006719E-11  3.93298806360172E-02
 cg2d: Sum(rhs),rhsMax =  -3.09106074070087E-11  4.00495011739320E-02
 cg2d: Sum(rhs),rhsMax =  -3.04026803732427E-11  4.07430730080401E-02
 cg2d: Sum(rhs),rhsMax =  -2.99067437481426E-11  4.14095342747455E-02
 cg2d: Sum(rhs),rhsMax =  -2.94374524756336E-11  4.20478577533238E-02
 cg2d: Sum(rhs),rhsMax =  -2.90230062205410E-11  4.26570549650559E-02
 cg2d: Sum(rhs),rhsMax =  -2.86318746489655E-11  4.32361801176272E-02
 cg2d: Sum(rhs),rhsMax =  -2.82742718127338E-11  4.37843338763086E-02
 cg2d: Sum(rhs),rhsMax =  -2.79531953140122E-11  4.43006669444373E-02
 cg2d: Sum(rhs),rhsMax =  -2.76587641678816E-11  4.47843834368054E-02
 cg2d: Sum(rhs),rhsMax =  -2.74006373146563E-11  4.52347440307645E-02
 cg2d: Sum(rhs),rhsMax =  -2.71291877851354E-11  4.56510688823496E-02
 cg2d: Sum(rhs),rhsMax =  -2.69223532356477E-11  4.60327402913875E-02
 cg2d: Sum(rhs),rhsMax =  -2.67114108609690E-11  4.63792051070678E-02
 cg2d: Sum(rhs),rhsMax =  -2.65245603259245E-11  4.66899768645566E-02
 cg2d: Sum(rhs),rhsMax =  -2.63845612025193E-11  4.69646376444862E-02
 cg2d: Sum(rhs),rhsMax =  -2.62645460935573E-11  4.72028396486983E-02
 cg2d: Sum(rhs),rhsMax =  -2.61264343492940E-11  4.74043064872828E-02
 cg2d: Sum(rhs),rhsMax =  -2.60468313584283E-11  4.75688341724580E-02
 cg2d: Sum(rhs),rhsMax =  -2.59581245387608E-11  4.76962918179627E-02
 cg2d: Sum(rhs),rhsMax =  -2.59001708968754E-11  4.77866220499275E-02
 cg2d: Sum(rhs),rhsMax =  -2.58822963061789E-11  4.78398411231544E-02
 cg2d: Sum(rhs),rhsMax =  -2.58865151536725E-11  4.78560387456979E-02
 cg2d: Sum(rhs),rhsMax =  -2.58891796889316E-11  4.78353776196063E-02
 cg2d: Sum(rhs),rhsMax =  -2.59208210451334E-11  4.77780926947275E-02
 cg2d: Sum(rhs),rhsMax =  -2.59843258021419E-11  4.76844901435344E-02
 cg2d: Sum(rhs),rhsMax =  -2.60808041829819E-11  4.75549460693298E-02
 cg2d: Sum(rhs),rhsMax =  -2.61946020430059E-11  4.73899049544715E-02
 cg2d: Sum(rhs),rhsMax =  -2.63218336016280E-11  4.71898778562228E-02
 cg2d: Sum(rhs),rhsMax =  -2.64632760149652E-11  4.69554403568952E-02
 cg2d: Sum(rhs),rhsMax =  -2.66474620147505E-11  4.66872302813891E-02
 cg2d: Sum(rhs),rhsMax =  -2.68174371598207E-11  4.63859451937801E-02
 cg2d: Sum(rhs),rhsMax =  -2.70458100359861E-11  4.60523396859451E-02
 cg2d: Sum(rhs),rhsMax =  -2.72505351617269E-11  4.56872224723685E-02
 cg2d: Sum(rhs),rhsMax =  -2.75548472927767E-11  4.52914533043332E-02
 cg2d: Sum(rhs),rhsMax =  -2.78579381784994E-11  4.48659397216509E-02
 cg2d: Sum(rhs),rhsMax =  -2.82004419815962E-11  4.44116336585708E-02
 cg2d: Sum(rhs),rhsMax =  -2.85350632012182E-11  4.39295279211082E-02
 cg2d: Sum(rhs),rhsMax =  -2.89323009994291E-11  4.34206525535968E-02
 cg2d: Sum(rhs),rhsMax =  -2.92699198212176E-11  4.30060089167105E-02
 cg2d: Sum(rhs),rhsMax =  -2.95562463392685E-11  4.27139114362741E-02
 cg2d: Sum(rhs),rhsMax =  -2.98775448825950E-11  4.23854584475357E-02
 cg2d: Sum(rhs),rhsMax =  -3.02021740949954E-11  4.20213946923841E-02
 cg2d: Sum(rhs),rhsMax =  -3.05840908154664E-11  4.16225267195331E-02
 cg2d: Sum(rhs),rhsMax =  -3.10063086317314E-11  4.11897192145890E-02
 cg2d: Sum(rhs),rhsMax =  -3.14400727674524E-11  4.07238911508916E-02
 cg2d: Sum(rhs),rhsMax =  -3.19011483895792E-11  4.02260117832506E-02
 cg2d: Sum(rhs),rhsMax =  -3.24631432846445E-11  3.96970965039501E-02
 cg2d: Sum(rhs),rhsMax =  -3.29861693515454E-11  3.91382025782240E-02
 cg2d: Sum(rhs),rhsMax =  -3.36057848215887E-11  3.85504247858970E-02
 cg2d: Sum(rhs),rhsMax =  -3.42615935622348E-11  3.79348909738524E-02
 cg2d: Sum(rhs),rhsMax =  -3.49485995698728E-11  3.72927575581759E-02
 cg2d: Sum(rhs),rhsMax =  -3.56588092387256E-11  3.66252049930268E-02
 cg2d: Sum(rhs),rhsMax =  -3.63865604313673E-11  3.59334332259096E-02
 cg2d: Sum(rhs),rhsMax =  -3.71057629067195E-11  3.52186571665550E-02
 cg2d: Sum(rhs),rhsMax =  -3.79355435953244E-11  3.44821021894480E-02
 cg2d: Sum(rhs),rhsMax =  -3.87484488939549E-11  3.37249996906334E-02
 cg2d: Sum(rhs),rhsMax =  -3.96034316452187E-11  3.29485827225818E-02
 cg2d: Sum(rhs),rhsMax =  -4.04978273138568E-11  3.21540817217462E-02
 cg2d: Sum(rhs),rhsMax =  -4.14128731307528E-11  3.13427203467377E-02
 cg2d: Sum(rhs),rhsMax =  -4.24161816781066E-11  3.05157114435236E-02
 cg2d: Sum(rhs),rhsMax =  -4.35985691993324E-11  2.96742531630257E-02
 cg2d: Sum(rhs),rhsMax =  -4.48555637078130E-11  2.88195252354208E-02
 cg2d: Sum(rhs),rhsMax =  -4.62064830841769E-11  2.79526854153391E-02
 cg2d: Sum(rhs),rhsMax =  -4.76949590932918E-11  2.70748661112491E-02
 cg2d: Sum(rhs),rhsMax =  -4.92843543753452E-11  2.61871712121026E-02
 cg2d: Sum(rhs),rhsMax =  -5.09982056584590E-11  2.52906731178222E-02
 cg2d: Sum(rhs),rhsMax =  -5.28367349872383E-11  2.43864099929835E-02
 cg2d: Sum(rhs),rhsMax =  -5.48417977697113E-11  2.34753832457773E-02
 cg2d: Sum(rhs),rhsMax =  -5.70122837828535E-11  2.25585552409100E-02
 cg2d: Sum(rhs),rhsMax =  -5.93732840670214E-11  2.16368472536682E-02
 cg2d: Sum(rhs),rhsMax =  -6.20130613526726E-11  2.07111376705751E-02
 cg2d: Sum(rhs),rhsMax =  -6.48814335590941E-11  1.97822604403852E-02
 cg2d: Sum(rhs),rhsMax =  -6.80272504993695E-11  1.88510037774386E-02
 cg2d: Sum(rhs),rhsMax =  -7.15103531945260E-11  1.79181091176768E-02
 cg2d: Sum(rhs),rhsMax =  -7.53890283533565E-11  1.69842703260133E-02
 cg2d: Sum(rhs),rhsMax =  -7.97684140962929E-11  1.60501331523057E-02
 cg2d: Sum(rhs),rhsMax =  -8.46811509802592E-11  1.51162949319468E-02
 cg2d: Sum(rhs),rhsMax =  -9.02447006012608E-11  1.41833045260891E-02
 cg2d: Sum(rhs),rhsMax =  -9.65462154667307E-11  1.32516624957147E-02
 cg2d: Sum(rhs),rhsMax =  -1.03808739382316E-10  1.23218215031196E-02
 cg2d: Sum(rhs),rhsMax =  -1.12280185149416E-10  1.13941869338760E-02
 cg2d: Sum(rhs),rhsMax =  -1.20225163158239E-10  1.06299649618686E-02
 cg2d: Sum(rhs),rhsMax =  -1.28942967414503E-10  9.91229705691493E-03
 cg2d: Sum(rhs),rhsMax =  -1.39020017719815E-10  9.20000192695286E-03
 cg2d: Sum(rhs),rhsMax =  -1.50730539161259E-10  8.49280278684034E-03
 cg2d: Sum(rhs),rhsMax =  -1.64448565875830E-10  7.79038397736621E-03
 cg2d: Sum(rhs),rhsMax =  -1.80781278835696E-10  7.09239288343134E-03
 cg2d: Sum(rhs),rhsMax =  -2.00547800588424E-10  6.39844196157698E-03
 cg2d: Sum(rhs),rhsMax =  -2.24869789455795E-10  5.70811087217803E-03
 cg2d: Sum(rhs),rhsMax =  -2.55774512680773E-10  5.02094871011905E-03
 cg2d: Sum(rhs),rhsMax =  -2.96236257746330E-10  4.33647633269219E-03
 cg2d: Sum(rhs),rhsMax =  -3.51600748516034E-10  3.65418877587508E-03
 cg2d: Sum(rhs),rhsMax =  -4.32096719515940E-10  2.97355775364490E-03
 cg2d: Sum(rhs),rhsMax =  -5.60114510328447E-10  2.29403423494375E-03
 cg2d: Sum(rhs),rhsMax =  -7.26305349196821E-10  1.76926033040986E-03
 cg2d: Sum(rhs),rhsMax =  -5.05604003109283E-10  2.54200738024979E-03
 cg2d: Sum(rhs),rhsMax =  -3.86345400116284E-10  3.32745388826665E-03
 cg2d: Sum(rhs),rhsMax =  -3.12630143994852E-10  4.11260800129147E-03
 cg2d: Sum(rhs),rhsMax =  -2.61970001247391E-10  4.90843080209330E-03
 cg2d: Sum(rhs),rhsMax =  -2.25386043162246E-10  5.70643883487502E-03
 cg2d: Sum(rhs),rhsMax =  -1.97517890931920E-10  6.51297770993416E-03
 cg2d: Sum(rhs),rhsMax =  -1.75688241732530E-10  7.32713757052634E-03
 cg2d: Sum(rhs),rhsMax =  -1.57989177296258E-10  8.15023081419832E-03
 cg2d: Sum(rhs),rhsMax =  -1.43366429838920E-10  8.98727725826038E-03
 cg2d: Sum(rhs),rhsMax =  -1.31090693855640E-10  9.83499752728644E-03
 cg2d: Sum(rhs),rhsMax =  -1.20788268276328E-10  1.06805351413348E-02
 cg2d: Sum(rhs),rhsMax =  -1.11981535155792E-10  1.15240107746274E-02
 cg2d: Sum(rhs),rhsMax =  -1.04454001004228E-10  1.23655310613397E-02
 cg2d: Sum(rhs),rhsMax =  -9.78539471674367E-11  1.32051863776435E-02
 cg2d: Sum(rhs),rhsMax =  -9.20663545400657E-11  1.40430487347104E-02
 cg2d: Sum(rhs),rhsMax =  -8.69092575683794E-11  1.48791697953501E-02
 cg2d: Sum(rhs),rhsMax =  -8.23736634458783E-11  1.57135790073791E-02
 cg2d: Sum(rhs),rhsMax =  -7.82729436821228E-11  1.65462818752452E-02
 cg2d: Sum(rhs),rhsMax =  -7.45954409353544E-11  1.73772583751846E-02
 cg2d: Sum(rhs),rhsMax =  -7.12641057276642E-11  1.82064615187475E-02
 cg2d: Sum(rhs),rhsMax =  -6.83481049534862E-11  1.90338160701465E-02
 cg2d: Sum(rhs),rhsMax =  -6.55449028386101E-11  1.98592174223511E-02
 cg2d: Sum(rhs),rhsMax =  -6.30708818505354E-11  2.06825306372868E-02
 cg2d: Sum(rhs),rhsMax =  -6.07491834614393E-11  2.15035896559152E-02
 cg2d: Sum(rhs),rhsMax =  -5.86474202535214E-11  2.23221966821613E-02
 cg2d: Sum(rhs),rhsMax =  -5.66686697567320E-11  2.31381217438807E-02
 cg2d: Sum(rhs),rhsMax =  -5.48689982338146E-11  2.39511024334840E-02
 cg2d: Sum(rhs),rhsMax =  -5.31474864118309E-11  2.47608438294463E-02
 cg2d: Sum(rhs),rhsMax =  -5.15378850707293E-11  2.55670185988503E-02
 cg2d: Sum(rhs),rhsMax =  -5.00692820537552E-11  2.63692672810251E-02
 cg2d: Sum(rhs),rhsMax =  -4.86604090355058E-11  2.71671987502234E-02
 cg2d: Sum(rhs),rhsMax =  -4.73172612203143E-11  2.79603908525355E-02
 cg2d: Sum(rhs),rhsMax =  -4.60530502621737E-11  2.87483912169977E-02
 cg2d: Sum(rhs),rhsMax =  -4.49338344310490E-11  2.95307182312649E-02
 cg2d: Sum(rhs),rhsMax =  -4.38411529302130E-11  3.03068621754532E-02
 cg2d: Sum(rhs),rhsMax =  -4.28004298669293E-11  3.10762865072340E-02
 cg2d: Sum(rhs),rhsMax =  -4.18238776944690E-11  3.18384292905674E-02
 cg2d: Sum(rhs),rhsMax =  -4.09021705394252E-11  3.25927047599274E-02
 cg2d: Sum(rhs),rhsMax =  -4.00266486622058E-11  3.33385050116131E-02
 cg2d: Sum(rhs),rhsMax =  -3.92690324702016E-11  3.40752018145146E-02
 cg2d: Sum(rhs),rhsMax =  -3.85265153113323E-11  3.48021485316337E-02
 cg2d: Sum(rhs),rhsMax =  -3.77921027805428E-11  3.55186821448274E-02
 cg2d: Sum(rhs),rhsMax =  -3.71376263075263E-11  3.62241253754430E-02
 cg2d: Sum(rhs),rhsMax =  -3.64783758755038E-11  3.69177888935113E-02
 cg2d: Sum(rhs),rhsMax =  -3.58628682306517E-11  3.75989736079456E-02
 cg2d: Sum(rhs),rhsMax =  -3.52646800649836E-11  3.82669730297773E-02
 cg2d: Sum(rhs),rhsMax =  -3.47006867684740E-11  3.89210756998187E-02
 cg2d: Sum(rhs),rhsMax =  -3.41735528763820E-11  3.95605676713264E-02
 cg2d: Sum(rhs),rhsMax =  -3.36539685008574E-11  4.01847350373027E-02
 cg2d: Sum(rhs),rhsMax =  -3.31648042362076E-11  4.07928664911096E-02
 cg2d: Sum(rhs),rhsMax =  -3.24688054220701E-11  4.16741623799618E-02
 cg2d: Sum(rhs),rhsMax =  -3.17342818689781E-11  4.26476610425976E-02
 cg2d: Sum(rhs),rhsMax =  -3.10381720325381E-11  4.36126287162384E-02
 cg2d: Sum(rhs),rhsMax =  -3.04036795739648E-11  4.45677424758749E-02
 cg2d: Sum(rhs),rhsMax =  -2.97641911117807E-11  4.55116636788456E-02
 cg2d: Sum(rhs),rhsMax =  -2.91718871281432E-11  4.64430418783900E-02
 cg2d: Sum(rhs),rhsMax =  -2.86404233662552E-11  4.73605188147046E-02
 cg2d: Sum(rhs),rhsMax =  -2.80967471510962E-11  4.82627324687199E-02
 cg2d: Sum(rhs),rhsMax =  -2.76351164174571E-11  4.91483211631359E-02
 cg2d: Sum(rhs),rhsMax =  -2.71723754607933E-11  5.00159276964167E-02
 cg2d: Sum(rhs),rhsMax =  -2.67236233142398E-11  5.08642034936775E-02
 cg2d: Sum(rhs),rhsMax =  -2.63331578764792E-11  5.16918127580434E-02
 cg2d: Sum(rhs),rhsMax =  -2.59468002639096E-11  5.24974366061650E-02
 cg2d: Sum(rhs),rhsMax =  -2.56277221666323E-11  5.32797771712272E-02
 cg2d: Sum(rhs),rhsMax =  -2.52728948879621E-11  5.40375616564441E-02
 cg2d: Sum(rhs),rhsMax =  -2.49618103964622E-11  5.47695463217477E-02
 cg2d: Sum(rhs),rhsMax =  -2.46631604028380E-11  5.54745203862153E-02
 cg2d: Sum(rhs),rhsMax =  -2.44299025453643E-11  5.61513098287429E-02
 cg2d: Sum(rhs),rhsMax =  -2.41697772906946E-11  5.67987810697791E-02
 cg2d: Sum(rhs),rhsMax =  -2.39129827050988E-11  5.74158445171579E-02
 cg2d: Sum(rhs),rhsMax =  -2.36696218181009E-11  5.80014579595578E-02
 cg2d: Sum(rhs),rhsMax =  -2.34847696845009E-11  5.85546297918484E-02
 cg2d: Sum(rhs),rhsMax =  -2.32910357667038E-11  5.90744220574534E-02
 cg2d: Sum(rhs),rhsMax =  -2.31127339489490E-11  5.95599532938248E-02
 cg2d: Sum(rhs),rhsMax =  -2.29910535054501E-11  6.00104011681755E-02
 cg2d: Sum(rhs),rhsMax =  -2.29002372620357E-11  6.04250048917601E-02
 cg2d: Sum(rhs),rhsMax =  -2.27856622458944E-11  6.08030674031450E-02
 cg2d: Sum(rhs),rhsMax =  -2.27640128969142E-11  6.11439573090800E-02
 cg2d: Sum(rhs),rhsMax =  -2.26654250923275E-11  6.14471105760214E-02
 cg2d: Sum(rhs),rhsMax =  -2.25985896662451E-11  6.17120319669616E-02
 cg2d: Sum(rhs),rhsMax =  -2.25234275674779E-11  6.19382962184862E-02
 cg2d: Sum(rhs),rhsMax =  -2.24944507465352E-11  6.21255489515711E-02
 cg2d: Sum(rhs),rhsMax =  -2.24499308032478E-11  6.22735073216126E-02
 cg2d: Sum(rhs),rhsMax =  -2.24106289081760E-11  6.23819604024674E-02
 cg2d: Sum(rhs),rhsMax =  -2.24077423283120E-11  6.24507693061195E-02
 cg2d: Sum(rhs),rhsMax =  -2.23792095965791E-11  6.24798670377080E-02
 cg2d: Sum(rhs),rhsMax =  -2.24100737966637E-11  6.24692580871289E-02
 cg2d: Sum(rhs),rhsMax =  -2.24275042981503E-11  6.24190177681122E-02
 cg2d: Sum(rhs),rhsMax =  -2.24904539436466E-11  6.23292913116968E-02
 cg2d: Sum(rhs),rhsMax =  -2.25490737193468E-11  6.22002927188949E-02
 cg2d: Sum(rhs),rhsMax =  -2.26146879001021E-11  6.20323033803925E-02
 cg2d: Sum(rhs),rhsMax =  -2.26879626197274E-11  6.18256704732930E-02
 cg2d: Sum(rhs),rhsMax =  -2.27925456286471E-11  6.15808051393798E-02
 cg2d: Sum(rhs),rhsMax =  -2.29027907749924E-11  6.12981804585397E-02
 cg2d: Sum(rhs),rhsMax =  -2.30440111437247E-11  6.09783292289452E-02
 cg2d: Sum(rhs),rhsMax =  -2.31631380742670E-11  6.06218415652427E-02
 cg2d: Sum(rhs),rhsMax =  -2.33152386286406E-11  6.02293623252200E-02
 cg2d: Sum(rhs),rhsMax =  -2.34947616917225E-11  5.98015883789536E-02
 cg2d: Sum(rhs),rhsMax =  -2.37102559808022E-11  5.93392657331189E-02
 cg2d: Sum(rhs),rhsMax =  -2.39167574633825E-11  5.88431865213267E-02
 cg2d: Sum(rhs),rhsMax =  -2.41651143539912E-11  5.83141858835372E-02
 cg2d: Sum(rhs),rhsMax =  -2.44767539570034E-11  5.77531387408260E-02
 cg2d: Sum(rhs),rhsMax =  -2.48183695816806E-11  5.71609564808525E-02
 cg2d: Sum(rhs),rhsMax =  -2.51256793148968E-11  5.65385835698444E-02
 cg2d: Sum(rhs),rhsMax =  -2.53165266528299E-11  5.58869941069789E-02
 cg2d: Sum(rhs),rhsMax =  -2.55792054204562E-11  5.52071883337548E-02
 cg2d: Sum(rhs),rhsMax =  -2.58606469571987E-11  5.45001891216850E-02
 cg2d: Sum(rhs),rhsMax =  -2.61387578248673E-11  5.37670384483933E-02
 cg2d: Sum(rhs),rhsMax =  -2.64659405502243E-11  5.30087938754349E-02
 cg2d: Sum(rhs),rhsMax =  -2.67832422906622E-11  5.22265250435018E-02
 cg2d: Sum(rhs),rhsMax =  -2.71201949786359E-11  5.14213102003292E-02
 cg2d: Sum(rhs),rhsMax =  -2.74954503609592E-11  5.05942327763645E-02
 cg2d: Sum(rhs),rhsMax =  -2.78980172296883E-11  4.97463780228331E-02
 cg2d: Sum(rhs),rhsMax =  -2.83946199886032E-11  4.88788297263982E-02
 cg2d: Sum(rhs),rhsMax =  -2.88490342725822E-11  4.79926670173517E-02
 cg2d: Sum(rhs),rhsMax =  -2.93641777560083E-11  4.70889612772442E-02
 cg2d: Sum(rhs),rhsMax =  -2.99140712201051E-11  4.61687731603071E-02
 cg2d: Sum(rhs),rhsMax =  -3.04476444057400E-11  4.52331497452522E-02
 cg2d: Sum(rhs),rhsMax =  -3.10714787232769E-11  4.42831218289138E-02
 cg2d: Sum(rhs),rhsMax =  -3.16910941933202E-11  4.33197013710711E-02
 cg2d: Sum(rhs),rhsMax =  -3.23449045325219E-11  4.23438790960895E-02
 cg2d: Sum(rhs),rhsMax =  -3.30323546293698E-11  4.13566222619058E-02
 cg2d: Sum(rhs),rhsMax =  -3.37999628285957E-11  4.03588726029954E-02
 cg2d: Sum(rhs),rhsMax =  -3.45803385926047E-11  3.93515444527350E-02
 cg2d: Sum(rhs),rhsMax =  -3.53735929436994E-11  3.83355230494184E-02
 cg2d: Sum(rhs),rhsMax =  -3.63415963988700E-11  3.73116630291328E-02
 cg2d: Sum(rhs),rhsMax =  -3.73338027159775E-11  3.62807871077561E-02
 cg2d: Sum(rhs),rhsMax =  -3.83642007051321E-11  3.52436849532072E-02
 cg2d: Sum(rhs),rhsMax =  -3.95244947881679E-11  3.42011122484246E-02
 cg2d: Sum(rhs),rhsMax =  -4.07461842044654E-11  3.31537899446609E-02
 cg2d: Sum(rhs),rhsMax =  -4.20318224669813E-11  3.21024037038867E-02
 cg2d: Sum(rhs),rhsMax =  -4.34242641844662E-11  3.10476035284191E-02
 cg2d: Sum(rhs),rhsMax =  -4.48844295064532E-11  2.99900035752619E-02
 cg2d: Sum(rhs),rhsMax =  -4.64637217589825E-11  2.89301821520256E-02
 cg2d: Sum(rhs),rhsMax =  -4.81785722428185E-11  2.78686818907251E-02
 cg2d: Sum(rhs),rhsMax =  -5.00113284118697E-11  2.68060100948455E-02
 cg2d: Sum(rhs),rhsMax =  -5.20380405433229E-11  2.57426392547182E-02
 cg2d: Sum(rhs),rhsMax =  -5.41923173003056E-11  2.46790077254113E-02
 cg2d: Sum(rhs),rhsMax =  -5.65617552794606E-11  2.36155205594869E-02
 cg2d: Sum(rhs),rhsMax =  -5.91481308376274E-11  2.25525504870361E-02
 cg2d: Sum(rhs),rhsMax =  -6.20904438974890E-11  2.14904390420358E-02
 cg2d: Sum(rhs),rhsMax =  -6.52446985327515E-11  2.04294978186036E-02
 cg2d: Sum(rhs),rhsMax =  -6.87947476762929E-11  1.93700098486458E-02
 cg2d: Sum(rhs),rhsMax =  -7.27420346180452E-11  1.83122310920422E-02
 cg2d: Sum(rhs),rhsMax =  -7.71489538919923E-11  1.72563920303445E-02
 cg2d: Sum(rhs),rhsMax =  -8.21138712581160E-11  1.62026993539145E-02
 cg2d: Sum(rhs),rhsMax =  -8.77289352274602E-11  1.51513377295285E-02
 cg2d: Sum(rhs),rhsMax =  -9.42381728208375E-11  1.41024716402090E-02
 cg2d: Sum(rhs),rhsMax =  -1.01689212606004E-10  1.30562472861056E-02
 cg2d: Sum(rhs),rhsMax =  -1.10463638236524E-10  1.20127945352400E-02
 cg2d: Sum(rhs),rhsMax =  -1.16668008587340E-10  1.13682605249013E-02
 cg2d: Sum(rhs),rhsMax =  -1.23219212611048E-10  1.07562439309832E-02
 cg2d: Sum(rhs),rhsMax =  -1.30614852267286E-10  1.01417805487119E-02
 cg2d: Sum(rhs),rhsMax =  -1.39003031307539E-10  9.52454320306095E-03
 cg2d: Sum(rhs),rhsMax =  -1.48611345451855E-10  8.90420768542364E-03
 cg2d: Sum(rhs),rhsMax =  -1.59688262613145E-10  8.28045479531040E-03
 cg2d: Sum(rhs),rhsMax =  -1.72664105235754E-10  7.65297237467126E-03
 cg2d: Sum(rhs),rhsMax =  -1.88144166912707E-10  7.02145732610984E-03
 cg2d: Sum(rhs),rhsMax =  -2.06823558279723E-10  6.38561760674396E-03
 cg2d: Sum(rhs),rhsMax =  -2.29843477583813E-10  5.74517419005068E-03
 cg2d: Sum(rhs),rhsMax =  -2.58847610012936E-10  5.09986298833997E-03
 cg2d: Sum(rhs),rhsMax =  -2.96637381325127E-10  4.44943673018826E-03
 cg2d: Sum(rhs),rhsMax =  -3.47837980640975E-10  3.79366678688221E-03
 cg2d: Sum(rhs),rhsMax =  -4.21164103592275E-10  3.13234494207350E-03
 cg2d: Sum(rhs),rhsMax =  -3.32793237411977E-10  3.96367808365978E-03
 cg2d: Sum(rhs),rhsMax =  -2.72385003441400E-10  4.84218991790599E-03
 cg2d: Sum(rhs),rhsMax =  -2.30683111501762E-10  5.71591910484546E-03
 cg2d: Sum(rhs),rhsMax =  -1.99736949202389E-10  6.59833336126416E-03
 cg2d: Sum(rhs),rhsMax =  -1.76076729585528E-10  7.48370398447914E-03
 cg2d: Sum(rhs),rhsMax =  -1.57368007513981E-10  8.36959435144403E-03
 cg2d: Sum(rhs),rhsMax =  -1.42057837715370E-10  9.26638954313576E-03
 cg2d: Sum(rhs),rhsMax =  -1.29513899604916E-10  1.01586834304074E-02
 cg2d: Sum(rhs),rhsMax =  -1.18819953875970E-10  1.10664451112669E-02
 cg2d: Sum(rhs),rhsMax =  -1.09768472089655E-10  1.19738047564808E-02
 cg2d: Sum(rhs),rhsMax =  -1.01892716486418E-10  1.28930368875937E-02
 cg2d: Sum(rhs),rhsMax =  -9.49190726018401E-11  1.38263587539677E-02
 cg2d: Sum(rhs),rhsMax =  -8.89616713628527E-11  1.47527641138012E-02
 cg2d: Sum(rhs),rhsMax =  -8.37019342725398E-11  1.56718878532702E-02
 cg2d: Sum(rhs),rhsMax =  -7.90458809518668E-11  1.65833438708332E-02
 cg2d: Sum(rhs),rhsMax =  -7.48827666541274E-11  1.74867254399087E-02
 cg2d: Sum(rhs),rhsMax =  -7.11386505258815E-11  1.83816057034401E-02
 cg2d: Sum(rhs),rhsMax =  -6.77841116569766E-11  1.92675382964127E-02
 cg2d: Sum(rhs),rhsMax =  -6.47546460896820E-11  2.01440580916032E-02
 cg2d: Sum(rhs),rhsMax =  -6.19659878964285E-11  2.10106820634098E-02
 cg2d: Sum(rhs),rhsMax =  -5.94895244176996E-11  2.18669102643381E-02
 cg2d: Sum(rhs),rhsMax =  -5.72050184999284E-11  2.27122269085311E-02
 cg2d: Sum(rhs),rhsMax =  -5.50290923939656E-11  2.35461015567137E-02
 cg2d: Sum(rhs),rhsMax =  -5.30754329375327E-11  2.43679903967483E-02
 cg2d: Sum(rhs),rhsMax =  -5.12505593519563E-11  2.51773376139288E-02
 cg2d: Sum(rhs),rhsMax =  -4.96216401302263E-11  2.59735768450754E-02
 cg2d: Sum(rhs),rhsMax =  -4.80698814087077E-11  2.67561327103931E-02
 cg2d: Sum(rhs),rhsMax =  -4.68740601888840E-11  2.75244224169133E-02
 cg2d: Sum(rhs),rhsMax =  -4.56183979480329E-11  2.82778574271110E-02
 cg2d: Sum(rhs),rhsMax =  -4.44773107233232E-11  2.90158451859779E-02
 cg2d: Sum(rhs),rhsMax =  -4.34307034780090E-11  2.97377908994100E-02
 cg2d: Sum(rhs),rhsMax =  -4.24784651897880E-11  3.04430993566264E-02
 cg2d: Sum(rhs),rhsMax =  -4.15438794476586E-11  3.11311767885215E-02
 cg2d: Sum(rhs),rhsMax =  -4.07327505058674E-11  3.18014327534471E-02
 cg2d: Sum(rhs),rhsMax =  -3.99756894253755E-11  3.24532820415942E-02
 cg2d: Sum(rhs),rhsMax =  -3.92403887161663E-11  3.30861465888441E-02
 cg2d: Sum(rhs),rhsMax =  -3.85877996222916E-11  3.36994573907005E-02
 cg2d: Sum(rhs),rhsMax =  -3.79466458255706E-11  3.42926564067437E-02
 cg2d: Sum(rhs),rhsMax =  -3.74164033090096E-11  3.48651984460227E-02
 cg2d: Sum(rhs),rhsMax =  -3.68913788406644E-11  3.54165530239423E-02
 cg2d: Sum(rhs),rhsMax =  -3.63855612306452E-11  3.59462061815062E-02
 cg2d: Sum(rhs),rhsMax =  -3.59042795494702E-11  3.64536622582265E-02
 cg2d: Sum(rhs),rhsMax =  -3.54859475137914E-11  3.69384456109565E-02
 cg2d: Sum(rhs),rhsMax =  -3.51020323918760E-11  3.74001022705112E-02
 cg2d: Sum(rhs),rhsMax =  -3.47465389793911E-11  3.78382015284203E-02
 cg2d: Sum(rhs),rhsMax =  -3.43786110690303E-11  3.82523374489241E-02
 cg2d: Sum(rhs),rhsMax =  -3.40679706667402E-11  3.86421303003207E-02
 cg2d: Sum(rhs),rhsMax =  -3.37715411191652E-11  3.90072279005702E-02
 cg2d: Sum(rhs),rhsMax =  -3.35274030760502E-11  3.93473068723741E-02
 cg2d: Sum(rhs),rhsMax =  -3.33224559057044E-11  3.96620738030832E-02
 cg2d: Sum(rhs),rhsMax =  -3.31150662447044E-11  3.99512663055060E-02
 cg2d: Sum(rhs),rhsMax =  -3.29298810441969E-11  4.02146539757703E-02
 cg2d: Sum(rhs),rhsMax =  -3.27644578135278E-11  4.04520392426637E-02
 cg2d: Sum(rhs),rhsMax =  -3.26640936521017E-11  4.06632581129386E-02
 cg2d: Sum(rhs),rhsMax =  -3.25192095473881E-11  4.08481808029233E-02
 cg2d: Sum(rhs),rhsMax =  -3.24306137500230E-11  4.10067122540249E-02
 cg2d: Sum(rhs),rhsMax =  -3.23469029339662E-11  4.11387925303250E-02
 cg2d: Sum(rhs),rhsMax =  -3.23031601467960E-11  4.12443970999682E-02
 cg2d: Sum(rhs),rhsMax =  -3.22457616164229E-11  4.13235369917554E-02
 cg2d: Sum(rhs),rhsMax =  -3.22025739407650E-11  4.13762588304086E-02
 cg2d: Sum(rhs),rhsMax =  -3.22036841637896E-11  4.14026447526619E-02
 cg2d: Sum(rhs),rhsMax =  -3.22578630473913E-11  4.14028122041202E-02
 cg2d: Sum(rhs),rhsMax =  -3.23011617453517E-11  4.13769136175374E-02
 cg2d: Sum(rhs),rhsMax =  -3.23375770605594E-11  4.13251359734572E-02
 cg2d: Sum(rhs),rhsMax =  -3.24306137500230E-11  4.12477002455216E-02
 cg2d: Sum(rhs),rhsMax =  -3.25292015546097E-11  4.11448607334234E-02
 cg2d: Sum(rhs),rhsMax =  -3.26496607527815E-11  4.10169042869811E-02
 cg2d: Sum(rhs),rhsMax =  -3.27946558797976E-11  4.08641494250977E-02
 cg2d: Sum(rhs),rhsMax =  -3.29929417119956E-11  4.06869453508820E-02
 cg2d: Sum(rhs),rhsMax =  -3.31832339384164E-11  4.04856708697889E-02
 cg2d: Sum(rhs),rhsMax =  -3.34051675210389E-11  4.02607332153920E-02
 cg2d: Sum(rhs),rhsMax =  -3.36111138921069E-11  4.00125667871268E-02
 cg2d: Sum(rhs),rhsMax =  -3.38832295554425E-11  3.97416318047161E-02
 cg2d: Sum(rhs),rhsMax =  -3.41707773188205E-11  3.94484128845091E-02
 cg2d: Sum(rhs),rhsMax =  -3.44305695065827E-11  3.91334175414497E-02
 cg2d: Sum(rhs),rhsMax =  -3.47729622873771E-11  3.87971746276240E-02
 cg2d: Sum(rhs),rhsMax =  -3.51416673538552E-11  3.84402327126692E-02
 cg2d: Sum(rhs),rhsMax =  -3.54372087230104E-11  3.80631584094675E-02
 cg2d: Sum(rhs),rhsMax =  -3.58474361306094E-11  3.76665346526264E-02
 cg2d: Sum(rhs),rhsMax =  -3.62398999698144E-11  3.72509589373966E-02
 cg2d: Sum(rhs),rhsMax =  -3.66663366335729E-11  3.68170415266028E-02
 cg2d: Sum(rhs),rhsMax =  -3.71369601737115E-11  3.63654036327978E-02
 cg2d: Sum(rhs),rhsMax =  -3.76441100513603E-11  3.58966755826020E-02
 cg2d: Sum(rhs),rhsMax =  -3.81027431828329E-11  3.54489225489841E-02
 cg2d: Sum(rhs),rhsMax =  -3.85943499381369E-11  3.50500187127586E-02
 cg2d: Sum(rhs),rhsMax =  -3.91215948525314E-11  3.46268725890922E-02
 cg2d: Sum(rhs),rhsMax =  -3.96934707325158E-11  3.41800692569260E-02
 cg2d: Sum(rhs),rhsMax =  -4.03166389162379E-11  3.37102168449123E-02
 cg2d: Sum(rhs),rhsMax =  -4.10039779907834E-11  3.32179445173769E-02
 cg2d: Sum(rhs),rhsMax =  -4.17464951496527E-11  3.27039004244577E-02
 cg2d: Sum(rhs),rhsMax =  -4.25609547605177E-11  3.21687496262811E-02
 cg2d: Sum(rhs),rhsMax =  -4.33345581640765E-11  3.16131720025849E-02
(PID.TID 0000.0001)      cg2d_init_res =   9.32189665112187E-02
(PID.TID 0000.0001)      cg2d_iters(min,last) =      -1      38
(PID.TID 0000.0001)      cg2d_last_res =   3.78809634221107E-14
(PID.TID 0000.0001) // =======================================================
(PID.TID 0000.0001) // Begin MONITOR dynamic field statistics
(PID.TID 0000.0001) // =======================================================
(PID.TID 0000.0001) %MON time_tsnumber                =                  1440
(PID.TID 0000.0001) %MON time_secondsf                =   2.1600000000000E+04
(PID.TID 0000.0001) %MON dynstat_eta_max              =   6.5687486413221E-03
(PID.TID 0000.0001) %MON dynstat_eta_min              =  -5.3891540983561E-03
(PID.TID 0000.0001) %MON dynstat_eta_mean             =   3.0248975233685E-15
(PID.TID 0000.0001) %MON dynstat_eta_sd               =   4.0932155906082E-03
(PID.TID 0000.0001) %MON dynstat_eta_del2             =   1.2330527284517E-06
(PID.TID 0000.0001) %MON dynstat_uvel_max             =   4.2637397200629E-01
(PID.TID 0000.0001) %MON dynstat_uvel_min             =  -4.2891827147275E-01
(PID.TID 0000.0001) %MON dynstat_uvel_mean            =   1.1265406197947E-01
(PID.TID 0000.0001) %MON dynstat_uvel_sd              =   2.1523102655956E-02
(PID.TID 0000.0001) %MON dynstat_uvel_del2            =   8.6179177175454E-05
(PID.TID 0000.0001) %MON dynstat_vvel_max             =   0.0000000000000E+00
(PID.TID 0000.0001) %MON dynstat_vvel_min             =   0.0000000000000E+00
(PID.TID 0000.0001) %MON dynstat_vvel_mean            =   0.0000000000000E+00
(PID.TID 0000.0001) %MON dynstat_vvel_sd              =   0.0000000000000E+00
(PID.TID 0000.0001) %MON dynstat_vvel_del2            =   0.0000000000000E+00
(PID.TID 0000.0001) %MON dynstat_wvel_max             =   3.3737545919242E-03
(PID.TID 0000.0001) %MON dynstat_wvel_min             =  -5.4243385317529E-03
(PID.TID 0000.0001) %MON dynstat_wvel_mean            =   1.6844422766606E-21
(PID.TID 0000.0001) %MON dynstat_wvel_sd              =   2.6911988384419E-04
(PID.TID 0000.0001) %MON dynstat_wvel_del2            =   3.7888260669497E-06
(PID.TID 0000.0001) %MON dynstat_theta_max            =   1.5000000000005E+01
(PID.TID 0000.0001) %MON dynstat_theta_min            =   9.9999999999974E+00
(PID.TID 0000.0001) %MON dynstat_theta_mean           =   1.4047648088666E+01
(PID.TID 0000.0001) %MON dynstat_theta_sd             =   1.8972411965284E+00
(PID.TID 0000.0001) %MON dynstat_theta_del2           =   3.0067860307787E-04
(PID.TID 0000.0001) %MON dynstat_salt_max             =   3.5000000000000E+01
(PID.TID 0000.0001) %MON dynstat_salt_min             =   3.5000000000000E+01
(PID.TID 0000.0001) %MON dynstat_salt_mean            =   3.5000000000000E+01
(PID.TID 0000.0001) %MON dynstat_salt_sd              =   3.0553337637684E-13
(PID.TID 0000.0001) %MON dynstat_salt_del2            =   0.0000000000000E+00
(PID.TID 0000.0001) %MON dynstat_sst_max              =   1.5000000000000E+01
(PID.TID 0000.0001) %MON dynstat_sst_min              =   1.5000000000000E+01
(PID.TID 0000.0001) %MON dynstat_sst_mean             =   1.5000000000000E+01
(PID.TID 0000.0001) %MON dynstat_sst_sd               =   1.3711440965724E-13
(PID.TID 0000.0001) %MON dynstat_sst_del2             =   3.2741424525468E-15
(PID.TID 0000.0001) %MON dynstat_sss_max              =   3.5000000000000E+01
(PID.TID 0000.0001) %MON dynstat_sss_min              =   3.5000000000000E+01
(PID.TID 0000.0001) %MON dynstat_sss_mean             =   3.5000000000000E+01
(PID.TID 0000.0001) %MON dynstat_sss_sd               =   2.8421709430404E-14
(PID.TID 0000.0001) %MON dynstat_sss_del2             =   0.0000000000000E+00
(PID.TID 0000.0001) %MON forcing_qnet_max             =   0.0000000000000E+00
(PID.TID 0000.0001) %MON forcing_qnet_min             =   0.0000000000000E+00
(PID.TID 0000.0001) %MON forcing_qnet_mean            =   0.0000000000000E+00
(PID.TID 0000.0001) %MON forcing_qnet_sd              =   0.0000000000000E+00
(PID.TID 0000.0001) %MON forcing_qnet_del2            =   0.0000000000000E+00
(PID.TID 0000.0001) %MON forcing_qsw_max              =   0.0000000000000E+00
(PID.TID 0000.0001) %MON forcing_qsw_min              =   0.0000000000000E+00
(PID.TID 0000.0001) %MON forcing_qsw_mean             =   0.0000000000000E+00
(PID.TID 0000.0001) %MON forcing_qsw_sd               =   0.0000000000000E+00
(PID.TID 0000.0001) %MON forcing_qsw_del2             =   0.0000000000000E+00
(PID.TID 0000.0001) %MON forcing_empmr_max            =   0.0000000000000E+00
(PID.TID 0000.0001) %MON forcing_empmr_min            =   0.0000000000000E+00
(PID.TID 0000.0001) %MON forcing_empmr_mean           =   0.0000000000000E+00
(PID.TID 0000.0001) %MON forcing_empmr_sd             =   0.0000000000000E+00
(PID.TID 0000.0001) %MON forcing_empmr_del2           =   0.0000000000000E+00
(PID.TID 0000.0001) %MON forcing_fu_max               =   0.0000000000000E+00
(PID.TID 0000.0001) %MON forcing_fu_min               =   0.0000000000000E+00
(PID.TID 0000.0001) %MON forcing_fu_mean              =   0.0000000000000E+00
(PID.TID 0000.0001) %MON forcing_fu_sd                =   0.0000000000000E+00
(PID.TID 0000.0001) %MON forcing_fu_del2              =   0.0000000000000E+00
(PID.TID 0000.0001) %MON forcing_fv_max               =   0.0000000000000E+00
(PID.TID 0000.0001) %MON forcing_fv_min               =   0.0000000000000E+00
(PID.TID 0000.0001) %MON forcing_fv_mean              =   0.0000000000000E+00
(PID.TID 0000.0001) %MON forcing_fv_sd                =   0.0000000000000E+00
(PID.TID 0000.0001) %MON forcing_fv_del2              =   0.0000000000000E+00
(PID.TID 0000.0001) %MON advcfl_uvel_max              =   3.2168870360456E-02
(PID.TID 0000.0001) %MON advcfl_vvel_max              =   0.0000000000000E+00
(PID.TID 0000.0001) %MON advcfl_wvel_max              =   2.4324312461006E-02
(PID.TID 0000.0001) %MON advcfl_W_hf_max              =   3.2168870360456E-02
(PID.TID 0000.0001) %MON pe_b_mean                    =   4.1525277749268E-07
(PID.TID 0000.0001) %MON ke_max                       =   6.1611649639742E-02
(PID.TID 0000.0001) %MON ke_mean                      =   6.5785690018363E-03
(PID.TID 0000.0001) %MON ke_vol                       =   9.6656965507697E+10
(PID.TID 0000.0001) %MON vort_r_min                   =   0.0000000000000E+00
(PID.TID 0000.0001) %MON vort_r_max                   =   0.0000000000000E+00
(PID.TID 0000.0001) %MON vort_a_mean                  =   0.0000000000000E+00
(PID.TID 0000.0001) %MON vort_a_sd                    =   0.0000000000000E+00
(PID.TID 0000.0001) %MON vort_p_mean                  =   0.0000000000000E+00
(PID.TID 0000.0001) %MON vort_p_sd                    =   0.0000000000000E+00
(PID.TID 0000.0001) %MON surfExpan_theta_mean         =   1.5595795704999E-20
(PID.TID 0000.0001) %MON surfExpan_salt_mean          =   5.2141167730144E-20
(PID.TID 0000.0001) // =======================================================
(PID.TID 0000.0001) // End MONITOR dynamic field statistics
(PID.TID 0000.0001) // =======================================================
(PID.TID 0000.0001) // =======================================================
(PID.TID 0000.0001) // Begin OBCS MONITOR field statistics
(PID.TID 0000.0001) // =======================================================
(PID.TID 0000.0001) %MON obc_E_uVel_max               =   1.1205712828732E-01
(PID.TID 0000.0001) %MON obc_E_uVel_min               =   1.1205712828732E-01
(PID.TID 0000.0001) %MON obc_E_uVel_mean              =   1.1205712828732E-01
(PID.TID 0000.0001) %MON obc_E_uVel_sd                =   0.0000000000000E+00
(PID.TID 0000.0001) %MON obc_E_uVel_Int               =   1.1205712828732E+05
(PID.TID 0000.0001) %MON obc_W_uVel_max               =   1.1205712828732E-01
(PID.TID 0000.0001) %MON obc_W_uVel_min               =   1.1205712828732E-01
(PID.TID 0000.0001) %MON obc_W_uVel_mean              =   1.1205712828732E-01
(PID.TID 0000.0001) %MON obc_W_uVel_sd                =   0.0000000000000E+00
(PID.TID 0000.0001) %MON obc_W_uVel_Int               =   1.1205712828732E+05
(PID.TID 0000.0001) // =======================================================
(PID.TID 0000.0001) // End OBCS MONITOR field statistics
(PID.TID 0000.0001) // =======================================================
(PID.TID 0000.0001) %CHECKPOINT      1440 0000001440
 cg2d: Sum(rhs),rhsMax =  -4.41995329225620E-11  3.10378601520589E-02
 cg2d: Sum(rhs),rhsMax =  -4.51310100402225E-11  3.04435172936294E-02
 cg2d: Sum(rhs),rhsMax =  -4.60703697413578E-11  2.98308551828055E-02
 cg2d: Sum(rhs),rhsMax =  -4.71368499788127E-11  2.92005920527279E-02
 cg2d: Sum(rhs),rhsMax =  -4.82407447321975E-11  2.85534505890340E-02
 cg2d: Sum(rhs),rhsMax =  -4.94426721786567E-11  2.78901559457095E-02
 cg2d: Sum(rhs),rhsMax =  -5.06915620590576E-11  2.72114338113920E-02
 cg2d: Sum(rhs),rhsMax =  -5.21988008372887E-11  2.65180085343128E-02
 cg2d: Sum(rhs),rhsMax =  -5.37088151730813E-11  2.58106013117957E-02
 cg2d: Sum(rhs),rhsMax =  -5.53409540415828E-11  2.50899284491332E-02
 cg2d: Sum(rhs),rhsMax =  -5.70604674621222E-11  2.43566996997602E-02
 cg2d: Sum(rhs),rhsMax =  -5.88903370513094E-11  2.36116166839304E-02
 cg2d: Sum(rhs),rhsMax =  -6.08453287753719E-11  2.28553713902528E-02
 cg2d: Sum(rhs),rhsMax =  -6.30308027993465E-11  2.20886447622967E-02
 cg2d: Sum(rhs),rhsMax =  -6.53250786797344E-11  2.13121053795774E-02
 cg2d: Sum(rhs),rhsMax =  -6.79187817098637E-11  2.05264082299143E-02
 cg2d: Sum(rhs),rhsMax =  -7.07242042707890E-11  1.97401187660720E-02
 cg2d: Sum(rhs),rhsMax =  -7.34251548450970E-11  1.90340973812549E-02
 cg2d: Sum(rhs),rhsMax =  -7.63189511587825E-11  1.83256013510434E-02
 cg2d: Sum(rhs),rhsMax =  -7.94997401243336E-11  1.76148658416529E-02
 cg2d: Sum(rhs),rhsMax =  -8.29351032294312E-11  1.69020999465248E-02
 cg2d: Sum(rhs),rhsMax =  -8.66939853239046E-11  1.61874867742675E-02
 cg2d: Sum(rhs),rhsMax =  -9.08152442136156E-11  1.54711836371922E-02
 cg2d: Sum(rhs),rhsMax =  -9.52957712740954E-11  1.47533223398181E-02
 cg2d: Sum(rhs),rhsMax =  -1.00206065667408E-10  1.40340095661587E-02
 cg2d: Sum(rhs),rhsMax =  -1.05726982724264E-10  1.33133273640576E-02
 cg2d: Sum(rhs),rhsMax =  -1.11862852314459E-10  1.25913337243527E-02
 cg2d: Sum(rhs),rhsMax =  -1.18728915587951E-10  1.18680632528639E-02
 cg2d: Sum(rhs),rhsMax =  -1.26554211554719E-10  1.11435279308857E-02
 cg2d: Sum(rhs),rhsMax =  -1.35466193817990E-10  1.04177179609462E-02
 cg2d: Sum(rhs),rhsMax =  -1.45735867818075E-10  9.69060269576512E-03
 cg2d: Sum(rhs),rhsMax =  -1.57700075220646E-10  8.96213164686030E-03
 cg2d: Sum(rhs),rhsMax =  -1.71850311758703E-10  8.23223556929460E-03
 cg2d: Sum(rhs),rhsMax =  -1.88623561214740E-10  7.50082761891648E-03
 cg2d: Sum(rhs),rhsMax =  -2.09147699159473E-10  6.76780457877661E-03
 cg2d: Sum(rhs),rhsMax =  -2.34717578706523E-10  6.03304815148486E-03
 cg2d: Sum(rhs),rhsMax =  -2.67437294532158E-10  5.29642631420358E-03
 cg2d: Sum(rhs),rhsMax =  -3.10894865407363E-10  4.55779473279717E-03
 cg2d: Sum(rhs),rhsMax =  -3.71258523923501E-10  3.81699823139927E-03
 cg2d: Sum(rhs),rhsMax =  -4.61069196711072E-10  3.07387231332237E-03
 cg2d: Sum(rhs),rhsMax =  -6.08819744618572E-10  2.32824472883664E-03
 cg2d: Sum(rhs),rhsMax =  -7.20238868545664E-10  1.96825478621865E-03
 cg2d: Sum(rhs),rhsMax =  -5.23915910655148E-10  2.70633271485643E-03
 cg2d: Sum(rhs),rhsMax =  -4.10690814689474E-10  3.45308450612265E-03
 cg2d: Sum(rhs),rhsMax =  -3.36873862138987E-10  4.20987108909764E-03
 cg2d: Sum(rhs),rhsMax =  -2.84934187355645E-10  4.97911383765135E-03
 cg2d: Sum(rhs),rhsMax =  -2.46597964270734E-10  5.75417534565751E-03
 cg2d: Sum(rhs),rhsMax =  -2.17038498284694E-10  6.53984624235311E-03
 cg2d: Sum(rhs),rhsMax =  -1.93534410719565E-10  7.33710400063966E-03
 cg2d: Sum(rhs),rhsMax =  -1.74404712893761E-10  8.14554458223224E-03
 cg2d: Sum(rhs),rhsMax =  -1.58518531634400E-10  8.96821737792398E-03
 cg2d: Sum(rhs),rhsMax =  -1.45152778685542E-10  9.79595379795636E-03
 cg2d: Sum(rhs),rhsMax =  -1.33974720206709E-10  1.06202999275551E-02
 cg2d: Sum(rhs),rhsMax =  -1.24407595336606E-10  1.14410973745113E-02
 cg2d: Sum(rhs),rhsMax =  -1.16133769267890E-10  1.22581849222253E-02
 cg2d: Sum(rhs),rhsMax =  -1.08989928193637E-10  1.30713975847633E-02
 cg2d: Sum(rhs),rhsMax =  -1.02684527547581E-10  1.38805657031886E-02
 cg2d: Sum(rhs),rhsMax =  -9.70610258832494E-11  1.46855140893712E-02
 cg2d: Sum(rhs),rhsMax =  -9.21338560999629E-11  1.54860612235775E-02
 cg2d: Sum(rhs),rhsMax =  -8.76525518833660E-11  1.62820185120397E-02
 cg2d: Sum(rhs),rhsMax =  -8.36298807982416E-11  1.70731896130539E-02
 cg2d: Sum(rhs),rhsMax =  -8.00639554654481E-11  1.78593698302006E-02
 cg2d: Sum(rhs),rhsMax =  -7.68061170219880E-11  1.86403455806598E-02
 cg2d: Sum(rhs),rhsMax =  -7.38314964721098E-11  1.94158939447267E-02
 cg2d: Sum(rhs),rhsMax =  -7.11133374409201E-11  2.01857822987220E-02
 cg2d: Sum(rhs),rhsMax =  -6.86213308398465E-11  2.09497680314644E-02
 cg2d: Sum(rhs),rhsMax =  -6.63017418744971E-11  2.17075983441425E-02
 cg2d: Sum(rhs),rhsMax =  -6.41890984809379E-11  2.24590101330135E-02
 cg2d: Sum(rhs),rhsMax =  -6.22075724265869E-11  2.32037299537655E-02
 cg2d: Sum(rhs),rhsMax =  -6.03825878187081E-11  2.39414740657320E-02
 cg2d: Sum(rhs),rhsMax =  -5.86379833578121E-11  2.46719485536066E-02
 cg2d: Sum(rhs),rhsMax =  -5.70601343952148E-11  2.53948495243876E-02
 cg2d: Sum(rhs),rhsMax =  -5.55320234241208E-11  2.61098633755446E-02
 cg2d: Sum(rhs),rhsMax =  -5.41322542346734E-11  2.68166671320482E-02
 cg2d: Sum(rhs),rhsMax =  -5.28597166038480E-11  2.75149288497036E-02
 cg2d: Sum(rhs),rhsMax =  -5.15752995866592E-11  2.82043080817439E-02
 cg2d: Sum(rhs),rhsMax =  -5.03961317122048E-11  2.88844564052198E-02
 cg2d: Sum(rhs),rhsMax =  -4.93322049877065E-11  2.95550180047443E-02
 cg2d: Sum(rhs),rhsMax =  -4.83302287079823E-11  3.02156303120950E-02
 cg2d: Sum(rhs),rhsMax =  -4.73365791009428E-11  3.08659246966743E-02
 cg2d: Sum(rhs),rhsMax =  -4.64106530984054E-11  3.15055272043178E-02
 cg2d: Sum(rhs),rhsMax =  -4.55675497335051E-11  3.21340593417845E-02
 cg2d: Sum(rhs),rhsMax =  -4.47570869255287E-11  3.27511389046050E-02
 cg2d: Sum(rhs),rhsMax =  -4.40287806213746E-11  3.33563808458663E-02
 cg2d: Sum(rhs),rhsMax =  -4.30089297509539E-11  3.42228205892481E-02
 cg2d: Sum(rhs),rhsMax =  -4.19815293639658E-11  3.50868404777581E-02
 cg2d: Sum(rhs),rhsMax =  -4.10944611672903E-11  3.59452469294300E-02
 cg2d: Sum(rhs),rhsMax =  -4.02253785836137E-11  3.67972728217483E-02
 cg2d: Sum(rhs),rhsMax =  -3.93657328956465E-11  3.76421341587130E-02
 cg2d: Sum(rhs),rhsMax =  -3.85569354222071E-11  3.84790318225195E-02
 cg2d: Sum(rhs),rhsMax =  -3.77835540632532E-11  3.93071533934867E-02
 cg2d: Sum(rhs),rhsMax =  -3.70616870526419E-11  4.01256750304763E-02
 cg2d: Sum(rhs),rhsMax =  -3.63634677924551E-11  4.09337634046266E-02
 cg2d: Sum(rhs),rhsMax =  -3.57098794978583E-11  4.17305776792974E-02
 cg2d: Sum(rhs),rhsMax =  -3.50973694551726E-11  4.25152715297623E-02
 cg2d: Sum(rhs),rhsMax =  -3.44702044685619E-11  4.32869951957569E-02
 cg2d: Sum(rhs),rhsMax =  -3.39244188296561E-11  4.40448975600579E-02
 cg2d: Sum(rhs),rhsMax =  -3.33838512389661E-11  4.47881282463809E-02
 cg2d: Sum(rhs),rhsMax =  -3.28684857109351E-11  4.55158397300110E-02
 cg2d: Sum(rhs),rhsMax =  -3.23819859815444E-11  4.62271894546757E-02
 cg2d: Sum(rhs),rhsMax =  -3.19495541134529E-11  4.69213419492237E-02
 cg2d: Sum(rhs),rhsMax =  -3.15106829518186E-11  4.75974709376653E-02
 cg2d: Sum(rhs),rhsMax =  -3.11219938708973E-11  4.82547614360695E-02
 cg2d: Sum(rhs),rhsMax =  -3.07073255711998E-11  4.88924118296890E-02
 cg2d: Sum(rhs),rhsMax =  -3.03612690544242E-11  4.95096359235174E-02
 cg2d: Sum(rhs),rhsMax =  -2.99994473706988E-11  5.01056649592788E-02
 cg2d: Sum(rhs),rhsMax =  -2.96657143294965E-11  5.06797495916333E-02
 cg2d: Sum(rhs),rhsMax =  -2.93689517150142E-11  5.12311618161842E-02
 cg2d: Sum(rhs),rhsMax =  -2.90640844724521E-11  5.17591968417187E-02
 cg2d: Sum(rhs),rhsMax =  -2.87676549248772E-11  5.22631748990528E-02
 cg2d: Sum(rhs),rhsMax =  -2.85572676617107E-11  5.27424429788979E-02
 cg2d: Sum(rhs),rhsMax =  -2.83039147674913E-11  5.31963764916125E-02
 cg2d: Sum(rhs),rhsMax =  -2.80847567424303E-11  5.36243808417199E-02
 cg2d: Sum(rhs),rhsMax =  -2.78950196275218E-11  5.40258929092429E-02
 cg2d: Sum(rhs),rhsMax =  -2.76594303016964E-11  5.44003824335161E-02
 cg2d: Sum(rhs),rhsMax =  -2.74882339112992E-11  5.47473532941700E-02
 cg2d: Sum(rhs),rhsMax =  -2.73447930965176E-11  5.50663446847307E-02
 cg2d: Sum(rhs),rhsMax =  -2.71994649025942E-11  5.53569321732862E-02
 cg2d: Sum(rhs),rhsMax =  -2.70289346460117E-11  5.56187286519320E-02
 cg2d: Sum(rhs),rhsMax =  -2.69277933284684E-11  5.58513851708138E-02
 cg2d: Sum(rhs),rhsMax =  -2.67912358964395E-11  5.60545916539145E-02
 cg2d: Sum(rhs),rhsMax =  -2.67658117891756E-11  5.62280774984587E-02
 cg2d: Sum(rhs),rhsMax =  -2.67180721991167E-11  5.63716120498202E-02
 cg2d: Sum(rhs),rhsMax =  -2.66776600810203E-11  5.64850049590676E-02
 cg2d: Sum(rhs),rhsMax =  -2.66519029068490E-11  5.65681064231048E-02
 cg2d: Sum(rhs),rhsMax =  -2.66342503607575E-11  5.66208073072756E-02
 cg2d: Sum(rhs),rhsMax =  -2.66836552853533E-11  5.66430391503850E-02
 cg2d: Sum(rhs),rhsMax =  -2.66943134263897E-11  5.66347740524828E-02
 cg2d: Sum(rhs),rhsMax =  -2.67263988718014E-11  5.65960244459505E-02
 cg2d: Sum(rhs),rhsMax =  -2.68134403569320E-11  5.65268427521615E-02
 cg2d: Sum(rhs),rhsMax =  -2.68929323254952E-11  5.64273209243503E-02
 cg2d: Sum(rhs),rhsMax =  -2.70115041445251E-11  5.62975898796345E-02
 cg2d: Sum(rhs),rhsMax =  -2.71446198851777E-11  5.61378188235275E-02
 cg2d: Sum(rhs),rhsMax =  -2.73260303274014E-11  5.59482144670011E-02
 cg2d: Sum(rhs),rhsMax =  -2.74759104357258E-11  5.57290201424050E-02
 cg2d: Sum(rhs),rhsMax =  -2.77100564716193E-11  5.54805148220607E-02
 cg2d: Sum(rhs),rhsMax =  -2.79309908535197E-11  5.52030120464549E-02
 cg2d: Sum(rhs),rhsMax =  -2.82267542672798E-11  5.48968587680322E-02
 cg2d: Sum(rhs),rhsMax =  -2.84688939089506E-11  5.45624341128923E-02
 cg2d: Sum(rhs),rhsMax =  -2.85041990011337E-11  5.42001480670430E-02
 cg2d: Sum(rhs),rhsMax =  -2.86576318231369E-11  5.38104400943018E-02
 cg2d: Sum(rhs),rhsMax =  -2.88279400351144E-11  5.33937776930014E-02
 cg2d: Sum(rhs),rhsMax =  -2.90309998263183E-11  5.29506548990208E-02
 cg2d: Sum(rhs),rhsMax =  -2.92396107326454E-11  5.24815907404585E-02
 cg2d: Sum(rhs),rhsMax =  -2.94392288324730E-11  5.19871276514030E-02
 cg2d: Sum(rhs),rhsMax =  -2.97020186224017E-11  5.14678298518047E-02
 cg2d: Sum(rhs),rhsMax =  -2.99366087475050E-11  5.09242816998461E-02
 cg2d: Sum(rhs),rhsMax =  -3.01839664373915E-11  5.03570860231446E-02
 cg2d: Sum(rhs),rhsMax =  -3.04729574907014E-11  4.97668624348409E-02
 cg2d: Sum(rhs),rhsMax =  -3.07289749201800E-11  4.91542456377561E-02
 cg2d: Sum(rhs),rhsMax =  -3.10169667727678E-11  4.85198837303228E-02
 cg2d: Sum(rhs),rhsMax =  -3.14149817270959E-11  4.78644365154298E-02
 cg2d: Sum(rhs),rhsMax =  -3.18111093022821E-11  4.71885738166072E-02
 cg2d: Sum(rhs),rhsMax =  -3.22463167279352E-11  4.64929738077541E-02
 cg2d: Sum(rhs),rhsMax =  -3.26862981125942E-11  4.57783213639926E-02
 cg2d: Sum(rhs),rhsMax =  -3.31776828232933E-11  4.50453064388834E-02
 cg2d: Sum(rhs),rhsMax =  -3.36684014001776E-11  4.42946224741247E-02
 cg2d: Sum(rhs),rhsMax =  -3.42136319275710E-11  4.35269648477140E-02
 cg2d: Sum(rhs),rhsMax =  -3.47804007816421E-11  4.27430293663966E-02
 cg2d: Sum(rhs),rhsMax =  -3.53509443939970E-11  4.19435108116032E-02
 cg2d: Sum(rhs),rhsMax =  -3.60197427440312E-11  4.11291015343324E-02
 cg2d: Sum(rhs),rhsMax =  -3.66932040307688E-11  4.03004901112655E-02
 cg2d: Sum(rhs),rhsMax =  -3.73975295175910E-11  3.94583600683772E-02
 cg2d: Sum(rhs),rhsMax =  -3.81616960254405E-11  3.86033886738486E-02
 cg2d: Sum(rhs),rhsMax =  -3.89258625332900E-11  3.77362458056079E-02
 cg2d: Sum(rhs),rhsMax =  -3.97581967348515E-11  3.68575928961607E-02
 cg2d: Sum(rhs),rhsMax =  -4.06711331280007E-11  3.59680819570302E-02
 cg2d: Sum(rhs),rhsMax =  -4.16687795379289E-11  3.50683546847959E-02
 cg2d: Sum(rhs),rhsMax =  -4.27320401286124E-11  3.41590416503443E-02
 cg2d: Sum(rhs),rhsMax =  -4.38802327806798E-11  3.32407615724680E-02
 cg2d: Sum(rhs),rhsMax =  -4.50837145393734E-11  3.23141206763970E-02
 cg2d: Sum(rhs),rhsMax =  -4.63752369839199E-11  3.13797121372821E-02
 cg2d: Sum(rhs),rhsMax =  -4.77755612848796E-11  3.04381156081178E-02
 cg2d: Sum(rhs),rhsMax =  -4.92539342644704E-11  2.94898968311045E-02
 cg2d: Sum(rhs),rhsMax =  -5.08650899178065E-11  2.85356073310220E-02
 cg2d: Sum(rhs),rhsMax =  -5.25689491936987E-11  2.75757841888139E-02
 cg2d: Sum(rhs),rhsMax =  -5.44201350649587E-11  2.66109498932461E-02
 cg2d: Sum(rhs),rhsMax =  -5.64066571229205E-11  2.56416122682285E-02
 cg2d: Sum(rhs),rhsMax =  -5.85601567237859E-11  2.46682644731626E-02
 cg2d: Sum(rhs),rhsMax =  -6.09232664317005E-11  2.36913850735131E-02
 cg2d: Sum(rhs),rhsMax =  -6.34591268422469E-11  2.27114381787847E-02
 cg2d: Sum(rhs),rhsMax =  -6.62788712801898E-11  2.17288736447618E-02
 cg2d: Sum(rhs),rhsMax =  -6.93274326835081E-11  2.07441273370880E-02
 cg2d: Sum(rhs),rhsMax =  -7.26850801768819E-11  1.97576214524614E-02
 cg2d: Sum(rhs),rhsMax =  -7.65230101507086E-11  1.87697648953135E-02
 cg2d: Sum(rhs),rhsMax =  -8.07106603772922E-11  1.77809537114517E-02
 cg2d: Sum(rhs),rhsMax =  -8.54389892168683E-11  1.67915715708670E-02
 cg2d: Sum(rhs),rhsMax =  -9.07319774867688E-11  1.58019902947688E-02
 cg2d: Sum(rhs),rhsMax =  -9.67717017630321E-11  1.48125704261156E-02
 cg2d: Sum(rhs),rhsMax =  -1.03623332137204E-10  1.38236618413115E-02
 cg2d: Sum(rhs),rhsMax =  -1.11557096893478E-10  1.28356043994391E-02
 cg2d: Sum(rhs),rhsMax =  -1.20785270674162E-10  1.18487286247204E-02
 cg2d: Sum(rhs),rhsMax =  -1.28801191934258E-10  1.11045227796376E-02
 cg2d: Sum(rhs),rhsMax =  -1.36789690685646E-10  1.04538325567810E-02
 cg2d: Sum(rhs),rhsMax =  -1.45863765510512E-10  9.80013941514567E-03
 cg2d: Sum(rhs),rhsMax =  -1.56285873131878E-10  9.14340468713004E-03
 cg2d: Sum(rhs),rhsMax =  -1.68316915960531E-10  8.48359432348016E-03
 cg2d: Sum(rhs),rhsMax =  -1.82534876103091E-10  7.82067995967207E-03
 cg2d: Sum(rhs),rhsMax =  -1.99431138270256E-10  7.15463997078931E-03
 cg2d: Sum(rhs),rhsMax =  -2.19877893670173E-10  6.48546050953590E-03
 cg2d: Sum(rhs),rhsMax =  -2.45233833240377E-10  5.81313652173359E-03
 cg2d: Sum(rhs),rhsMax =  -2.77453171548814E-10  5.13767273159834E-03
 cg2d: Sum(rhs),rhsMax =  -3.19606341392387E-10  4.45908459640594E-03
 cg2d: Sum(rhs),rhsMax =  -3.77219033786957E-10  3.77739922682536E-03
 cg2d: Sum(rhs),rhsMax =  -4.60605886765109E-10  3.09265626957062E-03
 cg2d: Sum(rhs),rhsMax =  -5.83428194644853E-10  2.44119856565958E-03
 cg2d: Sum(rhs),rhsMax =  -4.37090252880523E-10  3.25792508188236E-03
 cg2d: Sum(rhs),rhsMax =  -3.49372586416763E-10  4.07536276471680E-03
 cg2d: Sum(rhs),rhsMax =  -2.90737156571907E-10  4.89642327552157E-03
 cg2d: Sum(rhs),rhsMax =  -2.48622872289772E-10  5.72386173564225E-03
 cg2d: Sum(rhs),rhsMax =  -2.17373258282194E-10  6.54630946701985E-03
 cg2d: Sum(rhs),rhsMax =  -1.92682508837194E-10  7.38253231602653E-03
 cg2d: Sum(rhs),rhsMax =  -1.73131842196028E-10  8.21161151446218E-03
 cg2d: Sum(rhs),rhsMax =  -1.57037494119550E-10  9.04995884812998E-03
 cg2d: Sum(rhs),rhsMax =  -1.43698830612493E-10  9.88586870176486E-03
 cg2d: Sum(rhs),rhsMax =  -1.32347022230306E-10  1.07299927412191E-02
 cg2d: Sum(rhs),rhsMax =  -1.22617582754003E-10  1.15762122537780E-02
 cg2d: Sum(rhs),rhsMax =  -1.14151743613178E-10  1.24297316728775E-02
 cg2d: Sum(rhs),rhsMax =  -1.06847863889925E-10  1.32741164988945E-02
 cg2d: Sum(rhs),rhsMax =  -1.00492725252366E-10  1.41090370752106E-02
 cg2d: Sum(rhs),rhsMax =  -9.49107459291554E-11  1.49341592039621E-02
 cg2d: Sum(rhs),rhsMax =  -8.99222918349096E-11  1.57491443416149E-02
 cg2d: Sum(rhs),rhsMax =  -8.53999093664015E-11  1.65536498490609E-02
 cg2d: Sum(rhs),rhsMax =  -8.14012190986091E-11  1.73473292932148E-02
 cg2d: Sum(rhs),rhsMax =  -7.77949926700217E-11  1.81298327960757E-02
 cg2d: Sum(rhs),rhsMax =  -7.45806749691269E-11  1.89008074262959E-02
 cg2d: Sum(rhs),rhsMax =  -7.16087189545078E-11  1.96598976295200E-02
 cg2d: Sum(rhs),rhsMax =  -6.88935575254845E-11  2.04067456924797E-02
 cg2d: Sum(rhs),rhsMax =  -6.64650556814195E-11  2.11409922360348E-02
 cg2d: Sum(rhs),rhsMax =  -6.41792174960187E-11  2.18622767329980E-02
 cg2d: Sum(rhs),rhsMax =  -6.20009599217042E-11  2.25702380475905E-02
 cg2d: Sum(rhs),rhsMax =  -6.00457461530368E-11  2.32645149946840E-02
 cg2d: Sum(rhs),rhsMax =  -5.82665027337725E-11  2.39447469184695E-02
 cg2d: Sum(rhs),rhsMax =  -5.66063862450505E-11  2.46105742917583E-02
 cg2d: Sum(rhs),rhsMax =  -5.50880452365732E-11  2.52616393385897E-02
 cg2d: Sum(rhs),rhsMax =  -5.37017097457237E-11  2.58975866840037E-02
 cg2d: Sum(rhs),rhsMax =  -5.23782128780681E-11  2.65180640355270E-02
 cg2d: Sum(rhs),rhsMax =  -5.12773157268498E-11  2.71227229009262E-02
 cg2d: Sum(rhs),rhsMax =  -5.02834440752054E-11  2.77112193459826E-02
 cg2d: Sum(rhs),rhsMax =  -4.92929030926348E-11  2.82832147944050E-02
 cg2d: Sum(rhs),rhsMax =  -4.83805218109978E-11  2.88383768695943E-02
 cg2d: Sum(rhs),rhsMax =  -4.74820183171687E-11  2.93763802750012E-02
 cg2d: Sum(rhs),rhsMax =  -4.67275107496334E-11  2.98969077064866E-02
 cg2d: Sum(rhs),rhsMax =  -4.59766669180794E-11  3.03996507871344E-02
 cg2d: Sum(rhs),rhsMax =  -4.52999859845704E-11  3.08843110120738E-02
 cg2d: Sum(rhs),rhsMax =  -4.46512826712819E-11  3.13506006887711E-02
 cg2d: Sum(rhs),rhsMax =  -4.40618652675084E-11  3.17982438556994E-02
 cg2d: Sum(rhs),rhsMax =  -4.35329550185770E-11  3.22269771656189E-02
 cg2d: Sum(rhs),rhsMax =  -4.30454560884641E-11  3.26365507193333E-02
 cg2d: Sum(rhs),rhsMax =  -4.25879331800161E-11  3.30267288381275E-02
 cg2d: Sum(rhs),rhsMax =  -4.21436219255611E-11  3.33972907662668E-02
 cg2d: Sum(rhs),rhsMax =  -4.17476053726773E-11  3.37480312986406E-02
 cg2d: Sum(rhs),rhsMax =  -4.14122069969380E-11  3.40787613323836E-02
 cg2d: Sum(rhs),rhsMax =  -4.11267686573069E-11  3.43893083447885E-02
 cg2d: Sum(rhs),rhsMax =  -4.08825195918894E-11  3.46795168014077E-02
 cg2d: Sum(rhs),rhsMax =  -4.06645828121555E-11  3.49492485048291E-02
 cg2d: Sum(rhs),rhsMax =  -4.04266620179783E-11  3.51983828908468E-02
 cg2d: Sum(rhs),rhsMax =  -4.02591293635624E-11  3.54268172781746E-02
 cg2d: Sum(rhs),rhsMax =  -4.00843802594864E-11  3.56344670791824E-02
 cg2d: Sum(rhs),rhsMax =  -3.99563715447471E-11  3.58212659778164E-02
 cg2d: Sum(rhs),rhsMax =  -3.98380217703220E-11  3.59871660810371E-02
 cg2d: Sum(rhs),rhsMax =  -3.97177846167551E-11  3.61321380368718E-02
 cg2d: Sum(rhs),rhsMax =  -3.96119803625083E-11  3.62561711258777E-02
 cg2d: Sum(rhs),rhsMax =  -3.95657950846839E-11  3.63592733233280E-02
 cg2d: Sum(rhs),rhsMax =  -3.95292687471738E-11  3.64414713280014E-02
 cg2d: Sum(rhs),rhsMax =  -3.94786425772509E-11  3.65028105526920E-02
 cg2d: Sum(rhs),rhsMax =  -3.94595467412273E-11  3.65433550715471E-02
 cg2d: Sum(rhs),rhsMax =  -3.94611010534618E-11  3.65631875197837E-02
 cg2d: Sum(rhs),rhsMax =  -3.94698718153563E-11  3.65624089420654E-02
 cg2d: Sum(rhs),rhsMax =  -3.95141697140389E-11  3.65411385868376E-02
 cg2d: Sum(rhs),rhsMax =  -3.95896648797134E-11  3.64995136446440E-02
 cg2d: Sum(rhs),rhsMax =  -3.96298549532048E-11  3.64376889294748E-02
 cg2d: Sum(rhs),rhsMax =  -3.97780697269923E-11  3.63558365028795E-02
 cg2d: Sum(rhs),rhsMax =  -3.98565624948333E-11  3.62541452428454E-02
 cg2d: Sum(rhs),rhsMax =  -4.00250943499714E-11  3.61328203592743E-02
 cg2d: Sum(rhs),rhsMax =  -4.01961797180661E-11  3.59920828586908E-02
 cg2d: Sum(rhs),rhsMax =  -4.03690414430002E-11  3.58321689594661E-02
 cg2d: Sum(rhs),rhsMax =  -4.05598887809333E-11  3.56533294607239E-02
 cg2d: Sum(rhs),rhsMax =  -4.08019174003016E-11  3.54558290726471E-02
 cg2d: Sum(rhs),rhsMax =  -4.10786960003406E-11  3.52399457104563E-02
 cg2d: Sum(rhs),rhsMax =  -4.13770129270574E-11  3.50059697531647E-02
 cg2d: Sum(rhs),rhsMax =  -4.16839895933663E-11  3.47542032712650E-02
 cg2d: Sum(rhs),rhsMax =  -4.20899981534717E-11  3.44849592274944E-02
 cg2d: Sum(rhs),rhsMax =  -4.24618118444187E-11  3.41985606545196E-02
 cg2d: Sum(rhs),rhsMax =  -4.29090096787377E-11  3.38953398129679E-02
 cg2d: Sum(rhs),rhsMax =  -4.33506563979336E-11  3.35756373328643E-02
 cg2d: Sum(rhs),rhsMax =  -4.38299396776642E-11  3.32398013412996E-02
 cg2d: Sum(rhs),rhsMax =  -4.44110304087530E-11  3.28881865797789E-02
 cg2d: Sum(rhs),rhsMax =  -4.49633663635041E-11  3.25211535115296E-02
 cg2d: Sum(rhs),rhsMax =  -4.55945281530035E-11  3.21390674232837E-02
 cg2d: Sum(rhs),rhsMax =  -4.62671012613214E-11  3.17422975242297E-02
 cg2d: Sum(rhs),rhsMax =  -4.69824179560874E-11  3.13312160444449E-02
 cg2d: Sum(rhs),rhsMax =  -4.77066164350504E-11  3.09061973352489E-02
 cg2d: Sum(rhs),rhsMax =  -4.84731144112516E-11  3.04676169741764E-02
 cg2d: Sum(rhs),rhsMax =  -4.92398344320577E-11  3.00158508775252E-02
 cg2d: Sum(rhs),rhsMax =  -5.00759433919029E-11  2.95512744236537E-02
 cg2d: Sum(rhs),rhsMax =  -5.09584596741774E-11  2.90742615903613E-02
 cg2d: Sum(rhs),rhsMax =  -5.19007059551768E-11  2.85851841098114E-02
 cg2d: Sum(rhs),rhsMax =  -5.28895816032104E-11  2.80844106445373E-02
 cg2d: Sum(rhs),rhsMax =  -5.39093214513287E-11  2.75723059876320E-02
 cg2d: Sum(rhs),rhsMax =  -5.50267609256139E-11  2.70492302921978E-02
 cg2d: Sum(rhs),rhsMax =  -5.61637403251325E-11  2.65155383320550E-02
 cg2d: Sum(rhs),rhsMax =  -5.74250647034091E-11  2.59715787970636E-02
 cg2d: Sum(rhs),rhsMax =  -5.87333515156274E-11  2.54176936250499E-02
 cg2d: Sum(rhs),rhsMax =  -6.01119154453045E-11  2.48542173762310E-02
 cg2d: Sum(rhs),rhsMax =  -6.16031670119810E-11  2.42814766503848E-02
 cg2d: Sum(rhs),rhsMax =  -6.31743546364305E-11  2.36997895481250E-02
 cg2d: Sum(rhs),rhsMax =  -6.48828768490262E-11  2.31094651779039E-02
 cg2d: Sum(rhs),rhsMax =  -6.66982025165908E-11  2.25108032100107E-02
 cg2d: Sum(rhs),rhsMax =  -6.85969059333047E-11  2.19040934784667E-02
 cg2d: Sum(rhs),rhsMax =  -7.06575908893115E-11  2.12896156313870E-02
 cg2d: Sum(rhs),rhsMax =  -7.28905824587400E-11  2.06676388301366E-02
 cg2d: Sum(rhs),rhsMax =  -7.52421458471986E-11  2.00384214976383E-02
 cg2d: Sum(rhs),rhsMax =  -7.78098696585516E-11  1.94022111156060E-02
 cg2d: Sum(rhs),rhsMax =  -8.05877586884662E-11  1.87592440706849E-02
 cg2d: Sum(rhs),rhsMax =  -8.36279934190998E-11  1.81097455502700E-02
 cg2d: Sum(rhs),rhsMax =  -8.68622951344378E-11  1.74539294880972E-02
 cg2d: Sum(rhs),rhsMax =  -9.04114560995595E-11  1.67919985597378E-02
 cg2d: Sum(rhs),rhsMax =  -9.42118605351538E-11  1.61241442281756E-02
 cg2d: Sum(rhs),rhsMax =  -9.84129444603354E-11  1.54505468410104E-02
 cg2d: Sum(rhs),rhsMax =  -1.02990171946260E-10  1.47713757755960E-02
 cg2d: Sum(rhs),rhsMax =  -1.08101083640122E-10  1.40867896350451E-02
 cg2d: Sum(rhs),rhsMax =  -1.13775100452074E-10  1.33969364950658E-02
 cg2d: Sum(rhs),rhsMax =  -1.20096155242777E-10  1.27019542008944E-02
 cg2d: Sum(rhs),rhsMax =  -1.27204913269452E-10  1.20019707132629E-02
 cg2d: Sum(rhs),rhsMax =  -1.35253808153379E-10  1.12971045020990E-02
 cg2d: Sum(rhs),rhsMax =  -1.44451450800887E-10  1.05874649864315E-02
 cg2d: Sum(rhs),rhsMax =  -1.55050861039285E-10  9.87315301963020E-03
 cg2d: Sum(rhs),rhsMax =  -1.67349356594571E-10  9.15426141537389E-03
 cg2d: Sum(rhs),rhsMax =  -1.81796688814018E-10  8.43087551433076E-03
 cg2d: Sum(rhs),rhsMax =  -1.99002037071239E-10  7.70307378917527E-03
 cg2d: Sum(rhs),rhsMax =  -2.19973594894896E-10  6.97092848548429E-03
 cg2d: Sum(rhs),rhsMax =  -2.46018982963392E-10  6.23450629611841E-03
 cg2d: Sum(rhs),rhsMax =  -2.79268053127169E-10  5.49386906689200E-03
 cg2d: Sum(rhs),rhsMax =  -3.23220616937903E-10  4.74907453159770E-03
 cg2d: Sum(rhs),rhsMax =  -3.83759690691932E-10  4.00017707456517E-03
 cg2d: Sum(rhs),rhsMax =  -4.72797551109849E-10  3.24722851900644E-03
 cg2d: Sum(rhs),rhsMax =  -6.16611907366948E-10  2.49027893943706E-03
 cg2d: Sum(rhs),rhsMax =  -7.70720431919614E-10  1.99273248215486E-03
 cg2d: Sum(rhs),rhsMax =  -6.90120183222120E-10  2.22595822187838E-03
 cg2d: Sum(rhs),rhsMax =  -5.27837995534242E-10  2.91041030739034E-03
 cg2d: Sum(rhs),rhsMax =  -4.25982027429939E-10  3.60634753928033E-03
 cg2d: Sum(rhs),rhsMax =  -3.56406459900427E-10  4.31161482707000E-03
 cg2d: Sum(rhs),rhsMax =  -3.05340530637466E-10  5.03289419953862E-03
 cg2d: Sum(rhs),rhsMax =  -2.66726640774095E-10  5.76221918128039E-03
 cg2d: Sum(rhs),rhsMax =  -2.36470509840103E-10  6.50020075486951E-03
 cg2d: Sum(rhs),rhsMax =  -2.12102779784118E-10  7.25037551795334E-03
 cg2d: Sum(rhs),rhsMax =  -1.91948901218097E-10  8.01497063811957E-03
 cg2d: Sum(rhs),rhsMax =  -1.75022885073872E-10  8.79341102844028E-03
 cg2d: Sum(rhs),rhsMax =  -1.60932600579144E-10  9.56855322549315E-03
 cg2d: Sum(rhs),rhsMax =  -1.48986156744968E-10  1.03401411465466E-02
 cg2d: Sum(rhs),rhsMax =  -1.38752120903973E-10  1.11079202465233E-02
 cg2d: Sum(rhs),rhsMax =  -1.29845689755825E-10  1.18716370417895E-02
 cg2d: Sum(rhs),rhsMax =  -1.22128973600866E-10  1.26310386795547E-02
 cg2d: Sum(rhs),rhsMax =  -1.15280118784256E-10  1.33858725634784E-02
 cg2d: Sum(rhs),rhsMax =  -1.09201536702130E-10  1.41358860421679E-02
 cg2d: Sum(rhs),rhsMax =  -1.03784980609589E-10  1.48808261628874E-02
 cg2d: Sum(rhs),rhsMax =  -9.88951143199301E-11  1.56204394883293E-02
 cg2d: Sum(rhs),rhsMax =  -9.44668787639102E-11  1.63544719707597E-02
 cg2d: Sum(rhs),rhsMax =  -9.05806540885123E-11  1.70826688728635E-02
 cg2d: Sum(rhs),rhsMax =  -8.70277183651069E-11  1.78047747254268E-02
 cg2d: Sum(rhs),rhsMax =  -8.37752089921651E-11  1.85205333100303E-02
 cg2d: Sum(rhs),rhsMax =  -8.07380828860005E-11  1.92296876583997E-02
 cg2d: Sum(rhs),rhsMax =  -7.80189246540886E-11  1.99319800506379E-02
 cg2d: Sum(rhs),rhsMax =  -7.54702966787590E-11  2.06271520126594E-02
 cg2d: Sum(rhs),rhsMax =  -7.31010807442090E-11  2.13149443105413E-02
 cg2d: Sum(rhs),rhsMax =  -7.09232672591043E-11  2.19950969407055E-02
 cg2d: Sum(rhs),rhsMax =  -6.88884504995713E-11  2.26673491185040E-02
 cg2d: Sum(rhs),rhsMax =  -6.70035138483627E-11  2.33314392709900E-02
 cg2d: Sum(rhs),rhsMax =  -6.52260467859378E-11  2.39871050418113E-02
 cg2d: Sum(rhs),rhsMax =  -6.35982377872324E-11  2.46340833171475E-02
 cg2d: Sum(rhs),rhsMax =  -6.20357099023749E-11  2.52721102818543E-02
 cg2d: Sum(rhs),rhsMax =  -6.06101835387562E-11  2.59009215119282E-02
 cg2d: Sum(rhs),rhsMax =  -5.90572035719106E-11  2.66035971813346E-02
 cg2d: Sum(rhs),rhsMax =  -5.73692204852705E-11  2.74165970307291E-02
 cg2d: Sum(rhs),rhsMax =  -5.57788260024950E-11  2.82256338566721E-02
 cg2d: Sum(rhs),rhsMax =  -5.42862421681889E-11  2.90302275400322E-02
 cg2d: Sum(rhs),rhsMax =  -5.28852517334144E-11  2.98298848507449E-02
 cg2d: Sum(rhs),rhsMax =  -5.15493203678830E-11  3.06241001080391E-02
 cg2d: Sum(rhs),rhsMax =  -5.02914376809827E-11  3.14123558999095E-02
 cg2d: Sum(rhs),rhsMax =  -4.91801044333329E-11  3.21941238608192E-02
 cg2d: Sum(rhs),rhsMax =  -4.81171769095567E-11  3.29688655058776E-02
 cg2d: Sum(rhs),rhsMax =  -4.71150896075301E-11  3.37360331186856E-02
 cg2d: Sum(rhs),rhsMax =  -4.61624072300992E-11  3.44950706892183E-02
 cg2d: Sum(rhs),rhsMax =  -4.52575754650297E-11  3.52454148978901E-02
 cg2d: Sum(rhs),rhsMax =  -4.43949321748960E-11  3.59864961397024E-02
 cg2d: Sum(rhs),rhsMax =  -4.35894653705304E-11  3.67177395826872E-02
 cg2d: Sum(rhs),rhsMax =  -4.28279633979400E-11  3.74385662545913E-02
 cg2d: Sum(rhs),rhsMax =  -4.20709023174481E-11  3.81483941517470E-02
 cg2d: Sum(rhs),rhsMax =  -4.13720169234466E-11  3.88466393643319E-02
 cg2d: Sum(rhs),rhsMax =  -4.07259781454172E-11  3.95327172127351E-02
 cg2d: Sum(rhs),rhsMax =  -4.01003674710410E-11  4.02060433904633E-02
 cg2d: Sum(rhs),rhsMax =  -3.94747567966647E-11  4.08660351098467E-02
 cg2d: Sum(rhs),rhsMax =  -3.89116516785748E-11  4.15121122477699E-02
 cg2d: Sum(rhs),rhsMax =  -3.83734155562365E-11  4.21436984890440E-02
 cg2d: Sum(rhs),rhsMax =  -3.78539422030144E-11  4.27602224659015E-02
 cg2d: Sum(rhs),rhsMax =  -3.73548969534454E-11  4.33611188928046E-02
 cg2d: Sum(rhs),rhsMax =  -3.68808317219305E-11  4.39458296955334E-02
 cg2d: Sum(rhs),rhsMax =  -3.64267505048588E-11  4.45138051334467E-02
 cg2d: Sum(rhs),rhsMax =  -3.60603769067325E-11  4.50645049135485E-02
 cg2d: Sum(rhs),rhsMax =  -3.57146534568642E-11  4.55973992945901E-02
 cg2d: Sum(rhs),rhsMax =  -3.53500562155773E-11  4.61119701789067E-02
 cg2d: Sum(rhs),rhsMax =  -3.50262041592941E-11  4.66077121891332E-02
 cg2d: Sum(rhs),rhsMax =  -3.47045725490602E-11  4.70841337265814E-02
 cg2d: Sum(rhs),rhsMax =  -3.43889361431593E-11  4.75407580074338E-02
 cg2d: Sum(rhs),rhsMax =  -3.41238148848788E-11  4.79771240714466E-02
 cg2d: Sum(rhs),rhsMax =  -3.38606920280426E-11  4.83927877601257E-02
 cg2d: Sum(rhs),rhsMax =  -3.36056737992863E-11  4.87873226599660E-02
 cg2d: Sum(rhs),rhsMax =  -3.33523209050668E-11  4.91603210064491E-02
 cg2d: Sum(rhs),rhsMax =  -3.31705773959357E-11  4.95113945439265E-02
 cg2d: Sum(rhs),rhsMax =  -3.29672955601268E-11  4.98401753388925E-02
 cg2d: Sum(rhs),rhsMax =  -3.27967653035444E-11  5.01463165449093E-02
 cg2d: Sum(rhs),rhsMax =  -3.26486615520594E-11  5.04294931135452E-02
 cg2d: Sum(rhs),rhsMax =  -3.24683613328602E-11  5.06894024506509E-02
 cg2d: Sum(rhs),rhsMax =  -3.23027160575862E-11  5.09257650124331E-02
 cg2d: Sum(rhs),rhsMax =  -3.21929150004507E-11  5.11383248405964E-02
 cg2d: Sum(rhs),rhsMax =  -3.20964366196108E-11  5.13268500372295E-02
 cg2d: Sum(rhs),rhsMax =  -3.20049542423817E-11  5.14911331776220E-02
 cg2d: Sum(rhs),rhsMax =  -3.19284598759850E-11  5.16309916596968E-02
 cg2d: Sum(rhs),rhsMax =  -3.18802761967163E-11  5.17462679883873E-02
 cg2d: Sum(rhs),rhsMax =  -3.18112203245846E-11  5.18368299941738E-02
 cg2d: Sum(rhs),rhsMax =  -3.17949000461226E-11  5.19025709855255E-02
 cg2d: Sum(rhs),rhsMax =  -3.17871284849502E-11  5.19434098354996E-02
 cg2d: Sum(rhs),rhsMax =  -3.17773585223335E-11  5.19592910032464E-02
 cg2d: Sum(rhs),rhsMax =  -3.18243209562752E-11  5.19501844917622E-02
 cg2d: Sum(rhs),rhsMax =  -3.18816084643458E-11  5.19160857437186E-02
 cg2d: Sum(rhs),rhsMax =  -3.19878568078025E-11  5.18570154775550E-02
 cg2d: Sum(rhs),rhsMax =  -3.21044302253881E-11  5.17730194671409E-02
 cg2d: Sum(rhs),rhsMax =  -3.22338822300594E-11  5.16641682668810E-02
 cg2d: Sum(rhs),rhsMax =  -3.23966409254695E-11  5.15305568921985E-02
 cg2d: Sum(rhs),rhsMax =  -3.25853788396557E-11  5.13723044541482E-02
 cg2d: Sum(rhs),rhsMax =  -3.27632365682007E-11  5.11895537509208E-02
 cg2d: Sum(rhs),rhsMax =  -3.28367333324309E-11  5.09824708221751E-02
 cg2d: Sum(rhs),rhsMax =  -3.28942428851065E-11  5.07512444697411E-02
 cg2d: Sum(rhs),rhsMax =  -3.29379856722767E-11  5.04960857472273E-02
 cg2d: Sum(rhs),rhsMax =  -3.30889760036257E-11  5.02172274187487E-02
 cg2d: Sum(rhs),rhsMax =  -3.32598393271155E-11  4.99149233882549E-02
 cg2d: Sum(rhs),rhsMax =  -3.34037242311069E-11  4.95894480988315E-02
 cg2d: Sum(rhs),rhsMax =  -3.35935723683178E-11  4.92410959005924E-02
 cg2d: Sum(rhs),rhsMax =  -3.37813110817820E-11  4.88701803852924E-02
 cg2d: Sum(rhs),rhsMax =  -3.39936967463927E-11  4.84770336857790E-02
 cg2d: Sum(rhs),rhsMax =  -3.41942030246400E-11  4.80620057387438E-02
 cg2d: Sum(rhs),rhsMax =  -3.44495543203038E-11  4.76254635097703E-02
 cg2d: Sum(rhs),rhsMax =  -3.47131212663498E-11  4.71677901806302E-02
 cg2d: Sum(rhs),rhsMax =  -3.49529294396689E-11  4.66893843002664E-02
 cg2d: Sum(rhs),rhsMax =  -3.52351481325286E-11  4.61906589026569E-02
 cg2d: Sum(rhs),rhsMax =  -3.55455664902138E-11  4.56720405952653E-02
 cg2d: Sum(rhs),rhsMax =  -3.59180463149755E-11  4.51339686237278E-02
 cg2d: Sum(rhs),rhsMax =  -3.63072905074091E-11  4.45768939193953E-02
 cg2d: Sum(rhs),rhsMax =  -3.67409436208277E-11  4.40012781346458E-02
 cg2d: Sum(rhs),rhsMax =  -3.71901398565910E-11  4.34075926816076E-02
 cg2d: Sum(rhs),rhsMax =  -3.76904063514871E-11  4.27963177749085E-02
 cg2d: Sum(rhs),rhsMax =  -3.81692455420080E-11  4.21679414857763E-02
 cg2d: Sum(rhs),rhsMax =  -3.86994880585689E-11  4.15229588140801E-02
 cg2d: Sum(rhs),rhsMax =  -3.92781362990036E-11  4.08618707838102E-02
 cg2d: Sum(rhs),rhsMax =  -3.98479027552412E-11  4.01851835660950E-02
 cg2d: Sum(rhs),rhsMax =  -4.04917210872213E-11  3.94934076324591E-02
 cg2d: Sum(rhs),rhsMax =  -4.11337630623620E-11  3.87870569398182E-02
 cg2d: Sum(rhs),rhsMax =  -4.18637347010531E-11  3.80666481477568E-02
 cg2d: Sum(rhs),rhsMax =  -4.26106927520209E-11  3.73326998693137E-02
 cg2d: Sum(rhs),rhsMax =  -4.33846292224871E-11  3.65857319529769E-02
 cg2d: Sum(rhs),rhsMax =  -4.42185177362830E-11  3.58262647925358E-02
 cg2d: Sum(rhs),rhsMax =  -4.51084725128226E-11  3.50548186675375E-02
 cg2d: Sum(rhs),rhsMax =  -4.60110838318428E-11  3.42719131151272E-02
 cg2d: Sum(rhs),rhsMax =  -4.70276040331896E-11  3.34780663321875E-02
 cg2d: Sum(rhs),rhsMax =  -4.81511497341103E-11  3.26737946069868E-02
 cg2d: Sum(rhs),rhsMax =  -4.93155516423371E-11  3.18596117801148E-02
 cg2d: Sum(rhs),rhsMax =  -5.05809838458049E-11  3.10360287350247E-02
 cg2d: Sum(rhs),rhsMax =  -5.19631004891608E-11  3.02035529188530E-02
 cg2d: Sum(rhs),rhsMax =  -5.34101651794572E-11  2.93626878943183E-02
 cg2d: Sum(rhs),rhsMax =  -5.49349454814774E-11  2.85139329234861E-02
 cg2d: Sum(rhs),rhsMax =  -5.65959501486191E-11  2.76577825840924E-02
 cg2d: Sum(rhs),rhsMax =  -5.83941783816044E-11  2.67947264190156E-02
 cg2d: Sum(rhs),rhsMax =  -6.03046501623794E-11  2.59252486193851E-02
 cg2d: Sum(rhs),rhsMax =  -6.23450180370355E-11  2.50498277417224E-02
 cg2d: Sum(rhs),rhsMax =  -6.45483666517066E-11  2.41689364594227E-02
 cg2d: Sum(rhs),rhsMax =  -6.69369004668852E-11  2.32830413487683E-02
 cg2d: Sum(rhs),rhsMax =  -6.95309365639218E-11  2.23926027095328E-02
 cg2d: Sum(rhs),rhsMax =  -7.23479054443033E-11  2.14980744200633E-02
 cg2d: Sum(rhs),rhsMax =  -7.54271090031011E-11  2.05999038265559E-02
(PID.TID 0000.0001)      cg2d_init_res =   2.13976577934566E-01
(PID.TID 0000.0001)      cg2d_iters(min,last) =      -1      39
(PID.TID 0000.0001)      cg2d_last_res =   8.49479231450433E-14
(PID.TID 0000.0001) // =======================================================
(PID.TID 0000.0001) // Begin MONITOR dynamic field statistics
(PID.TID 0000.0001) // =======================================================
(PID.TID 0000.0001) %MON time_tsnumber                =                  1920
(PID.TID 0000.0001) %MON time_secondsf                =   2.8800000000000E+04
(PID.TID 0000.0001) %MON dynstat_eta_max              =   3.5737187723847E-03
(PID.TID 0000.0001) %MON dynstat_eta_min              =  -3.6211736369852E-03
(PID.TID 0000.0001) %MON dynstat_eta_mean             =   3.4221570478561E-15
(PID.TID 0000.0001) %MON dynstat_eta_sd               =   2.5940667493851E-03
(PID.TID 0000.0001) %MON dynstat_eta_del2             =   1.6085968037401E-06
(PID.TID 0000.0001) %MON dynstat_uvel_max             =   4.3326959635009E-01
(PID.TID 0000.0001) %MON dynstat_uvel_min             =  -4.4676072987201E-01
(PID.TID 0000.0001) %MON dynstat_uvel_mean            =   1.1424643351106E-01
(PID.TID 0000.0001) %MON dynstat_uvel_sd              =   2.5660450529154E-02
(PID.TID 0000.0001) %MON dynstat_uvel_del2            =   8.7644999062431E-05
(PID.TID 0000.0001) %MON dynstat_vvel_max             =   0.0000000000000E+00
(PID.TID 0000.0001) %MON dynstat_vvel_min             =   0.0000000000000E+00
(PID.TID 0000.0001) %MON dynstat_vvel_mean            =   0.0000000000000E+00
(PID.TID 0000.0001) %MON dynstat_vvel_sd              =   0.0000000000000E+00
(PID.TID 0000.0001) %MON dynstat_vvel_del2            =   0.0000000000000E+00
(PID.TID 0000.0001) %MON dynstat_wvel_max             =   4.9048774452085E-03
(PID.TID 0000.0001) %MON dynstat_wvel_min             =  -5.6321293099921E-03
(PID.TID 0000.0001) %MON dynstat_wvel_mean            =   5.5126197919737E-21
(PID.TID 0000.0001) %MON dynstat_wvel_sd              =   3.1806304939096E-04
(PID.TID 0000.0001) %MON dynstat_wvel_del2            =   6.7551149337373E-06
(PID.TID 0000.0001) %MON dynstat_theta_max            =   1.5000000000007E+01
(PID.TID 0000.0001) %MON dynstat_theta_min            =   9.9999999999966E+00
(PID.TID 0000.0001) %MON dynstat_theta_mean           =   1.4047649904365E+01
(PID.TID 0000.0001) %MON dynstat_theta_sd             =   1.8954457669186E+00
(PID.TID 0000.0001) %MON dynstat_theta_del2           =   3.4025885697374E-04
(PID.TID 0000.0001) %MON dynstat_salt_max             =   3.5000000000000E+01
(PID.TID 0000.0001) %MON dynstat_salt_min             =   3.5000000000000E+01
(PID.TID 0000.0001) %MON dynstat_salt_mean            =   3.5000000000000E+01
(PID.TID 0000.0001) %MON dynstat_salt_sd              =   3.0553337637684E-13
(PID.TID 0000.0001) %MON dynstat_salt_del2            =   0.0000000000000E+00
(PID.TID 0000.0001) %MON dynstat_sst_max              =   1.5000000000000E+01
(PID.TID 0000.0001) %MON dynstat_sst_min              =   1.5000000000000E+01
(PID.TID 0000.0001) %MON dynstat_sst_mean             =   1.5000000000000E+01
(PID.TID 0000.0001) %MON dynstat_sst_sd               =   1.4678342157586E-13
(PID.TID 0000.0001) %MON dynstat_sst_del2             =   5.0177234851037E-15
(PID.TID 0000.0001) %MON dynstat_sss_max              =   3.5000000000000E+01
(PID.TID 0000.0001) %MON dynstat_sss_min              =   3.5000000000000E+01
(PID.TID 0000.0001) %MON dynstat_sss_mean             =   3.5000000000000E+01
(PID.TID 0000.0001) %MON dynstat_sss_sd               =   2.8421709430404E-14
(PID.TID 0000.0001) %MON dynstat_sss_del2             =   0.0000000000000E+00
(PID.TID 0000.0001) %MON forcing_qnet_max             =   0.0000000000000E+00
(PID.TID 0000.0001) %MON forcing_qnet_min             =   0.0000000000000E+00
(PID.TID 0000.0001) %MON forcing_qnet_mean            =   0.0000000000000E+00
(PID.TID 0000.0001) %MON forcing_qnet_sd              =   0.0000000000000E+00
(PID.TID 0000.0001) %MON forcing_qnet_del2            =   0.0000000000000E+00
(PID.TID 0000.0001) %MON forcing_qsw_max              =   0.0000000000000E+00
(PID.TID 0000.0001) %MON forcing_qsw_min              =   0.0000000000000E+00
(PID.TID 0000.0001) %MON forcing_qsw_mean             =   0.0000000000000E+00
(PID.TID 0000.0001) %MON forcing_qsw_sd               =   0.0000000000000E+00
(PID.TID 0000.0001) %MON forcing_qsw_del2             =   0.0000000000000E+00
(PID.TID 0000.0001) %MON forcing_empmr_max            =   0.0000000000000E+00
(PID.TID 0000.0001) %MON forcing_empmr_min            =   0.0000000000000E+00
(PID.TID 0000.0001) %MON forcing_empmr_mean           =   0.0000000000000E+00
(PID.TID 0000.0001) %MON forcing_empmr_sd             =   0.0000000000000E+00
(PID.TID 0000.0001) %MON forcing_empmr_del2           =   0.0000000000000E+00
(PID.TID 0000.0001) %MON forcing_fu_max               =   0.0000000000000E+00
(PID.TID 0000.0001) %MON forcing_fu_min               =   0.0000000000000E+00
(PID.TID 0000.0001) %MON forcing_fu_mean              =   0.0000000000000E+00
(PID.TID 0000.0001) %MON forcing_fu_sd                =   0.0000000000000E+00
(PID.TID 0000.0001) %MON forcing_fu_del2              =   0.0000000000000E+00
(PID.TID 0000.0001) %MON forcing_fv_max               =   0.0000000000000E+00
(PID.TID 0000.0001) %MON forcing_fv_min               =   0.0000000000000E+00
(PID.TID 0000.0001) %MON forcing_fv_mean              =   0.0000000000000E+00
(PID.TID 0000.0001) %MON forcing_fv_sd                =   0.0000000000000E+00
(PID.TID 0000.0001) %MON forcing_fv_del2              =   0.0000000000000E+00
(PID.TID 0000.0001) %MON advcfl_uvel_max              =   3.3507054740401E-02
(PID.TID 0000.0001) %MON advcfl_vvel_max              =   0.0000000000000E+00
(PID.TID 0000.0001) %MON advcfl_wvel_max              =   2.5256106777828E-02
(PID.TID 0000.0001) %MON advcfl_W_hf_max              =   3.3507054740401E-02
(PID.TID 0000.0001) %MON pe_b_mean                    =   1.6678062640218E-07
(PID.TID 0000.0001) %MON ke_max                       =   6.1433645611466E-02
(PID.TID 0000.0001) %MON ke_mean                      =   6.8600485968150E-03
(PID.TID 0000.0001) %MON ke_vol                       =   9.6656965507697E+10
(PID.TID 0000.0001) %MON vort_r_min                   =   0.0000000000000E+00
(PID.TID 0000.0001) %MON vort_r_max                   =   0.0000000000000E+00
(PID.TID 0000.0001) %MON vort_a_mean                  =   0.0000000000000E+00
(PID.TID 0000.0001) %MON vort_a_sd                    =   0.0000000000000E+00
(PID.TID 0000.0001) %MON vort_p_mean                  =   0.0000000000000E+00
(PID.TID 0000.0001) %MON vort_p_sd                    =   0.0000000000000E+00
(PID.TID 0000.0001) %MON surfExpan_theta_mean         =   5.3770579221711E-20
(PID.TID 0000.0001) %MON surfExpan_salt_mean          =   8.3332759140141E-20
(PID.TID 0000.0001) // =======================================================
(PID.TID 0000.0001) // End MONITOR dynamic field statistics
(PID.TID 0000.0001) // =======================================================
(PID.TID 0000.0001) // =======================================================
(PID.TID 0000.0001) // Begin OBCS MONITOR field statistics
(PID.TID 0000.0001) // =======================================================
(PID.TID 0000.0001) %MON obc_E_uVel_max               =   1.1205712828732E-01
(PID.TID 0000.0001) %MON obc_E_uVel_min               =   1.1205712828732E-01
(PID.TID 0000.0001) %MON obc_E_uVel_mean              =   1.1205712828732E-01
(PID.TID 0000.0001) %MON obc_E_uVel_sd                =   0.0000000000000E+00
(PID.TID 0000.0001) %MON obc_E_uVel_Int               =   1.1205712828732E+05
(PID.TID 0000.0001) %MON obc_W_uVel_max               =   1.1205712828732E-01
(PID.TID 0000.0001) %MON obc_W_uVel_min               =   1.1205712828732E-01
(PID.TID 0000.0001) %MON obc_W_uVel_mean              =   1.1205712828732E-01
(PID.TID 0000.0001) %MON obc_W_uVel_sd                =   0.0000000000000E+00
(PID.TID 0000.0001) %MON obc_W_uVel_Int               =   1.1205712828732E+05
(PID.TID 0000.0001) // =======================================================
(PID.TID 0000.0001) // End OBCS MONITOR field statistics
(PID.TID 0000.0001) // =======================================================
 cg2d: Sum(rhs),rhsMax =  -7.87989673511902E-11  1.96985316659194E-02
 cg2d: Sum(rhs),rhsMax =  -8.24905699303713E-11  1.87943920212748E-02
 cg2d: Sum(rhs),rhsMax =  -8.65952864970154E-11  1.78879123095161E-02
 cg2d: Sum(rhs),rhsMax =  -9.11843933693035E-11  1.69795132989083E-02
 cg2d: Sum(rhs),rhsMax =  -9.63188417912875E-11  1.60696091531013E-02
 cg2d: Sum(rhs),rhsMax =  -1.02093666853875E-10  1.51586075042298E-02
 cg2d: Sum(rhs),rhsMax =  -1.08530073816837E-10  1.42469095529378E-02
 cg2d: Sum(rhs),rhsMax =  -1.15931486632803E-10  1.33349101900779E-02
 cg2d: Sum(rhs),rhsMax =  -1.24385501898416E-10  1.24229981385691E-02
 cg2d: Sum(rhs),rhsMax =  -1.34216415759170E-10  1.15115561140795E-02
 cg2d: Sum(rhs),rhsMax =  -1.45669809548110E-10  1.06009610031653E-02
 cg2d: Sum(rhs),rhsMax =  -1.56716861710038E-10  9.84914458648312E-03
 cg2d: Sum(rhs),rhsMax =  -1.67820202179314E-10  9.19557523049142E-03
 cg2d: Sum(rhs),rhsMax =  -1.80644166292154E-10  8.53928359221699E-03
 cg2d: Sum(rhs),rhsMax =  -1.95660376789419E-10  7.88038729157728E-03
 cg2d: Sum(rhs),rhsMax =  -2.13477679977814E-10  7.21900901087572E-03
 cg2d: Sum(rhs),rhsMax =  -2.35010344518116E-10  6.55527697399154E-03
 cg2d: Sum(rhs),rhsMax =  -2.61469956797100E-10  5.88932540511225E-03
 cg2d: Sum(rhs),rhsMax =  -2.94882007700892E-10  5.22129496450907E-03
 cg2d: Sum(rhs),rhsMax =  -3.38197025939735E-10  4.55133315923450E-03
 cg2d: Sum(rhs),rhsMax =  -3.96675581271211E-10  3.87959472718519E-03
 cg2d: Sum(rhs),rhsMax =  -4.79922324103654E-10  3.20624199475188E-03
 cg2d: Sum(rhs),rhsMax =  -6.07737637992045E-10  2.53144520523213E-03
 cg2d: Sum(rhs),rhsMax =  -8.29033286464664E-10  1.85538281983481E-03
 cg2d: Sum(rhs),rhsMax =  -6.17639106526013E-10  2.49023441317121E-03
 cg2d: Sum(rhs),rhsMax =  -4.74435074560020E-10  3.24137409832498E-03
 cg2d: Sum(rhs),rhsMax =  -3.85000885338993E-10  3.99356536419225E-03
 cg2d: Sum(rhs),rhsMax =  -3.23358340104107E-10  4.75361581585045E-03
 cg2d: Sum(rhs),rhsMax =  -2.79094081179210E-10  5.50704329612360E-03
 cg2d: Sum(rhs),rhsMax =  -2.44929077020117E-10  6.27398831748279E-03
 cg2d: Sum(rhs),rhsMax =  -2.18377760319299E-10  7.03414423056003E-03
 cg2d: Sum(rhs),rhsMax =  -1.96884453185220E-10  7.79970986432155E-03
 cg2d: Sum(rhs),rhsMax =  -1.79269821209971E-10  8.56500587829664E-03
 cg2d: Sum(rhs),rhsMax =  -1.64425251192313E-10  9.33291792154510E-03
 cg2d: Sum(rhs),rhsMax =  -1.51872847631296E-10  1.01015934600707E-02
 cg2d: Sum(rhs),rhsMax =  -1.40962352901397E-10  1.08788560183098E-02
 cg2d: Sum(rhs),rhsMax =  -1.31644362078021E-10  1.16488817612127E-02
 cg2d: Sum(rhs),rhsMax =  -1.23523080652888E-10  1.24092798907677E-02
 cg2d: Sum(rhs),rhsMax =  -1.16421983165083E-10  1.31597540942538E-02
 cg2d: Sum(rhs),rhsMax =  -1.10106923578712E-10  1.39000097794242E-02
 cg2d: Sum(rhs),rhsMax =  -1.04539710221729E-10  1.46297542186087E-02
 cg2d: Sum(rhs),rhsMax =  -9.95536986181378E-11  1.53486967174776E-02
 cg2d: Sum(rhs),rhsMax =  -9.50555190115665E-11  1.60565488069960E-02
 cg2d: Sum(rhs),rhsMax =  -9.10226338746156E-11  1.67530244565507E-02
 cg2d: Sum(rhs),rhsMax =  -8.73586758487477E-11  1.74378403057520E-02
 cg2d: Sum(rhs),rhsMax =  -8.40632008447528E-11  1.81107159121153E-02
 cg2d: Sum(rhs),rhsMax =  -8.10476130652660E-11  1.87713740114297E-02
 cg2d: Sum(rhs),rhsMax =  -7.82727216375179E-11  1.94195407868079E-02
 cg2d: Sum(rhs),rhsMax =  -7.56390505785021E-11  2.00549461441063E-02
 cg2d: Sum(rhs),rhsMax =  -7.32784943835441E-11  2.06773239905621E-02
 cg2d: Sum(rhs),rhsMax =  -7.10660419400710E-11  2.12864125138986E-02
 cg2d: Sum(rhs),rhsMax =  -6.90349999388218E-11  2.18819544597938E-02
 cg2d: Sum(rhs),rhsMax =  -6.71509514660329E-11  2.24636974064334E-02
 cg2d: Sum(rhs),rhsMax =  -6.54192255922226E-11  2.30313940357797E-02
 cg2d: Sum(rhs),rhsMax =  -6.38340491576628E-11  2.35848024020962E-02
 cg2d: Sum(rhs),rhsMax =  -6.23070484095933E-11  2.41236861991150E-02
 cg2d: Sum(rhs),rhsMax =  -6.09411410223970E-11  2.46478150279518E-02
 cg2d: Sum(rhs),rhsMax =  -5.96673821462446E-11  2.51569646683846E-02
 cg2d: Sum(rhs),rhsMax =  -5.83815218391237E-11  2.56509173563511E-02
 cg2d: Sum(rhs),rhsMax =  -5.72801805986956E-11  2.61294620704304E-02
 cg2d: Sum(rhs),rhsMax =  -5.63007418463712E-11  2.65923948300674E-02
 cg2d: Sum(rhs),rhsMax =  -5.54601919944275E-11  2.70395190060767E-02
 cg2d: Sum(rhs),rhsMax =  -5.46754863606225E-11  2.74706456438781E-02
 cg2d: Sum(rhs),rhsMax =  -5.39643885133501E-11  2.78855937992707E-02
 cg2d: Sum(rhs),rhsMax =  -5.33293409432645E-11  2.82841908841934E-02
 cg2d: Sum(rhs),rhsMax =  -5.26209076312512E-11  2.86662730184454E-02
 cg2d: Sum(rhs),rhsMax =  -5.20318232943850E-11  2.90316853820685E-02
 cg2d: Sum(rhs),rhsMax =  -5.14898124137630E-11  2.93802825621591E-02
 cg2d: Sum(rhs),rhsMax =  -5.10349540405741E-11  2.97119288873325E-02
 cg2d: Sum(rhs),rhsMax =  -5.05702146824660E-11  3.00264987419016E-02
 cg2d: Sum(rhs),rhsMax =  -5.01346741899056E-11  3.03238768554869E-02
 cg2d: Sum(rhs),rhsMax =  -4.97570873392306E-11  3.06039585630116E-02
 cg2d: Sum(rhs),rhsMax =  -4.94098095771278E-11  3.08666500282614E-02
 cg2d: Sum(rhs),rhsMax =  -4.90923968143875E-11  3.11118684291534E-02
 cg2d: Sum(rhs),rhsMax =  -4.88200591064469E-11  3.13395421036930E-02
 cg2d: Sum(rhs),rhsMax =  -4.85714801712334E-11  3.15496106601361E-02
 cg2d: Sum(rhs),rhsMax =  -4.83381112914572E-11  3.17420250459941E-02
 cg2d: Sum(rhs),rhsMax =  -4.81237272254020E-11  3.19167475856925E-02
 cg2d: Sum(rhs),rhsMax =  -4.79757344962195E-11  3.20737519904469E-02
 cg2d: Sum(rhs),rhsMax =  -4.78278527893394E-11  3.22130233439298E-02
 cg2d: Sum(rhs),rhsMax =  -4.77289319178453E-11  3.23345580670269E-02
 cg2d: Sum(rhs),rhsMax =  -4.76123585002597E-11  3.24383638645456E-02
 cg2d: Sum(rhs),rhsMax =  -4.75312011971596E-11  3.25244596560465E-02
 cg2d: Sum(rhs),rhsMax =  -4.74862371646623E-11  3.25928754920391E-02
 cg2d: Sum(rhs),rhsMax =  -4.74258410321227E-11  3.26436524557755E-02
 cg2d: Sum(rhs),rhsMax =  -4.74354999724369E-11  3.26768425499253E-02
 cg2d: Sum(rhs),rhsMax =  -4.74523753624112E-11  3.26925085669709E-02
 cg2d: Sum(rhs),rhsMax =  -4.74855710308475E-11  3.26907239407779E-02
 cg2d: Sum(rhs),rhsMax =  -4.75467443195043E-11  3.26715725776891E-02
 cg2d: Sum(rhs),rhsMax =  -4.75798289656382E-11  3.26351486656235E-02
 cg2d: Sum(rhs),rhsMax =  -4.76779726810150E-11  3.25815564602946E-02
 cg2d: Sum(rhs),rhsMax =  -4.77856643144037E-11  3.25109100477404E-02
 cg2d: Sum(rhs),rhsMax =  -4.79011275089647E-11  3.24233330817368E-02
 cg2d: Sum(rhs),rhsMax =  -4.80835371519106E-11  3.23189585013859E-02
 cg2d: Sum(rhs),rhsMax =  -4.82821560510160E-11  3.21979282285863E-02
 cg2d: Sum(rhs),rhsMax =  -4.85282924955754E-11  3.20603928460405E-02
 cg2d: Sum(rhs),rhsMax =  -4.87764273415792E-11  3.19065112589280E-02
 cg2d: Sum(rhs),rhsMax =  -4.90711915546171E-11  3.17364503421369E-02
 cg2d: Sum(rhs),rhsMax =  -4.94362328851139E-11  3.15503845767508E-02
 cg2d: Sum(rhs),rhsMax =  -4.98000529702836E-11  3.13484956777416E-02
 cg2d: Sum(rhs),rhsMax =  -5.01937380548156E-11  3.11309722142239E-02
 cg2d: Sum(rhs),rhsMax =  -5.06384933984805E-11  3.08980092236506E-02
 cg2d: Sum(rhs),rhsMax =  -5.11334308228584E-11  3.06498078188730E-02
 cg2d: Sum(rhs),rhsMax =  -5.16905407366153E-11  3.03865747891089E-02
 cg2d: Sum(rhs),rhsMax =  -5.22040188855044E-11  3.01085221951678E-02
 cg2d: Sum(rhs),rhsMax =  -5.28033172741971E-11  2.98158669587678E-02
 cg2d: Sum(rhs),rhsMax =  -5.34604582824727E-11  2.95088304459170E-02
 cg2d: Sum(rhs),rhsMax =  -5.41479083793206E-11  2.91876380444340E-02
 cg2d: Sum(rhs),rhsMax =  -5.48528999999576E-11  2.88525187361360E-02
 cg2d: Sum(rhs),rhsMax =  -5.56539259122246E-11  2.85037046647498E-02
 cg2d: Sum(rhs),rhsMax =  -5.63952218257668E-11  2.81414307011010E-02
 cg2d: Sum(rhs),rhsMax =  -5.72166758416870E-11  2.77659340075344E-02
 cg2d: Sum(rhs),rhsMax =  -5.81015235923132E-11  2.73774536036034E-02
 cg2d: Sum(rhs),rhsMax =  -5.90102411379689E-11  2.69762299356764E-02
 cg2d: Sum(rhs),rhsMax =  -5.99866822881268E-11  2.65625044532598E-02
 cg2d: Sum(rhs),rhsMax =  -6.10401729161936E-11  2.61365191937626E-02
 cg2d: Sum(rhs),rhsMax =  -6.21415141566217E-11  2.56985163781017E-02
 cg2d: Sum(rhs),rhsMax =  -6.33132435368111E-11  2.52487380193793E-02
 cg2d: Sum(rhs),rhsMax =  -6.45722364467360E-11  2.47874255466123E-02
 cg2d: Sum(rhs),rhsMax =  -6.58801901920469E-11  2.43148194451863E-02
 cg2d: Sum(rhs),rhsMax =  -6.73102684700666E-11  2.38311589154877E-02
 cg2d: Sum(rhs),rhsMax =  -6.87883083827501E-11  2.33366815509615E-02
 cg2d: Sum(rhs),rhsMax =  -7.04261093886771E-11  2.28316230366799E-02
 cg2d: Sum(rhs),rhsMax =  -7.21163129213664E-11  2.23162168693982E-02
 cg2d: Sum(rhs),rhsMax =  -7.39271976968325E-11  2.17906941000172E-02
 cg2d: Sum(rhs),rhsMax =  -7.58829665770122E-11  2.12552830993351E-02
 cg2d: Sum(rhs),rhsMax =  -7.79626363467401E-11  2.07102093478157E-02
 cg2d: Sum(rhs),rhsMax =  -8.01835264852002E-11  2.01556952495349E-02
 cg2d: Sum(rhs),rhsMax =  -8.26065882364446E-11  1.95919599738620E-02
 cg2d: Sum(rhs),rhsMax =  -8.52100612291906E-11  1.90192193229309E-02
 cg2d: Sum(rhs),rhsMax =  -8.80012729354007E-11  1.84376856255947E-02
 cg2d: Sum(rhs),rhsMax =  -9.10115316443694E-11  1.78475676584627E-02
 cg2d: Sum(rhs),rhsMax =  -9.43232159045237E-11  1.72490705944508E-02
 cg2d: Sum(rhs),rhsMax =  -9.79052394711744E-11  1.66423959790041E-02
 cg2d: Sum(rhs),rhsMax =  -1.01705754929071E-10  1.60277417339429E-02
 cg2d: Sum(rhs),rhsMax =  -1.05916941883777E-10  1.54053021886536E-02
 cg2d: Sum(rhs),rhsMax =  -1.10462083924290E-10  1.47752681374024E-02
 cg2d: Sum(rhs),rhsMax =  -1.15532472477753E-10  1.41378269229041E-02
 cg2d: Sum(rhs),rhsMax =  -1.21144205778023E-10  1.34931625452481E-02
 cg2d: Sum(rhs),rhsMax =  -1.27421295736951E-10  1.28414557951911E-02
 cg2d: Sum(rhs),rhsMax =  -1.34374844584784E-10  1.21828844108018E-02
 cg2d: Sum(rhs),rhsMax =  -1.42275968784134E-10  1.15176232564874E-02
 cg2d: Sum(rhs),rhsMax =  -1.51215928667625E-10  1.08458445248197E-02
 cg2d: Sum(rhs),rhsMax =  -1.61439195345281E-10  1.01677179563819E-02
 cg2d: Sum(rhs),rhsMax =  -1.73208669629332E-10  9.48341107985211E-03
 cg2d: Sum(rhs),rhsMax =  -1.86875070973258E-10  8.79308947180922E-03
 cg2d: Sum(rhs),rhsMax =  -2.02992289644044E-10  8.09691703522448E-03
 cg2d: Sum(rhs),rhsMax =  -2.22355023282717E-10  7.39505629456223E-03
 cg2d: Sum(rhs),rhsMax =  -2.45903741813436E-10  6.68766870793968E-03
 cg2d: Sum(rhs),rhsMax =  -2.75330536148033E-10  5.97491499545914E-03
 cg2d: Sum(rhs),rhsMax =  -3.13016945696631E-10  5.25695548277935E-03
 cg2d: Sum(rhs),rhsMax =  -3.63039487361050E-10  4.53395045889243E-03
 cg2d: Sum(rhs),rhsMax =  -4.32474278611039E-10  3.80606054695141E-03
 cg2d: Sum(rhs),rhsMax =  -5.35612165730726E-10  3.07344708682364E-03
 cg2d: Sum(rhs),rhsMax =  -7.04683381091975E-10  2.33627252784495E-03
 cg2d: Sum(rhs),rhsMax =  -8.32926116967059E-10  1.97678738813191E-03
 cg2d: Sum(rhs),rhsMax =  -7.51209427996002E-10  2.19207728754407E-03
 cg2d: Sum(rhs),rhsMax =  -6.70113409206863E-10  2.45783658105890E-03
 cg2d: Sum(rhs),rhsMax =  -5.33191157892077E-10  3.08936277546915E-03
 cg2d: Sum(rhs),rhsMax =  -4.41266578832256E-10  3.73308254413089E-03
 cg2d: Sum(rhs),rhsMax =  -3.75590669676740E-10  4.38681426404160E-03
 cg2d: Sum(rhs),rhsMax =  -3.26307425524419E-10  5.04992350335322E-03
 cg2d: Sum(rhs),rhsMax =  -2.87724843950343E-10  5.72764026345261E-03
 cg2d: Sum(rhs),rhsMax =  -2.57023957672686E-10  6.41448285389288E-03
 cg2d: Sum(rhs),rhsMax =  -2.31837438136040E-10  7.11352571505637E-03
 cg2d: Sum(rhs),rhsMax =  -2.10804707023726E-10  7.82660011457274E-03
 cg2d: Sum(rhs),rhsMax =  -1.93136617809841E-10  8.54367786329894E-03
 cg2d: Sum(rhs),rhsMax =  -1.78316028609515E-10  9.25770500775779E-03
 cg2d: Sum(rhs),rhsMax =  -1.65690128284268E-10  9.96840094307377E-03
 cg2d: Sum(rhs),rhsMax =  -1.54767754168006E-10  1.06754880398702E-02
 cg2d: Sum(rhs),rhsMax =  -1.45226941583587E-10  1.13786915499756E-02
 cg2d: Sum(rhs),rhsMax =  -1.36894051649961E-10  1.20777395137195E-02
 cg2d: Sum(rhs),rhsMax =  -1.29507182755617E-10  1.27723626700770E-02
 cg2d: Sum(rhs),rhsMax =  -1.22914567413090E-10  1.34622943713044E-02
 cg2d: Sum(rhs),rhsMax =  -1.16962883822680E-10  1.41472705029169E-02
 cg2d: Sum(rhs),rhsMax =  -1.11659015367138E-10  1.48270294106515E-02
 cg2d: Sum(rhs),rhsMax =  -1.06932240839797E-10  1.55013118362422E-02
 cg2d: Sum(rhs),rhsMax =  -1.02605479668227E-10  1.61698608631617E-02
 cg2d: Sum(rhs),rhsMax =  -9.86755122056593E-11  1.68324218732273E-02
 cg2d: Sum(rhs),rhsMax =  -9.50717282677260E-11  1.74887425146406E-02
 cg2d: Sum(rhs),rhsMax =  -9.17592668514544E-11  1.81385726816376E-02
 cg2d: Sum(rhs),rhsMax =  -8.87028228646614E-11  1.87816645055021E-02
 cg2d: Sum(rhs),rhsMax =  -8.58637605460899E-11  1.94177723562986E-02
 cg2d: Sum(rhs),rhsMax =  -8.27617974152872E-11  2.01625212513219E-02
 cg2d: Sum(rhs),rhsMax =  -7.97805155272613E-11  2.09398728853784E-02
 cg2d: Sum(rhs),rhsMax =  -7.70011832074147E-11  2.17142360631581E-02
 cg2d: Sum(rhs),rhsMax =  -7.44272421471237E-11  2.24852472815635E-02
 cg2d: Sum(rhs),rhsMax =  -7.20250525887423E-11  2.32525354715103E-02
 cg2d: Sum(rhs),rhsMax =  -6.98263669107746E-11  2.40157222412693E-02
 cg2d: Sum(rhs),rhsMax =  -6.77323752640291E-11  2.47744221479888E-02
 cg2d: Sum(rhs),rhsMax =  -6.57938148407311E-11  2.55282429968588E-02
 cg2d: Sum(rhs),rhsMax =  -6.39851505113143E-11  2.62767861673939E-02
 cg2d: Sum(rhs),rhsMax =  -6.22539797490163E-11  2.70196469663291E-02
 cg2d: Sum(rhs),rhsMax =  -6.06724670504377E-11  2.77564150066440E-02
 cg2d: Sum(rhs),rhsMax =  -5.91570126218244E-11  2.84866746122418E-02
 cg2d: Sum(rhs),rhsMax =  -5.77460301798283E-11  2.92100052477977E-02
 cg2d: Sum(rhs),rhsMax =  -5.64305269179499E-11  2.99259819732347E-02
 cg2d: Sum(rhs),rhsMax =  -5.52146106613804E-11  3.06341759221813E-02
 cg2d: Sum(rhs),rhsMax =  -5.40775202395594E-11  3.13341548033885E-02
 cg2d: Sum(rhs),rhsMax =  -5.29902788315439E-11  3.20254834244511E-02
 cg2d: Sum(rhs),rhsMax =  -5.19606579985066E-11  3.27077242363722E-02
 cg2d: Sum(rhs),rhsMax =  -5.10116393570570E-11  3.33804378975588E-02
 cg2d: Sum(rhs),rhsMax =  -5.01203523128879E-11  3.40431838546352E-02
 cg2d: Sum(rhs),rhsMax =  -4.92609286695256E-11  3.46955209380564E-02
 cg2d: Sum(rhs),rhsMax =  -4.83911799520342E-11  3.53370079702907E-02
 cg2d: Sum(rhs),rhsMax =  -4.76698680529353E-11  3.59672043842694E-02
 cg2d: Sum(rhs),rhsMax =  -4.69076999465301E-11  3.65856708499517E-02
 cg2d: Sum(rhs),rhsMax =  -4.61919391625543E-11  3.71919699072689E-02
 cg2d: Sum(rhs),rhsMax =  -4.55019355527497E-11  3.77856666043778E-02
 cg2d: Sum(rhs),rhsMax =  -4.48937553798601E-11  3.83663291410061E-02
 cg2d: Sum(rhs),rhsMax =  -4.42590408766819E-11  3.89335295176109E-02
 cg2d: Sum(rhs),rhsMax =  -4.36952696247772E-11  3.94868441919761E-02
 cg2d: Sum(rhs),rhsMax =  -4.31891189478506E-11  4.00258547456006E-02
 cg2d: Sum(rhs),rhsMax =  -4.26616519888512E-11  4.05501485626305E-02
 cg2d: Sum(rhs),rhsMax =  -4.21976897868603E-11  4.10593195240437E-02
 cg2d: Sum(rhs),rhsMax =  -4.17058609869514E-11  4.15529687192043E-02
 cg2d: Sum(rhs),rhsMax =  -4.12869738397603E-11  4.20307051758909E-02
 cg2d: Sum(rhs),rhsMax =  -4.08825195918894E-11  4.24921466081736E-02
 cg2d: Sum(rhs),rhsMax =  -4.05568911787668E-11  4.29369201781084E-02
 cg2d: Sum(rhs),rhsMax =  -4.02274880073605E-11  4.33646632671639E-02
 cg2d: Sum(rhs),rhsMax =  -3.99094091108054E-11  4.37750242501130E-02
 cg2d: Sum(rhs),rhsMax =  -3.96056520912680E-11  4.41676632617728E-02
 cg2d: Sum(rhs),rhsMax =  -3.93042265400823E-11  4.45422529443191E-02
 cg2d: Sum(rhs),rhsMax =  -3.90786292214784E-11  4.48984791664070E-02
 cg2d: Sum(rhs),rhsMax =  -3.88347132229683E-11  4.52360417010994E-02
 cg2d: Sum(rhs),rhsMax =  -3.85835807747981E-11  4.55546548511910E-02
 cg2d: Sum(rhs),rhsMax =  -3.83745257792611E-11  4.58540480152682E-02
 cg2d: Sum(rhs),rhsMax =  -3.81690234974030E-11  4.61339661829722E-02
 cg2d: Sum(rhs),rhsMax =  -3.79852815868276E-11  4.63941703612925E-02
 cg2d: Sum(rhs),rhsMax =  -3.78201914230658E-11  4.66344379316140E-02
 cg2d: Sum(rhs),rhsMax =  -3.76921827083265E-11  4.68545629399473E-02
 cg2d: Sum(rhs),rhsMax =  -3.75780517813951E-11  4.70543563251905E-02
 cg2d: Sum(rhs),rhsMax =  -3.74319464313544E-11  4.72336460922456E-02
 cg2d: Sum(rhs),rhsMax =  -3.73093778094358E-11  4.73922774380497E-02
 cg2d: Sum(rhs),rhsMax =  -3.72530895020873E-11  4.75301128388871E-02
 cg2d: Sum(rhs),rhsMax =  -3.71395136866681E-11  4.76470321071818E-02
 cg2d: Sum(rhs),rhsMax =  -3.70822261785975E-11  4.77429324246169E-02
 cg2d: Sum(rhs),rhsMax =  -3.69998476301703E-11  4.78177283568347E-02
 cg2d: Sum(rhs),rhsMax =  -3.69654307164069E-11  4.78713518535320E-02
 cg2d: Sum(rhs),rhsMax =  -3.69807517941467E-11  4.79037522355851E-02
 cg2d: Sum(rhs),rhsMax =  -3.70237174251997E-11  4.79148961682068E-02
 cg2d: Sum(rhs),rhsMax =  -3.70710129260488E-11  4.79047676220535E-02
 cg2d: Sum(rhs),rhsMax =  -3.71395136866681E-11  4.78733678195880E-02
 cg2d: Sum(rhs),rhsMax =  -3.72278874394283E-11  4.78207151631045E-02
 cg2d: Sum(rhs),rhsMax =  -3.74373865241751E-11  4.77468451416614E-02
 cg2d: Sum(rhs),rhsMax =  -3.74807962444379E-11  4.76518102142316E-02
 cg2d: Sum(rhs),rhsMax =  -3.74644759659759E-11  4.75356796680730E-02
 cg2d: Sum(rhs),rhsMax =  -3.75125486229422E-11  4.73985394519195E-02
 cg2d: Sum(rhs),rhsMax =  -3.75364184179716E-11  4.72404919817779E-02
 cg2d: Sum(rhs),rhsMax =  -3.75776076921852E-11  4.70616559197051E-02
 cg2d: Sum(rhs),rhsMax =  -3.76970676896349E-11  4.68621659267867E-02
 cg2d: Sum(rhs),rhsMax =  -3.78391762367869E-11  4.66421723911469E-02
 cg2d: Sum(rhs),rhsMax =  -3.79786202486798E-11  4.64018411321210E-02
 cg2d: Sum(rhs),rhsMax =  -3.81171760821530E-11  4.61413530822793E-02
 cg2d: Sum(rhs),rhsMax =  -3.83026943495679E-11  4.58609039491585E-02
 cg2d: Sum(rhs),rhsMax =  -3.85195209062772E-11  4.55607038583789E-02
 cg2d: Sum(rhs),rhsMax =  -3.86896070736498E-11  4.52409769800647E-02
 cg2d: Sum(rhs),rhsMax =  -3.89307475145984E-11  4.49019611405077E-02
 cg2d: Sum(rhs),rhsMax =  -3.91926491261074E-11  4.45439074209628E-02
 cg2d: Sum(rhs),rhsMax =  -3.94051458130207E-11  4.41670797453471E-02
 cg2d: Sum(rhs),rhsMax =  -3.97200050628044E-11  4.37717544584158E-02
 cg2d: Sum(rhs),rhsMax =  -3.99671407080859E-11  4.33582198957083E-02
 cg2d: Sum(rhs),rhsMax =  -4.02788913334007E-11  4.29267759461968E-02
 cg2d: Sum(rhs),rhsMax =  -4.06067401925725E-11  4.24777336081276E-02
 cg2d: Sum(rhs),rhsMax =  -4.10007583440120E-11  4.20114145380637E-02
 cg2d: Sum(rhs),rhsMax =  -4.14411838178808E-11  4.15281505926414E-02
 cg2d: Sum(rhs),rhsMax =  -4.18739487528796E-11  4.10282833620908E-02
 cg2d: Sum(rhs),rhsMax =  -4.23718837794240E-11  4.05121636942131E-02
 cg2d: Sum(rhs),rhsMax =  -4.28895807758067E-11  3.99801512070093E-02
 cg2d: Sum(rhs),rhsMax =  -4.34133839988249E-11  3.94326137876574E-02
 cg2d: Sum(rhs),rhsMax =  -4.39612790614774E-11  3.88699270820358E-02
 cg2d: Sum(rhs),rhsMax =  -4.45831149775699E-11  3.82924739695929E-02
 cg2d: Sum(rhs),rhsMax =  -4.51811921209355E-11  3.77006440246117E-02
 cg2d: Sum(rhs),rhsMax =  -4.58910687228808E-11  3.70948329661374E-02
 cg2d: Sum(rhs),rhsMax =  -4.65975036334498E-11  3.64754420999832E-02
 cg2d: Sum(rhs),rhsMax =  -4.73177053095242E-11  3.58428777571773E-02
 cg2d: Sum(rhs),rhsMax =  -4.81255035822414E-11  3.51975507339592E-02
 cg2d: Sum(rhs),rhsMax =  -4.89291940297676E-11  3.45398757389421E-02
 cg2d: Sum(rhs),rhsMax =  -4.97997199033762E-11  3.38702708532263E-02
 cg2d: Sum(rhs),rhsMax =  -5.07396347160238E-11  3.31891570090066E-02
 cg2d: Sum(rhs),rhsMax =  -5.17308418324092E-11  3.24969574944050E-02
 cg2d: Sum(rhs),rhsMax =  -5.27642374237303E-11  3.17940974802236E-02
 cg2d: Sum(rhs),rhsMax =  -5.38494804303014E-11  3.10810035767726E-02
 cg2d: Sum(rhs),rhsMax =  -5.51252377078981E-11  3.03581034227654E-02
 cg2d: Sum(rhs),rhsMax =  -5.64618352072443E-11  2.96258253050770E-02
 cg2d: Sum(rhs),rhsMax =  -5.78457282074396E-11  2.88845978068533E-02
 cg2d: Sum(rhs),rhsMax =  -5.93458615583131E-11  2.81348494806916E-02
 cg2d: Sum(rhs),rhsMax =  -6.09410300000945E-11  2.73770085432504E-02
 cg2d: Sum(rhs),rhsMax =  -6.26273477521977E-11  2.66115025875762E-02
 cg2d: Sum(rhs),rhsMax =  -6.44704289953779E-11  2.58387583096257E-02
 cg2d: Sum(rhs),rhsMax =  -6.64379662396186E-11  2.50592012459167E-02
 cg2d: Sum(rhs),rhsMax =  -6.84908796344530E-11  2.42732555199250E-02
 cg2d: Sum(rhs),rhsMax =  -7.07484071327258E-11  2.34813435956842E-02
 cg2d: Sum(rhs),rhsMax =  -7.31796845343524E-11  2.26838860379419E-02
 cg2d: Sum(rhs),rhsMax =  -7.58133555933682E-11  2.18813012790685E-02
 cg2d: Sum(rhs),rhsMax =  -7.86322118528915E-11  2.10740053936150E-02
 cg2d: Sum(rhs),rhsMax =  -8.17086398541278E-11  2.02624118819044E-02
 cg2d: Sum(rhs),rhsMax =  -8.50662873475017E-11  1.94469314643053E-02
 cg2d: Sum(rhs),rhsMax =  -8.87098172697165E-11  1.86279718885546E-02
 cg2d: Sum(rhs),rhsMax =  -9.27472543210683E-11  1.78059377499167E-02
 cg2d: Sum(rhs),rhsMax =  -9.71352998035968E-11  1.69812303264933E-02
 cg2d: Sum(rhs),rhsMax =  -1.02018282710503E-10  1.61542474309912E-02
 cg2d: Sum(rhs),rhsMax =  -1.07409525718083E-10  1.53253832795727E-02
 cg2d: Sum(rhs),rhsMax =  -1.13541287483088E-10  1.44950283780911E-02
 cg2d: Sum(rhs),rhsMax =  -1.20395138303309E-10  1.36635694258236E-02
 cg2d: Sum(rhs),rhsMax =  -1.28173249791530E-10  1.28313892357491E-02
 cg2d: Sum(rhs),rhsMax =  -1.37030387037385E-10  1.19988666733307E-02
 cg2d: Sum(rhs),rhsMax =  -1.47184264776001E-10  1.11663766150190E-02
 cg2d: Sum(rhs),rhsMax =  -1.58982049747181E-10  1.03342899234029E-02
 cg2d: Sum(rhs),rhsMax =  -1.72847847146329E-10  9.50297343944891E-03
 cg2d: Sum(rhs),rhsMax =  -1.89315119136779E-10  8.67278999205664E-03
 cg2d: Sum(rhs),rhsMax =  -2.07549089026315E-10  7.90875529888505E-03
 cg2d: Sum(rhs),rhsMax =  -2.25624408045633E-10  7.27286564128618E-03
 cg2d: Sum(rhs),rhsMax =  -2.47244780204880E-10  6.63509607107782E-03
 cg2d: Sum(rhs),rhsMax =  -2.73501221670358E-10  5.99564673190613E-03
 cg2d: Sum(rhs),rhsMax =  -3.06141556549733E-10  5.35472199635420E-03
 cg2d: Sum(rhs),rhsMax =  -3.47790685140126E-10  4.71253057180545E-03
 cg2d: Sum(rhs),rhsMax =  -4.02796684895179E-10  4.06928560136409E-03
 cg2d: Sum(rhs),rhsMax =  -4.78513229040800E-10  3.42520476175555E-03
 cg2d: Sum(rhs),rhsMax =  -5.89413295948304E-10  2.78051035879859E-03
 cg2d: Sum(rhs),rhsMax =  -7.67328200979023E-10  2.13542942110483E-03
 cg2d: Sum(rhs),rhsMax =  -9.56105861149581E-10  1.71357056934080E-03
 cg2d: Sum(rhs),rhsMax =  -8.88731643833296E-10  1.84323985095094E-03
 cg2d: Sum(rhs),rhsMax =  -6.82613715552449E-10  2.39958759869257E-03
 cg2d: Sum(rhs),rhsMax =  -5.31578059348448E-10  3.08120747045898E-03
 cg2d: Sum(rhs),rhsMax =  -4.34196179011082E-10  3.77223026739607E-03
 cg2d: Sum(rhs),rhsMax =  -3.67029684422704E-10  4.46153215056774E-03
 cg2d: Sum(rhs),rhsMax =  -3.17744053290880E-10  5.15259954128760E-03
 cg2d: Sum(rhs),rhsMax =  -2.79896994470619E-10  5.84805644960809E-03
 cg2d: Sum(rhs),rhsMax =  -2.50260034917460E-10  6.53760327603619E-03
 cg2d: Sum(rhs),rhsMax =  -2.26005214543079E-10  7.23762351075337E-03
 cg2d: Sum(rhs),rhsMax =  -2.06193395690946E-10  7.92992358475201E-03
 cg2d: Sum(rhs),rhsMax =  -1.89341431422463E-10  8.63153207403061E-03
 cg2d: Sum(rhs),rhsMax =  -1.75144010405859E-10  9.33015865958165E-03
 cg2d: Sum(rhs),rhsMax =  -1.62832414218883E-10  1.00339072995638E-02
 cg2d: Sum(rhs),rhsMax =  -1.52253876173347E-10  1.07286390756507E-02
 cg2d: Sum(rhs),rhsMax =  -1.43038247912841E-10  1.14140862323459E-02
 cg2d: Sum(rhs),rhsMax =  -1.34890321135117E-10  1.20899849282007E-02
 cg2d: Sum(rhs),rhsMax =  -1.27773236435758E-10  1.27560752637433E-02
 cg2d: Sum(rhs),rhsMax =  -1.21412546683075E-10  1.34121013167097E-02
 cg2d: Sum(rhs),rhsMax =  -1.15740861339475E-10  1.40578111867733E-02
 cg2d: Sum(rhs),rhsMax =  -1.10640385742045E-10  1.46929570514649E-02
 cg2d: Sum(rhs),rhsMax =  -1.06051833981269E-10  1.53172952344616E-02
 cg2d: Sum(rhs),rhsMax =  -1.01889718884252E-10  1.59305862869441E-02
 cg2d: Sum(rhs),rhsMax =  -9.80739933709174E-11  1.65325950823370E-02
 cg2d: Sum(rhs),rhsMax =  -9.46400735557518E-11  1.71230909244511E-02
 cg2d: Sum(rhs),rhsMax =  -9.15010289759266E-11  1.77018476688382E-02
 cg2d: Sum(rhs),rhsMax =  -8.85198581102031E-11  1.82686438570028E-02
 cg2d: Sum(rhs),rhsMax =  -8.57756088379347E-11  1.88232628629884E-02
 cg2d: Sum(rhs),rhsMax =  -8.32711677389852E-11  1.93654930518602E-02
 cg2d: Sum(rhs),rhsMax =  -8.09421418779266E-11  1.98951279482474E-02
 cg2d: Sum(rhs),rhsMax =  -7.87897525000858E-11  2.04119664146154E-02
 cg2d: Sum(rhs),rhsMax =  -7.68229924119623E-11  2.09158128375381E-02
 cg2d: Sum(rhs),rhsMax =  -7.49292849988592E-11  2.14064773198027E-02
 cg2d: Sum(rhs),rhsMax =  -7.32337523956517E-11  2.18837758758038E-02
 cg2d: Sum(rhs),rhsMax =  -7.16537940093076E-11  2.23475306273895E-02
 cg2d: Sum(rhs),rhsMax =  -7.01732005836675E-11  2.27975699972964E-02
 cg2d: Sum(rhs),rhsMax =  -6.88064050180515E-11  2.32337288971243E-02
 cg2d: Sum(rhs),rhsMax =  -6.75225431123749E-11  2.36558489056176E-02
 cg2d: Sum(rhs),rhsMax =  -6.63130661493483E-11  2.40637784358039E-02
 cg2d: Sum(rhs),rhsMax =  -6.51984022326246E-11  2.44573728885777E-02
 cg2d: Sum(rhs),rhsMax =  -6.41895425701478E-11  2.48364947908675E-02
 cg2d: Sum(rhs),rhsMax =  -6.31555918673143E-11  2.52010139171960E-02
 cg2d: Sum(rhs),rhsMax =  -6.21565021674542E-11  2.55508073941770E-02
 cg2d: Sum(rhs),rhsMax =  -6.13037398622396E-11  2.58857597880512E-02
 cg2d: Sum(rhs),rhsMax =  -6.06015237991642E-11  2.62057631747308E-02
 cg2d: Sum(rhs),rhsMax =  -6.00057781241503E-11  2.65107171983349E-02
 cg2d: Sum(rhs),rhsMax =  -5.94058136016429E-11  2.68005291155184E-02
 cg2d: Sum(rhs),rhsMax =  -5.88555870706386E-11  2.70751138273645E-02
 cg2d: Sum(rhs),rhsMax =  -5.83669779175011E-11  2.73343939006495E-02
 cg2d: Sum(rhs),rhsMax =  -5.79666314948213E-11  2.75782995823635E-02
 cg2d: Sum(rhs),rhsMax =  -5.75252068202303E-11  2.78067688023543E-02
 cg2d: Sum(rhs),rhsMax =  -5.71502845048144E-11  2.80197471698377E-02
 cg2d: Sum(rhs),rhsMax =  -5.67784708138674E-11  2.82171879648121E-02
 cg2d: Sum(rhs),rhsMax =  -5.64611690734296E-11  2.83990521238491E-02
 cg2d: Sum(rhs),rhsMax =  -5.61874990978595E-11  2.85653082199448E-02
 cg2d: Sum(rhs),rhsMax =  -5.58965096431052E-11  2.87159324361334E-02
 cg2d: Sum(rhs),rhsMax =  -5.57174306692332E-11  2.88509085326269E-02
 cg2d: Sum(rhs),rhsMax =  -5.55100410082332E-11  2.89702278072726E-02
 cg2d: Sum(rhs),rhsMax =  -5.53522783164340E-11  2.90738890491117E-02
 cg2d: Sum(rhs),rhsMax =  -5.52459189506749E-11  2.91618984847970E-02
 cg2d: Sum(rhs),rhsMax =  -5.51358958489345E-11  2.92342697176063E-02
 cg2d: Sum(rhs),rhsMax =  -5.50369749774404E-11  2.92910236590076E-02
 cg2d: Sum(rhs),rhsMax =  -5.50485212968965E-11  2.93321884519896E-02
 cg2d: Sum(rhs),rhsMax =  -5.50364198659281E-11  2.93577993859150E-02
 cg2d: Sum(rhs),rhsMax =  -5.50695045120619E-11  2.93678988032612E-02
 cg2d: Sum(rhs),rhsMax =  -5.51028112028007E-11  2.93625359978924E-02
 cg2d: Sum(rhs),rhsMax =  -5.51546586180507E-11  2.93417671028451E-02
 cg2d: Sum(rhs),rhsMax =  -5.52284884491883E-11  2.93056549729714E-02
 cg2d: Sum(rhs),rhsMax =  -5.53491696919650E-11  2.92542690577306E-02
 cg2d: Sum(rhs),rhsMax =  -5.55118173650726E-11  2.91876852644022E-02
 cg2d: Sum(rhs),rhsMax =  -5.56755752612048E-11  2.91059858125087E-02
 cg2d: Sum(rhs),rhsMax =  -5.59233770403011E-11  2.90092590803169E-02
 cg2d: Sum(rhs),rhsMax =  -5.62004887072476E-11  2.88975994441860E-02
 cg2d: Sum(rhs),rhsMax =  -5.65058000390195E-11  2.87711071117432E-02
 cg2d: Sum(rhs),rhsMax =  -5.68112223930939E-11  2.86298879488297E-02
 cg2d: Sum(rhs),rhsMax =  -5.71676039839986E-11  2.84740533009037E-02
 cg2d: Sum(rhs),rhsMax =  -5.75607339570183E-11  2.83037198106574E-02
 cg2d: Sum(rhs),rhsMax =  -5.80325787424840E-11  2.81190092311676E-02
 cg2d: Sum(rhs),rhsMax =  -5.85067549963014E-11  2.79200482362523E-02
 cg2d: Sum(rhs),rhsMax =  -5.90288928847826E-11  2.77069682283841E-02
 cg2d: Sum(rhs),rhsMax =  -5.95986593410203E-11  2.74799051445560E-02
 cg2d: Sum(rhs),rhsMax =  -6.02079497369346E-11  2.72389992603909E-02
 cg2d: Sum(rhs),rhsMax =  -6.08689765257964E-11  2.69843949926772E-02
 cg2d: Sum(rhs),rhsMax =  -6.15613116039526E-11  2.67162407005434E-02
 cg2d: Sum(rhs),rhsMax =  -6.23148199707657E-11  2.64346884852894E-02
 cg2d: Sum(rhs),rhsMax =  -6.31297236708406E-11  2.61398939900878E-02
 cg2d: Sum(rhs),rhsMax =  -6.39839292659872E-11  2.58320161993598E-02
 cg2d: Sum(rhs),rhsMax =  -6.48481268683554E-11  2.55112172384129E-02
 cg2d: Sum(rhs),rhsMax =  -6.57476295629067E-11  2.51776621742563E-02
 cg2d: Sum(rhs),rhsMax =  -6.67382815677797E-11  2.48315188186912E-02
 cg2d: Sum(rhs),rhsMax =  -6.77675693339097E-11  2.44729575349248E-02
 cg2d: Sum(rhs),rhsMax =  -6.88901158341082E-11  2.41021510490829E-02
 cg2d: Sum(rhs),rhsMax =  -7.00427493782740E-11  2.37192742680954E-02
 cg2d: Sum(rhs),rhsMax =  -7.13025194443162E-11  2.33245041054578E-02
 cg2d: Sum(rhs),rhsMax =  -7.26264604011817E-11  2.29180193164040E-02
 cg2d: Sum(rhs),rhsMax =  -7.40439931590231E-11  2.25000003439636E-02
 cg2d: Sum(rhs),rhsMax =  -7.55758788884009E-11  2.20706291772212E-02
 cg2d: Sum(rhs),rhsMax =  -7.71749331107685E-11  2.16300892228456E-02
 cg2d: Sum(rhs),rhsMax =  -7.88933363082833E-11  2.11785651906524E-02
 cg2d: Sum(rhs),rhsMax =  -8.07578448558388E-11  2.07162429936148E-02
 cg2d: Sum(rhs),rhsMax =  -8.27130586245062E-11  2.02433096623505E-02
 cg2d: Sum(rhs),rhsMax =  -8.48578984857795E-11  1.97599532736761E-02
 cg2d: Sum(rhs),rhsMax =  -8.70890026760662E-11  1.92663628923536E-02
 cg2d: Sum(rhs),rhsMax =  -8.95814533663497E-11  1.87627285246577E-02
 cg2d: Sum(rhs),rhsMax =  -9.22164566929951E-11  1.82492410819113E-02
 cg2d: Sum(rhs),rhsMax =  -9.49924583437678E-11  1.77260923517138E-02
 cg2d: Sum(rhs),rhsMax =  -9.80685532780967E-11  1.71934749742592E-02
 cg2d: Sum(rhs),rhsMax =  -1.01421204767860E-10  1.66515824209749E-02
 cg2d: Sum(rhs),rhsMax =  -1.04945940826440E-10  1.61006089719921E-02
 cg2d: Sum(rhs),rhsMax =  -1.08778763774353E-10  1.55407496918265E-02
 cg2d: Sum(rhs),rhsMax =  -1.12999942736280E-10  1.49722004004961E-02
 cg2d: Sum(rhs),rhsMax =  -1.17626575146801E-10  1.43951576380823E-02
 cg2d: Sum(rhs),rhsMax =  -1.22695076321122E-10  1.38098186226614E-02
 cg2d: Sum(rhs),rhsMax =  -1.28318577985453E-10  1.32163812026691E-02
 cg2d: Sum(rhs),rhsMax =  -1.34494748671443E-10  1.26150438058821E-02
 cg2d: Sum(rhs),rhsMax =  -1.41440192891196E-10  1.20060053884024E-02
 cg2d: Sum(rhs),rhsMax =  -1.49178447372833E-10  1.13894653873649E-02
 cg2d: Sum(rhs),rhsMax =  -1.57935664546471E-10  1.07656236822200E-02
 cg2d: Sum(rhs),rhsMax =  -1.67916014426339E-10  1.01346805700272E-02
 cg2d: Sum(rhs),rhsMax =  -1.79329440186393E-10  9.49683675961683E-03
 cg2d: Sum(rhs),rhsMax =  -1.92449167712994E-10  8.85229338892718E-03
 cg2d: Sum(rhs),rhsMax =  -2.07780681549252E-10  8.20125206889890E-03
 cg2d: Sum(rhs),rhsMax =  -2.25899632333437E-10  7.54391495639505E-03
 cg2d: Sum(rhs),rhsMax =  -2.47765807870337E-10  6.88048485744548E-03
 cg2d: Sum(rhs),rhsMax =  -2.74543054956666E-10  6.21116535603145E-03
 cg2d: Sum(rhs),rhsMax =  -3.08082226396778E-10  5.53616096963491E-03
 cg2d: Sum(rhs),rhsMax =  -3.51336959525383E-10  4.85567732778795E-03
 cg2d: Sum(rhs),rhsMax =  -4.09177025595397E-10  4.16992136857075E-03
 cg2d: Sum(rhs),rhsMax =  -4.90451235179989E-10  3.47910154745662E-03
 cg2d: Sum(rhs),rhsMax =  -6.13123718462560E-10  2.78342805293345E-03
 cg2d: Sum(rhs),rhsMax =  -8.19436740684409E-10  2.08311302379182E-03
 cg2d: Sum(rhs),rhsMax =  -8.90090751104466E-10  1.91784847138252E-03
 cg2d: Sum(rhs),rhsMax =  -8.00113197918506E-10  2.13368589553184E-03
 cg2d: Sum(rhs),rhsMax =  -7.23358262177953E-10  2.36040753878317E-03
 cg2d: Sum(rhs),rhsMax =  -6.55646648084485E-10  2.60434751533809E-03
 cg2d: Sum(rhs),rhsMax =  -5.36882316382048E-10  3.18094800179171E-03
 cg2d: Sum(rhs),rhsMax =  -4.52825110741628E-10  3.77189121488683E-03
 cg2d: Sum(rhs),rhsMax =  -3.90651955228805E-10  4.37278806000233E-03
 cg2d: Sum(rhs),rhsMax =  -3.42859851620858E-10  4.98287343485039E-03
 cg2d: Sum(rhs),rhsMax =  -3.05032665792737E-10  5.60260970185434E-03
 cg2d: Sum(rhs),rhsMax =  -2.74158917790146E-10  6.23492999297581E-03
 cg2d: Sum(rhs),rhsMax =  -2.48445708450618E-10  6.88139214666199E-03
 cg2d: Sum(rhs),rhsMax =  -2.26836882610826E-10  7.53919525515169E-03
 cg2d: Sum(rhs),rhsMax =  -2.08791206546266E-10  8.19468767501249E-03
 cg2d: Sum(rhs),rhsMax =  -1.93394633640764E-10  8.84759207046299E-03
 cg2d: Sum(rhs),rhsMax =  -1.80178982844836E-10  9.49763358045013E-03
 cg2d: Sum(rhs),rhsMax =  -1.68751235207765E-10  1.01445399022060E-02
 cg2d: Sum(rhs),rhsMax =  -1.58726143340004E-10  1.07880413738294E-02
 cg2d: Sum(rhs),rhsMax =  -1.49887435796359E-10  1.14278710526804E-02
 cg2d: Sum(rhs),rhsMax =  -1.41998302005675E-10  1.20637647880521E-02
 cg2d: Sum(rhs),rhsMax =  -1.34982247601556E-10  1.26954612861565E-02
 cg2d: Sum(rhs),rhsMax =  -1.28648092179162E-10  1.33227021658724E-02
 cg2d: Sum(rhs),rhsMax =  -1.22195031870831E-10  1.40316155387772E-02
 cg2d: Sum(rhs),rhsMax =  -1.16158527241339E-10  1.47728971660553E-02
 cg2d: Sum(rhs),rhsMax =  -1.10722431223564E-10  1.55126863722676E-02
 cg2d: Sum(rhs),rhsMax =  -1.05799258243167E-10  1.62506701278335E-02
 cg2d: Sum(rhs),rhsMax =  -1.01292418897003E-10  1.69865304261704E-02
 cg2d: Sum(rhs),rhsMax =  -9.71674962713109E-11  1.77199443882456E-02
 cg2d: Sum(rhs),rhsMax =  -9.34283761466759E-11  1.84505843940017E-02
(PID.TID 0000.0001)      cg2d_init_res =   2.02239912640738E-01
(PID.TID 0000.0001)      cg2d_iters(min,last) =      -1      39
(PID.TID 0000.0001)      cg2d_last_res =   7.26163094376627E-14
(PID.TID 0000.0001) // =======================================================
(PID.TID 0000.0001) // Begin MONITOR dynamic field statistics
(PID.TID 0000.0001) // =======================================================
(PID.TID 0000.0001) %MON time_tsnumber                =                  2400
(PID.TID 0000.0001) %MON time_secondsf                =   3.6000000000000E+04
(PID.TID 0000.0001) %MON dynstat_eta_max              =   3.3745985025255E-03
(PID.TID 0000.0001) %MON dynstat_eta_min              =  -3.7266966257197E-03
(PID.TID 0000.0001) %MON dynstat_eta_mean             =   3.8039662019136E-15
(PID.TID 0000.0001) %MON dynstat_eta_sd               =   2.6104780779317E-03
(PID.TID 0000.0001) %MON dynstat_eta_del2             =   1.7988053753175E-06
(PID.TID 0000.0001) %MON dynstat_uvel_max             =   4.2665875429954E-01
(PID.TID 0000.0001) %MON dynstat_uvel_min             =  -4.2416393365157E-01
(PID.TID 0000.0001) %MON dynstat_uvel_mean            =   1.1245589075925E-01
(PID.TID 0000.0001) %MON dynstat_uvel_sd              =   2.9106225645781E-02
(PID.TID 0000.0001) %MON dynstat_uvel_del2            =   8.5979749729925E-05
(PID.TID 0000.0001) %MON dynstat_vvel_max             =   0.0000000000000E+00
(PID.TID 0000.0001) %MON dynstat_vvel_min             =   0.0000000000000E+00
(PID.TID 0000.0001) %MON dynstat_vvel_mean            =   0.0000000000000E+00
(PID.TID 0000.0001) %MON dynstat_vvel_sd              =   0.0000000000000E+00
(PID.TID 0000.0001) %MON dynstat_vvel_del2            =   0.0000000000000E+00
(PID.TID 0000.0001) %MON dynstat_wvel_max             =   2.3954230088675E-03
(PID.TID 0000.0001) %MON dynstat_wvel_min             =  -4.4105869464188E-03
(PID.TID 0000.0001) %MON dynstat_wvel_mean            =   8.0582363723693E-21
(PID.TID 0000.0001) %MON dynstat_wvel_sd              =   2.8018412593616E-04
(PID.TID 0000.0001) %MON dynstat_wvel_del2            =   5.9241190245767E-06
(PID.TID 0000.0001) %MON dynstat_theta_max            =   1.5000000000008E+01
(PID.TID 0000.0001) %MON dynstat_theta_min            =   9.9999999999957E+00
(PID.TID 0000.0001) %MON dynstat_theta_mean           =   1.4047651234575E+01
(PID.TID 0000.0001) %MON dynstat_theta_sd             =   1.8937317276260E+00
(PID.TID 0000.0001) %MON dynstat_theta_del2           =   3.4403915063487E-04
(PID.TID 0000.0001) %MON dynstat_salt_max             =   3.5000000000000E+01
(PID.TID 0000.0001) %MON dynstat_salt_min             =   3.5000000000000E+01
(PID.TID 0000.0001) %MON dynstat_salt_mean            =   3.5000000000000E+01
(PID.TID 0000.0001) %MON dynstat_salt_sd              =   3.0553337637684E-13
(PID.TID 0000.0001) %MON dynstat_salt_del2            =   0.0000000000000E+00
(PID.TID 0000.0001) %MON dynstat_sst_max              =   1.5000000000000E+01
(PID.TID 0000.0001) %MON dynstat_sst_min              =   1.5000000000000E+01
(PID.TID 0000.0001) %MON dynstat_sst_mean             =   1.5000000000000E+01
(PID.TID 0000.0001) %MON dynstat_sst_sd               =   1.5340177817642E-13
(PID.TID 0000.0001) %MON dynstat_sst_del2             =   5.8164243400294E-15
(PID.TID 0000.0001) %MON dynstat_sss_max              =   3.5000000000000E+01
(PID.TID 0000.0001) %MON dynstat_sss_min              =   3.5000000000000E+01
(PID.TID 0000.0001) %MON dynstat_sss_mean             =   3.5000000000000E+01
(PID.TID 0000.0001) %MON dynstat_sss_sd               =   2.8421709430404E-14
(PID.TID 0000.0001) %MON dynstat_sss_del2             =   0.0000000000000E+00
(PID.TID 0000.0001) %MON forcing_qnet_max             =   0.0000000000000E+00
(PID.TID 0000.0001) %MON forcing_qnet_min             =   0.0000000000000E+00
(PID.TID 0000.0001) %MON forcing_qnet_mean            =   0.0000000000000E+00
(PID.TID 0000.0001) %MON forcing_qnet_sd              =   0.0000000000000E+00
(PID.TID 0000.0001) %MON forcing_qnet_del2            =   0.0000000000000E+00
(PID.TID 0000.0001) %MON forcing_qsw_max              =   0.0000000000000E+00
(PID.TID 0000.0001) %MON forcing_qsw_min              =   0.0000000000000E+00
(PID.TID 0000.0001) %MON forcing_qsw_mean             =   0.0000000000000E+00
(PID.TID 0000.0001) %MON forcing_qsw_sd               =   0.0000000000000E+00
(PID.TID 0000.0001) %MON forcing_qsw_del2             =   0.0000000000000E+00
(PID.TID 0000.0001) %MON forcing_empmr_max            =   0.0000000000000E+00
(PID.TID 0000.0001) %MON forcing_empmr_min            =   0.0000000000000E+00
(PID.TID 0000.0001) %MON forcing_empmr_mean           =   0.0000000000000E+00
(PID.TID 0000.0001) %MON forcing_empmr_sd             =   0.0000000000000E+00
(PID.TID 0000.0001) %MON forcing_empmr_del2           =   0.0000000000000E+00
(PID.TID 0000.0001) %MON forcing_fu_max               =   0.0000000000000E+00
(PID.TID 0000.0001) %MON forcing_fu_min               =   0.0000000000000E+00
(PID.TID 0000.0001) %MON forcing_fu_mean              =   0.0000000000000E+00
(PID.TID 0000.0001) %MON forcing_fu_sd                =   0.0000000000000E+00
(PID.TID 0000.0001) %MON forcing_fu_del2              =   0.0000000000000E+00
(PID.TID 0000.0001) %MON forcing_fv_max               =   0.0000000000000E+00
(PID.TID 0000.0001) %MON forcing_fv_min               =   0.0000000000000E+00
(PID.TID 0000.0001) %MON forcing_fv_mean              =   0.0000000000000E+00
(PID.TID 0000.0001) %MON forcing_fv_sd                =   0.0000000000000E+00
(PID.TID 0000.0001) %MON forcing_fv_del2              =   0.0000000000000E+00
(PID.TID 0000.0001) %MON advcfl_uvel_max              =   3.1999406572465E-02
(PID.TID 0000.0001) %MON advcfl_vvel_max              =   0.0000000000000E+00
(PID.TID 0000.0001) %MON advcfl_wvel_max              =   2.1682070828390E-02
(PID.TID 0000.0001) %MON advcfl_W_hf_max              =   3.1999406572465E-02
(PID.TID 0000.0001) %MON pe_b_mean                    =   1.6889757250050E-07
(PID.TID 0000.0001) %MON ke_max                       =   5.6052698611113E-02
(PID.TID 0000.0001) %MON ke_mean                      =   6.7501896511243E-03
(PID.TID 0000.0001) %MON ke_vol                       =   9.6656965507697E+10
(PID.TID 0000.0001) %MON vort_r_min                   =   0.0000000000000E+00
(PID.TID 0000.0001) %MON vort_r_max                   =   0.0000000000000E+00
(PID.TID 0000.0001) %MON vort_a_mean                  =   0.0000000000000E+00
(PID.TID 0000.0001) %MON vort_a_sd                    =   0.0000000000000E+00
(PID.TID 0000.0001) %MON vort_p_mean                  =   0.0000000000000E+00
(PID.TID 0000.0001) %MON vort_p_sd                    =   0.0000000000000E+00
(PID.TID 0000.0001) %MON surfExpan_theta_mean         =   1.0474788160074E-19
(PID.TID 0000.0001) %MON surfExpan_salt_mean          =   3.9478312709966E-19
(PID.TID 0000.0001) // =======================================================
(PID.TID 0000.0001) // End MONITOR dynamic field statistics
(PID.TID 0000.0001) // =======================================================
(PID.TID 0000.0001) // =======================================================
(PID.TID 0000.0001) // Begin OBCS MONITOR field statistics
(PID.TID 0000.0001) // =======================================================
(PID.TID 0000.0001) %MON obc_E_uVel_max               =   1.1205712828732E-01
(PID.TID 0000.0001) %MON obc_E_uVel_min               =   1.1205712828732E-01
(PID.TID 0000.0001) %MON obc_E_uVel_mean              =   1.1205712828732E-01
(PID.TID 0000.0001) %MON obc_E_uVel_sd                =   0.0000000000000E+00
(PID.TID 0000.0001) %MON obc_E_uVel_Int               =   1.1205712828732E+05
(PID.TID 0000.0001) %MON obc_W_uVel_max               =   1.1205712828732E-01
(PID.TID 0000.0001) %MON obc_W_uVel_min               =   1.1205712828732E-01
(PID.TID 0000.0001) %MON obc_W_uVel_mean              =   1.1205712828732E-01
(PID.TID 0000.0001) %MON obc_W_uVel_sd                =   0.0000000000000E+00
(PID.TID 0000.0001) %MON obc_W_uVel_Int               =   1.1205712828732E+05
(PID.TID 0000.0001) // =======================================================
(PID.TID 0000.0001) // End OBCS MONITOR field statistics
(PID.TID 0000.0001) // =======================================================
 cg2d: Sum(rhs),rhsMax =  -8.99711416479931E-11  1.91781182402213E-02
 cg2d: Sum(rhs),rhsMax =  -8.67628191514314E-11  1.99022093241234E-02
 cg2d: Sum(rhs),rhsMax =  -8.37888647353680E-11  2.06225168522630E-02
 cg2d: Sum(rhs),rhsMax =  -8.10492783998029E-11  2.13386960737092E-02
 cg2d: Sum(rhs),rhsMax =  -7.84912135287641E-11  2.20503985365573E-02
 cg2d: Sum(rhs),rhsMax =  -7.61141150107392E-11  2.27572723668341E-02
 cg2d: Sum(rhs),rhsMax =  -7.38737959693481E-11  2.34589625686877E-02
 cg2d: Sum(rhs),rhsMax =  -7.18030079838172E-11  2.41551113445145E-02
 cg2d: Sum(rhs),rhsMax =  -6.98731073001113E-11  2.48453584333622E-02
 cg2d: Sum(rhs),rhsMax =  -6.80120404439322E-11  2.55293414656180E-02
 cg2d: Sum(rhs),rhsMax =  -6.63010757406823E-11  2.62066963316434E-02
 cg2d: Sum(rhs),rhsMax =  -6.47087938787649E-11  2.68770575616924E-02
 cg2d: Sum(rhs),rhsMax =  -6.32039975911880E-11  2.75400587141948E-02
 cg2d: Sum(rhs),rhsMax =  -6.18416429176705E-11  2.81953327693372E-02
 cg2d: Sum(rhs),rhsMax =  -6.05528960306856E-11  2.88425125249117E-02
 cg2d: Sum(rhs),rhsMax =  -5.93473048482451E-11  2.94812309916312E-02
 cg2d: Sum(rhs),rhsMax =  -5.81900083673759E-11  3.01111217855816E-02
 cg2d: Sum(rhs),rhsMax =  -5.71332980925376E-11  3.07318195161456E-02
 cg2d: Sum(rhs),rhsMax =  -5.60981261443771E-11  3.13429601681053E-02
 cg2d: Sum(rhs),rhsMax =  -5.51205747711947E-11  3.19441814794942E-02
 cg2d: Sum(rhs),rhsMax =  -5.41938716125401E-11  3.25351233150399E-02
 cg2d: Sum(rhs),rhsMax =  -5.33471045116585E-11  3.31154280371414E-02
 cg2d: Sum(rhs),rhsMax =  -5.25206544921275E-11  3.36847408769867E-02
 cg2d: Sum(rhs),rhsMax =  -5.16985343423926E-11  3.42427103087739E-02
 cg2d: Sum(rhs),rhsMax =  -5.09953190785950E-11  3.47889884298892E-02
 cg2d: Sum(rhs),rhsMax =  -5.02813346514586E-11  3.53232313498946E-02
 cg2d: Sum(rhs),rhsMax =  -4.96149787920785E-11  3.58450995902366E-02
 cg2d: Sum(rhs),rhsMax =  -4.89864815378382E-11  3.63542584954218E-02
 cg2d: Sum(rhs),rhsMax =  -4.83918460858490E-11  3.68503786557585E-02
 cg2d: Sum(rhs),rhsMax =  -4.78039829943100E-11  3.73331363406413E-02
 cg2d: Sum(rhs),rhsMax =  -4.72509809057442E-11  3.78022139403950E-02
 cg2d: Sum(rhs),rhsMax =  -4.67295091510778E-11  3.82573004136542E-02
 cg2d: Sum(rhs),rhsMax =  -4.62705429526977E-11  3.86980917356083E-02
 cg2d: Sum(rhs),rhsMax =  -4.57963666988803E-11  3.91242913440196E-02
 cg2d: Sum(rhs),rhsMax =  -4.53647119869061E-11  3.95356105787689E-02
 cg2d: Sum(rhs),rhsMax =  -4.50175452471058E-11  3.99317691100311E-02
 cg2d: Sum(rhs),rhsMax =  -4.46774839346631E-11  4.03124953533266E-02
 cg2d: Sum(rhs),rhsMax =  -4.43461933841149E-11  4.06775268681503E-02
 cg2d: Sum(rhs),rhsMax =  -4.39926983730743E-11  4.10266107371824E-02
 cg2d: Sum(rhs),rhsMax =  -4.37340164083366E-11  4.13595039242312E-02
 cg2d: Sum(rhs),rhsMax =  -4.34545732730385E-11  4.16759736081826E-02
 cg2d: Sum(rhs),rhsMax =  -4.31981117543501E-11  4.19757974956655E-02
 cg2d: Sum(rhs),rhsMax =  -4.29478674845996E-11  4.22587641125398E-02
 cg2d: Sum(rhs),rhsMax =  -4.27169410954775E-11  4.25246730745374E-02
 cg2d: Sum(rhs),rhsMax =  -4.25321999841799E-11  4.27733353376149E-02
 cg2d: Sum(rhs),rhsMax =  -4.23225898771307E-11  4.30045734288419E-02
 cg2d: Sum(rhs),rhsMax =  -4.21632728730970E-11  4.32182216588247E-02
 cg2d: Sum(rhs),rhsMax =  -4.19658752193186E-11  4.34141263167336E-02
 cg2d: Sum(rhs),rhsMax =  -4.18790557787929E-11  4.35921458489609E-02
 cg2d: Sum(rhs),rhsMax =  -4.17824663756505E-11  4.37521510223250E-02
 cg2d: Sum(rhs),rhsMax =  -4.16684464710215E-11  4.38940250725771E-02
 cg2d: Sum(rhs),rhsMax =  -4.15627532390772E-11  4.40176638387173E-02
 cg2d: Sum(rhs),rhsMax =  -4.14859258057731E-11  4.41229758832563E-02
 cg2d: Sum(rhs),rhsMax =  -4.14180911789686E-11  4.42098825993467E-02
 cg2d: Sum(rhs),rhsMax =  -4.13651335406939E-11  4.42783183048233E-02
 cg2d: Sum(rhs),rhsMax =  -4.13049594527592E-11  4.43282303219239E-02
 cg2d: Sum(rhs),rhsMax =  -4.13145073707710E-11  4.43595790425132E-02
 cg2d: Sum(rhs),rhsMax =  -4.13303835600232E-11  4.43723379783367E-02
 cg2d: Sum(rhs),rhsMax =  -4.14041023688583E-11  4.43664937956590E-02
 cg2d: Sum(rhs),rhsMax =  -4.15349976634616E-11  4.43420463333354E-02
 cg2d: Sum(rhs),rhsMax =  -4.16475742781586E-11  4.42990086040416E-02
 cg2d: Sum(rhs),rhsMax =  -4.16953138682175E-11  4.42374067771840E-02
 cg2d: Sum(rhs),rhsMax =  -4.17068601876736E-11  4.41572801430097E-02
 cg2d: Sum(rhs),rhsMax =  -4.17369472316409E-11  4.40586810572503E-02
 cg2d: Sum(rhs),rhsMax =  -4.17798018403914E-11  4.39416748657918E-02
 cg2d: Sum(rhs),rhsMax =  -4.18224344045370E-11  4.38063398092776E-02
 cg2d: Sum(rhs),rhsMax =  -4.19047019306618E-11  4.36527669072304E-02
 cg2d: Sum(rhs),rhsMax =  -4.20148360547046E-11  4.34810598206744E-02
 cg2d: Sum(rhs),rhsMax =  -4.21526147320606E-11  4.32913346948633E-02
 cg2d: Sum(rhs),rhsMax =  -4.23387991332902E-11  4.30837199824469E-02
 cg2d: Sum(rhs),rhsMax =  -4.24998924941633E-11  4.28583562475522E-02
 cg2d: Sum(rhs),rhsMax =  -4.26546575837961E-11  4.26153959515310E-02
 cg2d: Sum(rhs),rhsMax =  -4.28610480440739E-11  4.23550032214593E-02
 cg2d: Sum(rhs),rhsMax =  -4.30808722029496E-11  4.20773536027621E-02
 cg2d: Sum(rhs),rhsMax =  -4.33262314913918E-11  4.17826337975353E-02
 cg2d: Sum(rhs),rhsMax =  -4.35369518214657E-11  4.14710413902358E-02
 cg2d: Sum(rhs),rhsMax =  -4.38257208301707E-11  4.11427845624110E-02
 cg2d: Sum(rhs),rhsMax =  -4.41218173108382E-11  4.07980817980333E-02
 cg2d: Sum(rhs),rhsMax =  -4.44233538843264E-11  4.04371615808483E-02
 cg2d: Sum(rhs),rhsMax =  -4.47130110714511E-11  4.00602620848908E-02
 cg2d: Sum(rhs),rhsMax =  -4.50380843730613E-11  3.96676308590031E-02
 cg2d: Sum(rhs),rhsMax =  -4.55057103110335E-11  3.92595245058505E-02
 cg2d: Sum(rhs),rhsMax =  -4.59303706179526E-11  3.88362083556077E-02
 cg2d: Sum(rhs),rhsMax =  -4.63954430429681E-11  3.83979561342480E-02
 cg2d: Sum(rhs),rhsMax =  -4.69068117681104E-11  3.79450496261996E-02
 cg2d: Sum(rhs),rhsMax =  -4.74671413286387E-11  3.74777783310954E-02
 cg2d: Sum(rhs),rhsMax =  -4.80175899042479E-11  3.69964391144251E-02
 cg2d: Sum(rhs),rhsMax =  -4.85756990187269E-11  3.65013358520982E-02
 cg2d: Sum(rhs),rhsMax =  -4.92484941716498E-11  3.59927790692393E-02
 cg2d: Sum(rhs),rhsMax =  -4.98923125036299E-11  3.54710855721622E-02
 cg2d: Sum(rhs),rhsMax =  -5.05785413551507E-11  3.49365780796174E-02
 cg2d: Sum(rhs),rhsMax =  -5.12929698714970E-11  3.43895848511739E-02
 cg2d: Sum(rhs),rhsMax =  -5.20733456355060E-11  3.38304393141807E-02
 cg2d: Sum(rhs),rhsMax =  -5.29115640190980E-11  3.32594796916677E-02
 cg2d: Sum(rhs),rhsMax =  -5.37656585919422E-11  3.26770486336415E-02
 cg2d: Sum(rhs),rhsMax =  -5.46532819001300E-11  3.20834928540054E-02
 cg2d: Sum(rhs),rhsMax =  -5.56287238495656E-11  3.14791627749251E-02
 cg2d: Sum(rhs),rhsMax =  -5.66284796832406E-11  3.08644121799684E-02
 cg2d: Sum(rhs),rhsMax =  -5.77093928200156E-11  3.02395978768290E-02
 cg2d: Sum(rhs),rhsMax =  -5.88518123123549E-11  2.96050793700995E-02
 cg2d: Sum(rhs),rhsMax =  -6.00459681976417E-11  2.89612185436791E-02
 cg2d: Sum(rhs),rhsMax =  -6.12977446579066E-11  2.83083793536994E-02
 cg2d: Sum(rhs),rhsMax =  -6.27626839388995E-11  2.76469275264956E-02
 cg2d: Sum(rhs),rhsMax =  -6.42869091294074E-11  2.69772302643060E-02
 cg2d: Sum(rhs),rhsMax =  -6.58783028129051E-11  2.62996559583833E-02
 cg2d: Sum(rhs),rhsMax =  -6.75915989845066E-11  2.56145739084030E-02
 cg2d: Sum(rhs),rhsMax =  -6.94064805628614E-11  2.49223540475450E-02
 cg2d: Sum(rhs),rhsMax =  -7.13484826775357E-11  2.42233666733695E-02
 cg2d: Sum(rhs),rhsMax =  -7.34676763869402E-11  2.35179821853839E-02
 cg2d: Sum(rhs),rhsMax =  -7.56765761167344E-11  2.28065708308514E-02
 cg2d: Sum(rhs),rhsMax =  -7.80772113628814E-11  2.20895024608392E-02
 cg2d: Sum(rhs),rhsMax =  -8.06507083339625E-11  2.13671462987292E-02
 cg2d: Sum(rhs),rhsMax =  -8.34169400221185E-11  2.06398707234046E-02
 cg2d: Sum(rhs),rhsMax =  -8.64212035267542E-11  1.99080430694607E-02
 cg2d: Sum(rhs),rhsMax =  -8.96531737737405E-11  1.91720294452313E-02
 cg2d: Sum(rhs),rhsMax =  -9.32135479914109E-11  1.84321945694449E-02
 cg2d: Sum(rhs),rhsMax =  -9.70282743040229E-11  1.76889016274730E-02
 cg2d: Sum(rhs),rhsMax =  -1.01240349437148E-10  1.69425121464755E-02
 cg2d: Sum(rhs),rhsMax =  -1.05823128038196E-10  1.61933858879638E-02
 cg2d: Sum(rhs),rhsMax =  -1.10890741034098E-10  1.54418807557268E-02
 cg2d: Sum(rhs),rhsMax =  -1.16459952792525E-10  1.46883527163481E-02
 cg2d: Sum(rhs),rhsMax =  -1.22661103496569E-10  1.39331557294932E-02
 cg2d: Sum(rhs),rhsMax =  -1.29691812844612E-10  1.31766416850510E-02
 cg2d: Sum(rhs),rhsMax =  -1.37567846003606E-10  1.24191603442524E-02
 cg2d: Sum(rhs),rhsMax =  -1.46484824270487E-10  1.16610592820804E-02
 cg2d: Sum(rhs),rhsMax =  -1.56633039871679E-10  1.09026838286660E-02
 cg2d: Sum(rhs),rhsMax =  -1.68277725087762E-10  1.01443770078525E-02
 cg2d: Sum(rhs),rhsMax =  -1.81835657642182E-10  9.38647947029366E-03
 cg2d: Sum(rhs),rhsMax =  -1.97736826912376E-10  8.62932942416724E-03
 cg2d: Sum(rhs),rhsMax =  -2.16677564779388E-10  7.87326256107931E-03
 cg2d: Sum(rhs),rhsMax =  -2.39593234141466E-10  7.11861197637969E-03
 cg2d: Sum(rhs),rhsMax =  -2.67825428501567E-10  6.36570808494120E-03
 cg2d: Sum(rhs),rhsMax =  -3.03573277626867E-10  5.61487853370777E-03
 cg2d: Sum(rhs),rhsMax =  -3.46513040483387E-10  4.91819072505993E-03
 cg2d: Sum(rhs),rhsMax =  -3.95152577326030E-10  4.31238463472003E-03
 cg2d: Sum(rhs),rhsMax =  -4.59741800185043E-10  3.70616303103766E-03
 cg2d: Sum(rhs),rhsMax =  -5.49622125589622E-10  3.09976298118479E-03
 cg2d: Sum(rhs),rhsMax =  -6.83264556045060E-10  2.49342456947129E-03
 cg2d: Sum(rhs),rhsMax =  -9.02564911697823E-10  1.88739087602502E-03
 cg2d: Sum(rhs),rhsMax =  -8.56334780863222E-10  1.98917707605475E-03
 cg2d: Sum(rhs),rhsMax =  -8.09499745013653E-10  2.10401903455759E-03
 cg2d: Sum(rhs),rhsMax =  -7.67540454804649E-10  2.21865067433820E-03
 cg2d: Sum(rhs),rhsMax =  -7.29800636589673E-10  2.33301337181354E-03
 cg2d: Sum(rhs),rhsMax =  -6.05640149142772E-10  2.81078535884344E-03
 cg2d: Sum(rhs),rhsMax =  -4.94737584233462E-10  3.44087194154414E-03
 cg2d: Sum(rhs),rhsMax =  -4.18571510785171E-10  4.06648701891719E-03
 cg2d: Sum(rhs),rhsMax =  -3.62390895070064E-10  4.69625731265757E-03
 cg2d: Sum(rhs),rhsMax =  -3.19349435784488E-10  5.32719936478787E-03
 cg2d: Sum(rhs),rhsMax =  -2.85629520035968E-10  5.95504580735565E-03
 cg2d: Sum(rhs),rhsMax =  -2.58062238245316E-10  6.58981646676614E-03
 cg2d: Sum(rhs),rhsMax =  -2.35511499191432E-10  7.21830285794958E-03
 cg2d: Sum(rhs),rhsMax =  -2.16318518653225E-10  7.85528490351383E-03
 cg2d: Sum(rhs),rhsMax =  -2.00143790429763E-10  8.48972311889582E-03
 cg2d: Sum(rhs),rhsMax =  -1.86091253517873E-10  9.12711688560801E-03
 cg2d: Sum(rhs),rhsMax =  -1.74043779388455E-10  9.75609836031819E-03
 cg2d: Sum(rhs),rhsMax =  -1.63600133440411E-10  1.03764259994323E-02
 cg2d: Sum(rhs),rhsMax =  -1.54387946871282E-10  1.09878627929398E-02
 cg2d: Sum(rhs),rhsMax =  -1.46263001710167E-10  1.15901762795344E-02
 cg2d: Sum(rhs),rhsMax =  -1.39024347589611E-10  1.21831385484181E-02
 cg2d: Sum(rhs),rhsMax =  -1.32593602764075E-10  1.27665262296590E-02
 cg2d: Sum(rhs),rhsMax =  -1.26816113166228E-10  1.33401204761011E-02
 cg2d: Sum(rhs),rhsMax =  -1.21582410805843E-10  1.39037069407634E-02
 cg2d: Sum(rhs),rhsMax =  -1.16850085163378E-10  1.44570757544162E-02
 cg2d: Sum(rhs),rhsMax =  -1.12528764084630E-10  1.50000215085309E-02
 cg2d: Sum(rhs),rhsMax =  -1.08609232718493E-10  1.55323432489647E-02
 cg2d: Sum(rhs),rhsMax =  -1.05004338557535E-10  1.60538444854608E-02
 cg2d: Sum(rhs),rhsMax =  -1.01702646304602E-10  1.65643332213167E-02
 cg2d: Sum(rhs),rhsMax =  -9.86105641587187E-11  1.70636220064009E-02
 cg2d: Sum(rhs),rhsMax =  -9.57235402054835E-11  1.75515280152125E-02
 cg2d: Sum(rhs),rhsMax =  -9.30983068414548E-11  1.80278731500089E-02
 cg2d: Sum(rhs),rhsMax =  -9.06418273771692E-11  1.84924841673405E-02
 cg2d: Sum(rhs),rhsMax =  -8.84174955473327E-11  1.89451928247887E-02
 cg2d: Sum(rhs),rhsMax =  -8.63167315401370E-11  1.93858360434300E-02
 cg2d: Sum(rhs),rhsMax =  -8.43376479764402E-11  1.98142560810651E-02
 cg2d: Sum(rhs),rhsMax =  -8.25335355614243E-11  2.02303007095579E-02
 cg2d: Sum(rhs),rhsMax =  -8.08115796502307E-11  2.06338233899688E-02
 cg2d: Sum(rhs),rhsMax =  -7.92369503344048E-11  2.10246834410400E-02
 cg2d: Sum(rhs),rhsMax =  -7.77509168159440E-11  2.14027461958230E-02
 cg2d: Sum(rhs),rhsMax =  -7.64104335360116E-11  2.17678831419893E-02
 cg2d: Sum(rhs),rhsMax =  -7.51682049937585E-11  2.21199720422812E-02
 cg2d: Sum(rhs),rhsMax =  -7.39882599631869E-11  2.24588970316193E-02
 cg2d: Sum(rhs),rhsMax =  -7.28505034075511E-11  2.27845486910788E-02
 cg2d: Sum(rhs),rhsMax =  -7.17943482442251E-11  2.30968240977350E-02
 cg2d: Sum(rhs),rhsMax =  -7.08960667950009E-11  2.33956268483472E-02
 cg2d: Sum(rhs),rhsMax =  -6.99186264441209E-11  2.36808670572827E-02
 cg2d: Sum(rhs),rhsMax =  -6.90633106259497E-11  2.39524613315281E-02
 cg2d: Sum(rhs),rhsMax =  -6.82308654020858E-11  2.42103327188495E-02
 cg2d: Sum(rhs),rhsMax =  -6.74817979273712E-11  2.44544106350083E-02
 cg2d: Sum(rhs),rhsMax =  -6.67872424031657E-11  2.46846307727249E-02
 cg2d: Sum(rhs),rhsMax =  -6.61112276034714E-11  2.49009349951251E-02
 cg2d: Sum(rhs),rhsMax =  -6.54363230268018E-11  2.51032712170178E-02
 cg2d: Sum(rhs),rhsMax =  -6.48618936338607E-11  2.52915932780368E-02
 cg2d: Sum(rhs),rhsMax =  -6.43755049267725E-11  2.54658608121368E-02
 cg2d: Sum(rhs),rhsMax =  -6.39789332623764E-11  2.56260391184876E-02
 cg2d: Sum(rhs),rhsMax =  -6.36733998859995E-11  2.57720990383194E-02
 cg2d: Sum(rhs),rhsMax =  -6.34220453932244E-11  2.59040168417731E-02
 cg2d: Sum(rhs),rhsMax =  -6.32129903976875E-11  2.60217741281268E-02
 cg2d: Sum(rhs),rhsMax =  -6.30646646015975E-11  2.61253577416870E-02
 cg2d: Sum(rhs),rhsMax =  -6.29563068343941E-11  2.62147597045391E-02
 cg2d: Sum(rhs),rhsMax =  -6.28573859629000E-11  2.62899771656393E-02
 cg2d: Sum(rhs),rhsMax =  -6.27908836037250E-11  2.63510123645414E-02
 cg2d: Sum(rhs),rhsMax =  -6.27617957604798E-11  2.63978726068499E-02
 cg2d: Sum(rhs),rhsMax =  -6.27085050552978E-11  2.64305702511450E-02
 cg2d: Sum(rhs),rhsMax =  -6.26799723235649E-11  2.64491227024351E-02
 cg2d: Sum(rhs),rhsMax =  -6.27389251661725E-11  2.64535524072810E-02
 cg2d: Sum(rhs),rhsMax =  -6.27634610950167E-11  2.64438868477124E-02
 cg2d: Sum(rhs),rhsMax =  -6.28459506657464E-11  2.64201585319904E-02
 cg2d: Sum(rhs),rhsMax =  -6.29508667415735E-11  2.63824049796372E-02
 cg2d: Sum(rhs),rhsMax =  -6.31177332621746E-11  2.63306686999038E-02
 cg2d: Sum(rhs),rhsMax =  -6.33435526253834E-11  2.62649971635566E-02
 cg2d: Sum(rhs),rhsMax =  -6.36249941621259E-11  2.61854427679900E-02
 cg2d: Sum(rhs),rhsMax =  -6.39306385608052E-11  2.60920627961063E-02
 cg2d: Sum(rhs),rhsMax =  -6.42631503566804E-11  2.59849193697275E-02
 cg2d: Sum(rhs),rhsMax =  -6.46211972821220E-11  2.58640793984946E-02
 cg2d: Sum(rhs),rhsMax =  -6.50306475336038E-11  2.57296145252452E-02
 cg2d: Sum(rhs),rhsMax =  -6.54650778031396E-11  2.55816010687477E-02
 cg2d: Sum(rhs),rhsMax =  -6.59332588526240E-11  2.54201199643591E-02
 cg2d: Sum(rhs),rhsMax =  -6.64759358670608E-11  2.52452567038087E-02
 cg2d: Sum(rhs),rhsMax =  -6.70542510405880E-11  2.50571012741847E-02
 cg2d: Sum(rhs),rhsMax =  -6.76652067710393E-11  2.48557480951760E-02
 cg2d: Sum(rhs),rhsMax =  -6.83517686894675E-11  2.46412959553917E-02
 cg2d: Sum(rhs),rhsMax =  -6.90907331346580E-11  2.44138479478327E-02
 cg2d: Sum(rhs),rhsMax =  -6.98682223188030E-11  2.41735114043491E-02
 cg2d: Sum(rhs),rhsMax =  -7.06978919851053E-11  2.39203978288561E-02
 cg2d: Sum(rhs),rhsMax =  -7.16222636754082E-11  2.36546228290852E-02
 cg2d: Sum(rhs),rhsMax =  -7.25173254778610E-11  2.33763060466914E-02
 cg2d: Sum(rhs),rhsMax =  -7.35085325942464E-11  2.30855710855926E-02
 cg2d: Sum(rhs),rhsMax =  -7.45087325171312E-11  2.27825454384768E-02
 cg2d: Sum(rhs),rhsMax =  -7.56511520094705E-11  2.24673604114655E-02
 cg2d: Sum(rhs),rhsMax =  -7.68194396982835E-11  2.21401510469655E-02
 cg2d: Sum(rhs),rhsMax =  -7.80605580175120E-11  2.18010560447886E-02
 cg2d: Sum(rhs),rhsMax =  -7.93896060002908E-11  2.14502176816463E-02
 cg2d: Sum(rhs),rhsMax =  -8.08423328280128E-11  2.10877817291784E-02
 cg2d: Sum(rhs),rhsMax =  -8.23752177581127E-11  2.07138973707150E-02
 cg2d: Sum(rhs),rhsMax =  -8.39956992848556E-11  2.03287171169852E-02
 cg2d: Sum(rhs),rhsMax =  -8.57763859940519E-11  1.99323967210024E-02
 cg2d: Sum(rhs),rhsMax =  -8.76199113264420E-11  1.95250950923611E-02
 cg2d: Sum(rhs),rhsMax =  -8.96671625838508E-11  1.91069742112132E-02
 cg2d: Sum(rhs),rhsMax =  -9.18181086717595E-11  1.86781990422640E-02
 cg2d: Sum(rhs),rhsMax =  -9.41520195141266E-11  1.82389374491837E-02
 cg2d: Sum(rhs),rhsMax =  -9.66495772303233E-11  1.77893601098814E-02
 cg2d: Sum(rhs),rhsMax =  -9.93169990692877E-11  1.73296404331667E-02
 cg2d: Sum(rhs),rhsMax =  -1.02216346498096E-10  1.68599544774013E-02
 cg2d: Sum(rhs),rhsMax =  -1.05333075595127E-10  1.63804808718429E-02
 cg2d: Sum(rhs),rhsMax =  -1.08721032177073E-10  1.58914007414667E-02
 cg2d: Sum(rhs),rhsMax =  -1.12324927137308E-10  1.53928976361313E-02
 cg2d: Sum(rhs),rhsMax =  -1.16182952147881E-10  1.48851574650008E-02
 cg2d: Sum(rhs),rhsMax =  -1.20448206963886E-10  1.43683684371480E-02
 cg2d: Sum(rhs),rhsMax =  -1.25095933611874E-10  1.38427210092403E-02
 cg2d: Sum(rhs),rhsMax =  -1.30199073744564E-10  1.33084078411380E-02
 cg2d: Sum(rhs),rhsMax =  -1.35851885296745E-10  1.27656237601235E-02
 cg2d: Sum(rhs),rhsMax =  -1.42060474495054E-10  1.22145657334058E-02
 cg2d: Sum(rhs),rhsMax =  -1.48980272562937E-10  1.16554328519252E-02
 cg2d: Sum(rhs),rhsMax =  -1.56715862509316E-10  1.10884263235864E-02
 cg2d: Sum(rhs),rhsMax =  -1.65407687546804E-10  1.05137494757125E-02
 cg2d: Sum(rhs),rhsMax =  -1.75195635776504E-10  9.93160776652340E-03
 cg2d: Sum(rhs),rhsMax =  -1.86392790091361E-10  9.34220880515212E-03
 cg2d: Sum(rhs),rhsMax =  -1.99110838927652E-10  8.74576237943033E-03
 cg2d: Sum(rhs),rhsMax =  -2.13945083871181E-10  8.14248049017804E-03
 cg2d: Sum(rhs),rhsMax =  -2.31297869746072E-10  7.53257739010996E-03
 cg2d: Sum(rhs),rhsMax =  -2.51983545140888E-10  6.91626962640288E-03
 cg2d: Sum(rhs),rhsMax =  -2.76966227730213E-10  6.29377608492579E-03
 cg2d: Sum(rhs),rhsMax =  -3.07750713801624E-10  5.66531803342273E-03
 cg2d: Sum(rhs),rhsMax =  -3.46578543641840E-10  5.03111916291493E-03
 cg2d: Sum(rhs),rhsMax =  -3.97122557060925E-10  4.39140562581544E-03
 cg2d: Sum(rhs),rhsMax =  -4.65615546119125E-10  3.74640606974774E-03
 cg2d: Sum(rhs),rhsMax =  -5.63358470984099E-10  3.09635166736868E-03
 cg2d: Sum(rhs),rhsMax =  -7.14611814167654E-10  2.44147613912696E-03
 cg2d: Sum(rhs),rhsMax =  -7.92117871295517E-10  2.20312089636208E-03
 cg2d: Sum(rhs),rhsMax =  -8.41224971192406E-10  2.07467951673366E-03
 cg2d: Sum(rhs),rhsMax =  -8.42088065944324E-10  2.07285157494107E-03
 cg2d: Sum(rhs),rhsMax =  -7.58107576714906E-10  2.30278817991795E-03
 cg2d: Sum(rhs),rhsMax =  -6.86188883491923E-10  2.54434847513845E-03
 cg2d: Sum(rhs),rhsMax =  -6.20924867078543E-10  2.81231550949410E-03
 cg2d: Sum(rhs),rhsMax =  -5.35989030936435E-10  3.25790218620446E-03
 cg2d: Sum(rhs),rhsMax =  -4.59552618181647E-10  3.80011250597787E-03
 cg2d: Sum(rhs),rhsMax =  -4.01088828816398E-10  4.35457830958421E-03
 cg2d: Sum(rhs),rhsMax =  -3.55112717009831E-10  4.91915394762920E-03
 cg2d: Sum(rhs),rhsMax =  -3.18066684101836E-10  5.49308573148434E-03
 cg2d: Sum(rhs),rhsMax =  -2.87482815330975E-10  6.07900617894391E-03
 cg2d: Sum(rhs),rhsMax =  -2.61491051034568E-10  6.68563613939407E-03
 cg2d: Sum(rhs),rhsMax =  -2.39377850874689E-10  7.30487089014055E-03
 cg2d: Sum(rhs),rhsMax =  -2.20286677787840E-10  7.93981636605207E-03
 cg2d: Sum(rhs),rhsMax =  -2.03863592673770E-10  8.58194447770785E-03
 cg2d: Sum(rhs),rhsMax =  -1.89525728444551E-10  9.23365925549299E-03
 cg2d: Sum(rhs),rhsMax =  -1.76847314570239E-10  9.89973954654305E-03
 cg2d: Sum(rhs),rhsMax =  -1.65395142026625E-10  1.05869036008692E-02
 cg2d: Sum(rhs),rhsMax =  -1.55221280273565E-10  1.12849687398121E-02
 cg2d: Sum(rhs),rhsMax =  -1.46207379536634E-10  1.19823081635711E-02
 cg2d: Sum(rhs),rhsMax =  -1.38210332067956E-10  1.26786250121711E-02
 cg2d: Sum(rhs),rhsMax =  -1.31066046904493E-10  1.33736196591191E-02
 cg2d: Sum(rhs),rhsMax =  -1.24704468973391E-10  1.40669898358708E-02
 cg2d: Sum(rhs),rhsMax =  -1.18948406679920E-10  1.47584307686040E-02
 cg2d: Sum(rhs),rhsMax =  -1.13743015006662E-10  1.54476353250276E-02
 cg2d: Sum(rhs),rhsMax =  -1.08956510480596E-10  1.61342941696710E-02
 cg2d: Sum(rhs),rhsMax =  -1.04637964959409E-10  1.68180959252612E-02
 cg2d: Sum(rhs),rhsMax =  -1.00612851383630E-10  1.74987273387731E-02
 cg2d: Sum(rhs),rhsMax =  -9.69716529297671E-11  1.81758734527282E-02
 cg2d: Sum(rhs),rhsMax =  -9.35752586528338E-11  1.88492177813028E-02
 cg2d: Sum(rhs),rhsMax =  -9.04144537017260E-11  1.95184424914237E-02
 cg2d: Sum(rhs),rhsMax =  -8.75250982801390E-11  2.01832285887681E-02
 cg2d: Sum(rhs),rhsMax =  -8.47751868704449E-11  2.08432561091523E-02
 cg2d: Sum(rhs),rhsMax =  -8.22694135038660E-11  2.14982043159484E-02
 cg2d: Sum(rhs),rhsMax =  -7.99397215089925E-11  2.21477519042057E-02
 cg2d: Sum(rhs),rhsMax =  -7.77167219467856E-11  2.27915772121188E-02
 cg2d: Sum(rhs),rhsMax =  -7.56422702252735E-11  2.34293584404146E-02
 cg2d: Sum(rhs),rhsMax =  -7.37033767350681E-11  2.40607738801521E-02
 cg2d: Sum(rhs),rhsMax =  -7.18870518667813E-11  2.46855021493652E-02
 cg2d: Sum(rhs),rhsMax =  -7.01706470707109E-11  2.53032224388708E-02
 cg2d: Sum(rhs),rhsMax =  -6.86608547795231E-11  2.59136147674164E-02
 cg2d: Sum(rhs),rhsMax =  -6.72005784352336E-11  2.65163602461434E-02
 cg2d: Sum(rhs),rhsMax =  -6.58479937243328E-11  2.71111413521041E-02
 cg2d: Sum(rhs),rhsMax =  -6.45634656848415E-11  2.76976422102792E-02
 cg2d: Sum(rhs),rhsMax =  -6.33268992800140E-11  2.82755488832314E-02
 cg2d: Sum(rhs),rhsMax =  -6.22006890438342E-11  2.88445496671937E-02
 cg2d: Sum(rhs),rhsMax =  -6.10924644206534E-11  2.94043353930815E-02
 cg2d: Sum(rhs),rhsMax =  -6.00723915056278E-11  2.99545997305392E-02
 cg2d: Sum(rhs),rhsMax =  -5.90740789618849E-11  3.04950394930360E-02
 cg2d: Sum(rhs),rhsMax =  -5.81443782010638E-11  3.10253549427817E-02
 cg2d: Sum(rhs),rhsMax =  -5.72734082382453E-11  3.15452500925949E-02
 cg2d: Sum(rhs),rhsMax =  -5.64444047057577E-11  3.20544330029668E-02
 cg2d: Sum(rhs),rhsMax =  -5.56207302437883E-11  3.25526160728480E-02
 cg2d: Sum(rhs),rhsMax =  -5.49041923036953E-11  3.30395163230420E-02
 cg2d: Sum(rhs),rhsMax =  -5.41539035836536E-11  3.35148556714588E-02
 cg2d: Sum(rhs),rhsMax =  -5.34815525199406E-11  3.39783611998825E-02
 cg2d: Sum(rhs),rhsMax =  -5.29106758406783E-11  3.44297654126707E-02
 cg2d: Sum(rhs),rhsMax =  -5.22812904080183E-11  3.48688064868270E-02
 cg2d: Sum(rhs),rhsMax =  -5.16711118336843E-11  3.52952285146298E-02
 cg2d: Sum(rhs),rhsMax =  -5.11397590940987E-11  3.57087817395683E-02
 cg2d: Sum(rhs),rhsMax =  -5.06450437143258E-11  3.61092227869452E-02
 cg2d: Sum(rhs),rhsMax =  -5.01242380934741E-11  3.64963148913268E-02
 cg2d: Sum(rhs),rhsMax =  -4.97057950354929E-11  3.68698281209487E-02
 cg2d: Sum(rhs),rhsMax =  -4.93364238352001E-11  3.72295395967990E-02
 cg2d: Sum(rhs),rhsMax =  -4.89903673184244E-11  3.75752337089153E-02
 cg2d: Sum(rhs),rhsMax =  -4.86204410066193E-11  3.79067023309047E-02
 cg2d: Sum(rhs),rhsMax =  -4.83030282438790E-11  3.82237450325448E-02
 cg2d: Sum(rhs),rhsMax =  -4.79869477487682E-11  3.85261692899816E-02
 cg2d: Sum(rhs),rhsMax =  -4.76922945580327E-11  3.88137906928613E-02
 cg2d: Sum(rhs),rhsMax =  -4.74499328717570E-11  3.90864331476594E-02
 cg2d: Sum(rhs),rhsMax =  -4.71616079522619E-11  3.93439290764473E-02
 cg2d: Sum(rhs),rhsMax =  -4.69521088675151E-11  3.95861196103206E-02
 cg2d: Sum(rhs),rhsMax =  -4.67405003590216E-11  3.98128547767188E-02
 cg2d: Sum(rhs),rhsMax =  -4.65165683749547E-11  4.00239936798979E-02
 cg2d: Sum(rhs),rhsMax =  -4.63170612974295E-11  4.02194046737879E-02
 cg2d: Sum(rhs),rhsMax =  -4.61466420631496E-11  4.03989655266142E-02
 cg2d: Sum(rhs),rhsMax =  -4.60607108010436E-11  4.05625635773186E-02
 cg2d: Sum(rhs),rhsMax =  -4.59531301899574E-11  4.07100958829069E-02
 cg2d: Sum(rhs),rhsMax =  -4.58718618645548E-11  4.08414693563780E-02
 cg2d: Sum(rhs),rhsMax =  -4.57873738923809E-11  4.09566008956427E-02
 cg2d: Sum(rhs),rhsMax =  -4.57314186519397E-11  4.10554175025755E-02
 cg2d: Sum(rhs),rhsMax =  -4.56602533560613E-11  4.11378563921399E-02
 cg2d: Sum(rhs),rhsMax =  -4.56195081710575E-11  4.12038650914826E-02
 cg2d: Sum(rhs),rhsMax =  -4.56040760710152E-11  4.12534015288044E-02
 cg2d: Sum(rhs),rhsMax =  -4.55540050126046E-11  4.12864341113686E-02
 cg2d: Sum(rhs),rhsMax =  -4.55969706436576E-11  4.13029417919906E-02
 cg2d: Sum(rhs),rhsMax =  -4.56542581517283E-11  4.13029141231549E-02
 cg2d: Sum(rhs),rhsMax =  -4.57466287073771E-11  4.12863512974898E-02
 cg2d: Sum(rhs),rhsMax =  -4.57025528532995E-11  4.12532641734580E-02
 cg2d: Sum(rhs),rhsMax =  -4.56620297129007E-11  4.12036742848202E-02
 cg2d: Sum(rhs),rhsMax =  -4.56727988762395E-11  4.11376138323069E-02
 cg2d: Sum(rhs),rhsMax =  -4.57154314403851E-11  4.10551256563938E-02
 cg2d: Sum(rhs),rhsMax =  -4.57586191160431E-11  4.09562631901842E-02
 cg2d: Sum(rhs),rhsMax =  -4.57881510484981E-11  4.08410903918398E-02
 cg2d: Sum(rhs),rhsMax =  -4.58572069206298E-11  4.07096816565126E-02
 cg2d: Sum(rhs),rhsMax =  -4.59647875317160E-11  4.05621217086022E-02
 cg2d: Sum(rhs),rhsMax =  -4.61197746659536E-11  4.03985054743678E-02
 cg2d: Sum(rhs),rhsMax =  -4.62515581389766E-11  4.02189379365921E-02
 cg2d: Sum(rhs),rhsMax =  -4.64339677819225E-11  4.00235339739331E-02
 cg2d: Sum(rhs),rhsMax =  -4.66109373320478E-11  3.98124181871206E-02
 cg2d: Sum(rhs),rhsMax =  -4.68233229966586E-11  3.95857247142543E-02
 cg2d: Sum(rhs),rhsMax =  -4.70409267094851E-11  3.93435970374107E-02
 cg2d: Sum(rhs),rhsMax =  -4.73044936555311E-11  3.90861877826134E-02
 cg2d: Sum(rhs),rhsMax =  -4.75421924051034E-11  3.88136585149156E-02
 cg2d: Sum(rhs),rhsMax =  -4.78505013390418E-11  3.85261795299227E-02
 cg2d: Sum(rhs),rhsMax =  -4.81283901621055E-11  3.82239296426127E-02
 cg2d: Sum(rhs),rhsMax =  -4.84399187428153E-11  3.79070959738555E-02
 cg2d: Sum(rhs),rhsMax =  -4.87766493861841E-11  3.75758737346456E-02
 cg2d: Sum(rhs),rhsMax =  -4.91252594159164E-11  3.72304660077755E-02
 cg2d: Sum(rhs),rhsMax =  -4.94752017132782E-11  3.68710835265002E-02
 cg2d: Sum(rhs),rhsMax =  -4.99135177634003E-11  3.64979444496890E-02
 cg2d: Sum(rhs),rhsMax =  -5.04227770647958E-11  3.61112741330021E-02
 cg2d: Sum(rhs),rhsMax =  -5.09322584107963E-11  3.57113048957580E-02
 cg2d: Sum(rhs),rhsMax =  -5.15021358893364E-11  3.52982757833375E-02
 cg2d: Sum(rhs),rhsMax =  -5.20488097066618E-11  3.48724323251746E-02
 cg2d: Sum(rhs),rhsMax =  -5.26456656047003E-11  3.44340262885849E-02
 cg2d: Sum(rhs),rhsMax =  -5.32803801078785E-11  3.39833154288536E-02
 cg2d: Sum(rhs),rhsMax =  -5.39264188859079E-11  3.35205632361483E-02
 cg2d: Sum(rhs),rhsMax =  -5.46653833310984E-11  3.30460386799101E-02
 cg2d: Sum(rhs),rhsMax =  -5.53824763827038E-11  3.25600159514431E-02
 cg2d: Sum(rhs),rhsMax =  -5.61710677970950E-11  3.20627742050554E-02
 cg2d: Sum(rhs),rhsMax =  -5.70208325001431E-11  3.15545972983808E-02
 cg2d: Sum(rhs),rhsMax =  -5.79105652320777E-11  3.10357735354930E-02
 cg2d: Sum(rhs),rhsMax =  -5.88141757518201E-11  3.05065954104160E-02
 cg2d: Sum(rhs),rhsMax =  -5.97731864004913E-11  2.99673593519968E-02
 cg2d: Sum(rhs),rhsMax =  -6.07954797615662E-11  2.94183654711457E-02
 cg2d: Sum(rhs),rhsMax =  -6.18846085487235E-11  2.88599173114067E-02
 cg2d: Sum(rhs),rhsMax =  -6.30316909777662E-11  2.82923216036296E-02
 cg2d: Sum(rhs),rhsMax =  -6.42239594839111E-11  2.77158880253283E-02
 cg2d: Sum(rhs),rhsMax =  -6.55017151629522E-11  2.71309289651508E-02
 cg2d: Sum(rhs),rhsMax =  -6.68559652083900E-11  2.65377592928998E-02
 cg2d: Sum(rhs),rhsMax =  -6.82844891741752E-11  2.59366961349041E-02
 cg2d: Sum(rhs),rhsMax =  -6.99158508865594E-11  2.53280586544152E-02
 cg2d: Sum(rhs),rhsMax =  -7.16204873185688E-11  2.47121678383906E-02
 cg2d: Sum(rhs),rhsMax =  -7.33966221133642E-11  2.40893462889244E-02
 cg2d: Sum(rhs),rhsMax =  -7.53231921279962E-11  2.34599180172965E-02
 cg2d: Sum(rhs),rhsMax =  -7.73817676602562E-11  2.28242082428756E-02
 cg2d: Sum(rhs),rhsMax =  -7.95564725208919E-11  2.21825431960568E-02
 cg2d: Sum(rhs),rhsMax =  -8.19058154633012E-11  2.15352499244464E-02
 cg2d: Sum(rhs),rhsMax =  -8.44219139040092E-11  2.08826561019328E-02
 cg2d: Sum(rhs),rhsMax =  -8.71009930847322E-11  2.02250898398108E-02
 cg2d: Sum(rhs),rhsMax =  -8.99705865364808E-11  1.95628794994595E-02
 cg2d: Sum(rhs),rhsMax =  -9.30685528643949E-11  1.88963535073675E-02
 cg2d: Sum(rhs),rhsMax =  -9.64394120117618E-11  1.82258401725041E-02
 cg2d: Sum(rhs),rhsMax =  -1.00057961915923E-10  1.75516675060221E-02
 cg2d: Sum(rhs),rhsMax =  -1.04047437332611E-10  1.68741630432579E-02
 cg2d: Sum(rhs),rhsMax =  -1.08319797575973E-10  1.61936536679645E-02
 cg2d: Sum(rhs),rhsMax =  -1.13010378832712E-10  1.55104654386809E-02
 cg2d: Sum(rhs),rhsMax =  -1.18153153927381E-10  1.48249234171122E-02
 cg2d: Sum(rhs),rhsMax =  -1.23839272170301E-10  1.41373514984048E-02
 cg2d: Sum(rhs),rhsMax =  -1.30085053839935E-10  1.34480722433409E-02
 cg2d: Sum(rhs),rhsMax =  -1.37010292000639E-10  1.27574067125264E-02
 cg2d: Sum(rhs),rhsMax =  -1.44808387503303E-10  1.20656743030792E-02
 cg2d: Sum(rhs),rhsMax =  -1.53611678932464E-10  1.13731925888324E-02
 cg2d: Sum(rhs),rhsMax =  -1.63507651862460E-10  1.06802771655542E-02
 cg2d: Sum(rhs),rhsMax =  -1.74838143962575E-10  9.98724150319257E-03
 cg2d: Sum(rhs),rhsMax =  -1.87830528908250E-10  9.29439680761629E-03
 cg2d: Sum(rhs),rhsMax =  -2.02898475798463E-10  8.60205189467065E-03
 cg2d: Sum(rhs),rhsMax =  -2.20580775867063E-10  7.91051307948887E-03
 cg2d: Sum(rhs),rhsMax =  -2.41584641180737E-10  7.22008408381706E-03
 cg2d: Sum(rhs),rhsMax =  -2.67029731659818E-10  6.53106596301744E-03
 cg2d: Sum(rhs),rhsMax =  -2.98379210228461E-10  5.84375705485058E-03
 cg2d: Sum(rhs),rhsMax =  -3.37931127525337E-10  5.15845295156875E-03
 cg2d: Sum(rhs),rhsMax =  -3.89322463156816E-10  4.47544649158331E-03
 cg2d: Sum(rhs),rhsMax =  -4.59019933174432E-10  3.79502776825942E-03
 cg2d: Sum(rhs),rhsMax =  -5.58745272272176E-10  3.11748415204460E-03
 cg2d: Sum(rhs),rhsMax =  -7.12941039537895E-10  2.44310032091604E-03
 cg2d: Sum(rhs),rhsMax =  -7.73929031971932E-10  2.25032701964170E-03
 cg2d: Sum(rhs),rhsMax =  -7.31048610536078E-10  2.38214908692639E-03
 cg2d: Sum(rhs),rhsMax =  -6.92744472896578E-10  2.51356988958645E-03
 cg2d: Sum(rhs),rhsMax =  -6.53816705636912E-10  2.66318685564631E-03
 cg2d: Sum(rhs),rhsMax =  -6.18655321416028E-10  2.81388868899192E-03
 cg2d: Sum(rhs),rhsMax =  -5.87363935267149E-10  2.96379409119177E-03
 cg2d: Sum(rhs),rhsMax =  -5.59122081966734E-10  3.11283275906148E-03
 cg2d: Sum(rhs),rhsMax =  -5.33757704701543E-10  3.26093387159636E-03
 cg2d: Sum(rhs),rhsMax =  -4.74352224166807E-10  3.66866324147794E-03
 cg2d: Sum(rhs),rhsMax =  -4.10091738345386E-10  4.24263513483629E-03
 cg2d: Sum(rhs),rhsMax =  -3.61022767236818E-10  4.81709140439779E-03
 cg2d: Sum(rhs),rhsMax =  -3.22693760601567E-10  5.38896450348040E-03
 cg2d: Sum(rhs),rhsMax =  -2.91370594318607E-10  5.96673660685501E-03
 cg2d: Sum(rhs),rhsMax =  -2.65806154864379E-10  6.53880318324427E-03
 cg2d: Sum(rhs),rhsMax =  -2.44096520773951E-10  7.11840312549286E-03
 cg2d: Sum(rhs),rhsMax =  -2.25718221891213E-10  7.69540509619841E-03
 cg2d: Sum(rhs),rhsMax =  -2.09883888047102E-10  8.27516450481257E-03
 cg2d: Sum(rhs),rhsMax =  -1.96278993058741E-10  8.84712674217309E-03
 cg2d: Sum(rhs),rhsMax =  -1.84467108255149E-10  9.41106665518267E-03
 cg2d: Sum(rhs),rhsMax =  -1.74052328105745E-10  9.96676316764844E-03
 cg2d: Sum(rhs),rhsMax =  -1.64893321219495E-10  1.05139993548360E-02
 cg2d: Sum(rhs),rhsMax =  -1.56760937564115E-10  1.10525625155624E-02
 cg2d: Sum(rhs),rhsMax =  -1.49494971957154E-10  1.15822442430696E-02
 cg2d: Sum(rhs),rhsMax =  -1.42999945218492E-10  1.21028404959909E-02
 cg2d: Sum(rhs),rhsMax =  -1.37097666552677E-10  1.26141516703223E-02
 cg2d: Sum(rhs),rhsMax =  -1.31783584045309E-10  1.31159826726841E-02
 cg2d: Sum(rhs),rhsMax =  -1.26944788014782E-10  1.36081429952233E-02
 cg2d: Sum(rhs),rhsMax =  -1.22503340804769E-10  1.40904467916208E-02
 cg2d: Sum(rhs),rhsMax =  -1.18482890165694E-10  1.45627129530675E-02
 cg2d: Sum(rhs),rhsMax =  -1.14752984892164E-10  1.50247651833909E-02
 cg2d: Sum(rhs),rhsMax =  -1.11270659353124E-10  1.54764320723686E-02
 cg2d: Sum(rhs),rhsMax =  -1.08050790537106E-10  1.59175471661478E-02
 cg2d: Sum(rhs),rhsMax =  -1.05087050172870E-10  1.63479490336408E-02
 cg2d: Sum(rhs),rhsMax =  -1.02353459041638E-10  1.67674813278560E-02
 cg2d: Sum(rhs),rhsMax =  -9.98074956015671E-11  1.71759928415878E-02
 cg2d: Sum(rhs),rhsMax =  -9.74269553921658E-11  1.75733375551952E-02
 cg2d: Sum(rhs),rhsMax =  -9.52368184314878E-11  1.79593746771507E-02
 cg2d: Sum(rhs),rhsMax =  -9.31984489582760E-11  1.83339686768816E-02
 cg2d: Sum(rhs),rhsMax =  -9.12918629580872E-11  1.86969893095896E-02
 cg2d: Sum(rhs),rhsMax =  -8.95472584971913E-11  1.90483116325302E-02
 cg2d: Sum(rhs),rhsMax =  -8.78733752429639E-11  1.93878160129650E-02
 cg2d: Sum(rhs),rhsMax =  -8.63760174496520E-11  1.97153881302127E-02
 cg2d: Sum(rhs),rhsMax =  -8.49410541903239E-11  2.00309189698034E-02
 cg2d: Sum(rhs),rhsMax =  -8.35936875276388E-11  2.03343048110229E-02
(PID.TID 0000.0001)      cg2d_init_res =   8.04249229766537E-02
(PID.TID 0000.0001)      cg2d_iters(min,last) =      -1      38
(PID.TID 0000.0001)      cg2d_last_res =   4.35833920610352E-14
(PID.TID 0000.0001) // =======================================================
(PID.TID 0000.0001) // Begin MONITOR dynamic field statistics
(PID.TID 0000.0001) // =======================================================
(PID.TID 0000.0001) %MON time_tsnumber                =                  2880
(PID.TID 0000.0001) %MON time_secondsf                =   4.3200000000000E+04
(PID.TID 0000.0001) %MON dynstat_eta_max              =   3.8167972936690E-03
(PID.TID 0000.0001) %MON dynstat_eta_min              =  -3.5484857539099E-03
(PID.TID 0000.0001) %MON dynstat_eta_mean             =   3.7448564513957E-15
(PID.TID 0000.0001) %MON dynstat_eta_sd               =   2.7897801860582E-03
(PID.TID 0000.0001) %MON dynstat_eta_del2             =   2.0006591997129E-06
(PID.TID 0000.0001) %MON dynstat_uvel_max             =   4.5178611519387E-01
(PID.TID 0000.0001) %MON dynstat_uvel_min             =  -4.1130846525884E-01
(PID.TID 0000.0001) %MON dynstat_uvel_mean            =   1.1363903744274E-01
(PID.TID 0000.0001) %MON dynstat_uvel_sd              =   3.2280655015273E-02
(PID.TID 0000.0001) %MON dynstat_uvel_del2            =   8.9393808239836E-05
(PID.TID 0000.0001) %MON dynstat_vvel_max             =   0.0000000000000E+00
(PID.TID 0000.0001) %MON dynstat_vvel_min             =   0.0000000000000E+00
(PID.TID 0000.0001) %MON dynstat_vvel_mean            =   0.0000000000000E+00
(PID.TID 0000.0001) %MON dynstat_vvel_sd              =   0.0000000000000E+00
(PID.TID 0000.0001) %MON dynstat_vvel_del2            =   0.0000000000000E+00
(PID.TID 0000.0001) %MON dynstat_wvel_max             =   2.2352998233700E-03
(PID.TID 0000.0001) %MON dynstat_wvel_min             =  -4.7855256757797E-03
(PID.TID 0000.0001) %MON dynstat_wvel_mean            =   3.8359536487815E-21
(PID.TID 0000.0001) %MON dynstat_wvel_sd              =   2.7108509225922E-04
(PID.TID 0000.0001) %MON dynstat_wvel_del2            =   4.6847874190273E-06
(PID.TID 0000.0001) %MON dynstat_theta_max            =   1.5000000000010E+01
(PID.TID 0000.0001) %MON dynstat_theta_min            =   9.9999999999949E+00
(PID.TID 0000.0001) %MON dynstat_theta_mean           =   1.4047653422126E+01
(PID.TID 0000.0001) %MON dynstat_theta_sd             =   1.8921684453306E+00
(PID.TID 0000.0001) %MON dynstat_theta_del2           =   3.2032588020987E-04
(PID.TID 0000.0001) %MON dynstat_salt_max             =   3.5000000000000E+01
(PID.TID 0000.0001) %MON dynstat_salt_min             =   3.5000000000000E+01
(PID.TID 0000.0001) %MON dynstat_salt_mean            =   3.5000000000000E+01
(PID.TID 0000.0001) %MON dynstat_salt_sd              =   3.0553337637684E-13
(PID.TID 0000.0001) %MON dynstat_salt_del2            =   0.0000000000000E+00
(PID.TID 0000.0001) %MON dynstat_sst_max              =   1.5000000000000E+01
(PID.TID 0000.0001) %MON dynstat_sst_min              =   1.5000000000000E+01
(PID.TID 0000.0001) %MON dynstat_sst_mean             =   1.5000000000000E+01
(PID.TID 0000.0001) %MON dynstat_sst_sd               =   1.6595349697945E-13
(PID.TID 0000.0001) %MON dynstat_sst_del2             =   6.7448492246074E-15
(PID.TID 0000.0001) %MON dynstat_sss_max              =   3.5000000000000E+01
(PID.TID 0000.0001) %MON dynstat_sss_min              =   3.5000000000000E+01
(PID.TID 0000.0001) %MON dynstat_sss_mean             =   3.5000000000000E+01
(PID.TID 0000.0001) %MON dynstat_sss_sd               =   2.8421709430404E-14
(PID.TID 0000.0001) %MON dynstat_sss_del2             =   0.0000000000000E+00
(PID.TID 0000.0001) %MON forcing_qnet_max             =   0.0000000000000E+00
(PID.TID 0000.0001) %MON forcing_qnet_min             =   0.0000000000000E+00
(PID.TID 0000.0001) %MON forcing_qnet_mean            =   0.0000000000000E+00
(PID.TID 0000.0001) %MON forcing_qnet_sd              =   0.0000000000000E+00
(PID.TID 0000.0001) %MON forcing_qnet_del2            =   0.0000000000000E+00
(PID.TID 0000.0001) %MON forcing_qsw_max              =   0.0000000000000E+00
(PID.TID 0000.0001) %MON forcing_qsw_min              =   0.0000000000000E+00
(PID.TID 0000.0001) %MON forcing_qsw_mean             =   0.0000000000000E+00
(PID.TID 0000.0001) %MON forcing_qsw_sd               =   0.0000000000000E+00
(PID.TID 0000.0001) %MON forcing_qsw_del2             =   0.0000000000000E+00
(PID.TID 0000.0001) %MON forcing_empmr_max            =   0.0000000000000E+00
(PID.TID 0000.0001) %MON forcing_empmr_min            =   0.0000000000000E+00
(PID.TID 0000.0001) %MON forcing_empmr_mean           =   0.0000000000000E+00
(PID.TID 0000.0001) %MON forcing_empmr_sd             =   0.0000000000000E+00
(PID.TID 0000.0001) %MON forcing_empmr_del2           =   0.0000000000000E+00
(PID.TID 0000.0001) %MON forcing_fu_max               =   0.0000000000000E+00
(PID.TID 0000.0001) %MON forcing_fu_min               =   0.0000000000000E+00
(PID.TID 0000.0001) %MON forcing_fu_mean              =   0.0000000000000E+00
(PID.TID 0000.0001) %MON forcing_fu_sd                =   0.0000000000000E+00
(PID.TID 0000.0001) %MON forcing_fu_del2              =   0.0000000000000E+00
(PID.TID 0000.0001) %MON forcing_fv_max               =   0.0000000000000E+00
(PID.TID 0000.0001) %MON forcing_fv_min               =   0.0000000000000E+00
(PID.TID 0000.0001) %MON forcing_fv_mean              =   0.0000000000000E+00
(PID.TID 0000.0001) %MON forcing_fv_sd                =   0.0000000000000E+00
(PID.TID 0000.0001) %MON forcing_fv_del2              =   0.0000000000000E+00
(PID.TID 0000.0001) %MON advcfl_uvel_max              =   3.3883958639540E-02
(PID.TID 0000.0001) %MON advcfl_vvel_max              =   0.0000000000000E+00
(PID.TID 0000.0001) %MON advcfl_wvel_max              =   2.4221127653831E-02
(PID.TID 0000.0001) %MON advcfl_W_hf_max              =   3.3883958639540E-02
(PID.TID 0000.0001) %MON pe_b_mean                    =   1.9289602471314E-07
(PID.TID 0000.0001) %MON ke_max                       =   5.4088741026392E-02
(PID.TID 0000.0001) %MON ke_mean                      =   6.9840485084296E-03
(PID.TID 0000.0001) %MON ke_vol                       =   9.6656965507697E+10
(PID.TID 0000.0001) %MON vort_r_min                   =   0.0000000000000E+00
(PID.TID 0000.0001) %MON vort_r_max                   =   0.0000000000000E+00
(PID.TID 0000.0001) %MON vort_a_mean                  =   0.0000000000000E+00
(PID.TID 0000.0001) %MON vort_a_sd                    =   0.0000000000000E+00
(PID.TID 0000.0001) %MON vort_p_mean                  =   0.0000000000000E+00
(PID.TID 0000.0001) %MON vort_p_sd                    =   0.0000000000000E+00
(PID.TID 0000.0001) %MON surfExpan_theta_mean         =   5.6796629134621E-20
(PID.TID 0000.0001) %MON surfExpan_salt_mean          =   8.0772255367679E-20
(PID.TID 0000.0001) // =======================================================
(PID.TID 0000.0001) // End MONITOR dynamic field statistics
(PID.TID 0000.0001) // =======================================================
(PID.TID 0000.0001) // =======================================================
(PID.TID 0000.0001) // Begin OBCS MONITOR field statistics
(PID.TID 0000.0001) // =======================================================
(PID.TID 0000.0001) %MON obc_E_uVel_max               =   1.1205712828732E-01
(PID.TID 0000.0001) %MON obc_E_uVel_min               =   1.1205712828732E-01
(PID.TID 0000.0001) %MON obc_E_uVel_mean              =   1.1205712828732E-01
(PID.TID 0000.0001) %MON obc_E_uVel_sd                =   0.0000000000000E+00
(PID.TID 0000.0001) %MON obc_E_uVel_Int               =   1.1205712828732E+05
(PID.TID 0000.0001) %MON obc_W_uVel_max               =   1.1205712828732E-01
(PID.TID 0000.0001) %MON obc_W_uVel_min               =   1.1205712828732E-01
(PID.TID 0000.0001) %MON obc_W_uVel_mean              =   1.1205712828732E-01
(PID.TID 0000.0001) %MON obc_W_uVel_sd                =   0.0000000000000E+00
(PID.TID 0000.0001) %MON obc_W_uVel_Int               =   1.1205712828732E+05
(PID.TID 0000.0001) // =======================================================
(PID.TID 0000.0001) // End OBCS MONITOR field statistics
(PID.TID 0000.0001) // =======================================================
(PID.TID 0000.0001) %CHECKPOINT      2880 0000002880
 cg2d: Sum(rhs),rhsMax =  -8.23622281487246E-11  2.06254472087368E-02
 cg2d: Sum(rhs),rhsMax =  -8.11964939728682E-11  2.09042529678366E-02
 cg2d: Sum(rhs),rhsMax =  -8.01221311519384E-11  2.11706341144504E-02
 cg2d: Sum(rhs),rhsMax =  -7.91543497413727E-11  2.14245078646836E-02
 cg2d: Sum(rhs),rhsMax =  -7.81580355990741E-11  2.16657965915993E-02
 cg2d: Sum(rhs),rhsMax =  -7.72190089648461E-11  2.18944277908374E-02
 cg2d: Sum(rhs),rhsMax =  -7.64032170863516E-11  2.21103340458774E-02
 cg2d: Sum(rhs),rhsMax =  -7.56436024929030E-11  2.23134529937216E-02
 cg2d: Sum(rhs),rhsMax =  -7.48954231966081E-11  2.25037272917571E-02
 cg2d: Sum(rhs),rhsMax =  -7.42621519833619E-11  2.26811045864704E-02
 cg2d: Sum(rhs),rhsMax =  -7.36535277212624E-11  2.28455374845574E-02
 cg2d: Sum(rhs),rhsMax =  -7.30976390528326E-11  2.29969835268013E-02
 cg2d: Sum(rhs),rhsMax =  -7.26390059213600E-11  2.31354051649029E-02
 cg2d: Sum(rhs),rhsMax =  -7.22075732539906E-11  2.32607697411727E-02
 cg2d: Sum(rhs),rhsMax =  -7.17995662924409E-11  2.33730494712097E-02
 cg2d: Sum(rhs),rhsMax =  -7.14072134755384E-11  2.34722214272719E-02
 cg2d: Sum(rhs),rhsMax =  -7.10321801378200E-11  2.35582675260640E-02
 cg2d: Sum(rhs),rhsMax =  -7.07515157571947E-11  2.36311745164805E-02
 cg2d: Sum(rhs),rhsMax =  -7.05931979538832E-11  2.36909339667988E-02
 cg2d: Sum(rhs),rhsMax =  -7.05359104458125E-11  2.37375422507606E-02
 cg2d: Sum(rhs),rhsMax =  -7.04616365254651E-11  2.37710005317408E-02
 cg2d: Sum(rhs),rhsMax =  -7.04947211715989E-11  2.37913147440878E-02
 cg2d: Sum(rhs),rhsMax =  -7.05202563011653E-11  2.37984955710229E-02
 cg2d: Sum(rhs),rhsMax =  -7.05246971932638E-11  2.37925584183945E-02
 cg2d: Sum(rhs),rhsMax =  -7.05886460394822E-11  2.37735233840632E-02
 cg2d: Sum(rhs),rhsMax =  -7.07419678391830E-11  2.37414152226384E-02
 cg2d: Sum(rhs),rhsMax =  -7.09220460137772E-11  2.36962633064944E-02
 cg2d: Sum(rhs),rhsMax =  -7.11682934806390E-11  2.36381015837654E-02
 cg2d: Sum(rhs),rhsMax =  -7.14758252584602E-11  2.35669685345227E-02
 cg2d: Sum(rhs),rhsMax =  -7.17785830772755E-11  2.34829071265367E-02
 cg2d: Sum(rhs),rhsMax =  -7.21304127537792E-11  2.33859647721115E-02
 cg2d: Sum(rhs),rhsMax =  -7.24923454598070E-11  2.32761932873904E-02
 cg2d: Sum(rhs),rhsMax =  -7.29211135919172E-11  2.31536488554853E-02
 cg2d: Sum(rhs),rhsMax =  -7.34078353659129E-11  2.30183919943569E-02
 cg2d: Sum(rhs),rhsMax =  -7.39495131796275E-11  2.28704875299166E-02
 cg2d: Sum(rhs),rhsMax =  -7.45444816985241E-11  2.27100045743765E-02
 cg2d: Sum(rhs),rhsMax =  -7.52092832456697E-11  2.25370165094177E-02
 cg2d: Sum(rhs),rhsMax =  -7.59144969109116E-11  2.23516009733108E-02
 cg2d: Sum(rhs),rhsMax =  -7.66798846640881E-11  2.21538398508349E-02
 cg2d: Sum(rhs),rhsMax =  -7.75103314865078E-11  2.19438192645644E-02
 cg2d: Sum(rhs),rhsMax =  -7.83983988839054E-11  2.17216295651536E-02
 cg2d: Sum(rhs),rhsMax =  -7.93555221534348E-11  2.14873653197581E-02
 cg2d: Sum(rhs),rhsMax =  -8.03060951071188E-11  2.12411252970424E-02
 cg2d: Sum(rhs),rhsMax =  -8.13639156049817E-11  2.09830124474340E-02
 cg2d: Sum(rhs),rhsMax =  -8.24980084246363E-11  2.07131338775728E-02
 cg2d: Sum(rhs),rhsMax =  -8.36670732695666E-11  2.04316008182545E-02
 cg2d: Sum(rhs),rhsMax =  -8.49699199889642E-11  2.01385285855201E-02
 cg2d: Sum(rhs),rhsMax =  -8.63601412603998E-11  1.98340365348715E-02
 cg2d: Sum(rhs),rhsMax =  -8.78026540362953E-11  1.95182480089294E-02
 cg2d: Sum(rhs),rhsMax =  -8.93691787240414E-11  1.91912902791467E-02
 cg2d: Sum(rhs),rhsMax =  -9.10599373682430E-11  1.88532944824501E-02
 cg2d: Sum(rhs),rhsMax =  -9.28573884451112E-11  1.85043955539310E-02
 cg2d: Sum(rhs),rhsMax =  -9.47520950589364E-11  1.81447321569339E-02
 cg2d: Sum(rhs),rhsMax =  -9.68355395869480E-11  1.77744466120806E-02
 cg2d: Sum(rhs),rhsMax =  -9.90262316591384E-11  1.73936848268875E-02
 cg2d: Sum(rhs),rhsMax =  -1.01429531440544E-10  1.70025962276500E-02
 cg2d: Sum(rhs),rhsMax =  -1.03990593913750E-10  1.66013336951657E-02
 cg2d: Sum(rhs),rhsMax =  -1.06729070026290E-10  1.61900535056310E-02
 cg2d: Sum(rhs),rhsMax =  -1.09728226505013E-10  1.57689152776843E-02
 cg2d: Sum(rhs),rhsMax =  -1.12924669615211E-10  1.53380819261100E-02
 cg2d: Sum(rhs),rhsMax =  -1.16391563054208E-10  1.48977196221924E-02
 cg2d: Sum(rhs),rhsMax =  -1.20081056209642E-10  1.44479977601348E-02
 cg2d: Sum(rhs),rhsMax =  -1.24062093931343E-10  1.39890889284898E-02
 cg2d: Sum(rhs),rhsMax =  -1.28448141012427E-10  1.35211688851316E-02
 cg2d: Sum(rhs),rhsMax =  -1.33223321263642E-10  1.30444165340427E-02
 cg2d: Sum(rhs),rhsMax =  -1.38399958160562E-10  1.25590139021069E-02
 cg2d: Sum(rhs),rhsMax =  -1.44189771233982E-10  1.20651461142277E-02
 cg2d: Sum(rhs),rhsMax =  -1.50538026488789E-10  1.15630013654231E-02
 cg2d: Sum(rhs),rhsMax =  -1.57558854851914E-10  1.10527708890270E-02
 cg2d: Sum(rhs),rhsMax =  -1.65391367268342E-10  1.05346489207340E-02
 cg2d: Sum(rhs),rhsMax =  -1.74212311243593E-10  1.00088326588606E-02
 cg2d: Sum(rhs),rhsMax =  -1.84128712277243E-10  9.47552222181188E-03
 cg2d: Sum(rhs),rhsMax =  -1.95367277910918E-10  8.93492060401341E-03
 cg2d: Sum(rhs),rhsMax =  -2.08188133399290E-10  8.38723363224607E-03
 cg2d: Sum(rhs),rhsMax =  -2.22960983009557E-10  7.83266992570633E-03
 cg2d: Sum(rhs),rhsMax =  -2.40239939053311E-10  7.27144086014514E-03
 cg2d: Sum(rhs),rhsMax =  -2.60643839844477E-10  6.70376053786865E-03
 cg2d: Sum(rhs),rhsMax =  -2.85109380548931E-10  6.12984576547649E-03
 cg2d: Sum(rhs),rhsMax =  -3.14903547682377E-10  5.54991603867836E-03
 cg2d: Sum(rhs),rhsMax =  -3.52161966254982E-10  4.96419353535030E-03
 cg2d: Sum(rhs),rhsMax =  -3.99854149790713E-10  4.37290311581403E-03
 cg2d: Sum(rhs),rhsMax =  -4.63160620967074E-10  3.77627232951220E-03
 cg2d: Sum(rhs),rhsMax =  -5.42278111304029E-10  3.22557706678061E-03
 cg2d: Sum(rhs),rhsMax =  -5.71011571359747E-10  3.06384804384883E-03
 cg2d: Sum(rhs),rhsMax =  -6.03100958063152E-10  2.90129507788384E-03
 cg2d: Sum(rhs),rhsMax =  -6.39141295444290E-10  2.73800361788080E-03
 cg2d: Sum(rhs),rhsMax =  -6.79866080099956E-10  2.57405933082585E-03
 cg2d: Sum(rhs),rhsMax =  -7.26325360966840E-10  2.40954796268614E-03
 cg2d: Sum(rhs),rhsMax =  -7.60892460149876E-10  2.29996339188860E-03
 cg2d: Sum(rhs),rhsMax =  -6.86795176285671E-10  2.54852677424681E-03
 cg2d: Sum(rhs),rhsMax =  -6.20393736383562E-10  2.82153641265545E-03
 cg2d: Sum(rhs),rhsMax =  -5.38337041611214E-10  3.25191959695094E-03
 cg2d: Sum(rhs),rhsMax =  -4.64463800753379E-10  3.76909924852530E-03
 cg2d: Sum(rhs),rhsMax =  -4.07418321302089E-10  4.29684384363592E-03
 cg2d: Sum(rhs),rhsMax =  -3.61930263537147E-10  4.83793573489766E-03
 cg2d: Sum(rhs),rhsMax =  -3.24789750649757E-10  5.39255952258912E-03
 cg2d: Sum(rhs),rhsMax =  -2.94232749276091E-10  5.95487168213395E-03
 cg2d: Sum(rhs),rhsMax =  -2.68391420199521E-10  6.53021873363829E-03
 cg2d: Sum(rhs),rhsMax =  -2.46365927658587E-10  7.11520352845941E-03
 cg2d: Sum(rhs),rhsMax =  -2.27508678563026E-10  7.70707175785735E-03
 cg2d: Sum(rhs),rhsMax =  -2.10949591128440E-10  8.31366434358398E-03
 cg2d: Sum(rhs),rhsMax =  -1.96514915451473E-10  8.92761657099775E-03
 cg2d: Sum(rhs),rhsMax =  -1.83661530428481E-10  9.55510608583954E-03
 cg2d: Sum(rhs),rhsMax =  -1.71984870789288E-10  1.02058841391262E-02
 cg2d: Sum(rhs),rhsMax =  -1.61734403647529E-10  1.08563593783900E-02
 cg2d: Sum(rhs),rhsMax =  -1.52603707448407E-10  1.15059255982267E-02
 cg2d: Sum(rhs),rhsMax =  -1.44503631283044E-10  1.21542942880390E-02
 cg2d: Sum(rhs),rhsMax =  -1.37317601733855E-10  1.28011754359362E-02
 cg2d: Sum(rhs),rhsMax =  -1.30827015887292E-10  1.34462776676809E-02
 cg2d: Sum(rhs),rhsMax =  -1.24947274748877E-10  1.40893083950501E-02
 cg2d: Sum(rhs),rhsMax =  -1.19604992576683E-10  1.47299739735138E-02
 cg2d: Sum(rhs),rhsMax =  -1.14720566379845E-10  1.53679798689574E-02
 cg2d: Sum(rhs),rhsMax =  -1.10265574448931E-10  1.60030308329655E-02
 cg2d: Sum(rhs),rhsMax =  -1.06132547195159E-10  1.66348310859319E-02
 cg2d: Sum(rhs),rhsMax =  -1.02342023744484E-10  1.72630845069985E-02
 cg2d: Sum(rhs),rhsMax =  -9.88259474254960E-11  1.78874948298472E-02
 cg2d: Sum(rhs),rhsMax =  -9.55762136101157E-11  1.85077658426568E-02
 cg2d: Sum(rhs),rhsMax =  -9.25666210349618E-11  1.91236015906835E-02
 cg2d: Sum(rhs),rhsMax =  -8.97460994409016E-11  1.97347065798661E-02
 cg2d: Sum(rhs),rhsMax =  -8.71372973776374E-11  2.03407859801339E-02
 cg2d: Sum(rhs),rhsMax =  -8.46946957011596E-11  2.09415458265793E-02
 cg2d: Sum(rhs),rhsMax =  -8.23853207876368E-11  2.15366932169379E-02
 cg2d: Sum(rhs),rhsMax =  -8.02491406659556E-11  2.21259365054847E-02
 cg2d: Sum(rhs),rhsMax =  -7.82608422511544E-11  2.27089854928686E-02
 cg2d: Sum(rhs),rhsMax =  -7.63603624776010E-11  2.32855516118620E-02
 cg2d: Sum(rhs),rhsMax =  -7.45956629799593E-11  2.38553481095039E-02
 cg2d: Sum(rhs),rhsMax =  -7.29734050963771E-11  2.44180902265702E-02
 cg2d: Sum(rhs),rhsMax =  -7.14721615224789E-11  2.49734953756417E-02
 cg2d: Sum(rhs),rhsMax =  -7.00545177423351E-11  2.55212833192166E-02
 cg2d: Sum(rhs),rhsMax =  -6.87089274364894E-11  2.60611763493177E-02
 cg2d: Sum(rhs),rhsMax =  -6.74539313294531E-11  2.65928994699134E-02
 cg2d: Sum(rhs),rhsMax =  -6.62159216346936E-11  2.71161805831989E-02
 cg2d: Sum(rhs),rhsMax =  -6.51035891863216E-11  2.76307506804154E-02
 cg2d: Sum(rhs),rhsMax =  -6.40401065510332E-11  2.81363440374580E-02
 cg2d: Sum(rhs),rhsMax =  -6.29770680049546E-11  2.86326984150995E-02
 cg2d: Sum(rhs),rhsMax =  -6.20250517613385E-11  2.91195552632540E-02
 cg2d: Sum(rhs),rhsMax =  -6.10892447738820E-11  2.95966599279422E-02
 cg2d: Sum(rhs),rhsMax =  -6.02455862974693E-11  3.00637618610823E-02
 cg2d: Sum(rhs),rhsMax =  -5.94156945865620E-11  3.05206148307234E-02
 cg2d: Sum(rhs),rhsMax =  -5.86474202535214E-11  3.09669771304573E-02
 cg2d: Sum(rhs),rhsMax =  -5.78674885787223E-11  3.14026117870943E-02
 cg2d: Sum(rhs),rhsMax =  -5.71777070135226E-11  3.18272867639575E-02
 cg2d: Sum(rhs),rhsMax =  -5.64867042029960E-11  3.22407751604748E-02
 cg2d: Sum(rhs),rhsMax =  -5.58454393839725E-11  3.26428554093117E-02
 cg2d: Sum(rhs),rhsMax =  -5.52726753255683E-11  3.30333114657319E-02
 cg2d: Sum(rhs),rhsMax =  -5.46824807656776E-11  3.34119329916205E-02
 cg2d: Sum(rhs),rhsMax =  -5.41364730821670E-11  3.37785155341752E-02
 cg2d: Sum(rhs),rhsMax =  -5.36238831116975E-11  3.41328606993250E-02
 cg2d: Sum(rhs),rhsMax =  -5.32245358897399E-11  3.44747763199781E-02
 cg2d: Sum(rhs),rhsMax =  -5.28129762145113E-11  3.48040766192776E-02
 cg2d: Sum(rhs),rhsMax =  -5.24125187695290E-11  3.51205823691015E-02
 cg2d: Sum(rhs),rhsMax =  -5.20657961189386E-11  3.54241210440694E-02
 cg2d: Sum(rhs),rhsMax =  -5.17336173899707E-11  3.57145269712290E-02
 cg2d: Sum(rhs),rhsMax =  -5.14016607056078E-11  3.59916414756129E-02
 cg2d: Sum(rhs),rhsMax =  -5.10897990579906E-11  3.62553130220673E-02
 cg2d: Sum(rhs),rhsMax =  -5.08580955127513E-11  3.65053973531061E-02
 cg2d: Sum(rhs),rhsMax =  -5.05611108536641E-11  3.67417576227188E-02
 cg2d: Sum(rhs),rhsMax =  -5.03275199292830E-11  3.69642645259703E-02
 cg2d: Sum(rhs),rhsMax =  -5.00895991351058E-11  3.71727964241621E-02
 cg2d: Sum(rhs),rhsMax =  -4.98625585265700E-11  3.73672394652361E-02
 cg2d: Sum(rhs),rhsMax =  -4.96989116527402E-11  3.75474876988743E-02
 cg2d: Sum(rhs),rhsMax =  -4.95146146306524E-11  3.77134431861391E-02
 cg2d: Sum(rhs),rhsMax =  -4.93758367525743E-11  3.78650161030194E-02
 cg2d: Sum(rhs),rhsMax =  -4.92719198774694E-11  3.80021248369360E-02
 cg2d: Sum(rhs),rhsMax =  -4.91459095641744E-11  3.81246960756137E-02
 cg2d: Sum(rhs),rhsMax =  -4.90452123358409E-11  3.82326648877302E-02
 cg2d: Sum(rhs),rhsMax =  -4.90208984516016E-11  3.83259747947501E-02
 cg2d: Sum(rhs),rhsMax =  -4.89620566312965E-11  3.84045778333626E-02
 cg2d: Sum(rhs),rhsMax =  -4.89294160743725E-11  3.84684346079965E-02
 cg2d: Sum(rhs),rhsMax =  -4.89239759815518E-11  3.85175143329742E-02
 cg2d: Sum(rhs),rhsMax =  -4.89183138441263E-11  3.85517948639736E-02
 cg2d: Sum(rhs),rhsMax =  -4.88756812799807E-11  3.85712627186293E-02
 cg2d: Sum(rhs),rhsMax =  -4.89777107759437E-11  3.85759130860745E-02
 cg2d: Sum(rhs),rhsMax =  -4.89261964276011E-11  3.85657498254279E-02
 cg2d: Sum(rhs),rhsMax =  -4.88799001274742E-11  3.85407854533133E-02
 cg2d: Sum(rhs),rhsMax =  -4.88475926374576E-11  3.85010411211029E-02
 cg2d: Sum(rhs),rhsMax =  -4.88608042914507E-11  3.84465465815636E-02
 cg2d: Sum(rhs),rhsMax =  -4.89065454800652E-11  3.83773401455614E-02
 cg2d: Sum(rhs),rhsMax =  -4.89518425794699E-11  3.82934686292152E-02
 cg2d: Sum(rhs),rhsMax =  -4.89942530990106E-11  3.81949872919738E-02
 cg2d: Sum(rhs),rhsMax =  -4.90811835618388E-11  3.80819597661509E-02
 cg2d: Sum(rhs),rhsMax =  -4.91370277799774E-11  3.79544579784657E-02
 cg2d: Sum(rhs),rhsMax =  -4.92874629998141E-11  3.78125620641072E-02
 cg2d: Sum(rhs),rhsMax =  -4.94581042786990E-11  3.76563602741212E-02
 cg2d: Sum(rhs),rhsMax =  -4.96226393309485E-11  3.74859488757006E-02
 cg2d: Sum(rhs),rhsMax =  -4.98072694199436E-11  3.73014320456700E-02
 cg2d: Sum(rhs),rhsMax =  -5.00181007723199E-11  3.71029217578490E-02
 cg2d: Sum(rhs),rhsMax =  -5.02354824405415E-11  3.68905376641459E-02
 cg2d: Sum(rhs),rhsMax =  -5.05053776578279E-11  3.66644069691006E-02
 cg2d: Sum(rhs),rhsMax =  -5.07475172994987E-11  3.64246642975160E-02
 cg2d: Sum(rhs),rhsMax =  -5.10400610664874E-11  3.61714515547945E-02
 cg2d: Sum(rhs),rhsMax =  -5.13371567478771E-11  3.59049177796130E-02
 cg2d: Sum(rhs),rhsMax =  -5.16453546595130E-11  3.56252189886263E-02
 cg2d: Sum(rhs),rhsMax =  -5.19839726820237E-11  3.53325180130103E-02
 cg2d: Sum(rhs),rhsMax =  -5.23208143476950E-11  3.50269843268601E-02
 cg2d: Sum(rhs),rhsMax =  -5.27108356962458E-11  3.47087938677446E-02
 cg2d: Sum(rhs),rhsMax =  -5.30903099260627E-11  3.43781288500971E-02
 cg2d: Sum(rhs),rhsMax =  -5.35930189116129E-11  3.40351775725670E-02
 cg2d: Sum(rhs),rhsMax =  -5.41473532678083E-11  3.36801342209323E-02
 cg2d: Sum(rhs),rhsMax =  -5.46467315842847E-11  3.33131986686573E-02
 cg2d: Sum(rhs),rhsMax =  -5.52348167204286E-11  3.29345762775862E-02
 cg2d: Sum(rhs),rhsMax =  -5.58368906666828E-11  3.25444777015643E-02
 cg2d: Sum(rhs),rhsMax =  -5.64650548540158E-11  3.21431186958942E-02
 cg2d: Sum(rhs),rhsMax =  -5.71408476091051E-11  3.17307199354230E-02
 cg2d: Sum(rhs),rhsMax =  -5.78663783556976E-11  3.13075068436896E-02
 cg2d: Sum(rhs),rhsMax =  -5.86177772987639E-11  3.08737094349316E-02
 cg2d: Sum(rhs),rhsMax =  -5.93843862972676E-11  3.04295621698867E-02
 cg2d: Sum(rhs),rhsMax =  -6.02233818369768E-11  2.99753038252911E-02
 cg2d: Sum(rhs),rhsMax =  -6.10814732127096E-11  2.95111773758478E-02
 cg2d: Sum(rhs),rhsMax =  -6.20374862592143E-11  2.90374298863523E-02
 cg2d: Sum(rhs),rhsMax =  -6.29956087294659E-11  2.85543124104758E-02
 cg2d: Sum(rhs),rhsMax =  -6.39961417192580E-11  2.80620798916594E-02
 cg2d: Sum(rhs),rhsMax =  -6.50950404690320E-11  2.75609910647425E-02
 cg2d: Sum(rhs),rhsMax =  -6.62010446461636E-11  2.70513083509976E-02
 cg2d: Sum(rhs),rhsMax =  -6.74273969991646E-11  2.65332977427194E-02
 cg2d: Sum(rhs),rhsMax =  -6.86750656342383E-11  2.60072286742849E-02
 cg2d: Sum(rhs),rhsMax =  -6.99993396580112E-11  2.54733738775537E-02
 cg2d: Sum(rhs),rhsMax =  -7.14130976575689E-11  2.49320092205103E-02
 cg2d: Sum(rhs),rhsMax =  -7.29140081645596E-11  2.43834135291079E-02
 cg2d: Sum(rhs),rhsMax =  -7.44948547293234E-11  2.38278683933644E-02
 cg2d: Sum(rhs),rhsMax =  -7.61889440425989E-11  2.32656579597049E-02
 cg2d: Sum(rhs),rhsMax =  -7.80705500247336E-11  2.26970687112793E-02
 cg2d: Sum(rhs),rhsMax =  -8.00217669905123E-11  2.21223892401257E-02
 cg2d: Sum(rhs),rhsMax =  -8.21263057559918E-11  2.15419100145129E-02
 cg2d: Sum(rhs),rhsMax =  -8.43605185707474E-11  2.09559231439211E-02
 cg2d: Sum(rhs),rhsMax =  -8.67639293744560E-11  2.03647221435839E-02
 cg2d: Sum(rhs),rhsMax =  -8.93429774606602E-11  1.97686016999464E-02
 cg2d: Sum(rhs),rhsMax =  -9.20852283314844E-11  1.91678574409467E-02
 cg2d: Sum(rhs),rhsMax =  -9.50333145510740E-11  1.85627857121175E-02
 cg2d: Sum(rhs),rhsMax =  -9.81892345208735E-11  1.79536833591390E-02
 cg2d: Sum(rhs),rhsMax =  -1.01586183909319E-10  1.73408475172987E-02
 cg2d: Sum(rhs),rhsMax =  -1.05262021321550E-10  1.67245754082842E-02
 cg2d: Sum(rhs),rhsMax =  -1.09249165269887E-10  1.61051641447664E-02
 cg2d: Sum(rhs),rhsMax =  -1.13588916050844E-10  1.54829105432299E-02
 cg2d: Sum(rhs),rhsMax =  -1.18232090784431E-10  1.48581109454835E-02
 cg2d: Sum(rhs),rhsMax =  -1.23360655024385E-10  1.42310610492040E-02
 cg2d: Sum(rhs),rhsMax =  -1.28968280499464E-10  1.36020557477487E-02
 cg2d: Sum(rhs),rhsMax =  -1.35154665237280E-10  1.29713889793058E-02
 cg2d: Sum(rhs),rhsMax =  -1.41973210965318E-10  1.23393535852630E-02
 cg2d: Sum(rhs),rhsMax =  -1.49568912810594E-10  1.17062411774674E-02
 cg2d: Sum(rhs),rhsMax =  -1.58019153317923E-10  1.10723420138407E-02
 cg2d: Sum(rhs),rhsMax =  -1.67580394005995E-10  1.04379448815348E-02
 cg2d: Sum(rhs),rhsMax =  -1.78405068496090E-10  9.80333698685033E-03
 cg2d: Sum(rhs),rhsMax =  -1.90691351598105E-10  9.16880385108499E-03
 cg2d: Sum(rhs),rhsMax =  -2.04806505088584E-10  8.53462921146957E-03
 cg2d: Sum(rhs),rhsMax =  -2.21207163697557E-10  7.90109492642868E-03
 cg2d: Sum(rhs),rhsMax =  -2.40371944570938E-10  7.26848088455953E-03
 cg2d: Sum(rhs),rhsMax =  -2.63192134752899E-10  6.63706491692892E-03
 cg2d: Sum(rhs),rhsMax =  -2.90705237659949E-10  6.00712271250345E-03
 cg2d: Sum(rhs),rhsMax =  -3.24579030319683E-10  5.37892773671386E-03
 cg2d: Sum(rhs),rhsMax =  -3.67270214240989E-10  4.75275115328367E-03
 cg2d: Sum(rhs),rhsMax =  -4.22631152297015E-10  4.12886174951614E-03
 cg2d: Sum(rhs),rhsMax =  -4.97371810403990E-10  3.50752586520203E-03
 cg2d: Sum(rhs),rhsMax =  -6.03815553112952E-10  2.88900732421632E-03
 cg2d: Sum(rhs),rhsMax =  -6.12493167295725E-10  2.84790505900823E-03
 cg2d: Sum(rhs),rhsMax =  -5.77216219266319E-10  3.02193263490893E-03
 cg2d: Sum(rhs),rhsMax =  -5.45909123461641E-10  3.19503966380056E-03
 cg2d: Sum(rhs),rhsMax =  -5.17905933417051E-10  3.36714761440594E-03
 cg2d: Sum(rhs),rhsMax =  -4.92811610963706E-10  3.53817725040571E-03
 cg2d: Sum(rhs),rhsMax =  -4.70222527582109E-10  3.70805197262106E-03
 cg2d: Sum(rhs),rhsMax =  -4.49713766226267E-10  3.87669621775335E-03
 cg2d: Sum(rhs),rhsMax =  -4.30988356114881E-10  4.04403445534081E-03
 cg2d: Sum(rhs),rhsMax =  -4.13841405588755E-10  4.20999131328453E-03
 cg2d: Sum(rhs),rhsMax =  -3.98251320810061E-10  4.37449209942481E-03
 cg2d: Sum(rhs),rhsMax =  -3.83891696209560E-10  4.53746266002708E-03
 cg2d: Sum(rhs),rhsMax =  -3.70541597405349E-10  4.69882936951312E-03
 cg2d: Sum(rhs),rhsMax =  -3.58269414135748E-10  4.85851963124991E-03
 cg2d: Sum(rhs),rhsMax =  -3.23328919193955E-10  5.38274805133091E-03
 cg2d: Sum(rhs),rhsMax =  -2.94777979803484E-10  5.90275076930307E-03
 cg2d: Sum(rhs),rhsMax =  -2.70590660989001E-10  6.42885122692758E-03
 cg2d: Sum(rhs),rhsMax =  -2.50155895997750E-10  6.95244153043533E-03
 cg2d: Sum(rhs),rhsMax =  -2.32505792396864E-10  7.47833237224816E-03
 cg2d: Sum(rhs),rhsMax =  -2.17373230526618E-10  7.99694324308415E-03
 cg2d: Sum(rhs),rhsMax =  -2.04312455842626E-10  8.50807181734068E-03
 cg2d: Sum(rhs),rhsMax =  -1.92836857593193E-10  9.01151939786454E-03
 cg2d: Sum(rhs),rhsMax =  -1.82645676360949E-10  9.50709096970179E-03
 cg2d: Sum(rhs),rhsMax =  -1.73643988077288E-10  9.99459525302013E-03
 cg2d: Sum(rhs),rhsMax =  -1.65595426260268E-10  1.04738447558374E-02
 cg2d: Sum(rhs),rhsMax =  -1.58417501339159E-10  1.09446558254641E-02
 cg2d: Sum(rhs),rhsMax =  -1.51876844434184E-10  1.14068486986479E-02
 cg2d: Sum(rhs),rhsMax =  -1.46008205526016E-10  1.18602475504938E-02
 cg2d: Sum(rhs),rhsMax =  -1.40647604673916E-10  1.23046805422942E-02
 cg2d: Sum(rhs),rhsMax =  -1.35781164090076E-10  1.27399798684404E-02
 cg2d: Sum(rhs),rhsMax =  -1.31333943720335E-10  1.31659818026166E-02
 cg2d: Sum(rhs),rhsMax =  -1.27225341373105E-10  1.35825267434905E-02
 cg2d: Sum(rhs),rhsMax =  -1.23476451285853E-10  1.39894592601188E-02
 cg2d: Sum(rhs),rhsMax =  -1.19913190488319E-10  1.43866281377126E-02
 cg2d: Sum(rhs),rhsMax =  -1.16658127602420E-10  1.47738864226031E-02
 cg2d: Sum(rhs),rhsMax =  -1.13622444786188E-10  1.51510914673209E-02
 cg2d: Sum(rhs),rhsMax =  -1.10837228284311E-10  1.55181049757920E-02
 cg2d: Sum(rhs),rhsMax =  -1.08273834342754E-10  1.58747930475582E-02
 cg2d: Sum(rhs),rhsMax =  -1.05818576123795E-10  1.62210262221493E-02
 cg2d: Sum(rhs),rhsMax =  -1.03579145260824E-10  1.65566795227232E-02
 cg2d: Sum(rhs),rhsMax =  -1.01491592907621E-10  1.68816324977384E-02
 cg2d: Sum(rhs),rhsMax =  -9.95659110714087E-11  1.71957692590636E-02
 cg2d: Sum(rhs),rhsMax =  -9.77891101427986E-11  1.74989785149169E-02
 cg2d: Sum(rhs),rhsMax =  -9.60794777071783E-11  1.77911535990548E-02
 cg2d: Sum(rhs),rhsMax =  -9.45097333726608E-11  1.80721924953766E-02
 cg2d: Sum(rhs),rhsMax =  -9.30736598903081E-11  1.83419978570850E-02
 cg2d: Sum(rhs),rhsMax =  -9.17027564995010E-11  1.86004770196786E-02
 cg2d: Sum(rhs),rhsMax =  -9.04452068795081E-11  1.88475420073232E-02
 cg2d: Sum(rhs),rhsMax =  -8.92739215885285E-11  1.90831095324416E-02
 cg2d: Sum(rhs),rhsMax =  -8.81813511099949E-11  1.93071009886331E-02
 cg2d: Sum(rhs),rhsMax =  -8.70965521926337E-11  1.95194424372745E-02
 cg2d: Sum(rhs),rhsMax =  -8.61186677525438E-11  1.97200645883626E-02
 cg2d: Sum(rhs),rhsMax =  -8.52196091472024E-11  1.99089027763596E-02
 cg2d: Sum(rhs),rhsMax =  -8.43936032168813E-11  2.00858969319868E-02
 cg2d: Sum(rhs),rhsMax =  -8.36247737723284E-11  2.02509915508873E-02
 cg2d: Sum(rhs),rhsMax =  -8.29302182481229E-11  2.04041356607529E-02
 cg2d: Sum(rhs),rhsMax =  -8.23078272205180E-11  2.05452827883471E-02
 cg2d: Sum(rhs),rhsMax =  -8.17248491102873E-11  2.06743909273814E-02
 cg2d: Sum(rhs),rhsMax =  -8.11889444563008E-11  2.07914225093256E-02
 cg2d: Sum(rhs),rhsMax =  -8.07353073284389E-11  2.08963443776316E-02
 cg2d: Sum(rhs),rhsMax =  -8.03535016302703E-11  2.09891277665557E-02
 cg2d: Sum(rhs),rhsMax =  -7.99540433860102E-11  2.10697482855782E-02
 cg2d: Sum(rhs),rhsMax =  -7.95998822411548E-11  2.11381859098805E-02
 cg2d: Sum(rhs),rhsMax =  -7.92919063741238E-11  2.11944249769683E-02
 cg2d: Sum(rhs),rhsMax =  -7.89412979429471E-11  2.12384541891790E-02
 cg2d: Sum(rhs),rhsMax =  -7.87697684856425E-11  2.12702666211714E-02
 cg2d: Sum(rhs),rhsMax =  -7.86040121880660E-11  2.12898597310827E-02
 cg2d: Sum(rhs),rhsMax =  -7.85704834527223E-11  2.12972353737265E-02
 cg2d: Sum(rhs),rhsMax =  -7.86452014622796E-11  2.12923998140220E-02
 cg2d: Sum(rhs),rhsMax =  -7.88131782059054E-11  2.12753637388969E-02
 cg2d: Sum(rhs),rhsMax =  -7.89297516234910E-11  2.12461422655433E-02
 cg2d: Sum(rhs),rhsMax =  -7.91308130132506E-11  2.12047549449137E-02
 cg2d: Sum(rhs),rhsMax =  -7.94062593456601E-11  2.11512257592117E-02
 cg2d: Sum(rhs),rhsMax =  -7.97395482976526E-11  2.10855831127927E-02
 cg2d: Sum(rhs),rhsMax =  -8.00777222309534E-11  2.10078598165606E-02
 cg2d: Sum(rhs),rhsMax =  -8.04464272974315E-11  2.09180930664182E-02
 cg2d: Sum(rhs),rhsMax =  -8.09006195368056E-11  2.08163244167699E-02
 cg2d: Sum(rhs),rhsMax =  -8.14223133360770E-11  2.07025997504732E-02
 cg2d: Sum(rhs),rhsMax =  -8.19768697368772E-11  2.05769692468896E-02
 cg2d: Sum(rhs),rhsMax =  -8.25930435155442E-11  2.04394873497643E-02
 cg2d: Sum(rhs),rhsMax =  -8.32611757317636E-11  2.02902127365524E-02
 cg2d: Sum(rhs),rhsMax =  -8.39737168689680E-11  2.01292082905631E-02
 cg2d: Sum(rhs),rhsMax =  -8.47952819071907E-11  1.99565410769185E-02
 cg2d: Sum(rhs),rhsMax =  -8.57144355492778E-11  1.97722823229183E-02
 cg2d: Sum(rhs),rhsMax =  -8.66815508260288E-11  1.95765074029677E-02
 cg2d: Sum(rhs),rhsMax =  -8.77090622353194E-11  1.93692958278467E-02
 cg2d: Sum(rhs),rhsMax =  -8.87785400749408E-11  1.91507312379668E-02
 cg2d: Sum(rhs),rhsMax =  -8.99375018903470E-11  1.89209013994235E-02
 cg2d: Sum(rhs),rhsMax =  -9.11788422541804E-11  1.86798982019226E-02
 cg2d: Sum(rhs),rhsMax =  -9.24527121526353E-11  1.84278176579981E-02
 cg2d: Sum(rhs),rhsMax =  -9.38523703197802E-11  1.81647599025520E-02
 cg2d: Sum(rhs),rhsMax =  -9.53440659756666E-11  1.78908291918297E-02
 cg2d: Sum(rhs),rhsMax =  -9.69921920557226E-11  1.76061339010721E-02
 cg2d: Sum(rhs),rhsMax =  -9.87102621863301E-11  1.73107865202295E-02
 cg2d: Sum(rhs),rhsMax =  -1.00565444860479E-10  1.70049036472679E-02
 cg2d: Sum(rhs),rhsMax =  -1.02553077141465E-10  1.66886059787160E-02
 cg2d: Sum(rhs),rhsMax =  -1.04677155832178E-10  1.63620182971998E-02
 cg2d: Sum(rhs),rhsMax =  -1.07003184091070E-10  1.60252694557688E-02
 cg2d: Sum(rhs),rhsMax =  -1.09484865618015E-10  1.56784923588743E-02
 cg2d: Sum(rhs),rhsMax =  -1.12118536677031E-10  1.53218239399041E-02
 cg2d: Sum(rhs),rhsMax =  -1.14977694032348E-10  1.49554051352332E-02
 cg2d: Sum(rhs),rhsMax =  -1.18072107646583E-10  1.45793808548172E-02
 cg2d: Sum(rhs),rhsMax =  -1.21425536292463E-10  1.41938999494385E-02
 cg2d: Sum(rhs),rhsMax =  -1.25029875341909E-10  1.37991151747989E-02
 cg2d: Sum(rhs),rhsMax =  -1.28844934721428E-10  1.33951831527246E-02
 cg2d: Sum(rhs),rhsMax =  -1.32977295841386E-10  1.29822643298053E-02
 cg2d: Sum(rhs),rhsMax =  -1.37519218235127E-10  1.25605229338022E-02
 cg2d: Sum(rhs),rhsMax =  -1.42473144393307E-10  1.21301269281384E-02
 cg2d: Sum(rhs),rhsMax =  -1.47901801916817E-10  1.16912479647145E-02
 cg2d: Sum(rhs),rhsMax =  -1.53862811380634E-10  1.12440613351939E-02
 cg2d: Sum(rhs),rhsMax =  -1.60436552931742E-10  1.07887459207802E-02
 cg2d: Sum(rhs),rhsMax =  -1.67721836419332E-10  1.03254841403859E-02
 cg2d: Sum(rhs),rhsMax =  -1.75824133030744E-10  9.85446189699222E-03
 cg2d: Sum(rhs),rhsMax =  -1.84913639955653E-10  9.37586852193103E-03
 cg2d: Sum(rhs),rhsMax =  -1.95114369105909E-10  8.88989671681136E-03
 cg2d: Sum(rhs),rhsMax =  -2.06682559955595E-10  8.39674249285821E-03
 cg2d: Sum(rhs),rhsMax =  -2.19805396106665E-10  7.89660510754681E-03
 cg2d: Sum(rhs),rhsMax =  -2.34893438033623E-10  7.38968699855018E-03
 cg2d: Sum(rhs),rhsMax =  -2.52479259721383E-10  6.87619371521580E-03
 cg2d: Sum(rhs),rhsMax =  -2.73228217828603E-10  6.35633384802853E-03
 cg2d: Sum(rhs),rhsMax =  -2.97876945332121E-10  5.83031895697869E-03
 cg2d: Sum(rhs),rhsMax =  -3.27867955007832E-10  5.29836349829574E-03
 cg2d: Sum(rhs),rhsMax =  -3.64935415220202E-10  4.76068475099654E-03
 cg2d: Sum(rhs),rhsMax =  -3.97033961263560E-10  4.37583292943441E-03
 cg2d: Sum(rhs),rhsMax =  -4.13418299594071E-10  4.20345082686135E-03
 cg2d: Sum(rhs),rhsMax =  -4.31267799250179E-10  4.02982459591207E-03
 cg2d: Sum(rhs),rhsMax =  -4.50966264331498E-10  3.85503864159389E-03
 cg2d: Sum(rhs),rhsMax =  -4.72617500690831E-10  3.67917774781946E-03
 cg2d: Sum(rhs),rhsMax =  -4.96547802875114E-10  3.50232702192007E-03
 cg2d: Sum(rhs),rhsMax =  -5.23133814045451E-10  3.32457184237124E-03
 cg2d: Sum(rhs),rhsMax =  -5.52887874372132E-10  3.14599780504665E-03
 cg2d: Sum(rhs),rhsMax =  -5.86363235743903E-10  2.96669066938403E-03
 cg2d: Sum(rhs),rhsMax =  -6.24281515371194E-10  2.78673631766519E-03
 cg2d: Sum(rhs),rhsMax =  -6.67621624650394E-10  2.60622071085891E-03
 cg2d: Sum(rhs),rhsMax =  -6.06436567629487E-10  2.86916866811749E-03
 cg2d: Sum(rhs),rhsMax =  -5.21036991329993E-10  3.33951822742749E-03
 cg2d: Sum(rhs),rhsMax =  -4.55166571100563E-10  3.82349343423428E-03
 cg2d: Sum(rhs),rhsMax =  -4.02887057049384E-10  4.32019764872617E-03
 cg2d: Sum(rhs),rhsMax =  -3.60743435123823E-10  4.82657268076163E-03
 cg2d: Sum(rhs),rhsMax =  -3.25902749231943E-10  5.34356063745975E-03
 cg2d: Sum(rhs),rhsMax =  -2.96577762348704E-10  5.87305933242496E-03
 cg2d: Sum(rhs),rhsMax =  -2.71837552467957E-10  6.40877774569916E-03
 cg2d: Sum(rhs),rhsMax =  -2.50520271194432E-10  6.95692509034352E-03
 cg2d: Sum(rhs),rhsMax =  -2.31982766329963E-10  7.51331821452184E-03
 cg2d: Sum(rhs),rhsMax =  -2.15818696247538E-10  8.07697116697347E-03
 cg2d: Sum(rhs),rhsMax =  -2.01498595586713E-10  8.65384475363112E-03
 cg2d: Sum(rhs),rhsMax =  -1.88548954227485E-10  9.25221274165782E-03
 cg2d: Sum(rhs),rhsMax =  -1.77021397540500E-10  9.85534729942391E-03
 cg2d: Sum(rhs),rhsMax =  -1.66850311345002E-10  1.04577636172150E-02
 cg2d: Sum(rhs),rhsMax =  -1.57817092727441E-10  1.10591920805963E-02
 cg2d: Sum(rhs),rhsMax =  -1.49789070036377E-10  1.16593623572625E-02
 cg2d: Sum(rhs),rhsMax =  -1.42548750581284E-10  1.22580035235610E-02
 cg2d: Sum(rhs),rhsMax =  -1.36024969066284E-10  1.28548441938284E-02
 cg2d: Sum(rhs),rhsMax =  -1.30098931627742E-10  1.34496126525301E-02
 cg2d: Sum(rhs),rhsMax =  -1.24709131910095E-10  1.40420369892273E-02
 cg2d: Sum(rhs),rhsMax =  -1.19757426197964E-10  1.46318452363830E-02
 cg2d: Sum(rhs),rhsMax =  -1.15208731443772E-10  1.52187655099155E-02
 cg2d: Sum(rhs),rhsMax =  -1.11034070826577E-10  1.58025261525776E-02
 cg2d: Sum(rhs),rhsMax =  -1.07187703157763E-10  1.63828558799271E-02
 cg2d: Sum(rhs),rhsMax =  -1.03599018252964E-10  1.69594839285719E-02
 cg2d: Sum(rhs),rhsMax =  -1.00276009717959E-10  1.75321402064393E-02
 cg2d: Sum(rhs),rhsMax =  -9.71938085569946E-11  1.81005554447903E-02
 cg2d: Sum(rhs),rhsMax =  -9.42943501058835E-11  1.86644613516739E-02
 cg2d: Sum(rhs),rhsMax =  -9.16242637316600E-11  1.92235907665225E-02
 cg2d: Sum(rhs),rhsMax =  -8.91057228002978E-11  1.97776778156146E-02
 cg2d: Sum(rhs),rhsMax =  -8.67551586125614E-11  2.03264580681763E-02
 cg2d: Sum(rhs),rhsMax =  -8.45276071359535E-11  2.08696686929330E-02
 cg2d: Sum(rhs),rhsMax =  -8.24734724957921E-11  2.14070486149510E-02
 cg2d: Sum(rhs),rhsMax =  -8.05172595264025E-11  2.19383386725953E-02
 cg2d: Sum(rhs),rhsMax =  -7.87855336525922E-11  2.24632817743880E-02
 cg2d: Sum(rhs),rhsMax =  -7.71046559933097E-11  2.29816230554663E-02
 cg2d: Sum(rhs),rhsMax =  -7.55387974393784E-11  2.34931100332312E-02
 cg2d: Sum(rhs),rhsMax =  -7.40972838642051E-11  2.39974927616524E-02
 cg2d: Sum(rhs),rhsMax =  -7.26829707531351E-11  2.44945239835864E-02
 cg2d: Sum(rhs),rhsMax =  -7.13450409861593E-11  2.49839592803912E-02
 cg2d: Sum(rhs),rhsMax =  -7.01171343209239E-11  2.54655572181067E-02
 cg2d: Sum(rhs),rhsMax =  -6.89190926550509E-11  2.59390794895541E-02
 cg2d: Sum(rhs),rhsMax =  -6.77817801886249E-11  2.64042910518909E-02
 cg2d: Sum(rhs),rhsMax =  -6.67187416425463E-11  2.68609602594646E-02
 cg2d: Sum(rhs),rhsMax =  -6.56876775195769E-11  2.73088589922350E-02
 cg2d: Sum(rhs),rhsMax =  -6.47085718341600E-11  2.77477627800760E-02
 cg2d: Sum(rhs),rhsMax =  -6.38218367043919E-11  2.81774509259091E-02
 cg2d: Sum(rhs),rhsMax =  -6.29850616107319E-11  2.85977066279222E-02
 cg2d: Sum(rhs),rhsMax =  -6.21295237479558E-11  2.90083171040759E-02
 cg2d: Sum(rhs),rhsMax =  -6.13490369616443E-11  2.94090737212416E-02
 cg2d: Sum(rhs),rhsMax =  -6.06122929625030E-11  2.97997721326236E-02
 cg2d: Sum(rhs),rhsMax =  -5.99129634792916E-11  3.01802124264322E-02
 cg2d: Sum(rhs),rhsMax =  -5.92610405192318E-11  3.05501992883338E-02
 cg2d: Sum(rhs),rhsMax =  -5.86266590829609E-11  3.09095421794483E-02
 cg2d: Sum(rhs),rhsMax =  -5.80540060468593E-11  3.12580555306155E-02
 cg2d: Sum(rhs),rhsMax =  -5.74553737919814E-11  3.15955589523511E-02
 cg2d: Sum(rhs),rhsMax =  -5.69226887847663E-11  3.19218774584512E-02
 cg2d: Sum(rhs),rhsMax =  -5.64605029396148E-11  3.22368416997364E-02
 cg2d: Sum(rhs),rhsMax =  -5.60522739334601E-11  3.25402882030821E-02
 cg2d: Sum(rhs),rhsMax =  -5.56390489236946E-11  3.28320596098510E-02
 cg2d: Sum(rhs),rhsMax =  -5.52510259765882E-11  3.31120049072314E-02
 cg2d: Sum(rhs),rhsMax =  -5.48996403892943E-11  3.33799796458976E-02
 cg2d: Sum(rhs),rhsMax =  -5.45835598941835E-11  3.36358461378827E-02
 cg2d: Sum(rhs),rhsMax =  -5.42529354774501E-11  3.38794736295449E-02
 cg2d: Sum(rhs),rhsMax =  -5.39371880492467E-11  3.41107384459542E-02
 cg2d: Sum(rhs),rhsMax =  -5.36852784449593E-11  3.43295241047100E-02
 cg2d: Sum(rhs),rhsMax =  -5.34483568515043E-11  3.45357213991348E-02
 cg2d: Sum(rhs),rhsMax =  -5.31859001284829E-11  3.47292284529711E-02
 cg2d: Sum(rhs),rhsMax =  -5.29853938502356E-11  3.49099507494344E-02
 cg2d: Sum(rhs),rhsMax =  -5.27482502121757E-11  3.50778011392279E-02
 cg2d: Sum(rhs),rhsMax =  -5.25538501605638E-11  3.52326998328748E-02
 cg2d: Sum(rhs),rhsMax =  -5.24059684536837E-11  3.53745743829244E-02
 cg2d: Sum(rhs),rhsMax =  -5.22694110216548E-11  3.55033596612615E-02
 cg2d: Sum(rhs),rhsMax =  -5.21807042019873E-11  3.56189978360042E-02
 cg2d: Sum(rhs),rhsMax =  -5.21269694075954E-11  3.57214383514017E-02
 cg2d: Sum(rhs),rhsMax =  -5.20522513980382E-11  3.58106379128927E-02
 cg2d: Sum(rhs),rhsMax =  -5.19840837043262E-11  3.58865604781600E-02
 cg2d: Sum(rhs),rhsMax =  -5.19295717538171E-11  3.59491772537677E-02
 cg2d: Sum(rhs),rhsMax =  -5.19269072185580E-11  3.59984666958821E-02
 cg2d: Sum(rhs),rhsMax =  -5.19418952293904E-11  3.60344145127530E-02
 cg2d: Sum(rhs),rhsMax =  -5.19473353222111E-11  3.60570136661118E-02
 cg2d: Sum(rhs),rhsMax =  -5.19350118466377E-11  3.60662643684043E-02
 cg2d: Sum(rhs),rhsMax =  -5.18985965314300E-11  3.60621740730062E-02
 cg2d: Sum(rhs),rhsMax =  -5.18260989679220E-11  3.60447574547660E-02
 cg2d: Sum(rhs),rhsMax =  -5.17915710318562E-11  3.60140363791139E-02
 cg2d: Sum(rhs),rhsMax =  -5.18348697298165E-11  3.59700398581062E-02
 cg2d: Sum(rhs),rhsMax =  -5.18466380938776E-11  3.59128039932379E-02
 cg2d: Sum(rhs),rhsMax =  -5.19008169774793E-11  3.58423719053559E-02
 cg2d: Sum(rhs),rhsMax =  -5.19754239647341E-11  3.57587936527433E-02
 cg2d: Sum(rhs),rhsMax =  -5.20479215282421E-11  3.56621261390764E-02
 cg2d: Sum(rhs),rhsMax =  -5.21255261176634E-11  3.55524330134312E-02
 cg2d: Sum(rhs),rhsMax =  -5.22724086238213E-11  3.54297845647944E-02
(PID.TID 0000.0001)      cg2d_init_res =   2.02414970066589E-02
(PID.TID 0000.0001)      cg2d_iters(min,last) =      -1      37
(PID.TID 0000.0001)      cg2d_last_res =   4.01113070710349E-14
(PID.TID 0000.0001) // =======================================================
(PID.TID 0000.0001) // Begin MONITOR dynamic field statistics
(PID.TID 0000.0001) // =======================================================
(PID.TID 0000.0001) %MON time_tsnumber                =                  3360
(PID.TID 0000.0001) %MON time_secondsf                =   5.0400000000000E+04
(PID.TID 0000.0001) %MON dynstat_eta_max              =   6.1632018508716E-03
(PID.TID 0000.0001) %MON dynstat_eta_min              =  -5.8481309306479E-03
(PID.TID 0000.0001) %MON dynstat_eta_mean             =   4.0811228468771E-15
(PID.TID 0000.0001) %MON dynstat_eta_sd               =   4.1026231401066E-03
(PID.TID 0000.0001) %MON dynstat_eta_del2             =   2.5454906167328E-06
(PID.TID 0000.0001) %MON dynstat_uvel_max             =   4.4621928858450E-01
(PID.TID 0000.0001) %MON dynstat_uvel_min             =  -3.9156507982260E-01
(PID.TID 0000.0001) %MON dynstat_uvel_mean            =   1.1343629776372E-01
(PID.TID 0000.0001) %MON dynstat_uvel_sd              =   3.5156591983496E-02
(PID.TID 0000.0001) %MON dynstat_uvel_del2            =   9.3244788603799E-05
(PID.TID 0000.0001) %MON dynstat_vvel_max             =   0.0000000000000E+00
(PID.TID 0000.0001) %MON dynstat_vvel_min             =   0.0000000000000E+00
(PID.TID 0000.0001) %MON dynstat_vvel_mean            =   0.0000000000000E+00
(PID.TID 0000.0001) %MON dynstat_vvel_sd              =   0.0000000000000E+00
(PID.TID 0000.0001) %MON dynstat_vvel_del2            =   0.0000000000000E+00
(PID.TID 0000.0001) %MON dynstat_wvel_max             =   3.4253529638278E-03
(PID.TID 0000.0001) %MON dynstat_wvel_min             =  -6.5035037838062E-03
(PID.TID 0000.0001) %MON dynstat_wvel_mean            =  -9.2854747109604E-21
(PID.TID 0000.0001) %MON dynstat_wvel_sd              =   2.7307367204723E-04
(PID.TID 0000.0001) %MON dynstat_wvel_del2            =   4.8601081426851E-06
(PID.TID 0000.0001) %MON dynstat_theta_max            =   1.5000000000012E+01
(PID.TID 0000.0001) %MON dynstat_theta_min            =   9.9999999999940E+00
(PID.TID 0000.0001) %MON dynstat_theta_mean           =   1.4047618588890E+01
(PID.TID 0000.0001) %MON dynstat_theta_sd             =   1.8906600557183E+00
(PID.TID 0000.0001) %MON dynstat_theta_del2           =   3.3286698776309E-04
(PID.TID 0000.0001) %MON dynstat_salt_max             =   3.5000000000000E+01
(PID.TID 0000.0001) %MON dynstat_salt_min             =   3.5000000000000E+01
(PID.TID 0000.0001) %MON dynstat_salt_mean            =   3.5000000000000E+01
(PID.TID 0000.0001) %MON dynstat_salt_sd              =   3.0553337637684E-13
(PID.TID 0000.0001) %MON dynstat_salt_del2            =   0.0000000000000E+00
(PID.TID 0000.0001) %MON dynstat_sst_max              =   1.5000000000000E+01
(PID.TID 0000.0001) %MON dynstat_sst_min              =   1.4999999999999E+01
(PID.TID 0000.0001) %MON dynstat_sst_mean             =   1.5000000000000E+01
(PID.TID 0000.0001) %MON dynstat_sst_sd               =   1.9898020750675E-13
(PID.TID 0000.0001) %MON dynstat_sst_del2             =   8.6312909576995E-15
(PID.TID 0000.0001) %MON dynstat_sss_max              =   3.5000000000000E+01
(PID.TID 0000.0001) %MON dynstat_sss_min              =   3.5000000000000E+01
(PID.TID 0000.0001) %MON dynstat_sss_mean             =   3.5000000000000E+01
(PID.TID 0000.0001) %MON dynstat_sss_sd               =   2.8421709430404E-14
(PID.TID 0000.0001) %MON dynstat_sss_del2             =   0.0000000000000E+00
(PID.TID 0000.0001) %MON forcing_qnet_max             =   0.0000000000000E+00
(PID.TID 0000.0001) %MON forcing_qnet_min             =   0.0000000000000E+00
(PID.TID 0000.0001) %MON forcing_qnet_mean            =   0.0000000000000E+00
(PID.TID 0000.0001) %MON forcing_qnet_sd              =   0.0000000000000E+00
(PID.TID 0000.0001) %MON forcing_qnet_del2            =   0.0000000000000E+00
(PID.TID 0000.0001) %MON forcing_qsw_max              =   0.0000000000000E+00
(PID.TID 0000.0001) %MON forcing_qsw_min              =   0.0000000000000E+00
(PID.TID 0000.0001) %MON forcing_qsw_mean             =   0.0000000000000E+00
(PID.TID 0000.0001) %MON forcing_qsw_sd               =   0.0000000000000E+00
(PID.TID 0000.0001) %MON forcing_qsw_del2             =   0.0000000000000E+00
(PID.TID 0000.0001) %MON forcing_empmr_max            =   0.0000000000000E+00
(PID.TID 0000.0001) %MON forcing_empmr_min            =   0.0000000000000E+00
(PID.TID 0000.0001) %MON forcing_empmr_mean           =   0.0000000000000E+00
(PID.TID 0000.0001) %MON forcing_empmr_sd             =   0.0000000000000E+00
(PID.TID 0000.0001) %MON forcing_empmr_del2           =   0.0000000000000E+00
(PID.TID 0000.0001) %MON forcing_fu_max               =   0.0000000000000E+00
(PID.TID 0000.0001) %MON forcing_fu_min               =   0.0000000000000E+00
(PID.TID 0000.0001) %MON forcing_fu_mean              =   0.0000000000000E+00
(PID.TID 0000.0001) %MON forcing_fu_sd                =   0.0000000000000E+00
(PID.TID 0000.0001) %MON forcing_fu_del2              =   0.0000000000000E+00
(PID.TID 0000.0001) %MON forcing_fv_max               =   0.0000000000000E+00
(PID.TID 0000.0001) %MON forcing_fv_min               =   0.0000000000000E+00
(PID.TID 0000.0001) %MON forcing_fv_mean              =   0.0000000000000E+00
(PID.TID 0000.0001) %MON forcing_fv_sd                =   0.0000000000000E+00
(PID.TID 0000.0001) %MON forcing_fv_del2              =   0.0000000000000E+00
(PID.TID 0000.0001) %MON advcfl_uvel_max              =   3.3466446643837E-02
(PID.TID 0000.0001) %MON advcfl_vvel_max              =   0.0000000000000E+00
(PID.TID 0000.0001) %MON advcfl_wvel_max              =   2.9003116504051E-02
(PID.TID 0000.0001) %MON advcfl_W_hf_max              =   3.3466446643837E-02
(PID.TID 0000.0001) %MON pe_b_mean                    =   4.1716374464930E-07
(PID.TID 0000.0001) %MON ke_max                       =   5.7769557823428E-02
(PID.TID 0000.0001) %MON ke_mean                      =   7.0588576091766E-03
(PID.TID 0000.0001) %MON ke_vol                       =   9.6656965507697E+10
(PID.TID 0000.0001) %MON vort_r_min                   =   0.0000000000000E+00
(PID.TID 0000.0001) %MON vort_r_max                   =   0.0000000000000E+00
(PID.TID 0000.0001) %MON vort_a_mean                  =   0.0000000000000E+00
(PID.TID 0000.0001) %MON vort_a_sd                    =   0.0000000000000E+00
(PID.TID 0000.0001) %MON vort_p_mean                  =   0.0000000000000E+00
(PID.TID 0000.0001) %MON vort_p_sd                    =   0.0000000000000E+00
(PID.TID 0000.0001) %MON surfExpan_theta_mean         =  -1.1338958183280E-19
(PID.TID 0000.0001) %MON surfExpan_salt_mean          =  -3.6836338362926E-19
(PID.TID 0000.0001) // =======================================================
(PID.TID 0000.0001) // End MONITOR dynamic field statistics
(PID.TID 0000.0001) // =======================================================
(PID.TID 0000.0001) // =======================================================
(PID.TID 0000.0001) // Begin OBCS MONITOR field statistics
(PID.TID 0000.0001) // =======================================================
(PID.TID 0000.0001) %MON obc_E_uVel_max               =   1.1205712828732E-01
(PID.TID 0000.0001) %MON obc_E_uVel_min               =   1.1205712828732E-01
(PID.TID 0000.0001) %MON obc_E_uVel_mean              =   1.1205712828732E-01
(PID.TID 0000.0001) %MON obc_E_uVel_sd                =   0.0000000000000E+00
(PID.TID 0000.0001) %MON obc_E_uVel_Int               =   1.1205712828732E+05
(PID.TID 0000.0001) %MON obc_W_uVel_max               =   1.1205712828732E-01
(PID.TID 0000.0001) %MON obc_W_uVel_min               =   1.1205712828732E-01
(PID.TID 0000.0001) %MON obc_W_uVel_mean              =   1.1205712828732E-01
(PID.TID 0000.0001) %MON obc_W_uVel_sd                =   0.0000000000000E+00
(PID.TID 0000.0001) %MON obc_W_uVel_Int               =   1.1205712828732E+05
(PID.TID 0000.0001) // =======================================================
(PID.TID 0000.0001) // End OBCS MONITOR field statistics
(PID.TID 0000.0001) // =======================================================
 cg2d: Sum(rhs),rhsMax =  -5.24315035832501E-11  3.52942576136149E-02
 cg2d: Sum(rhs),rhsMax =  -5.26061416650236E-11  3.51459354028168E-02
 cg2d: Sum(rhs),rhsMax =  -5.27810017914021E-11  3.49849074904782E-02
 cg2d: Sum(rhs),rhsMax =  -5.29800647797174E-11  3.48112696461206E-02
 cg2d: Sum(rhs),rhsMax =  -5.32266453134866E-11  3.46251237506553E-02
 cg2d: Sum(rhs),rhsMax =  -5.34564614795840E-11  3.44265777017622E-02
 cg2d: Sum(rhs),rhsMax =  -5.37407895961906E-11  3.42157453247551E-02
 cg2d: Sum(rhs),rhsMax =  -5.40166800178099E-11  3.39927462884774E-02
 cg2d: Sum(rhs),rhsMax =  -5.43062261826321E-11  3.37577060253653E-02
 cg2d: Sum(rhs),rhsMax =  -5.46452882943527E-11  3.35107556545426E-02
 cg2d: Sum(rhs),rhsMax =  -5.49786882686476E-11  3.32520319066718E-02
 cg2d: Sum(rhs),rhsMax =  -5.53319612350833E-11  3.29816770492286E-02
 cg2d: Sum(rhs),rhsMax =  -5.57138779555544E-11  3.26998388109253E-02
 cg2d: Sum(rhs),rhsMax =  -5.61454216452262E-11  3.24066703041295E-02
 cg2d: Sum(rhs),rhsMax =  -5.65631985693926E-11  3.21023299443196E-02
 cg2d: Sum(rhs),rhsMax =  -5.70836711233369E-11  3.17869813658501E-02
 cg2d: Sum(rhs),rhsMax =  -5.76166891974594E-11  3.14607933335395E-02
 cg2d: Sum(rhs),rhsMax =  -5.81890091666537E-11  3.11239396498226E-02
 cg2d: Sum(rhs),rhsMax =  -5.87930815143523E-11  3.07765990573954E-02
 cg2d: Sum(rhs),rhsMax =  -5.94274629506231E-11  3.04189551374139E-02
 cg2d: Sum(rhs),rhsMax =  -6.00985927690090E-11  3.00511962033816E-02
 cg2d: Sum(rhs),rhsMax =  -6.07985883860351E-11  2.96735151908712E-02
 cg2d: Sum(rhs),rhsMax =  -6.15364426082010E-11  2.92861095431950E-02
 cg2d: Sum(rhs),rhsMax =  -6.23078255657106E-11  2.88891810930724E-02
 cg2d: Sum(rhs),rhsMax =  -6.31570351572464E-11  2.84829359402708E-02
 cg2d: Sum(rhs),rhsMax =  -6.39891473142029E-11  2.80675843251355E-02
 cg2d: Sum(rhs),rhsMax =  -6.48959774807167E-11  2.76433404978918E-02
 cg2d: Sum(rhs),rhsMax =  -6.58437748768392E-11  2.72104225836101E-02
 cg2d: Sum(rhs),rhsMax =  -6.68388677738108E-11  2.67690524427737E-02
 cg2d: Sum(rhs),rhsMax =  -6.79106770817839E-11  2.63194555274795E-02
 cg2d: Sum(rhs),rhsMax =  -6.90143497905638E-11  2.58618607334126E-02
 cg2d: Sum(rhs),rhsMax =  -7.01991798024437E-11  2.53965002478740E-02
 cg2d: Sum(rhs),rhsMax =  -7.14296399806358E-11  2.49236093938266E-02
 cg2d: Sum(rhs),rhsMax =  -7.27190530014354E-11  2.44434264710456E-02
 cg2d: Sum(rhs),rhsMax =  -7.40927319498041E-11  2.39561925960344E-02
 cg2d: Sum(rhs),rhsMax =  -7.55472351343656E-11  2.34621515396126E-02
 cg2d: Sum(rhs),rhsMax =  -7.70939978522733E-11  2.29615495629945E-02
 cg2d: Sum(rhs),rhsMax =  -7.87133691559916E-11  2.24546352534186E-02
 cg2d: Sum(rhs),rhsMax =  -8.04272204391054E-11  2.19416593595707E-02
 cg2d: Sum(rhs),rhsMax =  -8.22519830023793E-11  2.14228746273184E-02
 cg2d: Sum(rhs),rhsMax =  -8.42741432194316E-11  2.08985356367305E-02
 cg2d: Sum(rhs),rhsMax =  -8.64248672627355E-11  2.03688986403114E-02
 cg2d: Sum(rhs),rhsMax =  -8.86909434782979E-11  1.98342214022877E-02
 cg2d: Sum(rhs),rhsMax =  -9.11118958057955E-11  1.92947630394348E-02
 cg2d: Sum(rhs),rhsMax =  -9.37151467539366E-11  1.87507838632705E-02
 cg2d: Sum(rhs),rhsMax =  -9.64622826060690E-11  1.82025452234230E-02
 cg2d: Sum(rhs),rhsMax =  -9.94392346242989E-11  1.76503093520185E-02
 cg2d: Sum(rhs),rhsMax =  -1.02586050765296E-10  1.70943392095019E-02
 cg2d: Sum(rhs),rhsMax =  -1.05988440246563E-10  1.65348983311844E-02
 cg2d: Sum(rhs),rhsMax =  -1.09651621116313E-10  1.59722506735441E-02
 cg2d: Sum(rhs),rhsMax =  -1.13596465567412E-10  1.54066604623721E-02
 cg2d: Sum(rhs),rhsMax =  -1.17878373728786E-10  1.48383920429252E-02
 cg2d: Sum(rhs),rhsMax =  -1.22534649094064E-10  1.42677097323714E-02
 cg2d: Sum(rhs),rhsMax =  -1.27556298856746E-10  1.36948776750109E-02
 cg2d: Sum(rhs),rhsMax =  -1.33066779817170E-10  1.31201597010135E-02
 cg2d: Sum(rhs),rhsMax =  -1.39094291640163E-10  1.25438191896086E-02
 cg2d: Sum(rhs),rhsMax =  -1.45728429323810E-10  1.19661189377740E-02
 cg2d: Sum(rhs),rhsMax =  -1.53029811045258E-10  1.13873210354578E-02
 cg2d: Sum(rhs),rhsMax =  -1.61107793772430E-10  1.08076867482525E-02
 cg2d: Sum(rhs),rhsMax =  -1.70133795940330E-10  1.02274764082106E-02
 cg2d: Sum(rhs),rhsMax =  -1.80335080202099E-10  9.64694931318954E-03
 cg2d: Sum(rhs),rhsMax =  -1.91842985941548E-10  9.06636363471490E-03
 cg2d: Sum(rhs),rhsMax =  -2.04918748636373E-10  8.48597633380925E-03
 cg2d: Sum(rhs),rhsMax =  -2.19927964728583E-10  7.90604308391323E-03
 cg2d: Sum(rhs),rhsMax =  -2.37277641979006E-10  7.32681819957964E-03
 cg2d: Sum(rhs),rhsMax =  -2.57534993330921E-10  6.74855456923564E-03
 cg2d: Sum(rhs),rhsMax =  -2.81541789881601E-10  6.17150359005395E-03
 cg2d: Sum(rhs),rhsMax =  -3.10494185917776E-10  5.59591510289890E-03
 cg2d: Sum(rhs),rhsMax =  -3.45857897876556E-10  5.02203732544029E-03
 cg2d: Sum(rhs),rhsMax =  -3.90241616798903E-10  4.45011678184051E-03
 cg2d: Sum(rhs),rhsMax =  -4.47423320615314E-10  3.88039822790981E-03
 cg2d: Sum(rhs),rhsMax =  -5.23910359540025E-10  3.31312457123495E-03
 cg2d: Sum(rhs),rhsMax =  -5.01068297964480E-10  3.46400932246833E-03
 cg2d: Sum(rhs),rhsMax =  -4.76598260856775E-10  3.64172194790631E-03
 cg2d: Sum(rhs),rhsMax =  -4.54457305121281E-10  3.81827995920870E-03
 cg2d: Sum(rhs),rhsMax =  -4.34442683217018E-10  3.99360539558507E-03
 cg2d: Sum(rhs),rhsMax =  -4.16154069537988E-10  4.16762067073083E-03
 cg2d: Sum(rhs),rhsMax =  -3.99471594692002E-10  4.34024885261933E-03
 cg2d: Sum(rhs),rhsMax =  -3.84232645700422E-10  4.51141485622757E-03
 cg2d: Sum(rhs),rhsMax =  -3.70226516110961E-10  4.68105188945430E-03
 cg2d: Sum(rhs),rhsMax =  -3.57327223365900E-10  4.84908674882590E-03
 cg2d: Sum(rhs),rhsMax =  -3.45404704837904E-10  5.01544353138233E-03
 cg2d: Sum(rhs),rhsMax =  -3.34389405054480E-10  5.18004783574105E-03
 cg2d: Sum(rhs),rhsMax =  -3.24113291760852E-10  5.34282722906465E-03
 cg2d: Sum(rhs),rhsMax =  -3.14606229956382E-10  5.50371064382876E-03
 cg2d: Sum(rhs),rhsMax =  -3.05677594347742E-10  5.66262727127105E-03
 cg2d: Sum(rhs),rhsMax =  -2.97389224357403E-10  5.81950650129638E-03
 cg2d: Sum(rhs),rhsMax =  -2.89614554560558E-10  5.97427850263635E-03
 cg2d: Sum(rhs),rhsMax =  -2.82144974050880E-10  6.13168105536761E-03
 cg2d: Sum(rhs),rhsMax =  -2.69775202177414E-10  6.41175894034948E-03
 cg2d: Sum(rhs),rhsMax =  -2.58369881045439E-10  6.69379910817565E-03
 cg2d: Sum(rhs),rhsMax =  -2.41368480757842E-10  7.16471872914977E-03
 cg2d: Sum(rhs),rhsMax =  -2.26663132707472E-10  7.62865170964438E-03
 cg2d: Sum(rhs),rhsMax =  -2.13833617479509E-10  8.08541286169289E-03
 cg2d: Sum(rhs),rhsMax =  -2.02478256383642E-10  8.53482028101560E-03
 cg2d: Sum(rhs),rhsMax =  -1.92421634181983E-10  8.97669544514715E-03
 cg2d: Sum(rhs),rhsMax =  -1.83436044132179E-10  9.41086331285049E-03
 cg2d: Sum(rhs),rhsMax =  -1.75346070996341E-10  9.83715242187967E-03
 cg2d: Sum(rhs),rhsMax =  -1.68134839384493E-10  1.02553949828119E-02
 cg2d: Sum(rhs),rhsMax =  -1.61587965230581E-10  1.06654269658338E-02
 cg2d: Sum(rhs),rhsMax =  -1.55624291231504E-10  1.10670881788475E-02
 cg2d: Sum(rhs),rhsMax =  -1.50231715956295E-10  1.14602223360198E-02
 cg2d: Sum(rhs),rhsMax =  -1.45309209109712E-10  1.18446771170177E-02
 cg2d: Sum(rhs),rhsMax =  -1.40775946455562E-10  1.22203042164209E-02
 cg2d: Sum(rhs),rhsMax =  -1.36604838552046E-10  1.25869593844921E-02
 cg2d: Sum(rhs),rhsMax =  -1.32736155400437E-10  1.29445024614492E-02
 cg2d: Sum(rhs),rhsMax =  -1.29211752408764E-10  1.32927974080427E-02
 cg2d: Sum(rhs),rhsMax =  -1.25868870881618E-10  1.36317123313058E-02
 cg2d: Sum(rhs),rhsMax =  -1.22770349442192E-10  1.39611195062406E-02
 cg2d: Sum(rhs),rhsMax =  -1.19913301510621E-10  1.42808953961039E-02
 cg2d: Sum(rhs),rhsMax =  -1.17267417998335E-10  1.45909206719469E-02
 cg2d: Sum(rhs),rhsMax =  -1.14802500839062E-10  1.48910802316103E-02
 cg2d: Sum(rhs),rhsMax =  -1.12483578007527E-10  1.51812632180218E-02
 cg2d: Sum(rhs),rhsMax =  -1.10360165450629E-10  1.54613630364165E-02
 cg2d: Sum(rhs),rhsMax =  -1.08365760809193E-10  1.57312773699735E-02
 cg2d: Sum(rhs),rhsMax =  -1.06534225885468E-10  1.59909081932916E-02
 cg2d: Sum(rhs),rhsMax =  -1.04823483226824E-10  1.62401617831303E-02
 cg2d: Sum(rhs),rhsMax =  -1.03220543223870E-10  1.64789487258396E-02
 cg2d: Sum(rhs),rhsMax =  -1.01772701377456E-10  1.67071839210120E-02
 cg2d: Sum(rhs),rhsMax =  -1.00401353897439E-10  1.69247865815720E-02
 cg2d: Sum(rhs),rhsMax =  -9.91108306536148E-11  1.71316802299319E-02
 cg2d: Sum(rhs),rhsMax =  -9.79198944150994E-11  1.73277926904137E-02
 cg2d: Sum(rhs),rhsMax =  -9.68257696243313E-11  1.75130560783487E-02
 cg2d: Sum(rhs),rhsMax =  -9.57570689408271E-11  1.76874067864689E-02
 cg2d: Sum(rhs),rhsMax =  -9.47807388129718E-11  1.78507854691977E-02
 cg2d: Sum(rhs),rhsMax =  -9.38948918616234E-11  1.80031370259568E-02
 cg2d: Sum(rhs),rhsMax =  -9.30758803363574E-11  1.81444105842809E-02
 cg2d: Sum(rhs),rhsMax =  -9.23280341069699E-11  1.82745594830816E-02
 cg2d: Sum(rhs),rhsMax =  -9.16560161101643E-11  1.83935412567107E-02
 cg2d: Sum(rhs),rhsMax =  -9.10709285761868E-11  1.85013176203135E-02
 cg2d: Sum(rhs),rhsMax =  -9.05416852603480E-11  1.85978544567604E-02
 cg2d: Sum(rhs),rhsMax =  -9.00823859950606E-11  1.86831218052413E-02
 cg2d: Sum(rhs),rhsMax =  -8.96873686428989E-11  1.87570938514451E-02
 cg2d: Sum(rhs),rhsMax =  -8.93807250434975E-11  1.88197489191494E-02
 cg2d: Sum(rhs),rhsMax =  -8.90583162771463E-11  1.88710694630028E-02
 cg2d: Sum(rhs),rhsMax =  -8.88118467656795E-11  1.89110420623741E-02
 cg2d: Sum(rhs),rhsMax =  -8.86648532372192E-11  1.89396574158840E-02
 cg2d: Sum(rhs),rhsMax =  -8.85822526441871E-11  1.89569103367628E-02
 cg2d: Sum(rhs),rhsMax =  -8.85359563440602E-11  1.89627997490858E-02
 cg2d: Sum(rhs),rhsMax =  -8.84793349698043E-11  1.89573286849975E-02
 cg2d: Sum(rhs),rhsMax =  -8.86803963595639E-11  1.89405042832290E-02
 cg2d: Sum(rhs),rhsMax =  -8.88535911514055E-11  1.89123377887871E-02
 cg2d: Sum(rhs),rhsMax =  -8.91360318888701E-11  1.88728445545601E-02
 cg2d: Sum(rhs),rhsMax =  -8.94683216401404E-11  1.88220440449428E-02
 cg2d: Sum(rhs),rhsMax =  -8.98513485836361E-11  1.87599598416498E-02
 cg2d: Sum(rhs),rhsMax =  -9.02403707314647E-11  1.86866196517565E-02
 cg2d: Sum(rhs),rhsMax =  -9.07111052939058E-11  1.86020553178734E-02
 cg2d: Sum(rhs),rhsMax =  -9.12284692233811E-11  1.85063028301832E-02
 cg2d: Sum(rhs),rhsMax =  -9.18063403076985E-11  1.83994023399028E-02
 cg2d: Sum(rhs),rhsMax =  -9.24521570411230E-11  1.82813981735788E-02
 cg2d: Sum(rhs),rhsMax =  -9.32131039022011E-11  1.81523388475101E-02
 cg2d: Sum(rhs),rhsMax =  -9.40324484943744E-11  1.80122770815348E-02
 cg2d: Sum(rhs),rhsMax =  -9.49031964125879E-11  1.78612698114034E-02
 cg2d: Sum(rhs),rhsMax =  -9.58519930094326E-11  1.76993781990007E-02
 cg2d: Sum(rhs),rhsMax =  -9.68982671878393E-11  1.75266676397537E-02
 cg2d: Sum(rhs),rhsMax =  -9.80351355650555E-11  1.73432077666658E-02
 cg2d: Sum(rhs),rhsMax =  -9.91954296480912E-11  1.71490724505437E-02
 cg2d: Sum(rhs),rhsMax =  -1.00451202911245E-10  1.69443397961128E-02
 cg2d: Sum(rhs),rhsMax =  -1.01799568774652E-10  1.67290921338733E-02
 cg2d: Sum(rhs),rhsMax =  -1.03269170992348E-10  1.65034160076793E-02
 cg2d: Sum(rhs),rhsMax =  -1.04832365011021E-10  1.62674021584028E-02
 cg2d: Sum(rhs),rhsMax =  -1.06556430345961E-10  1.60211455031853E-02
 cg2d: Sum(rhs),rhsMax =  -1.08354325512039E-10  1.57647451110601E-02
 cg2d: Sum(rhs),rhsMax =  -1.10262243779857E-10  1.54983041754884E-02
 cg2d: Sum(rhs),rhsMax =  -1.12391318474181E-10  1.52219299842534E-02
 cg2d: Sum(rhs),rhsMax =  -1.14638964987535E-10  1.49357338871964E-02
 cg2d: Sum(rhs),rhsMax =  -1.17014731237930E-10  1.46398312623120E-02
 cg2d: Sum(rhs),rhsMax =  -1.19635190642953E-10  1.43343414807144E-02
 cg2d: Sum(rhs),rhsMax =  -1.22435284133360E-10  1.40193878709499E-02
 cg2d: Sum(rhs),rhsMax =  -1.25434551634385E-10  1.36950976830414E-02
 cg2d: Sum(rhs),rhsMax =  -1.28692057010937E-10  1.33616020525372E-02
 cg2d: Sum(rhs),rhsMax =  -1.32198918478821E-10  1.30190359646960E-02
 cg2d: Sum(rhs),rhsMax =  -1.35998101669088E-10  1.26675382188017E-02
 cg2d: Sum(rhs),rhsMax =  -1.40046529928384E-10  1.23072513924739E-02
 cg2d: Sum(rhs),rhsMax =  -1.44426137715925E-10  1.19383218057444E-02
 cg2d: Sum(rhs),rhsMax =  -1.49234846702484E-10  1.15608994846153E-02
 cg2d: Sum(rhs),rhsMax =  -1.54418144937551E-10  1.11751381238263E-02
 cg2d: Sum(rhs),rhsMax =  -1.60129021153921E-10  1.07811950486089E-02
 cg2d: Sum(rhs),rhsMax =  -1.66428426595644E-10  1.03792311753291E-02
 cg2d: Sum(rhs),rhsMax =  -1.73386527357877E-10  9.96941097107265E-03
 cg2d: Sum(rhs),rhsMax =  -1.81049730763050E-10  9.55190241240456E-03
 cg2d: Sum(rhs),rhsMax =  -1.89594784316682E-10  9.12687694371502E-03
 cg2d: Sum(rhs),rhsMax =  -1.99101068965035E-10  8.69450943571626E-03
 cg2d: Sum(rhs),rhsMax =  -2.09786077398633E-10  8.25497814476124E-03
 cg2d: Sum(rhs),rhsMax =  -2.21917262344107E-10  7.80846467369407E-03
 cg2d: Sum(rhs),rhsMax =  -2.35649944002603E-10  7.35515393490086E-03
 cg2d: Sum(rhs),rhsMax =  -2.51449638888346E-10  6.89523411610041E-03
 cg2d: Sum(rhs),rhsMax =  -2.69723021695256E-10  6.42889664918810E-03
 cg2d: Sum(rhs),rhsMax =  -2.89402279918249E-10  5.99295237008392E-03
 cg2d: Sum(rhs),rhsMax =  -2.97431856921548E-10  5.83247313903041E-03
 cg2d: Sum(rhs),rhsMax =  -3.05983238746421E-10  5.66993294090750E-03
 cg2d: Sum(rhs),rhsMax =  -3.15172110632034E-10  5.50541040521754E-03
 cg2d: Sum(rhs),rhsMax =  -3.25044768878513E-10  5.33898534659375E-03
 cg2d: Sum(rhs),rhsMax =  -3.35707794896223E-10  5.17073835947681E-03
 cg2d: Sum(rhs),rhsMax =  -3.47177508963625E-10  5.00075072054214E-03
 cg2d: Sum(rhs),rhsMax =  -3.59579366282503E-10  4.82910444159848E-03
 cg2d: Sum(rhs),rhsMax =  -3.73061637137795E-10  4.65588231115012E-03
 cg2d: Sum(rhs),rhsMax =  -3.87643028787465E-10  4.48116788255121E-03
 cg2d: Sum(rhs),rhsMax =  -4.03568178874991E-10  4.30504392389038E-03
 cg2d: Sum(rhs),rhsMax =  -4.20993045979756E-10  4.12758785752044E-03
 cg2d: Sum(rhs),rhsMax =  -4.40124374445627E-10  3.94889775482677E-03
 cg2d: Sum(rhs),rhsMax =  -4.61202617763057E-10  3.76906773137378E-03
 cg2d: Sum(rhs),rhsMax =  -4.84575130021980E-10  3.58818558753344E-03
 cg2d: Sum(rhs),rhsMax =  -5.10579578616444E-10  3.40633692171097E-03
 cg2d: Sum(rhs),rhsMax =  -5.39580380376492E-10  3.22360672327272E-03
 cg2d: Sum(rhs),rhsMax =  -5.10616438020861E-10  3.40716427033976E-03
 cg2d: Sum(rhs),rhsMax =  -4.51074400054097E-10  3.85696530033545E-03
 cg2d: Sum(rhs),rhsMax =  -4.02999522641778E-10  4.31799818372619E-03
 cg2d: Sum(rhs),rhsMax =  -3.63201135833435E-10  4.79213529269319E-03
 cg2d: Sum(rhs),rhsMax =  -3.30084404254194E-10  5.27357488266769E-03
 cg2d: Sum(rhs),rhsMax =  -3.01963343218858E-10  5.76470640969620E-03
 cg2d: Sum(rhs),rhsMax =  -2.77851630592352E-10  6.26648525781522E-03
 cg2d: Sum(rhs),rhsMax =  -2.57075249976424E-10  6.77403750946688E-03
 cg2d: Sum(rhs),rhsMax =  -2.38819186648698E-10  7.29317574745469E-03
 cg2d: Sum(rhs),rhsMax =  -2.22756035839211E-10  7.82106208507742E-03
 cg2d: Sum(rhs),rhsMax =  -2.08335015905448E-10  8.36445027498127E-03
 cg2d: Sum(rhs),rhsMax =  -1.95357063859092E-10  8.92116406120487E-03
 cg2d: Sum(rhs),rhsMax =  -1.83917436835657E-10  9.47741439007584E-03
 cg2d: Sum(rhs),rhsMax =  -1.73768777145256E-10  1.00329553875225E-02
 cg2d: Sum(rhs),rhsMax =  -1.64675384439761E-10  1.05875410515494E-02
 cg2d: Sum(rhs),rhsMax =  -1.56626267511228E-10  1.11409252663105E-02
 cg2d: Sum(rhs),rhsMax =  -1.49295353857326E-10  1.16928618261650E-02
 cg2d: Sum(rhs),rhsMax =  -1.42690859128436E-10  1.22431044717082E-02
 cg2d: Sum(rhs),rhsMax =  -1.36671007844313E-10  1.27914069397000E-02
 cg2d: Sum(rhs),rhsMax =  -1.31147981363711E-10  1.33375230264139E-02
 cg2d: Sum(rhs),rhsMax =  -1.26090915486543E-10  1.38812066638717E-02
 cg2d: Sum(rhs),rhsMax =  -1.21469945213448E-10  1.44222120077638E-02
 cg2d: Sum(rhs),rhsMax =  -1.17186482739839E-10  1.49602935352617E-02
 cg2d: Sum(rhs),rhsMax =  -1.13198006523874E-10  1.54952061508759E-02
 cg2d: Sum(rhs),rhsMax =  -1.09501629985687E-10  1.60267052984882E-02
 cg2d: Sum(rhs),rhsMax =  -1.06060937810071E-10  1.65545470778174E-02
 cg2d: Sum(rhs),rhsMax =  -1.02870045814996E-10  1.70784883638532E-02
 cg2d: Sum(rhs),rhsMax =  -9.99083038522031E-11  1.75982869281542E-02
 cg2d: Sum(rhs),rhsMax =  -9.71102087632403E-11  1.81137015613286E-02
 cg2d: Sum(rhs),rhsMax =  -9.45173939115307E-11  1.86244921964254E-02
 cg2d: Sum(rhs),rhsMax =  -9.20639120494116E-11  1.91304200333271E-02
 cg2d: Sum(rhs),rhsMax =  -8.97648622100178E-11  1.96312476645159E-02
 cg2d: Sum(rhs),rhsMax =  -8.75831629443269E-11  2.01267392027318E-02
 cg2d: Sum(rhs),rhsMax =  -8.56480442124052E-11  2.06166604110037E-02
 cg2d: Sum(rhs),rhsMax =  -8.37750979698626E-11  2.11007788363797E-02
 cg2d: Sum(rhs),rhsMax =  -8.20343792895528E-11  2.15788639473423E-02
 cg2d: Sum(rhs),rhsMax =  -8.04027955325637E-11  2.20506872753898E-02
 cg2d: Sum(rhs),rhsMax =  -7.88598075729396E-11  2.25160225611497E-02
 cg2d: Sum(rhs),rhsMax =  -7.73860975300522E-11  2.29746459052236E-02
 cg2d: Sum(rhs),rhsMax =  -7.59744489542413E-11  2.34263359240653E-02
 cg2d: Sum(rhs),rhsMax =  -7.46716022348437E-11  2.38708739102539E-02
 cg2d: Sum(rhs),rhsMax =  -7.34033944738144E-11  2.43080439964793E-02
 cg2d: Sum(rhs),rhsMax =  -7.22354398519087E-11  2.47376333234391E-02
 cg2d: Sum(rhs),rhsMax =  -7.11172232215063E-11  2.51594322106773E-02
 cg2d: Sum(rhs),rhsMax =  -7.00430824451814E-11  2.55732343295897E-02
 cg2d: Sum(rhs),rhsMax =  -6.90421053661794E-11  2.59788368776483E-02
 cg2d: Sum(rhs),rhsMax =  -6.80638878591822E-11  2.63760407520975E-02
 cg2d: Sum(rhs),rhsMax =  -6.71561695142486E-11  2.67646507218476E-02
 cg2d: Sum(rhs),rhsMax =  -6.62768728787455E-11  2.71444755962965E-02
 cg2d: Sum(rhs),rhsMax =  -6.54402088073880E-11  2.75153283898510E-02
 cg2d: Sum(rhs),rhsMax =  -6.46744879873040E-11  2.78770264810429E-02
 cg2d: Sum(rhs),rhsMax =  -6.39531760882051E-11  2.82293917653847E-02
 cg2d: Sum(rhs),rhsMax =  -6.32045527027003E-11  2.85722508004154E-02
 cg2d: Sum(rhs),rhsMax =  -6.25419716016040E-11  2.89054349430580E-02
 cg2d: Sum(rhs),rhsMax =  -6.19326812056897E-11  2.92287804789114E-02
 cg2d: Sum(rhs),rhsMax =  -6.13059603082888E-11  2.95421287433223E-02
 cg2d: Sum(rhs),rhsMax =  -6.07801586838264E-11  2.98453262342975E-02
 cg2d: Sum(rhs),rhsMax =  -6.03114225228296E-11  3.01382247175197E-02
 cg2d: Sum(rhs),rhsMax =  -5.98534555251717E-11  3.04206813238900E-02
 cg2d: Sum(rhs),rhsMax =  -5.94367888240299E-11  3.06925586401371E-02
 cg2d: Sum(rhs),rhsMax =  -5.90159032753945E-11  3.09537247930909E-02
 cg2d: Sum(rhs),rhsMax =  -5.86451998074722E-11  3.12040535281797E-02
 cg2d: Sum(rhs),rhsMax =  -5.82867087928207E-11  3.14434242828098E-02
 cg2d: Sum(rhs),rhsMax =  -5.79364334285515E-11  3.16717222553960E-02
 cg2d: Sum(rhs),rhsMax =  -5.76073633240526E-11  3.18888384701410E-02
 cg2d: Sum(rhs),rhsMax =  -5.72972780332748E-11  3.20946698379803E-02
 cg2d: Sum(rhs),rhsMax =  -5.70224978346801E-11  3.22891192140066E-02
 cg2d: Sum(rhs),rhsMax =  -5.67486058145050E-11  3.24720954515702E-02
 cg2d: Sum(rhs),rhsMax =  -5.65242297412283E-11  3.26435134531193E-02
 cg2d: Sum(rhs),rhsMax =  -5.62881963261930E-11  3.28032942177448E-02
 cg2d: Sum(rhs),rhsMax =  -5.60852475572915E-11  3.29513648853182E-02
 cg2d: Sum(rhs),rhsMax =  -5.59312596237760E-11  3.30876587770662E-02
 cg2d: Sum(rhs),rhsMax =  -5.58214585666406E-11  3.32121154323823E-02
 cg2d: Sum(rhs),rhsMax =  -5.57179857807455E-11  3.33246806416451E-02
 cg2d: Sum(rhs),rhsMax =  -5.56422685704661E-11  3.34253064747584E-02
 cg2d: Sum(rhs),rhsMax =  -5.55558932191502E-11  3.35139513050717E-02
 cg2d: Sum(rhs),rhsMax =  -5.54634116411989E-11  3.35905798282630E-02
 cg2d: Sum(rhs),rhsMax =  -5.53928014568328E-11  3.36551630757084E-02
 cg2d: Sum(rhs),rhsMax =  -5.54202239655410E-11  3.37076784218399E-02
 cg2d: Sum(rhs),rhsMax =  -5.54143397835105E-11  3.37481095849069E-02
 cg2d: Sum(rhs),rhsMax =  -5.54211121439607E-11  3.37764466205869E-02
 cg2d: Sum(rhs),rhsMax =  -5.53501688926872E-11  3.37926859080084E-02
 cg2d: Sum(rhs),rhsMax =  -5.52838885781171E-11  3.37968301279280E-02
 cg2d: Sum(rhs),rhsMax =  -5.52902168493574E-11  3.37888882330566E-02
 cg2d: Sum(rhs),rhsMax =  -5.52605738945999E-11  3.37688754107179E-02
 cg2d: Sum(rhs),rhsMax =  -5.52354828542434E-11  3.37368130388919E-02
 cg2d: Sum(rhs),rhsMax =  -5.52576873147359E-11  3.36927286361872E-02
 cg2d: Sum(rhs),rhsMax =  -5.52988765889495E-11  3.36366558073150E-02
 cg2d: Sum(rhs),rhsMax =  -5.53536105840635E-11  3.35686341854154E-02
 cg2d: Sum(rhs),rhsMax =  -5.54442047828729E-11  3.34887093731160E-02
 cg2d: Sum(rhs),rhsMax =  -5.54807311203831E-11  3.33969328839776E-02
 cg2d: Sum(rhs),rhsMax =  -5.55883117314693E-11  3.32933620857660E-02
 cg2d: Sum(rhs),rhsMax =  -5.57611734564034E-11  3.31780601466282E-02
 cg2d: Sum(rhs),rhsMax =  -5.59170487690608E-11  3.30510959847573E-02
 cg2d: Sum(rhs),rhsMax =  -5.61209967386844E-11  3.29125442215369E-02
 cg2d: Sum(rhs),rhsMax =  -5.63104007866855E-11  3.27624851375181E-02
 cg2d: Sum(rhs),rhsMax =  -5.65353319714745E-11  3.26010046299679E-02
 cg2d: Sum(rhs),rhsMax =  -5.67557112418626E-11  3.24281941702713E-02
 cg2d: Sum(rhs),rhsMax =  -5.70307134850623E-11  3.22441507593389E-02
 cg2d: Sum(rhs),rhsMax =  -5.73069369735890E-11  3.20489768776673E-02
 cg2d: Sum(rhs),rhsMax =  -5.75902658894734E-11  3.18427804289215E-02
 cg2d: Sum(rhs),rhsMax =  -5.79305492465210E-11  3.16256746751839E-02
 cg2d: Sum(rhs),rhsMax =  -5.82753845179695E-11  3.13977781625464E-02
 cg2d: Sum(rhs),rhsMax =  -5.86146686742950E-11  3.11592146364360E-02
 cg2d: Sum(rhs),rhsMax =  -5.90120174948083E-11  3.09101129468916E-02
 cg2d: Sum(rhs),rhsMax =  -5.94159166311670E-11  3.06506069448299E-02
 cg2d: Sum(rhs),rhsMax =  -5.98379124028270E-11  3.03808353710537E-02
 cg2d: Sum(rhs),rhsMax =  -6.02874417054977E-11  3.01009417402787E-02
 cg2d: Sum(rhs),rhsMax =  -6.07713879219318E-11  2.98110742227250E-02
 cg2d: Sum(rhs),rhsMax =  -6.13249451220099E-11  2.95113855258227E-02
 cg2d: Sum(rhs),rhsMax =  -6.19504447740837E-11  2.92020327783048E-02
 cg2d: Sum(rhs),rhsMax =  -6.25629548167694E-11  2.88831774184532E-02
 cg2d: Sum(rhs),rhsMax =  -6.32156549329466E-11  2.85549850875791E-02
 cg2d: Sum(rhs),rhsMax =  -6.39223118881205E-11  2.82176255290464E-02
 cg2d: Sum(rhs),rhsMax =  -6.46280806648747E-11  2.78712724923768E-02
 cg2d: Sum(rhs),rhsMax =  -6.54156728785438E-11  2.75161036412833E-02
 cg2d: Sum(rhs),rhsMax =  -6.61946053526208E-11  2.71523004639597E-02
 cg2d: Sum(rhs),rhsMax =  -6.70786759471298E-11  2.67800481836294E-02
 cg2d: Sum(rhs),rhsMax =  -6.79583056495403E-11  2.63995356672670E-02
 cg2d: Sum(rhs),rhsMax =  -6.88799017822816E-11  2.60109553305294E-02
 cg2d: Sum(rhs),rhsMax =  -6.98610058691429E-11  2.56145030372417E-02
 cg2d: Sum(rhs),rhsMax =  -7.09056147130127E-11  2.52103779922125E-02
 cg2d: Sum(rhs),rhsMax =  -7.20203896520388E-11  2.47987826266578E-02
 cg2d: Sum(rhs),rhsMax =  -7.31928961883455E-11  2.43799224760112E-02
 cg2d: Sum(rhs),rhsMax =  -7.43927142110579E-11  2.39540060503492E-02
 cg2d: Sum(rhs),rhsMax =  -7.56796847412033E-11  2.35212446980222E-02
 cg2d: Sum(rhs),rhsMax =  -7.70039587649762E-11  2.30818524635313E-02
 cg2d: Sum(rhs),rhsMax =  -7.84419196264707E-11  2.26360459402085E-02
 cg2d: Sum(rhs),rhsMax =  -7.99216248736911E-11  2.21840441186993E-02
 cg2d: Sum(rhs),rhsMax =  -8.15115752672568E-11  2.17260682326361E-02
 cg2d: Sum(rhs),rhsMax =  -8.31443802695730E-11  2.12623416017078E-02
 cg2d: Sum(rhs),rhsMax =  -8.49174064398994E-11  2.07930894746781E-02
 cg2d: Sum(rhs),rhsMax =  -8.68122240760272E-11  2.03185388721587E-02
 cg2d: Sum(rhs),rhsMax =  -8.87513396108375E-11  1.98389184293449E-02
 cg2d: Sum(rhs),rhsMax =  -9.08573216662489E-11  1.93544582396292E-02
 cg2d: Sum(rhs),rhsMax =  -9.31730248510121E-11  1.88653897000416E-02
 cg2d: Sum(rhs),rhsMax =  -9.56371648541676E-11  1.83719453594492E-02
 cg2d: Sum(rhs),rhsMax =  -9.82330883303462E-11  1.78743587705531E-02
 cg2d: Sum(rhs),rhsMax =  -1.01015307230057E-10  1.73728643456721E-02
 cg2d: Sum(rhs),rhsMax =  -1.03993147426706E-10  1.68676972177000E-02
 cg2d: Sum(rhs),rhsMax =  -1.07150177619530E-10  1.63590931066584E-02
 cg2d: Sum(rhs),rhsMax =  -1.10534248420890E-10  1.58472881920832E-02
 cg2d: Sum(rhs),rhsMax =  -1.14197207246036E-10  1.53325189913232E-02
 cg2d: Sum(rhs),rhsMax =  -1.18106413538044E-10  1.48150222437027E-02
 cg2d: Sum(rhs),rhsMax =  -1.22343024600013E-10  1.42950348003861E-02
 cg2d: Sum(rhs),rhsMax =  -1.26893717755650E-10  1.37727935196853E-02
 cg2d: Sum(rhs),rhsMax =  -1.31848088003039E-10  1.32485351674952E-02
 cg2d: Sum(rhs),rhsMax =  -1.37214462014867E-10  1.27224963232072E-02
 cg2d: Sum(rhs),rhsMax =  -1.43084655235270E-10  1.21949132889260E-02
 cg2d: Sum(rhs),rhsMax =  -1.49482093370068E-10  1.16660220027948E-02
 cg2d: Sum(rhs),rhsMax =  -1.56518353833235E-10  1.11360579566122E-02
 cg2d: Sum(rhs),rhsMax =  -1.64232405452935E-10  1.06052561173291E-02
 cg2d: Sum(rhs),rhsMax =  -1.72818870325386E-10  1.00738508519958E-02
 cg2d: Sum(rhs),rhsMax =  -1.82330484044257E-10  9.54207585575371E-03
 cg2d: Sum(rhs),rhsMax =  -1.93023041994422E-10  9.01016408249595E-03
 cg2d: Sum(rhs),rhsMax =  -2.05084282889345E-10  8.47834767785439E-03
 cg2d: Sum(rhs),rhsMax =  -2.18767337578640E-10  7.94685791418935E-03
 cg2d: Sum(rhs),rhsMax =  -2.34381070107759E-10  7.41592512731735E-03
 cg2d: Sum(rhs),rhsMax =  -2.52362686303798E-10  6.88577865468955E-03
 cg2d: Sum(rhs),rhsMax =  -2.73302047659740E-10  6.35664677482081E-03
 cg2d: Sum(rhs),rhsMax =  -2.97967761575535E-10  5.82875664786768E-03
 cg2d: Sum(rhs),rhsMax =  -3.27489591001040E-10  5.30233425724240E-03
 cg2d: Sum(rhs),rhsMax =  -3.63332142150341E-10  4.77760435214092E-03
 cg2d: Sum(rhs),rhsMax =  -4.07896383336492E-10  4.25479039046260E-03
 cg2d: Sum(rhs),rhsMax =  -4.50422144027129E-10  3.85202032422094E-03
 cg2d: Sum(rhs),rhsMax =  -4.30065649759115E-10  4.03363854100934E-03
 cg2d: Sum(rhs),rhsMax =  -4.11539913258707E-10  4.21401929102701E-03
 cg2d: Sum(rhs),rhsMax =  -3.94668048242508E-10  4.39308315870066E-03
 cg2d: Sum(rhs),rhsMax =  -3.79250464366265E-10  4.57075287939244E-03
 cg2d: Sum(rhs),rhsMax =  -3.65092463205929E-10  4.74696062181936E-03
 cg2d: Sum(rhs),rhsMax =  -3.52088663779782E-10  4.92163438579695E-03
 cg2d: Sum(rhs),rhsMax =  -3.40055483771806E-10  5.09469795812999E-03
 cg2d: Sum(rhs),rhsMax =  -3.28884364186877E-10  5.26607398520537E-03
 cg2d: Sum(rhs),rhsMax =  -3.18569781665445E-10  5.43568602721771E-03
 cg2d: Sum(rhs),rhsMax =  -3.08541137084006E-10  5.61143624450882E-03
 cg2d: Sum(rhs),rhsMax =  -2.97446345332020E-10  5.82064351529207E-03
 cg2d: Sum(rhs),rhsMax =  -2.87158741230087E-10  6.02766713959603E-03
 cg2d: Sum(rhs),rhsMax =  -2.77665002101912E-10  6.23239539399189E-03
 cg2d: Sum(rhs),rhsMax =  -2.68885913534689E-10  6.43473278581188E-03
 cg2d: Sum(rhs),rhsMax =  -2.60720556255478E-10  6.63459534471801E-03
 cg2d: Sum(rhs),rhsMax =  -2.53109089243253E-10  6.83190209150119E-03
 cg2d: Sum(rhs),rhsMax =  -2.46024978167725E-10  7.02657168675999E-03
 cg2d: Sum(rhs),rhsMax =  -2.39435804516575E-10  7.21852273359374E-03
 cg2d: Sum(rhs),rhsMax =  -2.33268182547874E-10  7.40767476877761E-03
 cg2d: Sum(rhs),rhsMax =  -2.27477148229127E-10  7.59395258781268E-03
 cg2d: Sum(rhs),rhsMax =  -2.22022400464539E-10  7.77729754625815E-03
 cg2d: Sum(rhs),rhsMax =  -2.15742423925747E-10  7.99937109577991E-03
 cg2d: Sum(rhs),rhsMax =  -2.08126627043725E-10  8.28679192421053E-03
 cg2d: Sum(rhs),rhsMax =  -2.01184291448442E-10  8.56940760535850E-03
 cg2d: Sum(rhs),rhsMax =  -1.94743332571079E-10  8.84708732675258E-03
 cg2d: Sum(rhs),rhsMax =  -1.88893900521236E-10  9.11970254458965E-03
 cg2d: Sum(rhs),rhsMax =  -1.83420389987532E-10  9.38712704974342E-03
 cg2d: Sum(rhs),rhsMax =  -1.78363657177272E-10  9.64923703268829E-03
 cg2d: Sum(rhs),rhsMax =  -1.73629222111060E-10  9.90591115199824E-03
 cg2d: Sum(rhs),rhsMax =  -1.69281033635116E-10  1.01570306050284E-02
 cg2d: Sum(rhs),rhsMax =  -1.65198632551267E-10  1.04024791981023E-02
 cg2d: Sum(rhs),rhsMax =  -1.61389790420685E-10  1.06421434145780E-02
 cg2d: Sum(rhs),rhsMax =  -1.57394541844269E-10  1.09054017511774E-02
 cg2d: Sum(rhs),rhsMax =  -1.52688084398278E-10  1.12356475346368E-02
 cg2d: Sum(rhs),rhsMax =  -1.48417833578662E-10  1.15574002657368E-02
 cg2d: Sum(rhs),rhsMax =  -1.44424805448296E-10  1.18705339584241E-02
 cg2d: Sum(rhs),rhsMax =  -1.40716771568350E-10  1.21749262881022E-02
 cg2d: Sum(rhs),rhsMax =  -1.37251876530797E-10  1.24704586206573E-02
 cg2d: Sum(rhs),rhsMax =  -1.34093292025739E-10  1.27570160392014E-02
 cg2d: Sum(rhs),rhsMax =  -1.31111566048503E-10  1.30344873686255E-02
 cg2d: Sum(rhs),rhsMax =  -1.28368204954654E-10  1.33027651981933E-02
 cg2d: Sum(rhs),rhsMax =  -1.25829457964244E-10  1.35617459024839E-02
 cg2d: Sum(rhs),rhsMax =  -1.23462240431138E-10  1.38113296610117E-02
 cg2d: Sum(rhs),rhsMax =  -1.21274434938812E-10  1.40514204768162E-02
 cg2d: Sum(rhs),rhsMax =  -1.19233067863433E-10  1.42819261942547E-02
 cg2d: Sum(rhs),rhsMax =  -1.17344578498546E-10  1.45027585161666E-02
 cg2d: Sum(rhs),rhsMax =  -1.15584875004515E-10  1.47138330205454E-02
 cg2d: Sum(rhs),rhsMax =  -1.13911657884103E-10  1.49150691768442E-02
 cg2d: Sum(rhs),rhsMax =  -1.12460818435522E-10  1.51063903620088E-02
 cg2d: Sum(rhs),rhsMax =  -1.11035181049601E-10  1.52877238765255E-02
 cg2d: Sum(rhs),rhsMax =  -1.09731890240994E-10  1.54590009610569E-02
 cg2d: Sum(rhs),rhsMax =  -1.08489883743346E-10  1.56201568135238E-02
 cg2d: Sum(rhs),rhsMax =  -1.07352793321525E-10  1.57711306070292E-02
 cg2d: Sum(rhs),rhsMax =  -1.06311182079821E-10  1.59118655090077E-02
 cg2d: Sum(rhs),rhsMax =  -1.05380371095976E-10  1.60423087019108E-02
 cg2d: Sum(rhs),rhsMax =  -1.04475095241696E-10  1.61624114056363E-02
 cg2d: Sum(rhs),rhsMax =  -1.03700936726625E-10  1.62721289018154E-02
 cg2d: Sum(rhs),rhsMax =  -1.02999719864272E-10  1.63714205600153E-02
 cg2d: Sum(rhs),rhsMax =  -1.02387320843889E-10  1.64602498658920E-02
 cg2d: Sum(rhs),rhsMax =  -1.01876729274863E-10  1.65385844513210E-02
 cg2d: Sum(rhs),rhsMax =  -1.01371355754054E-10  1.66063961265346E-02
 cg2d: Sum(rhs),rhsMax =  -1.00937480596031E-10  1.66636609142628E-02
 cg2d: Sum(rhs),rhsMax =  -1.00579544692891E-10  1.67103590857977E-02
 cg2d: Sum(rhs),rhsMax =  -1.00303099159760E-10  1.67464751987346E-02
 cg2d: Sum(rhs),rhsMax =  -1.00087937937587E-10  1.67719981358951E-02
 cg2d: Sum(rhs),rhsMax =  -9.99936800027967E-11  1.67869211445553E-02
 cg2d: Sum(rhs),rhsMax =  -9.99019755809627E-11  1.67912418747359E-02
 cg2d: Sum(rhs),rhsMax =  -9.99009763802405E-11  1.67849624145961E-02
 cg2d: Sum(rhs),rhsMax =  -1.00067620856237E-10  1.67680893208175E-02
 cg2d: Sum(rhs),rhsMax =  -1.00276453807169E-10  1.67406336408541E-02
 cg2d: Sum(rhs),rhsMax =  -1.00599861774242E-10  1.67026109243771E-02
 cg2d: Sum(rhs),rhsMax =  -1.00983332806948E-10  1.66540412206913E-02
 cg2d: Sum(rhs),rhsMax =  -1.01383346162720E-10  1.65949490593670E-02
 cg2d: Sum(rhs),rhsMax =  -1.01841979294193E-10  1.65253634119646E-02
 cg2d: Sum(rhs),rhsMax =  -1.02357455844526E-10  1.64453176337087E-02
 cg2d: Sum(rhs),rhsMax =  -1.02996056128291E-10  1.63548493852496E-02
 cg2d: Sum(rhs),rhsMax =  -1.03680730667577E-10  1.62540005361548E-02
 cg2d: Sum(rhs),rhsMax =  -1.04458885985537E-10  1.61428170533441E-02
 cg2d: Sum(rhs),rhsMax =  -1.05348063605959E-10  1.60213488791628E-02
 cg2d: Sum(rhs),rhsMax =  -1.06280650946644E-10  1.58896498049812E-02
 cg2d: Sum(rhs),rhsMax =  -1.07328812504193E-10  1.57477773469654E-02
 cg2d: Sum(rhs),rhsMax =  -1.08479447646914E-10  1.55957926308607E-02
 cg2d: Sum(rhs),rhsMax =  -1.09714126672600E-10  1.54337602922256E-02
 cg2d: Sum(rhs),rhsMax =  -1.11023523707843E-10  1.52617483975306E-02
 cg2d: Sum(rhs),rhsMax =  -1.12418740982889E-10  1.50798283900162E-02
 cg2d: Sum(rhs),rhsMax =  -1.13931086787034E-10  1.48880750623114E-02
 cg2d: Sum(rhs),rhsMax =  -1.15566445302306E-10  1.46865665557808E-02
 cg2d: Sum(rhs),rhsMax =  -1.17310272607085E-10  1.44753843845703E-02
 cg2d: Sum(rhs),rhsMax =  -1.19219079053323E-10  1.42546134805639E-02
 cg2d: Sum(rhs),rhsMax =  -1.21243681761030E-10  1.40243422541109E-02
 cg2d: Sum(rhs),rhsMax =  -1.23456911360620E-10  1.37846626645266E-02
 cg2d: Sum(rhs),rhsMax =  -1.25783938820234E-10  1.35356702943189E-02
 cg2d: Sum(rhs),rhsMax =  -1.28340116312131E-10  1.32774644204740E-02
 cg2d: Sum(rhs),rhsMax =  -1.31107791290219E-10  1.30101480779260E-02
 cg2d: Sum(rhs),rhsMax =  -1.34040667454371E-10  1.27338281111242E-02
 cg2d: Sum(rhs),rhsMax =  -1.37225342200509E-10  1.24486152107950E-02
 cg2d: Sum(rhs),rhsMax =  -1.40655487257391E-10  1.21546239344124E-02
 cg2d: Sum(rhs),rhsMax =  -1.44355638553861E-10  1.18519727102803E-02
 cg2d: Sum(rhs),rhsMax =  -1.48418166645570E-10  1.15407838263602E-02
 cg2d: Sum(rhs),rhsMax =  -1.52679868747896E-10  1.12211834059532E-02
 cg2d: Sum(rhs),rhsMax =  -1.57400315003997E-10  1.08933013730058E-02
 cg2d: Sum(rhs),rhsMax =  -1.62396318614810E-10  1.05572714101387E-02
 cg2d: Sum(rhs),rhsMax =  -1.67981517584792E-10  1.02132309125141E-02
 cg2d: Sum(rhs),rhsMax =  -1.74040559741684E-10  9.86132094038900E-03
 cg2d: Sum(rhs),rhsMax =  -1.80741865918321E-10  9.50168617272267E-03
 cg2d: Sum(rhs),rhsMax =  -1.88067006412496E-10  9.13447486356448E-03
 cg2d: Sum(rhs),rhsMax =  -1.96217819770084E-10  8.75983880224373E-03
 cg2d: Sum(rhs),rhsMax =  -2.05234385042274E-10  8.37793327766590E-03
 cg2d: Sum(rhs),rhsMax =  -2.12542872191079E-10  8.09289684504210E-03
 cg2d: Sum(rhs),rhsMax =  -2.20331863864942E-10  7.81198300181871E-03
(PID.TID 0000.0001)      cg2d_init_res =   2.77224412469222E-01
(PID.TID 0000.0001)      cg2d_iters(min,last) =      -1      39
(PID.TID 0000.0001)      cg2d_last_res =   9.03795236457687E-14
(PID.TID 0000.0001) // =======================================================
(PID.TID 0000.0001) // Begin MONITOR dynamic field statistics
(PID.TID 0000.0001) // =======================================================
(PID.TID 0000.0001) %MON time_tsnumber                =                  3840
(PID.TID 0000.0001) %MON time_secondsf                =   5.7600000000000E+04
(PID.TID 0000.0001) %MON dynstat_eta_max              =   2.0907880787813E-03
(PID.TID 0000.0001) %MON dynstat_eta_min              =  -2.1094630542347E-03
(PID.TID 0000.0001) %MON dynstat_eta_mean             =   3.7972556243577E-15
(PID.TID 0000.0001) %MON dynstat_eta_sd               =   1.3470503803549E-03
(PID.TID 0000.0001) %MON dynstat_eta_del2             =   3.5563140859679E-06
(PID.TID 0000.0001) %MON dynstat_uvel_max             =   4.4956441170079E-01
(PID.TID 0000.0001) %MON dynstat_uvel_min             =  -3.8516288495370E-01
(PID.TID 0000.0001) %MON dynstat_uvel_mean            =   1.1279984569553E-01
(PID.TID 0000.0001) %MON dynstat_uvel_sd              =   3.7734218794663E-02
(PID.TID 0000.0001) %MON dynstat_uvel_del2            =   9.7257171790712E-05
(PID.TID 0000.0001) %MON dynstat_vvel_max             =   0.0000000000000E+00
(PID.TID 0000.0001) %MON dynstat_vvel_min             =   0.0000000000000E+00
(PID.TID 0000.0001) %MON dynstat_vvel_mean            =   0.0000000000000E+00
(PID.TID 0000.0001) %MON dynstat_vvel_sd              =   0.0000000000000E+00
(PID.TID 0000.0001) %MON dynstat_vvel_del2            =   0.0000000000000E+00
(PID.TID 0000.0001) %MON dynstat_wvel_max             =   2.9409189915208E-03
(PID.TID 0000.0001) %MON dynstat_wvel_min             =  -5.8881651935427E-03
(PID.TID 0000.0001) %MON dynstat_wvel_mean            =  -4.8797789347649E-21
(PID.TID 0000.0001) %MON dynstat_wvel_sd              =   2.8973513019423E-04
(PID.TID 0000.0001) %MON dynstat_wvel_del2            =   5.3250995053410E-06
(PID.TID 0000.0001) %MON dynstat_theta_max            =   1.5000000000014E+01
(PID.TID 0000.0001) %MON dynstat_theta_min            =   9.9999999999933E+00
(PID.TID 0000.0001) %MON dynstat_theta_mean           =   1.4046781255777E+01
(PID.TID 0000.0001) %MON dynstat_theta_sd             =   1.8897658385536E+00
(PID.TID 0000.0001) %MON dynstat_theta_del2           =   3.2399607428261E-04
(PID.TID 0000.0001) %MON dynstat_salt_max             =   3.5000000000000E+01
(PID.TID 0000.0001) %MON dynstat_salt_min             =   3.5000000000000E+01
(PID.TID 0000.0001) %MON dynstat_salt_mean            =   3.5000000000000E+01
(PID.TID 0000.0001) %MON dynstat_salt_sd              =   3.0553337637684E-13
(PID.TID 0000.0001) %MON dynstat_salt_del2            =   0.0000000000000E+00
(PID.TID 0000.0001) %MON dynstat_sst_max              =   1.5000000000000E+01
(PID.TID 0000.0001) %MON dynstat_sst_min              =   1.4999999999999E+01
(PID.TID 0000.0001) %MON dynstat_sst_mean             =   1.5000000000000E+01
(PID.TID 0000.0001) %MON dynstat_sst_sd               =   2.2595368209702E-13
(PID.TID 0000.0001) %MON dynstat_sst_del2             =   1.0003748607019E-14
(PID.TID 0000.0001) %MON dynstat_sss_max              =   3.5000000000000E+01
(PID.TID 0000.0001) %MON dynstat_sss_min              =   3.5000000000000E+01
(PID.TID 0000.0001) %MON dynstat_sss_mean             =   3.5000000000000E+01
(PID.TID 0000.0001) %MON dynstat_sss_sd               =   2.8421709430404E-14
(PID.TID 0000.0001) %MON dynstat_sss_del2             =   0.0000000000000E+00
(PID.TID 0000.0001) %MON forcing_qnet_max             =   0.0000000000000E+00
(PID.TID 0000.0001) %MON forcing_qnet_min             =   0.0000000000000E+00
(PID.TID 0000.0001) %MON forcing_qnet_mean            =   0.0000000000000E+00
(PID.TID 0000.0001) %MON forcing_qnet_sd              =   0.0000000000000E+00
(PID.TID 0000.0001) %MON forcing_qnet_del2            =   0.0000000000000E+00
(PID.TID 0000.0001) %MON forcing_qsw_max              =   0.0000000000000E+00
(PID.TID 0000.0001) %MON forcing_qsw_min              =   0.0000000000000E+00
(PID.TID 0000.0001) %MON forcing_qsw_mean             =   0.0000000000000E+00
(PID.TID 0000.0001) %MON forcing_qsw_sd               =   0.0000000000000E+00
(PID.TID 0000.0001) %MON forcing_qsw_del2             =   0.0000000000000E+00
(PID.TID 0000.0001) %MON forcing_empmr_max            =   0.0000000000000E+00
(PID.TID 0000.0001) %MON forcing_empmr_min            =   0.0000000000000E+00
(PID.TID 0000.0001) %MON forcing_empmr_mean           =   0.0000000000000E+00
(PID.TID 0000.0001) %MON forcing_empmr_sd             =   0.0000000000000E+00
(PID.TID 0000.0001) %MON forcing_empmr_del2           =   0.0000000000000E+00
(PID.TID 0000.0001) %MON forcing_fu_max               =   0.0000000000000E+00
(PID.TID 0000.0001) %MON forcing_fu_min               =   0.0000000000000E+00
(PID.TID 0000.0001) %MON forcing_fu_mean              =   0.0000000000000E+00
(PID.TID 0000.0001) %MON forcing_fu_sd                =   0.0000000000000E+00
(PID.TID 0000.0001) %MON forcing_fu_del2              =   0.0000000000000E+00
(PID.TID 0000.0001) %MON forcing_fv_max               =   0.0000000000000E+00
(PID.TID 0000.0001) %MON forcing_fv_min               =   0.0000000000000E+00
(PID.TID 0000.0001) %MON forcing_fv_mean              =   0.0000000000000E+00
(PID.TID 0000.0001) %MON forcing_fv_sd                =   0.0000000000000E+00
(PID.TID 0000.0001) %MON forcing_fv_del2              =   0.0000000000000E+00
(PID.TID 0000.0001) %MON advcfl_uvel_max              =   3.3717330877559E-02
(PID.TID 0000.0001) %MON advcfl_vvel_max              =   0.0000000000000E+00
(PID.TID 0000.0001) %MON advcfl_wvel_max              =   2.5841956017253E-02
(PID.TID 0000.0001) %MON advcfl_W_hf_max              =   3.3717330877559E-02
(PID.TID 0000.0001) %MON pe_b_mean                    =   4.4972909446613E-08
(PID.TID 0000.0001) %MON ke_max                       =   5.7178139413607E-02
(PID.TID 0000.0001) %MON ke_mean                      =   7.0810597997811E-03
(PID.TID 0000.0001) %MON ke_vol                       =   9.6656965507697E+10
(PID.TID 0000.0001) %MON vort_r_min                   =   0.0000000000000E+00
(PID.TID 0000.0001) %MON vort_r_max                   =   0.0000000000000E+00
(PID.TID 0000.0001) %MON vort_a_mean                  =   0.0000000000000E+00
(PID.TID 0000.0001) %MON vort_a_sd                    =   0.0000000000000E+00
(PID.TID 0000.0001) %MON vort_p_mean                  =   0.0000000000000E+00
(PID.TID 0000.0001) %MON vort_p_sd                    =   0.0000000000000E+00
(PID.TID 0000.0001) %MON surfExpan_theta_mean         =  -3.4031422866728E-19
(PID.TID 0000.0001) %MON surfExpan_salt_mean          =  -2.1112517469304E-19
(PID.TID 0000.0001) // =======================================================
(PID.TID 0000.0001) // End MONITOR dynamic field statistics
(PID.TID 0000.0001) // =======================================================
(PID.TID 0000.0001) // =======================================================
(PID.TID 0000.0001) // Begin OBCS MONITOR field statistics
(PID.TID 0000.0001) // =======================================================
(PID.TID 0000.0001) %MON obc_E_uVel_max               =   1.1205712828732E-01
(PID.TID 0000.0001) %MON obc_E_uVel_min               =   1.1205712828732E-01
(PID.TID 0000.0001) %MON obc_E_uVel_mean              =   1.1205712828732E-01
(PID.TID 0000.0001) %MON obc_E_uVel_sd                =   0.0000000000000E+00
(PID.TID 0000.0001) %MON obc_E_uVel_Int               =   1.1205712828732E+05
(PID.TID 0000.0001) %MON obc_W_uVel_max               =   1.1205712828732E-01
(PID.TID 0000.0001) %MON obc_W_uVel_min               =   1.1205712828732E-01
(PID.TID 0000.0001) %MON obc_W_uVel_mean              =   1.1205712828732E-01
(PID.TID 0000.0001) %MON obc_W_uVel_sd                =   0.0000000000000E+00
(PID.TID 0000.0001) %MON obc_W_uVel_Int               =   1.1205712828732E+05
(PID.TID 0000.0001) // =======================================================
(PID.TID 0000.0001) // End OBCS MONITOR field statistics
(PID.TID 0000.0001) // =======================================================
 cg2d: Sum(rhs),rhsMax =  -2.25681695553703E-10  7.62986194551201E-03
 cg2d: Sum(rhs),rhsMax =  -2.30289565195108E-10  7.47997228038256E-03
 cg2d: Sum(rhs),rhsMax =  -2.35235497747510E-10  7.32742262158234E-03
 cg2d: Sum(rhs),rhsMax =  -2.40369835147192E-10  7.17228849098895E-03
 cg2d: Sum(rhs),rhsMax =  -2.45794384845510E-10  7.01464569299100E-03
 cg2d: Sum(rhs),rhsMax =  -2.51556886432525E-10  6.85457152311685E-03
 cg2d: Sum(rhs),rhsMax =  -2.57686649796085E-10  6.69212846659915E-03
 cg2d: Sum(rhs),rhsMax =  -2.64228972035596E-10  6.52736895698616E-03
 cg2d: Sum(rhs),rhsMax =  -2.71190847556113E-10  6.36037344775192E-03
 cg2d: Sum(rhs),rhsMax =  -2.78599476821739E-10  6.19124104062385E-03
 cg2d: Sum(rhs),rhsMax =  -2.86544898919772E-10  6.02006282130067E-03
 cg2d: Sum(rhs),rhsMax =  -2.95111102222023E-10  5.84692124996408E-03
 cg2d: Sum(rhs),rhsMax =  -3.04289149433146E-10  5.67189660620590E-03
 cg2d: Sum(rhs),rhsMax =  -3.14154535718814E-10  5.49507065601589E-03
 cg2d: Sum(rhs),rhsMax =  -3.24684834573929E-10  5.31652701732584E-03
 cg2d: Sum(rhs),rhsMax =  -3.36174171833292E-10  5.13635041761317E-03
 cg2d: Sum(rhs),rhsMax =  -3.48542111838768E-10  4.95462617651344E-03
 cg2d: Sum(rhs),rhsMax =  -3.62002108844628E-10  4.77144008569489E-03
 cg2d: Sum(rhs),rhsMax =  -3.76644222754852E-10  4.58687863272042E-03
 cg2d: Sum(rhs),rhsMax =  -3.92619298184016E-10  4.40102886186794E-03
 cg2d: Sum(rhs),rhsMax =  -4.10094319613918E-10  4.21397189499929E-03
 cg2d: Sum(rhs),rhsMax =  -4.29365820675542E-10  4.02578879887831E-03
 cg2d: Sum(rhs),rhsMax =  -4.50655901484964E-10  3.83656585642517E-03
 cg2d: Sum(rhs),rhsMax =  -4.41519376614963E-10  3.91679456563742E-03
 cg2d: Sum(rhs),rhsMax =  -3.97881949609769E-10  4.34680330211667E-03
 cg2d: Sum(rhs),rhsMax =  -3.61423890815615E-10  4.78633764455343E-03
 cg2d: Sum(rhs),rhsMax =  -3.30383276292423E-10  5.23721107142591E-03
 cg2d: Sum(rhs),rhsMax =  -3.03922775835019E-10  5.69427455979350E-03
 cg2d: Sum(rhs),rhsMax =  -2.80935608110155E-10  6.16125255091621E-03
 cg2d: Sum(rhs),rhsMax =  -2.60844790211934E-10  6.63717647278780E-03
 cg2d: Sum(rhs),rhsMax =  -2.43182363135475E-10  7.12026316155965E-03
 cg2d: Sum(rhs),rhsMax =  -2.27413310405211E-10  7.61539831891376E-03
 cg2d: Sum(rhs),rhsMax =  -2.13022599560020E-10  8.13033089701773E-03
 cg2d: Sum(rhs),rhsMax =  -2.00361949254102E-10  8.64535715938587E-03
 cg2d: Sum(rhs),rhsMax =  -1.89168569697529E-10  9.16001570983245E-03
 cg2d: Sum(rhs),rhsMax =  -1.79154135970805E-10  9.67407335376602E-03
 cg2d: Sum(rhs),rhsMax =  -1.70233604990244E-10  1.01872968584213E-02
 cg2d: Sum(rhs),rhsMax =  -1.62125757263709E-10  1.06994530586778E-02
 cg2d: Sum(rhs),rhsMax =  -1.54835921861718E-10  1.12103089642970E-02
 cg2d: Sum(rhs),rhsMax =  -1.48201118044256E-10  1.17196318682527E-02
 cg2d: Sum(rhs),rhsMax =  -1.42149403359326E-10  1.22271894558570E-02
 cg2d: Sum(rhs),rhsMax =  -1.36565536656974E-10  1.27327499142457E-02
 cg2d: Sum(rhs),rhsMax =  -1.31451738383248E-10  1.32360820415990E-02
 cg2d: Sum(rhs),rhsMax =  -1.26731958260962E-10  1.37369553556023E-02
 cg2d: Sum(rhs),rhsMax =  -1.22387211476394E-10  1.42351402006836E-02
 cg2d: Sum(rhs),rhsMax =  -1.18329901432901E-10  1.47304078536564E-02
 cg2d: Sum(rhs),rhsMax =  -1.14576126364341E-10  1.52225306275290E-02
 cg2d: Sum(rhs),rhsMax =  -1.11065157071266E-10  1.57112819734706E-02
 cg2d: Sum(rhs),rhsMax =  -1.07811981564510E-10  1.61964365811876E-02
 cg2d: Sum(rhs),rhsMax =  -1.04718678173299E-10  1.66777704781758E-02
 cg2d: Sum(rhs),rhsMax =  -1.01863184553963E-10  1.71550611285410E-02
 cg2d: Sum(rhs),rhsMax =  -9.91434712105388E-11  1.76280875322403E-02
 cg2d: Sum(rhs),rhsMax =  -9.66471347396691E-11  1.80966303256517E-02
 cg2d: Sum(rhs),rhsMax =  -9.42627087496817E-11  1.85604718846389E-02
 cg2d: Sum(rhs),rhsMax =  -9.21364096129196E-11  1.90193964297451E-02
 cg2d: Sum(rhs),rhsMax =  -9.01173580203363E-11  1.94731901346210E-02
 cg2d: Sum(rhs),rhsMax =  -8.81913431172165E-11  1.99216412376872E-02
 cg2d: Sum(rhs),rhsMax =  -8.63723537136707E-11  2.03645401566559E-02
 cg2d: Sum(rhs),rhsMax =  -8.46815950694690E-11  2.08016796052630E-02
 cg2d: Sum(rhs),rhsMax =  -8.30975288579339E-11  2.12328547114067E-02
 cg2d: Sum(rhs),rhsMax =  -8.15574274781738E-11  2.16578631358436E-02
 cg2d: Sum(rhs),rhsMax =  -8.01168020814202E-11  2.20765051906626E-02
 cg2d: Sum(rhs),rhsMax =  -7.87464538021254E-11  2.24885839568858E-02
 cg2d: Sum(rhs),rhsMax =  -7.74392772129318E-11  2.28939054005328E-02
 cg2d: Sum(rhs),rhsMax =  -7.61981588937033E-11  2.32922784878163E-02
 cg2d: Sum(rhs),rhsMax =  -7.49965645141515E-11  2.36835152988103E-02
 cg2d: Sum(rhs),rhsMax =  -7.38979988312849E-11  2.40674311398844E-02
 cg2d: Sum(rhs),rhsMax =  -7.28607174593776E-11  2.44438446553594E-02
 cg2d: Sum(rhs),rhsMax =  -7.18616277595174E-11  2.48125779388932E-02
 cg2d: Sum(rhs),rhsMax =  -7.08940683935566E-11  2.51734566450630E-02
 cg2d: Sum(rhs),rhsMax =  -6.99953428551225E-11  2.55263101014841E-02
 cg2d: Sum(rhs),rhsMax =  -6.91255941376312E-11  2.58709714216285E-02
 cg2d: Sum(rhs),rhsMax =  -6.82962575382362E-11  2.62072776183057E-02
 cg2d: Sum(rhs),rhsMax =  -6.75145495065976E-11  2.65350697175515E-02
 cg2d: Sum(rhs),rhsMax =  -6.67743638160800E-11  2.68541928724875E-02
 cg2d: Sum(rhs),rhsMax =  -6.60904664329109E-11  2.71644964765466E-02
 cg2d: Sum(rhs),rhsMax =  -6.54171161684758E-11  2.74658342753563E-02
 cg2d: Sum(rhs),rhsMax =  -6.47419895472012E-11  2.77580644767936E-02
 cg2d: Sum(rhs),rhsMax =  -6.42241815285161E-11  2.80410498575541E-02
 cg2d: Sum(rhs),rhsMax =  -6.37078167997629E-11  2.83146578661650E-02
 cg2d: Sum(rhs),rhsMax =  -6.32128793753850E-11  2.85787607220028E-02
 cg2d: Sum(rhs),rhsMax =  -6.27342622294691E-11  2.88332355092982E-02
 cg2d: Sum(rhs),rhsMax =  -6.23243678887775E-11  2.90779642655746E-02
 cg2d: Sum(rhs),rhsMax =  -6.18998186041608E-11  2.93128340640963E-02
 cg2d: Sum(rhs),rhsMax =  -6.15080208987706E-11  2.95377370900005E-02
 cg2d: Sum(rhs),rhsMax =  -6.11747319467781E-11  2.97525707098722E-02
 cg2d: Sum(rhs),rhsMax =  -6.07992545198499E-11  2.99572375346021E-02
 cg2d: Sum(rhs),rhsMax =  -6.05039351952996E-11  3.01516454754424E-02
 cg2d: Sum(rhs),rhsMax =  -6.01951821721514E-11  3.03357077932511E-02
 cg2d: Sum(rhs),rhsMax =  -5.98976424015518E-11  3.05093431409795E-02
 cg2d: Sum(rhs),rhsMax =  -5.96130922403404E-11  3.06724755995149E-02
 cg2d: Sum(rhs),rhsMax =  -5.93799454051691E-11  3.08250347070290E-02
 cg2d: Sum(rhs),rhsMax =  -5.91540150196579E-11  3.09669554820296E-02
 cg2d: Sum(rhs),rhsMax =  -5.89609472356756E-11  3.10981784403403E-02
 cg2d: Sum(rhs),rhsMax =  -5.87668802509711E-11  3.12186496063351E-02
 cg2d: Sum(rhs),rhsMax =  -5.86484194542436E-11  3.13283205187830E-02
 cg2d: Sum(rhs),rhsMax =  -5.85418380438796E-11  3.14271482316906E-02
 cg2d: Sum(rhs),rhsMax =  -5.84751136400996E-11  3.15150953105865E-02
 cg2d: Sum(rhs),rhsMax =  -5.83566528433721E-11  3.15921298247104E-02
 cg2d: Sum(rhs),rhsMax =  -5.83105785878502E-11  3.16582253355442E-02
 cg2d: Sum(rhs),rhsMax =  -5.82247583480466E-11  3.17133608820389E-02
 cg2d: Sum(rhs),rhsMax =  -5.82727199827104E-11  3.17575209627764E-02
 cg2d: Sum(rhs),rhsMax =  -5.82798254100680E-11  3.17906955151717E-02
 cg2d: Sum(rhs),rhsMax =  -5.82939252424808E-11  3.18128798917124E-02
 cg2d: Sum(rhs),rhsMax =  -5.82479620092613E-11  3.18240748331693E-02
 cg2d: Sum(rhs),rhsMax =  -5.82195402998309E-11  3.18242864387302E-02
 cg2d: Sum(rhs),rhsMax =  -5.81960035717088E-11  3.18135261330603E-02
 cg2d: Sum(rhs),rhsMax =  -5.81537040744706E-11  3.17918106305471E-02
 cg2d: Sum(rhs),rhsMax =  -5.81986681069679E-11  3.17591618972362E-02
 cg2d: Sum(rhs),rhsMax =  -5.82451864516997E-11  3.17156071108123E-02
 cg2d: Sum(rhs),rhsMax =  -5.82797143877656E-11  3.16611786194645E-02
 cg2d: Sum(rhs),rhsMax =  -5.83385562080707E-11  3.15959139004028E-02
 cg2d: Sum(rhs),rhsMax =  -5.84015058535670E-11  3.15198555187317E-02
 cg2d: Sum(rhs),rhsMax =  -5.84858828034385E-11  3.14330510872630E-02
 cg2d: Sum(rhs),rhsMax =  -5.85661519281189E-11  3.13355532274047E-02
 cg2d: Sum(rhs),rhsMax =  -5.87488946379722E-11  3.12274195312164E-02
 cg2d: Sum(rhs),rhsMax =  -5.89152060470610E-11  3.11087125243613E-02
 cg2d: Sum(rhs),rhsMax =  -5.91303672692334E-11  3.09794996294152E-02
 cg2d: Sum(rhs),rhsMax =  -5.93453064468008E-11  3.08398531288683E-02
 cg2d: Sum(rhs),rhsMax =  -5.96025451216065E-11  3.06898501271400E-02
 cg2d: Sum(rhs),rhsMax =  -5.98332494661236E-11  3.05295725110136E-02
 cg2d: Sum(rhs),rhsMax =  -6.00939298323055E-11  3.03591069080536E-02
 cg2d: Sum(rhs),rhsMax =  -6.04158945094468E-11  3.01785446427422E-02
 cg2d: Sum(rhs),rhsMax =  -6.06847905260111E-11  2.99879816905338E-02
 cg2d: Sum(rhs),rhsMax =  -6.10363981579098E-11  2.97875186291264E-02
 cg2d: Sum(rhs),rhsMax =  -6.13806783178461E-11  2.95772605874373E-02
 cg2d: Sum(rhs),rhsMax =  -6.17667028635083E-11  2.93573171926376E-02
 cg2d: Sum(rhs),rhsMax =  -6.21617202156699E-11  2.91278025152675E-02
 cg2d: Sum(rhs),rhsMax =  -6.25728358016886E-11  2.88888350123741E-02
 cg2d: Sum(rhs),rhsMax =  -6.30374641374942E-11  2.86405374685627E-02
 cg2d: Sum(rhs),rhsMax =  -6.34802210797147E-11  2.83830369348152E-02
 cg2d: Sum(rhs),rhsMax =  -6.39805985969133E-11  2.81164646648976E-02
 cg2d: Sum(rhs),rhsMax =  -6.45741238258779E-11  2.78409560491432E-02
 cg2d: Sum(rhs),rhsMax =  -6.51654286087933E-11  2.75566505453510E-02
 cg2d: Sum(rhs),rhsMax =  -6.58325616242905E-11  2.72636916064762E-02
 cg2d: Sum(rhs),rhsMax =  -6.65051347326084E-11  2.69622266047143E-02
 cg2d: Sum(rhs),rhsMax =  -6.72099043086405E-11  2.66524067515067E-02
 cg2d: Sum(rhs),rhsMax =  -6.79841738460141E-11  2.63343870129464E-02
 cg2d: Sum(rhs),rhsMax =  -6.87843115798614E-11  2.60083260200623E-02
 cg2d: Sum(rhs),rhsMax =  -6.95823398899620E-11  2.56743859735551E-02
 cg2d: Sum(rhs),rhsMax =  -7.04457603362130E-11  2.53327325427375E-02
 cg2d: Sum(rhs),rhsMax =  -7.13704650934233E-11  2.49835347587172E-02
 cg2d: Sum(rhs),rhsMax =  -7.23323623219585E-11  2.46269649022025E-02
 cg2d: Sum(rhs),rhsMax =  -7.33378913153615E-11  2.42631983866716E-02
 cg2d: Sum(rhs),rhsMax =  -7.43838324268609E-11  2.38924136380032E-02
 cg2d: Sum(rhs),rhsMax =  -7.55122631090899E-11  2.35147919719870E-02
 cg2d: Sum(rhs),rhsMax =  -7.66940955188034E-11  2.31305174703549E-02
 cg2d: Sum(rhs),rhsMax =  -7.79232234293659E-11  2.27397768572235E-02
 cg2d: Sum(rhs),rhsMax =  -7.92145238293074E-11  2.23427593769457E-02
 cg2d: Sum(rhs),rhsMax =  -8.05819855287382E-11  2.19396566740325E-02
 cg2d: Sum(rhs),rhsMax =  -8.20314927096888E-11  2.15306626754625E-02
 cg2d: Sum(rhs),rhsMax =  -8.35309599267475E-11  2.11159734753854E-02
 cg2d: Sum(rhs),rhsMax =  -8.51071435548079E-11  2.06957872219901E-02
 cg2d: Sum(rhs),rhsMax =  -8.68062288716942E-11  2.02703040061552E-02
 cg2d: Sum(rhs),rhsMax =  -8.85553852469911E-11  1.98397257514357E-02
 cg2d: Sum(rhs),rhsMax =  -9.04396557643850E-11  1.94042561049506E-02
 cg2d: Sum(rhs),rhsMax =  -9.24305076921428E-11  1.89641003288077E-02
 cg2d: Sum(rhs),rhsMax =  -9.45079570158214E-11  1.85194651918018E-02
 cg2d: Sum(rhs),rhsMax =  -9.67557145514775E-11  1.80705588612472E-02
 cg2d: Sum(rhs),rhsMax =  -9.91928761351346E-11  1.76175907943131E-02
 cg2d: Sum(rhs),rhsMax =  -1.01744390690328E-10  1.71607716306596E-02
 cg2d: Sum(rhs),rhsMax =  -1.04520392341101E-10  1.67003130853035E-02
 cg2d: Sum(rhs),rhsMax =  -1.07450159880784E-10  1.62364278418256E-02
 cg2d: Sum(rhs),rhsMax =  -1.10592091040473E-10  1.57693294463608E-02
 cg2d: Sum(rhs),rhsMax =  -1.13897780096295E-10  1.52992322029722E-02
 cg2d: Sum(rhs),rhsMax =  -1.17508114350073E-10  1.48263510702127E-02
 cg2d: Sum(rhs),rhsMax =  -1.21343601833246E-10  1.43509015597899E-02
 cg2d: Sum(rhs),rhsMax =  -1.25441768084045E-10  1.38730996374826E-02
 cg2d: Sum(rhs),rhsMax =  -1.29855570740744E-10  1.33931616263534E-02
 cg2d: Sum(rhs),rhsMax =  -1.34608657553770E-10  1.29113041122473E-02
 cg2d: Sum(rhs),rhsMax =  -1.39789402275881E-10  1.24277438515477E-02
 cg2d: Sum(rhs),rhsMax =  -1.45383594052362E-10  1.19426976811370E-02
 cg2d: Sum(rhs),rhsMax =  -1.51452295149568E-10  1.14563824304771E-02
 cg2d: Sum(rhs),rhsMax =  -1.58102975156282E-10  1.09690148356623E-02
 cg2d: Sum(rhs),rhsMax =  -1.65400027007934E-10  1.04808114552245E-02
 cg2d: Sum(rhs),rhsMax =  -1.73391301316883E-10  9.99198858738064E-03
 cg2d: Sum(rhs),rhsMax =  -1.82218129474165E-10  9.50276218832773E-03
 cg2d: Sum(rhs),rhsMax =  -1.92009519395242E-10  9.01334779110601E-03
 cg2d: Sum(rhs),rhsMax =  -2.02923899905727E-10  8.52396042450565E-03
 cg2d: Sum(rhs),rhsMax =  -2.15244377876900E-10  8.03481453147101E-03
 cg2d: Sum(rhs),rhsMax =  -2.29137930851664E-10  7.54612388678230E-03
 cg2d: Sum(rhs),rhsMax =  -2.44934628135240E-10  7.05810151284636E-03
 cg2d: Sum(rhs),rhsMax =  -2.63030597302816E-10  6.57095959332142E-03
 cg2d: Sum(rhs),rhsMax =  -2.83985501781103E-10  6.08490938479889E-03
 cg2d: Sum(rhs),rhsMax =  -3.08511660662703E-10  5.60016112621402E-03
 cg2d: Sum(rhs),rhsMax =  -3.37578187625809E-10  5.11692394567929E-03
 cg2d: Sum(rhs),rhsMax =  -3.72623154554219E-10  4.63540576448460E-03
 cg2d: Sum(rhs),rhsMax =  -3.74396458280302E-10  4.61241976274104E-03
 cg2d: Sum(rhs),rhsMax =  -3.59574647834648E-10  4.80151438926874E-03
 cg2d: Sum(rhs),rhsMax =  -3.45971917781185E-10  4.98912277832753E-03
 cg2d: Sum(rhs),rhsMax =  -3.33477967462414E-10  5.17516125841328E-03
 cg2d: Sum(rhs),rhsMax =  -3.21962539961973E-10  5.35954790626015E-03
 cg2d: Sum(rhs),rhsMax =  -3.11270575395657E-10  5.54220146009884E-03
 cg2d: Sum(rhs),rhsMax =  -3.01377006683978E-10  5.72304165583063E-03
 cg2d: Sum(rhs),rhsMax =  -2.92227159137681E-10  5.90198818320031E-03
 cg2d: Sum(rhs),rhsMax =  -2.83665868572314E-10  6.07896122221081E-03
 cg2d: Sum(rhs),rhsMax =  -2.75689304718441E-10  6.25388208260765E-03
 cg2d: Sum(rhs),rhsMax =  -2.68293942617959E-10  6.42667339223572E-03
 cg2d: Sum(rhs),rhsMax =  -2.61307531168598E-10  6.59725901299938E-03
 cg2d: Sum(rhs),rhsMax =  -2.54769427776580E-10  6.76557541214377E-03
 cg2d: Sum(rhs),rhsMax =  -2.48619735909728E-10  6.93156231381400E-03
 cg2d: Sum(rhs),rhsMax =  -2.42896869284692E-10  7.09515172753937E-03
 cg2d: Sum(rhs),rhsMax =  -2.37434627514688E-10  7.25627129787943E-03
 cg2d: Sum(rhs),rhsMax =  -2.32297403535142E-10  7.41484908498965E-03
 cg2d: Sum(rhs),rhsMax =  -2.27421081966384E-10  7.57081539962224E-03
 cg2d: Sum(rhs),rhsMax =  -2.22754481526977E-10  7.72410270290824E-03
 cg2d: Sum(rhs),rhsMax =  -2.17358242515786E-10  7.91137102506037E-03
 cg2d: Sum(rhs),rhsMax =  -2.11796580273926E-10  8.11584860379713E-03
 cg2d: Sum(rhs),rhsMax =  -2.06595962559675E-10  8.31720230322224E-03
 cg2d: Sum(rhs),rhsMax =  -2.01716421344145E-10  8.51535193744320E-03
 cg2d: Sum(rhs),rhsMax =  -1.96379690287074E-10  8.74133499718901E-03
 cg2d: Sum(rhs),rhsMax =  -1.90666815669260E-10  8.99934643064732E-03
 cg2d: Sum(rhs),rhsMax =  -1.85354620541034E-10  9.25274214522293E-03
 cg2d: Sum(rhs),rhsMax =  -1.80413795014545E-10  9.50140791715877E-03
 cg2d: Sum(rhs),rhsMax =  -1.75884862230191E-10  9.74523150314311E-03
 cg2d: Sum(rhs),rhsMax =  -1.71573533158664E-10  9.98410264924866E-03
 cg2d: Sum(rhs),rhsMax =  -1.67548863672096E-10  1.02179131186428E-02
 cg2d: Sum(rhs),rhsMax =  -1.63839608546823E-10  1.04465567389896E-02
 cg2d: Sum(rhs),rhsMax =  -1.60337076948736E-10  1.06699294688033E-02
 cg2d: Sum(rhs),rhsMax =  -1.57114099508249E-10  1.08879294803615E-02
 cg2d: Sum(rhs),rhsMax =  -1.54083856784837E-10  1.11004572560589E-02
 cg2d: Sum(rhs),rhsMax =  -1.51193169095620E-10  1.13074156949286E-02
 cg2d: Sum(rhs),rhsMax =  -1.48408507705255E-10  1.15087102253635E-02
 cg2d: Sum(rhs),rhsMax =  -1.45820244767947E-10  1.17042489155335E-02
 cg2d: Sum(rhs),rhsMax =  -1.43363765303661E-10  1.18939425859210E-02
 cg2d: Sum(rhs),rhsMax =  -1.41071154757810E-10  1.20777049150577E-02
 cg2d: Sum(rhs),rhsMax =  -1.38909439506563E-10  1.22554525313660E-02
 cg2d: Sum(rhs),rhsMax =  -1.36884947821159E-10  1.24271050956886E-02
 cg2d: Sum(rhs),rhsMax =  -1.34952271579891E-10  1.25925853650060E-02
 cg2d: Sum(rhs),rhsMax =  -1.33179578476472E-10  1.27518192322918E-02
 cg2d: Sum(rhs),rhsMax =  -1.31490374144505E-10  1.29047357537966E-02
 cg2d: Sum(rhs),rhsMax =  -1.29948829474813E-10  1.30512671775886E-02
 cg2d: Sum(rhs),rhsMax =  -1.28459798354186E-10  1.31913489779406E-02
 cg2d: Sum(rhs),rhsMax =  -1.27117538717414E-10  1.33249198910959E-02
 cg2d: Sum(rhs),rhsMax =  -1.25798371719554E-10  1.34519219458416E-02
 cg2d: Sum(rhs),rhsMax =  -1.24641852394802E-10  1.35723004861036E-02
 cg2d: Sum(rhs),rhsMax =  -1.23550725206201E-10  1.36860042502408E-02
 cg2d: Sum(rhs),rhsMax =  -1.22526211399077E-10  1.37929852973334E-02
 cg2d: Sum(rhs),rhsMax =  -1.21538334951765E-10  1.38931990073221E-02
 cg2d: Sum(rhs),rhsMax =  -1.20679355397613E-10  1.39866041379902E-02
 cg2d: Sum(rhs),rhsMax =  -1.19867893388914E-10  1.40731628802386E-02
 cg2d: Sum(rhs),rhsMax =  -1.19098397810546E-10  1.41528408988583E-02
 cg2d: Sum(rhs),rhsMax =  -1.18388410186299E-10  1.42256073711833E-02
 cg2d: Sum(rhs),rhsMax =  -1.17785337039322E-10  1.42914350346039E-02
 cg2d: Sum(rhs),rhsMax =  -1.17231113705429E-10  1.43503002424406E-02
 cg2d: Sum(rhs),rhsMax =  -1.16735510147237E-10  1.44021830188184E-02
 cg2d: Sum(rhs),rhsMax =  -1.16025744567594E-10  1.44785482939204E-02
 cg2d: Sum(rhs),rhsMax =  -1.15430554004092E-10  1.45494690642606E-02
 cg2d: Sum(rhs),rhsMax =  -1.14905973624957E-10  1.46105534586987E-02
 cg2d: Sum(rhs),rhsMax =  -1.14447784582694E-10  1.46617802188036E-02
 cg2d: Sum(rhs),rhsMax =  -1.14061537992427E-10  1.47031323080787E-02
 cg2d: Sum(rhs),rhsMax =  -1.13735687534700E-10  1.47345968884867E-02
 cg2d: Sum(rhs),rhsMax =  -1.13465237205901E-10  1.47561652939172E-02
 cg2d: Sum(rhs),rhsMax =  -1.13379083899190E-10  1.47678330013778E-02
 cg2d: Sum(rhs),rhsMax =  -1.13248632693796E-10  1.47695996007385E-02
 cg2d: Sum(rhs),rhsMax =  -1.13184461802973E-10  1.47614687638954E-02
 cg2d: Sum(rhs),rhsMax =  -1.13374643007091E-10  1.47434482143071E-02
 cg2d: Sum(rhs),rhsMax =  -1.13642206756026E-10  1.47155496973882E-02
 cg2d: Sum(rhs),rhsMax =  -1.14018461339072E-10  1.46777889529686E-02
 cg2d: Sum(rhs),rhsMax =  -1.14449894006441E-10  1.46301856902408E-02
 cg2d: Sum(rhs),rhsMax =  -1.14944387341609E-10  1.45727635658456E-02
 cg2d: Sum(rhs),rhsMax =  -1.15519371846062E-10  1.45055501652720E-02
 cg2d: Sum(rhs),rhsMax =  -1.16208487277447E-10  1.44285769873444E-02
 cg2d: Sum(rhs),rhsMax =  -1.16957665774464E-10  1.43418794311127E-02
 cg2d: Sum(rhs),rhsMax =  -1.17813869771055E-10  1.42454967840011E-02
 cg2d: Sum(rhs),rhsMax =  -1.18802856441391E-10  1.41394722096916E-02
 cg2d: Sum(rhs),rhsMax =  -1.19884435711981E-10  1.40238527339741E-02
 cg2d: Sum(rhs),rhsMax =  -1.21042842415875E-10  1.38986892267424E-02
 cg2d: Sum(rhs),rhsMax =  -1.22371224264839E-10  1.37640363785255E-02
 cg2d: Sum(rhs),rhsMax =  -1.23767107673700E-10  1.36199526704178E-02
 cg2d: Sum(rhs),rhsMax =  -1.25249588478482E-10  1.34665003369960E-02
 cg2d: Sum(rhs),rhsMax =  -1.26661348076595E-10  1.33168837357444E-02
 cg2d: Sum(rhs),rhsMax =  -1.27978072583801E-10  1.31850666719592E-02
 cg2d: Sum(rhs),rhsMax =  -1.29402266679790E-10  1.30470558054154E-02
 cg2d: Sum(rhs),rhsMax =  -1.30973232259635E-10  1.29029247706316E-02
 cg2d: Sum(rhs),rhsMax =  -1.32582500533829E-10  1.27527498131015E-02
 cg2d: Sum(rhs),rhsMax =  -1.34328881351564E-10  1.25966097126267E-02
 cg2d: Sum(rhs),rhsMax =  -1.36162414676733E-10  1.24345857215527E-02
 cg2d: Sum(rhs),rhsMax =  -1.38102862479172E-10  1.22667615143289E-02
 cg2d: Sum(rhs),rhsMax =  -1.40200073772689E-10  1.20932231448829E-02
 cg2d: Sum(rhs),rhsMax =  -1.42378109302399E-10  1.19140590091713E-02
 cg2d: Sum(rhs),rhsMax =  -1.44703915516686E-10  1.17293598118089E-02
 cg2d: Sum(rhs),rhsMax =  -1.47224121782585E-10  1.15392185362352E-02
 cg2d: Sum(rhs),rhsMax =  -1.49861123510675E-10  1.13437304169671E-02
 cg2d: Sum(rhs),rhsMax =  -1.52676427056520E-10  1.11429929111187E-02
 cg2d: Sum(rhs),rhsMax =  -1.55704782400790E-10  1.09371056652552E-02
 cg2d: Sum(rhs),rhsMax =  -1.58864144061965E-10  1.07261704743008E-02
 cg2d: Sum(rhs),rhsMax =  -1.62236557521567E-10  1.05102912325285E-02
 cg2d: Sum(rhs),rhsMax =  -1.65766955717572E-10  1.02895738806791E-02
 cg2d: Sum(rhs),rhsMax =  -1.69433023167187E-10  1.00697870323168E-02
 cg2d: Sum(rhs),rhsMax =  -1.72292957678621E-10  9.90640318211349E-03
 cg2d: Sum(rhs),rhsMax =  -1.75292003135041E-10  9.73949027756848E-03
 cg2d: Sum(rhs),rhsMax =  -1.78487891133727E-10  9.56911258300097E-03
 cg2d: Sum(rhs),rhsMax =  -1.81854975522810E-10  9.39535166885899E-03
 cg2d: Sum(rhs),rhsMax =  -1.85422788234746E-10  9.21829328020718E-03
 cg2d: Sum(rhs),rhsMax =  -1.89220861201989E-10  9.03802194753216E-03
 cg2d: Sum(rhs),rhsMax =  -1.93180693663919E-10  8.85462102282365E-03
 cg2d: Sum(rhs),rhsMax =  -1.97425853443178E-10  8.66817395178439E-03
 cg2d: Sum(rhs),rhsMax =  -2.01901495522350E-10  8.47876541466242E-03
 cg2d: Sum(rhs),rhsMax =  -2.06688444137626E-10  8.28648157452118E-03
 cg2d: Sum(rhs),rhsMax =  -2.11777262393298E-10  8.09140990040654E-03
 cg2d: Sum(rhs),rhsMax =  -2.17189710660648E-10  7.89363908413891E-03
 cg2d: Sum(rhs),rhsMax =  -2.22985740983006E-10  7.69325933811402E-03
 cg2d: Sum(rhs),rhsMax =  -2.29098184867382E-10  7.49036218698469E-03
 cg2d: Sum(rhs),rhsMax =  -2.35683250693342E-10  7.28503972578583E-03
 cg2d: Sum(rhs),rhsMax =  -2.42609821121675E-10  7.07738481323599E-03
 cg2d: Sum(rhs),rhsMax =  -2.50089893238936E-10  6.86750715604738E-03
 cg2d: Sum(rhs),rhsMax =  -2.58108090456233E-10  6.65551466798853E-03
 cg2d: Sum(rhs),rhsMax =  -2.66715760588454E-10  6.44150638374498E-03
 cg2d: Sum(rhs),rhsMax =  -2.75983624842269E-10  6.22557718973260E-03
 cg2d: Sum(rhs),rhsMax =  -2.86043244646095E-10  6.00782244610895E-03
 cg2d: Sum(rhs),rhsMax =  -2.96943108990533E-10  5.78833938958175E-03
 cg2d: Sum(rhs),rhsMax =  -3.08812669880254E-10  5.56722680221093E-03
 cg2d: Sum(rhs),rhsMax =  -3.21695101113129E-10  5.34458428235111E-03
 cg2d: Sum(rhs),rhsMax =  -3.35829239417329E-10  5.12051192117892E-03
 cg2d: Sum(rhs),rhsMax =  -3.51308752921664E-10  4.89511001240206E-03
 cg2d: Sum(rhs),rhsMax =  -3.66249558458875E-10  4.69567591957001E-03
 cg2d: Sum(rhs),rhsMax =  -3.81096626478339E-10  4.51288855201145E-03
 cg2d: Sum(rhs),rhsMax =  -3.97334831703233E-10  4.32884640459088E-03
 cg2d: Sum(rhs),rhsMax =  -4.15172285439525E-10  4.14364896206769E-03
 cg2d: Sum(rhs),rhsMax =  -4.24553947553363E-10  4.05265716907597E-03
 cg2d: Sum(rhs),rhsMax =  -3.86068399471640E-10  4.45684472345084E-03
 cg2d: Sum(rhs),rhsMax =  -3.53461593327609E-10  4.86871801800718E-03
 cg2d: Sum(rhs),rhsMax =  -3.25580895577104E-10  5.28682861094278E-03
 cg2d: Sum(rhs),rhsMax =  -3.01164648774943E-10  5.71687330002357E-03
 cg2d: Sum(rhs),rhsMax =  -2.79861023244621E-10  6.15318040551256E-03
 cg2d: Sum(rhs),rhsMax =  -2.61105692622721E-10  6.59682181066003E-03
 cg2d: Sum(rhs),rhsMax =  -2.44242515101689E-10  7.05238498921821E-03
 cg2d: Sum(rhs),rhsMax =  -2.28881025243766E-10  7.52711784445415E-03
 cg2d: Sum(rhs),rhsMax =  -2.15299222894316E-10  8.00241642840671E-03
 cg2d: Sum(rhs),rhsMax =  -2.03284056254915E-10  8.47764582837640E-03
 cg2d: Sum(rhs),rhsMax =  -1.92559523881641E-10  8.95259230884402E-03
 cg2d: Sum(rhs),rhsMax =  -1.82948989291276E-10  9.42704214853848E-03
 cg2d: Sum(rhs),rhsMax =  -1.74283587561774E-10  9.90078171757366E-03
 cg2d: Sum(rhs),rhsMax =  -1.66415436986256E-10  1.03735975518783E-02
 cg2d: Sum(rhs),rhsMax =  -1.59272484090422E-10  1.08452764263892E-02
 cg2d: Sum(rhs),rhsMax =  -1.52730050828609E-10  1.13156054279089E-02
 cg2d: Sum(rhs),rhsMax =  -1.46776479859057E-10  1.17843720285141E-02
 cg2d: Sum(rhs),rhsMax =  -1.41233136297103E-10  1.22513641601450E-02
 cg2d: Sum(rhs),rhsMax =  -1.36150424268067E-10  1.27163702907421E-02
 cg2d: Sum(rhs),rhsMax =  -1.31463062658099E-10  1.31791795020792E-02
 cg2d: Sum(rhs),rhsMax =  -1.27113430892223E-10  1.36395815692830E-02
 cg2d: Sum(rhs),rhsMax =  -1.23026588916275E-10  1.40973670419513E-02
 cg2d: Sum(rhs),rhsMax =  -1.19235288309483E-10  1.45523273267794E-02
 cg2d: Sum(rhs),rhsMax =  -1.15694898106256E-10  1.50042547716594E-02
 cg2d: Sum(rhs),rhsMax =  -1.12376885574861E-10  1.54529427513218E-02
 cg2d: Sum(rhs),rhsMax =  -1.09283249116743E-10  1.58981857547175E-02
 cg2d: Sum(rhs),rhsMax =  -1.06413877709599E-10  1.63397794744754E-02
 cg2d: Sum(rhs),rhsMax =  -1.03710928733847E-10  1.67775208988845E-02
 cg2d: Sum(rhs),rhsMax =  -1.01123553974958E-10  1.72112084069248E-02
 cg2d: Sum(rhs),rhsMax =  -9.87839809951652E-11  1.76406418668746E-02
 cg2d: Sum(rhs),rhsMax =  -9.65743041092537E-11  1.80656227389326E-02
 cg2d: Sum(rhs),rhsMax =  -9.44997413654391E-11  1.84859541821293E-02
 cg2d: Sum(rhs),rhsMax =  -9.25352017233649E-11  1.89014411655461E-02
 cg2d: Sum(rhs),rhsMax =  -9.06916763909749E-11  1.93118905836166E-02
 cg2d: Sum(rhs),rhsMax =  -8.89235352019568E-11  1.97171113749825E-02
 cg2d: Sum(rhs),rhsMax =  -8.72512062599640E-11  2.01169146440806E-02
 cg2d: Sum(rhs),rhsMax =  -8.56744675203913E-11  2.05111137846222E-02
 cg2d: Sum(rhs),rhsMax =  -8.41733349687956E-11  2.08995246045336E-02
 cg2d: Sum(rhs),rhsMax =  -8.27530266533927E-11  2.12819654511625E-02
 cg2d: Sum(rhs),rhsMax =  -8.13941136712515E-11  2.16582573362860E-02
 cg2d: Sum(rhs),rhsMax =  -8.01182453713523E-11  2.20282240607111E-02
 cg2d: Sum(rhs),rhsMax =  -7.88812348773149E-11  2.23916923384902E-02
 cg2d: Sum(rhs),rhsMax =  -7.77220510173038E-11  2.27484919208997E-02
 cg2d: Sum(rhs),rhsMax =  -7.65969510041487E-11  2.30984557203137E-02
 cg2d: Sum(rhs),rhsMax =  -7.56056328654608E-11  2.34414199339570E-02
 cg2d: Sum(rhs),rhsMax =  -7.45884465302993E-11  2.37772241672141E-02
 cg2d: Sum(rhs),rhsMax =  -7.36558591896141E-11  2.41057115557835E-02
 cg2d: Sum(rhs),rhsMax =  -7.27334859007556E-11  2.44267288855449E-02
 cg2d: Sum(rhs),rhsMax =  -7.18725079451588E-11  2.47401267085888E-02
 cg2d: Sum(rhs),rhsMax =  -7.10490555277943E-11  2.50457594537989E-02
 cg2d: Sum(rhs),rhsMax =  -7.02948810271664E-11  2.53434855302676E-02
 cg2d: Sum(rhs),rhsMax =  -6.94952984048314E-11  2.56331674218703E-02
 cg2d: Sum(rhs),rhsMax =  -6.88292756123587E-11  2.59146717719489E-02
 cg2d: Sum(rhs),rhsMax =  -6.82097711646179E-11  2.61878694576772E-02
 cg2d: Sum(rhs),rhsMax =  -6.75876021816180E-11  2.64526356543715E-02
 cg2d: Sum(rhs),rhsMax =  -6.70674626945811E-11  2.67088498906742E-02
 cg2d: Sum(rhs),rhsMax =  -6.65295596391502E-11  2.69563960960691E-02
 cg2d: Sum(rhs),rhsMax =  -6.60612675673633E-11  2.71951626425233E-02
 cg2d: Sum(rhs),rhsMax =  -6.55997478560266E-11  2.74250423822344E-02
 cg2d: Sum(rhs),rhsMax =  -6.51461107281648E-11  2.76459326825167E-02
 cg2d: Sum(rhs),rhsMax =  -6.47306652723501E-11  2.78577354595395E-02
 cg2d: Sum(rhs),rhsMax =  -6.43700648339518E-11  2.80603572115495E-02
 cg2d: Sum(rhs),rhsMax =  -6.39808206415182E-11  2.82537090517149E-02
 cg2d: Sum(rhs),rhsMax =  -6.36599661874016E-11  2.84377067402939E-02
 cg2d: Sum(rhs),rhsMax =  -6.33275654138288E-11  2.86122707156379E-02
 cg2d: Sum(rhs),rhsMax =  -6.30295815540194E-11  2.87773261235578E-02
 cg2d: Sum(rhs),rhsMax =  -6.27395912999873E-11  2.89328028447626E-02
 cg2d: Sum(rhs),rhsMax =  -6.24938989446377E-11  2.90786355203286E-02
 cg2d: Sum(rhs),rhsMax =  -6.22389917381838E-11  2.92147635753782E-02
 cg2d: Sum(rhs),rhsMax =  -6.20382634153316E-11  2.93411312412565E-02
 cg2d: Sum(rhs),rhsMax =  -6.18138873420548E-11  2.94576875764295E-02
 cg2d: Sum(rhs),rhsMax =  -6.16182660451159E-11  2.95643864861058E-02
 cg2d: Sum(rhs),rhsMax =  -6.15270057124917E-11  2.96611867402437E-02
 cg2d: Sum(rhs),rhsMax =  -6.14184259006834E-11  2.97480519892559E-02
 cg2d: Sum(rhs),rhsMax =  -6.12822015355619E-11  2.98249507764647E-02
 cg2d: Sum(rhs),rhsMax =  -6.12107031727760E-11  2.98918565462773E-02
 cg2d: Sum(rhs),rhsMax =  -6.11569683783841E-11  2.99487476471937E-02
 cg2d: Sum(rhs),rhsMax =  -6.11871664446539E-11  2.99956073291116E-02
 cg2d: Sum(rhs),rhsMax =  -6.11862782662342E-11  3.00324237348727E-02
 cg2d: Sum(rhs),rhsMax =  -6.13095130219676E-11  3.00591898865214E-02
 cg2d: Sum(rhs),rhsMax =  -6.12357942131325E-11  3.00759036671832E-02
 cg2d: Sum(rhs),rhsMax =  -6.12296879864971E-11  3.00825677997441E-02
 cg2d: Sum(rhs),rhsMax =  -6.11259931559971E-11  3.00791898235753E-02
 cg2d: Sum(rhs),rhsMax =  -6.10892447738820E-11  3.00657820703092E-02
 cg2d: Sum(rhs),rhsMax =  -6.10452799421068E-11  3.00423616397371E-02
 cg2d: Sum(rhs),rhsMax =  -6.10616002205688E-11  3.00089503758840E-02
 cg2d: Sum(rhs),rhsMax =  -6.11293238250710E-11  2.99655748433872E-02
 cg2d: Sum(rhs),rhsMax =  -6.11748429690806E-11  2.99122663038336E-02
 cg2d: Sum(rhs),rhsMax =  -6.12641049002605E-11  2.98490606914979E-02
 cg2d: Sum(rhs),rhsMax =  -6.13243900104976E-11  2.97759985878372E-02
 cg2d: Sum(rhs),rhsMax =  -6.14212014582449E-11  2.96931251941263E-02
 cg2d: Sum(rhs),rhsMax =  -6.15406614556946E-11  2.96004903017308E-02
 cg2d: Sum(rhs),rhsMax =  -6.17069728647834E-11  2.94981482596838E-02
 cg2d: Sum(rhs),rhsMax =  -6.18948226005500E-11  2.93861579394074E-02
 cg2d: Sum(rhs),rhsMax =  -6.21069862205559E-11  2.92645826966195E-02
 cg2d: Sum(rhs),rhsMax =  -6.23547879996522E-11  2.91334903303990E-02
 cg2d: Sum(rhs),rhsMax =  -6.25863805225890E-11  2.89929530396518E-02
 cg2d: Sum(rhs),rhsMax =  -6.28719298845226E-11  2.88430473770874E-02
 cg2d: Sum(rhs),rhsMax =  -6.31462659939075E-11  2.86838542006763E-02
 cg2d: Sum(rhs),rhsMax =  -6.34521324371917E-11  2.85154586224081E-02
 cg2d: Sum(rhs),rhsMax =  -6.37850883222768E-11  2.83379499540118E-02
 cg2d: Sum(rhs),rhsMax =  -6.41593445038779E-11  2.81514216491694E-02
 cg2d: Sum(rhs),rhsMax =  -6.45010711508576E-11  2.79559712417157E-02
 cg2d: Sum(rhs),rhsMax =  -6.48905373878961E-11  2.77517002796412E-02
 cg2d: Sum(rhs),rhsMax =  -6.53015419516123E-11  2.75387142536174E-02
 cg2d: Sum(rhs),rhsMax =  -6.57417453808762E-11  2.73171225207539E-02
 cg2d: Sum(rhs),rhsMax =  -6.62321308908531E-11  2.70870382236856E-02
 cg2d: Sum(rhs),rhsMax =  -6.67144117727503E-11  2.68485782052734E-02
 cg2d: Sum(rhs),rhsMax =  -6.72149003122513E-11  2.66018629193074E-02
 cg2d: Sum(rhs),rhsMax =  -6.77824463224397E-11  2.63470163376070E-02
 cg2d: Sum(rhs),rhsMax =  -6.84069467737913E-11  2.60841658538055E-02
 cg2d: Sum(rhs),rhsMax =  -6.90795198821093E-11  2.58134421839544E-02
 cg2d: Sum(rhs),rhsMax =  -6.97303326191445E-11  2.55349792639546E-02
 cg2d: Sum(rhs),rhsMax =  -7.04950542385063E-11  2.52489141438429E-02
 cg2d: Sum(rhs),rhsMax =  -7.12587766571460E-11  2.49553868791996E-02
 cg2d: Sum(rhs),rhsMax =  -7.20781212493193E-11  2.46545404204313E-02
 cg2d: Sum(rhs),rhsMax =  -7.29207805250098E-11  2.43465205015260E-02
 cg2d: Sum(rhs),rhsMax =  -7.38006322720253E-11  2.40314755302504E-02
 cg2d: Sum(rhs),rhsMax =  -7.47595318983940E-11  2.37095564828373E-02
 cg2d: Sum(rhs),rhsMax =  -7.57415241636750E-11  2.33809168070014E-02
 cg2d: Sum(rhs),rhsMax =  -7.67412799973499E-11  2.30457123370293E-02
 cg2d: Sum(rhs),rhsMax =  -7.78604958284745E-11  2.27041012243931E-02
 cg2d: Sum(rhs),rhsMax =  -7.89468490580703E-11  2.23562438865436E-02
 cg2d: Sum(rhs),rhsMax =  -8.01574362441215E-11  2.20023029752866E-02
 cg2d: Sum(rhs),rhsMax =  -8.14183165331883E-11  2.16424433645317E-02
 cg2d: Sum(rhs),rhsMax =  -8.26990698143959E-11  2.12768321554042E-02
 cg2d: Sum(rhs),rhsMax =  -8.41139380369782E-11  2.09056386949175E-02
 cg2d: Sum(rhs),rhsMax =  -8.55393533782944E-11  2.05290346028433E-02
 cg2d: Sum(rhs),rhsMax =  -8.70452598888960E-11  2.01471938002641E-02
 cg2d: Sum(rhs),rhsMax =  -8.86714035530645E-11  1.97602925326966E-02
 cg2d: Sum(rhs),rhsMax =  -9.03699337584385E-11  1.93685093807387E-02
 cg2d: Sum(rhs),rhsMax =  -9.21434040179747E-11  1.89720252519084E-02
 cg2d: Sum(rhs),rhsMax =  -9.40044708741539E-11  1.85710233486858E-02
 cg2d: Sum(rhs),rhsMax =  -9.59932133781649E-11  1.81656891095998E-02
 cg2d: Sum(rhs),rhsMax =  -9.80886483148424E-11  1.77562101223412E-02
 cg2d: Sum(rhs),rhsMax =  -1.00307873118766E-10  1.73427760101131E-02
 cg2d: Sum(rhs),rhsMax =  -1.02633346266146E-10  1.69255782944987E-02
 cg2d: Sum(rhs),rhsMax =  -1.05145336881662E-10  1.65048102398200E-02
 cg2d: Sum(rhs),rhsMax =  -1.07844067009921E-10  1.60806666850855E-02
 cg2d: Sum(rhs),rhsMax =  -1.10742748304915E-10  1.56533438700837E-02
 cg2d: Sum(rhs),rhsMax =  -1.13814402347145E-10  1.52230392619429E-02
 cg2d: Sum(rhs),rhsMax =  -1.17106657704369E-10  1.47899513876139E-02
 cg2d: Sum(rhs),rhsMax =  -1.20601861830494E-10  1.43542796763827E-02
 cg2d: Sum(rhs),rhsMax =  -1.24318222383124E-10  1.39162243148785E-02
 cg2d: Sum(rhs),rhsMax =  -1.28312804825725E-10  1.34759861149248E-02
 cg2d: Sum(rhs),rhsMax =  -1.32620137094364E-10  1.30337663945469E-02
 cg2d: Sum(rhs),rhsMax =  -1.37207689654417E-10  1.25897668690058E-02
 cg2d: Sum(rhs),rhsMax =  -1.42189704455120E-10  1.21441895485890E-02
 cg2d: Sum(rhs),rhsMax =  -1.47520662352463E-10  1.16972366400612E-02
 cg2d: Sum(rhs),rhsMax =  -1.53302037730896E-10  1.12491104484219E-02
 cg2d: Sum(rhs),rhsMax =  -1.59599777838082E-10  1.08000132761357E-02
 cg2d: Sum(rhs),rhsMax =  -1.66451297189951E-10  1.03501473178876E-02
 cg2d: Sum(rhs),rhsMax =  -1.73922987123376E-10  9.89971455003958E-03
 cg2d: Sum(rhs),rhsMax =  -1.82147963379009E-10  9.44891661517858E-03
 cg2d: Sum(rhs),rhsMax =  -1.91151872108719E-10  8.99795470301311E-03
 cg2d: Sum(rhs),rhsMax =  -2.01139549460549E-10  8.54702942985568E-03
 cg2d: Sum(rhs),rhsMax =  -2.12242556862918E-10  8.09634071922198E-03
 cg2d: Sum(rhs),rhsMax =  -2.24721685704310E-10  7.64608768602144E-03
 cg2d: Sum(rhs),rhsMax =  -2.38744135572233E-10  7.19646852644546E-03
(PID.TID 0000.0001)      cg2d_init_res =   3.29962144977243E-01
(PID.TID 0000.0001)      cg2d_iters(min,last) =      -1      40
(PID.TID 0000.0001)      cg2d_last_res =   4.03867777471863E-14
(PID.TID 0000.0001) // =======================================================
(PID.TID 0000.0001) // Begin MONITOR dynamic field statistics
(PID.TID 0000.0001) // =======================================================
(PID.TID 0000.0001) %MON time_tsnumber                =                  4320
(PID.TID 0000.0001) %MON time_secondsf                =   6.4800000000000E+04
(PID.TID 0000.0001) %MON dynstat_eta_max              =   1.2470745026031E-03
(PID.TID 0000.0001) %MON dynstat_eta_min              =  -8.7361975102690E-04
(PID.TID 0000.0001) %MON dynstat_eta_mean             =   3.7879866521296E-15
(PID.TID 0000.0001) %MON dynstat_eta_sd               =   6.5971805966555E-04
(PID.TID 0000.0001) %MON dynstat_eta_del2             =   4.7983032496319E-06
(PID.TID 0000.0001) %MON dynstat_uvel_max             =   4.4440848034492E-01
(PID.TID 0000.0001) %MON dynstat_uvel_min             =  -3.8188639795775E-01
(PID.TID 0000.0001) %MON dynstat_uvel_mean            =   1.1380273391064E-01
(PID.TID 0000.0001) %MON dynstat_uvel_sd              =   3.9825310386977E-02
(PID.TID 0000.0001) %MON dynstat_uvel_del2            =   9.8952321224219E-05
(PID.TID 0000.0001) %MON dynstat_vvel_max             =   0.0000000000000E+00
(PID.TID 0000.0001) %MON dynstat_vvel_min             =   0.0000000000000E+00
(PID.TID 0000.0001) %MON dynstat_vvel_mean            =   0.0000000000000E+00
(PID.TID 0000.0001) %MON dynstat_vvel_sd              =   0.0000000000000E+00
(PID.TID 0000.0001) %MON dynstat_vvel_del2            =   0.0000000000000E+00
(PID.TID 0000.0001) %MON dynstat_wvel_max             =   3.6870977847587E-03
(PID.TID 0000.0001) %MON dynstat_wvel_min             =  -6.1461860065240E-03
(PID.TID 0000.0001) %MON dynstat_wvel_mean            =  -4.1828035352333E-21
(PID.TID 0000.0001) %MON dynstat_wvel_sd              =   3.2342381442830E-04
(PID.TID 0000.0001) %MON dynstat_wvel_del2            =   6.2505205864110E-06
(PID.TID 0000.0001) %MON dynstat_theta_max            =   1.5000000000015E+01
(PID.TID 0000.0001) %MON dynstat_theta_min            =   9.9999999999925E+00
(PID.TID 0000.0001) %MON dynstat_theta_mean           =   1.4043787234260E+01
(PID.TID 0000.0001) %MON dynstat_theta_sd             =   1.8903611891041E+00
(PID.TID 0000.0001) %MON dynstat_theta_del2           =   3.4229620570453E-04
(PID.TID 0000.0001) %MON dynstat_salt_max             =   3.5000000000000E+01
(PID.TID 0000.0001) %MON dynstat_salt_min             =   3.5000000000000E+01
(PID.TID 0000.0001) %MON dynstat_salt_mean            =   3.5000000000000E+01
(PID.TID 0000.0001) %MON dynstat_salt_sd              =   3.0553337637684E-13
(PID.TID 0000.0001) %MON dynstat_salt_del2            =   0.0000000000000E+00
(PID.TID 0000.0001) %MON dynstat_sst_max              =   1.5000000000000E+01
(PID.TID 0000.0001) %MON dynstat_sst_min              =   1.4999999999999E+01
(PID.TID 0000.0001) %MON dynstat_sst_mean             =   1.5000000000000E+01
(PID.TID 0000.0001) %MON dynstat_sst_sd               =   2.7462174037125E-13
(PID.TID 0000.0001) %MON dynstat_sst_del2             =   9.9506828271197E-15
(PID.TID 0000.0001) %MON dynstat_sss_max              =   3.5000000000000E+01
(PID.TID 0000.0001) %MON dynstat_sss_min              =   3.5000000000000E+01
(PID.TID 0000.0001) %MON dynstat_sss_mean             =   3.5000000000000E+01
(PID.TID 0000.0001) %MON dynstat_sss_sd               =   2.8421709430404E-14
(PID.TID 0000.0001) %MON dynstat_sss_del2             =   0.0000000000000E+00
(PID.TID 0000.0001) %MON forcing_qnet_max             =   0.0000000000000E+00
(PID.TID 0000.0001) %MON forcing_qnet_min             =   0.0000000000000E+00
(PID.TID 0000.0001) %MON forcing_qnet_mean            =   0.0000000000000E+00
(PID.TID 0000.0001) %MON forcing_qnet_sd              =   0.0000000000000E+00
(PID.TID 0000.0001) %MON forcing_qnet_del2            =   0.0000000000000E+00
(PID.TID 0000.0001) %MON forcing_qsw_max              =   0.0000000000000E+00
(PID.TID 0000.0001) %MON forcing_qsw_min              =   0.0000000000000E+00
(PID.TID 0000.0001) %MON forcing_qsw_mean             =   0.0000000000000E+00
(PID.TID 0000.0001) %MON forcing_qsw_sd               =   0.0000000000000E+00
(PID.TID 0000.0001) %MON forcing_qsw_del2             =   0.0000000000000E+00
(PID.TID 0000.0001) %MON forcing_empmr_max            =   0.0000000000000E+00
(PID.TID 0000.0001) %MON forcing_empmr_min            =   0.0000000000000E+00
(PID.TID 0000.0001) %MON forcing_empmr_mean           =   0.0000000000000E+00
(PID.TID 0000.0001) %MON forcing_empmr_sd             =   0.0000000000000E+00
(PID.TID 0000.0001) %MON forcing_empmr_del2           =   0.0000000000000E+00
(PID.TID 0000.0001) %MON forcing_fu_max               =   0.0000000000000E+00
(PID.TID 0000.0001) %MON forcing_fu_min               =   0.0000000000000E+00
(PID.TID 0000.0001) %MON forcing_fu_mean              =   0.0000000000000E+00
(PID.TID 0000.0001) %MON forcing_fu_sd                =   0.0000000000000E+00
(PID.TID 0000.0001) %MON forcing_fu_del2              =   0.0000000000000E+00
(PID.TID 0000.0001) %MON forcing_fv_max               =   0.0000000000000E+00
(PID.TID 0000.0001) %MON forcing_fv_min               =   0.0000000000000E+00
(PID.TID 0000.0001) %MON forcing_fv_mean              =   0.0000000000000E+00
(PID.TID 0000.0001) %MON forcing_fv_sd                =   0.0000000000000E+00
(PID.TID 0000.0001) %MON forcing_fv_del2              =   0.0000000000000E+00
(PID.TID 0000.0001) %MON advcfl_uvel_max              =   3.3330636025869E-02
(PID.TID 0000.0001) %MON advcfl_vvel_max              =   0.0000000000000E+00
(PID.TID 0000.0001) %MON advcfl_wvel_max              =   2.8773736876645E-02
(PID.TID 0000.0001) %MON advcfl_W_hf_max              =   3.3330636025869E-02
(PID.TID 0000.0001) %MON pe_b_mean                    =   1.0786984449864E-08
(PID.TID 0000.0001) %MON ke_max                       =   6.0565957435861E-02
(PID.TID 0000.0001) %MON ke_mean                      =   7.2780317230792E-03
(PID.TID 0000.0001) %MON ke_vol                       =   9.6656965507697E+10
(PID.TID 0000.0001) %MON vort_r_min                   =   0.0000000000000E+00
(PID.TID 0000.0001) %MON vort_r_max                   =   0.0000000000000E+00
(PID.TID 0000.0001) %MON vort_a_mean                  =   0.0000000000000E+00
(PID.TID 0000.0001) %MON vort_a_sd                    =   0.0000000000000E+00
(PID.TID 0000.0001) %MON vort_p_mean                  =   0.0000000000000E+00
(PID.TID 0000.0001) %MON vort_p_sd                    =   0.0000000000000E+00
(PID.TID 0000.0001) %MON surfExpan_theta_mean         =   2.4336424491904E-19
(PID.TID 0000.0001) %MON surfExpan_salt_mean          =  -2.8375037260288E-19
(PID.TID 0000.0001) // =======================================================
(PID.TID 0000.0001) // End MONITOR dynamic field statistics
(PID.TID 0000.0001) // =======================================================
(PID.TID 0000.0001) // =======================================================
(PID.TID 0000.0001) // Begin OBCS MONITOR field statistics
(PID.TID 0000.0001) // =======================================================
(PID.TID 0000.0001) %MON obc_E_uVel_max               =   1.1205712828732E-01
(PID.TID 0000.0001) %MON obc_E_uVel_min               =   1.1205712828732E-01
(PID.TID 0000.0001) %MON obc_E_uVel_mean              =   1.1205712828732E-01
(PID.TID 0000.0001) %MON obc_E_uVel_sd                =   0.0000000000000E+00
(PID.TID 0000.0001) %MON obc_E_uVel_Int               =   1.1205712828732E+05
(PID.TID 0000.0001) %MON obc_W_uVel_max               =   1.1205712828732E-01
(PID.TID 0000.0001) %MON obc_W_uVel_min               =   1.1205712828732E-01
(PID.TID 0000.0001) %MON obc_W_uVel_mean              =   1.1205712828732E-01
(PID.TID 0000.0001) %MON obc_W_uVel_sd                =   0.0000000000000E+00
(PID.TID 0000.0001) %MON obc_W_uVel_Int               =   1.1205712828732E+05
(PID.TID 0000.0001) // =======================================================
(PID.TID 0000.0001) // End OBCS MONITOR field statistics
(PID.TID 0000.0001) // =======================================================
(PID.TID 0000.0001) %CHECKPOINT      4320 0000004320
 cg2d: Sum(rhs),rhsMax =  -2.54582577241536E-10  6.74768041506887E-03
 cg2d: Sum(rhs),rhsMax =  -2.72622258101762E-10  6.29991941000644E-03
 cg2d: Sum(rhs),rhsMax =  -2.93379875948574E-10  5.85338036635040E-03
 cg2d: Sum(rhs),rhsMax =  -3.17478376921088E-10  5.40825685766771E-03
 cg2d: Sum(rhs),rhsMax =  -3.18016668554577E-10  5.39797489266878E-03
 cg2d: Sum(rhs),rhsMax =  -3.05988123727730E-10  5.60905772165449E-03
 cg2d: Sum(rhs),rhsMax =  -2.94912927412128E-10  5.81850338843828E-03
 cg2d: Sum(rhs),rhsMax =  -2.84704038122641E-10  6.02622178990668E-03
 cg2d: Sum(rhs),rhsMax =  -2.75235861879608E-10  6.23212296769530E-03
 cg2d: Sum(rhs),rhsMax =  -2.66482141908497E-10  6.43612262530755E-03
 cg2d: Sum(rhs),rhsMax =  -2.58340553810354E-10  6.63813465941996E-03
 cg2d: Sum(rhs),rhsMax =  -2.50736736928658E-10  6.83806758104876E-03
 cg2d: Sum(rhs),rhsMax =  -2.43665823629335E-10  7.03583094384554E-03
 cg2d: Sum(rhs),rhsMax =  -2.37035696626364E-10  7.23133843921241E-03
 cg2d: Sum(rhs),rhsMax =  -2.30841012971439E-10  7.42450688192758E-03
 cg2d: Sum(rhs),rhsMax =  -2.24976176577130E-10  7.61525357987138E-03
 cg2d: Sum(rhs),rhsMax =  -2.19480822405416E-10  7.80349584171883E-03
 cg2d: Sum(rhs),rhsMax =  -2.14245843288552E-10  7.98915226687601E-03
 cg2d: Sum(rhs),rhsMax =  -2.09330330847024E-10  8.17214308264961E-03
 cg2d: Sum(rhs),rhsMax =  -2.04763372924077E-10  8.35238989561082E-03
 cg2d: Sum(rhs),rhsMax =  -2.00430005925512E-10  8.52980361215883E-03
 cg2d: Sum(rhs),rhsMax =  -1.96306082500541E-10  8.70429497104112E-03
 cg2d: Sum(rhs),rhsMax =  -1.92449445268750E-10  8.87578481566300E-03
 cg2d: Sum(rhs),rhsMax =  -1.88760007624467E-10  9.04420116301797E-03
 cg2d: Sum(rhs),rhsMax =  -1.85288340226464E-10  9.20947433044652E-03
 cg2d: Sum(rhs),rhsMax =  -1.82005854831857E-10  9.37153456193221E-03
 cg2d: Sum(rhs),rhsMax =  -1.78898673652839E-10  9.53031285858514E-03
 cg2d: Sum(rhs),rhsMax =  -1.75923831058356E-10  9.68574161260815E-03
 cg2d: Sum(rhs),rhsMax =  -1.73110414891653E-10  9.83775430924451E-03
 cg2d: Sum(rhs),rhsMax =  -1.70462755022527E-10  9.98628593865360E-03
 cg2d: Sum(rhs),rhsMax =  -1.67970748421453E-10  1.01312736370818E-02
 cg2d: Sum(rhs),rhsMax =  -1.65577218602664E-10  1.02726367500348E-02
 cg2d: Sum(rhs),rhsMax =  -1.63335567293643E-10  1.04102727754364E-02
 cg2d: Sum(rhs),rhsMax =  -1.61201496595709E-10  1.05440910343966E-02
 cg2d: Sum(rhs),rhsMax =  -1.59173785263533E-10  1.06740271893555E-02
 cg2d: Sum(rhs),rhsMax =  -1.57261537125919E-10  1.08000310719657E-02
 cg2d: Sum(rhs),rhsMax =  -1.55423118819442E-10  1.09220553953456E-02
 cg2d: Sum(rhs),rhsMax =  -1.53710377759353E-10  1.10400515181572E-02
 cg2d: Sum(rhs),rhsMax =  -1.52003076792084E-10  1.11566848514551E-02
 cg2d: Sum(rhs),rhsMax =  -1.49371515156815E-10  1.13436116876296E-02
 cg2d: Sum(rhs),rhsMax =  -1.46873180284501E-10  1.15253106272050E-02
 cg2d: Sum(rhs),rhsMax =  -1.44603773399865E-10  1.17017018572823E-02
 cg2d: Sum(rhs),rhsMax =  -1.42367007072153E-10  1.18727080208605E-02
 cg2d: Sum(rhs),rhsMax =  -1.40304767803912E-10  1.20382542559232E-02
 cg2d: Sum(rhs),rhsMax =  -1.38368871915873E-10  1.21982682220117E-02
 cg2d: Sum(rhs),rhsMax =  -1.36557098961987E-10  1.23526801213965E-02
 cg2d: Sum(rhs),rhsMax =  -1.34834254872374E-10  1.25014227665645E-02
 cg2d: Sum(rhs),rhsMax =  -1.33243638344993E-10  1.26444316623804E-02
 cg2d: Sum(rhs),rhsMax =  -1.31745392373261E-10  1.27816450713556E-02
 cg2d: Sum(rhs),rhsMax =  -1.30311317292353E-10  1.29130040692752E-02
 cg2d: Sum(rhs),rhsMax =  -1.28983712599506E-10  1.30384526054094E-02
 cg2d: Sum(rhs),rhsMax =  -1.27723942533464E-10  1.31579375097237E-02
 cg2d: Sum(rhs),rhsMax =  -1.26577970327446E-10  1.32714085314385E-02
 cg2d: Sum(rhs),rhsMax =  -1.25508159420917E-10  1.33788183860586E-02
 cg2d: Sum(rhs),rhsMax =  -1.24484311747608E-10  1.34801228252288E-02
 cg2d: Sum(rhs),rhsMax =  -1.23525856210449E-10  1.35752805441296E-02
 cg2d: Sum(rhs),rhsMax =  -1.22708287975115E-10  1.36642532400548E-02
 cg2d: Sum(rhs),rhsMax =  -1.21818111153971E-10  1.37470056590912E-02
 cg2d: Sum(rhs),rhsMax =  -1.21059384738942E-10  1.38235056018306E-02
 cg2d: Sum(rhs),rhsMax =  -1.20380483359384E-10  1.38937239242269E-02
 cg2d: Sum(rhs),rhsMax =  -1.19734666625959E-10  1.39576345492704E-02
 cg2d: Sum(rhs),rhsMax =  -1.19132592679705E-10  1.40152145111468E-02
 cg2d: Sum(rhs),rhsMax =  -1.18605125720705E-10  1.40664439426925E-02
 cg2d: Sum(rhs),rhsMax =  -1.18199228182903E-10  1.41113060369522E-02
 cg2d: Sum(rhs),rhsMax =  -1.17808429678234E-10  1.41497870164928E-02
 cg2d: Sum(rhs),rhsMax =  -1.17458820447780E-10  1.41818761114416E-02
 cg2d: Sum(rhs),rhsMax =  -1.17215792627690E-10  1.42075655492647E-02
 cg2d: Sum(rhs),rhsMax =  -1.16849196984958E-10  1.42268505467028E-02
 cg2d: Sum(rhs),rhsMax =  -1.16721632359429E-10  1.42397292899937E-02
 cg2d: Sum(rhs),rhsMax =  -1.16596621246856E-10  1.42462029135567E-02
 cg2d: Sum(rhs),rhsMax =  -1.16565535002167E-10  1.42462754874797E-02
 cg2d: Sum(rhs),rhsMax =  -1.16612275391503E-10  1.42399540150176E-02
 cg2d: Sum(rhs),rhsMax =  -1.16692655538486E-10  1.42272484396428E-02
 cg2d: Sum(rhs),rhsMax =  -1.16803233751739E-10  1.42081716530686E-02
 cg2d: Sum(rhs),rhsMax =  -1.17090781515117E-10  1.41827394951917E-02
 cg2d: Sum(rhs),rhsMax =  -1.17382548125988E-10  1.41509707453186E-02
 cg2d: Sum(rhs),rhsMax =  -1.17695519996630E-10  1.41128870957276E-02
 cg2d: Sum(rhs),rhsMax =  -1.18070775378953E-10  1.40685131220449E-02
 cg2d: Sum(rhs),rhsMax =  -1.18502541113230E-10  1.40178763142995E-02
 cg2d: Sum(rhs),rhsMax =  -1.19094623052263E-10  1.39610070478563E-02
 cg2d: Sum(rhs),rhsMax =  -1.19669052445204E-10  1.38979385393365E-02
 cg2d: Sum(rhs),rhsMax =  -1.20311649531857E-10  1.38287068225490E-02
 cg2d: Sum(rhs),rhsMax =  -1.21061383140386E-10  1.37533507443404E-02
 cg2d: Sum(rhs),rhsMax =  -1.21844756506562E-10  1.36719119584138E-02
 cg2d: Sum(rhs),rhsMax =  -1.22660326340451E-10  1.35844349006298E-02
 cg2d: Sum(rhs),rhsMax =  -1.23619892100635E-10  1.34909667488652E-02
 cg2d: Sum(rhs),rhsMax =  -1.24656396316425E-10  1.33915573727852E-02
 cg2d: Sum(rhs),rhsMax =  -1.25751964397125E-10  1.32862593076822E-02
 cg2d: Sum(rhs),rhsMax =  -1.26658461496731E-10  1.31952082382898E-02
 cg2d: Sum(rhs),rhsMax =  -1.27365451518813E-10  1.31281987166255E-02
 cg2d: Sum(rhs),rhsMax =  -1.28155819290043E-10  1.30562164999941E-02
 cg2d: Sum(rhs),rhsMax =  -1.28989818826142E-10  1.29792923138594E-02
 cg2d: Sum(rhs),rhsMax =  -1.29852573138578E-10  1.28974722810460E-02
 cg2d: Sum(rhs),rhsMax =  -1.30787491947615E-10  1.28108047605301E-02
 cg2d: Sum(rhs),rhsMax =  -1.31817556869862E-10  1.27193396796689E-02
 cg2d: Sum(rhs),rhsMax =  -1.32904687255575E-10  1.26231279307979E-02
 cg2d: Sum(rhs),rhsMax =  -1.34110611504923E-10  1.25222211512496E-02
 cg2d: Sum(rhs),rhsMax =  -1.35327749006819E-10  1.24166724294159E-02
 cg2d: Sum(rhs),rhsMax =  -1.36633482306081E-10  1.23065347250840E-02
 cg2d: Sum(rhs),rhsMax =  -1.38027700380405E-10  1.21918610549276E-02
 cg2d: Sum(rhs),rhsMax =  -1.39488531836207E-10  1.20727121415496E-02
 cg2d: Sum(rhs),rhsMax =  -1.41015754628881E-10  1.19491504837835E-02
 cg2d: Sum(rhs),rhsMax =  -1.42639344780093E-10  1.18212381765147E-02
 cg2d: Sum(rhs),rhsMax =  -1.44348644148806E-10  1.16890379794390E-02
 cg2d: Sum(rhs),rhsMax =  -1.46171519332938E-10  1.15526142797728E-02
 cg2d: Sum(rhs),rhsMax =  -1.48095424812311E-10  1.14120338755789E-02
 cg2d: Sum(rhs),rhsMax =  -1.50133794285523E-10  1.12673710610455E-02
 cg2d: Sum(rhs),rhsMax =  -1.52246992790595E-10  1.11187016966330E-02
 cg2d: Sum(rhs),rhsMax =  -1.54441792687976E-10  1.09661021037785E-02
 cg2d: Sum(rhs),rhsMax =  -1.56744506263351E-10  1.08096468333525E-02
 cg2d: Sum(rhs),rhsMax =  -1.59178892289447E-10  1.06494105933068E-02
 cg2d: Sum(rhs),rhsMax =  -1.61748836546849E-10  1.04854704725306E-02
 cg2d: Sum(rhs),rhsMax =  -1.64378288758371E-10  1.03179068880241E-02
 cg2d: Sum(rhs),rhsMax =  -1.67262759198650E-10  1.01468025461193E-02
 cg2d: Sum(rhs),rhsMax =  -1.70238378949250E-10  9.97226149241788E-03
 cg2d: Sum(rhs),rhsMax =  -1.73406733416925E-10  9.79438534501922E-03
 cg2d: Sum(rhs),rhsMax =  -1.76718306654777E-10  9.61326350688232E-03
 cg2d: Sum(rhs),rhsMax =  -1.80269577043646E-10  9.42897911883363E-03
 cg2d: Sum(rhs),rhsMax =  -1.84019521842771E-10  9.24161562311797E-03
 cg2d: Sum(rhs),rhsMax =  -1.87963811182357E-10  9.05125913796752E-03
 cg2d: Sum(rhs),rhsMax =  -1.92144133936978E-10  8.85799807956663E-03
 cg2d: Sum(rhs),rhsMax =  -1.96581140254892E-10  8.66192130578278E-03
 cg2d: Sum(rhs),rhsMax =  -2.01296701529685E-10  8.46311740486042E-03
 cg2d: Sum(rhs),rhsMax =  -2.06252570578158E-10  8.26167788840786E-03
 cg2d: Sum(rhs),rhsMax =  -2.11564321617175E-10  8.05769606292085E-03
 cg2d: Sum(rhs),rhsMax =  -2.17246221012601E-10  7.85126533413564E-03
 cg2d: Sum(rhs),rhsMax =  -2.23269291943495E-10  7.64247593290584E-03
 cg2d: Sum(rhs),rhsMax =  -2.29696678344382E-10  7.43142060415778E-03
 cg2d: Sum(rhs),rhsMax =  -2.36591413127485E-10  7.21819770763412E-03
 cg2d: Sum(rhs),rhsMax =  -2.43886494333267E-10  7.00290957329270E-03
 cg2d: Sum(rhs),rhsMax =  -2.51732149014749E-10  6.78565537456194E-03
 cg2d: Sum(rhs),rhsMax =  -2.60206731161894E-10  6.56653219724173E-03
 cg2d: Sum(rhs),rhsMax =  -2.69283893794547E-10  6.34563847814994E-03
 cg2d: Sum(rhs),rhsMax =  -2.79104961364851E-10  6.12307477193199E-03
 cg2d: Sum(rhs),rhsMax =  -2.89768459227346E-10  5.89894179041047E-03
 cg2d: Sum(rhs),rhsMax =  -3.01335983943218E-10  5.67332467072912E-03
 cg2d: Sum(rhs),rhsMax =  -3.13949144459258E-10  5.44631570306408E-03
 cg2d: Sum(rhs),rhsMax =  -3.27741611627630E-10  5.21801665943526E-03
 cg2d: Sum(rhs),rhsMax =  -3.42841366407498E-10  4.98853327658688E-03
 cg2d: Sum(rhs),rhsMax =  -3.40953265620669E-10  5.01648431734932E-03
 cg2d: Sum(rhs),rhsMax =  -3.16109138864817E-10  5.41177853095331E-03
 cg2d: Sum(rhs),rhsMax =  -2.94344326690066E-10  5.81344367076472E-03
 cg2d: Sum(rhs),rhsMax =  -2.75034106600458E-10  6.22260589384609E-03
 cg2d: Sum(rhs),rhsMax =  -2.57551979743198E-10  6.64556842271370E-03
 cg2d: Sum(rhs),rhsMax =  -2.41695885527804E-10  7.08305053421280E-03
 cg2d: Sum(rhs),rhsMax =  -2.27677654507374E-10  7.52090645711135E-03
 cg2d: Sum(rhs),rhsMax =  -2.15157447414072E-10  7.95893805625305E-03
 cg2d: Sum(rhs),rhsMax =  -2.03975392132349E-10  8.39694703609080E-03
 cg2d: Sum(rhs),rhsMax =  -1.93972726769687E-10  8.83473505135876E-03
 cg2d: Sum(rhs),rhsMax =  -1.84937842817590E-10  9.27210381494376E-03
 cg2d: Sum(rhs),rhsMax =  -1.76675785112934E-10  9.70885520162077E-03
 cg2d: Sum(rhs),rhsMax =  -1.69173897113239E-10  1.01447913469037E-02
 cg2d: Sum(rhs),rhsMax =  -1.62292068672798E-10  1.05797147407398E-02
 cg2d: Sum(rhs),rhsMax =  -1.55973123305841E-10  1.10134283162314E-02
 cg2d: Sum(rhs),rhsMax =  -1.50185197611563E-10  1.14457355339686E-02
 cg2d: Sum(rhs),rhsMax =  -1.44798728562989E-10  1.18764404628554E-02
 cg2d: Sum(rhs),rhsMax =  -1.39824485323459E-10  1.23053478584928E-02
 cg2d: Sum(rhs),rhsMax =  -1.35214284213703E-10  1.27322632402504E-02
 cg2d: Sum(rhs),rhsMax =  -1.30926047781088E-10  1.31569929680938E-02
 cg2d: Sum(rhs),rhsMax =  -1.26929688981647E-10  1.35793443202221E-02
 cg2d: Sum(rhs),rhsMax =  -1.23146270958330E-10  1.39991255723320E-02
 cg2d: Sum(rhs),rhsMax =  -1.19623422278892E-10  1.44161460791606E-02
 cg2d: Sum(rhs),rhsMax =  -1.16340381772773E-10  1.48302163588391E-02
 cg2d: Sum(rhs),rhsMax =  -1.13256071188061E-10  1.52411481803797E-02
 cg2d: Sum(rhs),rhsMax =  -1.10363496119703E-10  1.56487546543594E-02
 cg2d: Sum(rhs),rhsMax =  -1.07635345081292E-10  1.60528503265503E-02
 cg2d: Sum(rhs),rhsMax =  -1.05136788164373E-10  1.64532512739184E-02
 cg2d: Sum(rhs),rhsMax =  -1.02783892508285E-10  1.68497752021208E-02
 cg2d: Sum(rhs),rhsMax =  -1.00538799507888E-10  1.72422415434499E-02
 cg2d: Sum(rhs),rhsMax =  -9.84985426555340E-11  1.76304715540773E-02
 cg2d: Sum(rhs),rhsMax =  -9.64854862672837E-11  1.80142884097989E-02
 cg2d: Sum(rhs),rhsMax =  -9.45975520139086E-11  1.83935173000070E-02
 cg2d: Sum(rhs),rhsMax =  -9.28190857507616E-11  1.87679855194683E-02
 cg2d: Sum(rhs),rhsMax =  -9.11247743928811E-11  1.91375225582951E-02
 cg2d: Sum(rhs),rhsMax =  -8.95203910999953E-11  1.95019601907968E-02
 cg2d: Sum(rhs),rhsMax =  -8.80095996080854E-11  1.98611325639218E-02
 cg2d: Sum(rhs),rhsMax =  -8.65363336544078E-11  2.02148762859070E-02
 cg2d: Sum(rhs),rhsMax =  -8.51505532750707E-11  2.05630305152010E-02
 cg2d: Sum(rhs),rhsMax =  -8.38290548088594E-11  2.09054370492386E-02
 cg2d: Sum(rhs),rhsMax =  -8.25824963968103E-11  2.12419404122344E-02
 cg2d: Sum(rhs),rhsMax =  -8.13822342848880E-11  2.15723879408762E-02
 cg2d: Sum(rhs),rhsMax =  -8.02589106285723E-11  2.18966298667695E-02
 cg2d: Sum(rhs),rhsMax =  -7.91965382163085E-11  2.22145193946913E-02
 cg2d: Sum(rhs),rhsMax =  -7.81552600415125E-11  2.25259127761178E-02
 cg2d: Sum(rhs),rhsMax =  -7.72020225525694E-11  2.28306693779563E-02
 cg2d: Sum(rhs),rhsMax =  -7.62517826657927E-11  2.31286517468138E-02
 cg2d: Sum(rhs),rhsMax =  -7.54174500627869E-11  2.34197256693658E-02
 cg2d: Sum(rhs),rhsMax =  -7.45171702121183E-11  2.37037602293938E-02
 cg2d: Sum(rhs),rhsMax =  -7.37571115294600E-11  2.39806278618606E-02
 cg2d: Sum(rhs),rhsMax =  -7.29938332000302E-11  2.42502044040611E-02
 cg2d: Sum(rhs),rhsMax =  -7.22620852044997E-11  2.45123691435426E-02
 cg2d: Sum(rhs),rhsMax =  -7.16067205530635E-11  2.47670048622301E-02
 cg2d: Sum(rhs),rhsMax =  -7.10341785392643E-11  2.50139978761251E-02
 cg2d: Sum(rhs),rhsMax =  -7.04545310981075E-11  2.52532380700926E-02
 cg2d: Sum(rhs),rhsMax =  -6.98990865188875E-11  2.54846189276336E-02
 cg2d: Sum(rhs),rhsMax =  -6.93904933513068E-11  2.57080375560978E-02
 cg2d: Sum(rhs),rhsMax =  -6.88763490686028E-11  2.59233947084723E-02
 cg2d: Sum(rhs),rhsMax =  -6.84244882975804E-11  2.61305948035989E-02
 cg2d: Sum(rhs),rhsMax =  -6.79815093107550E-11  2.63295459473303E-02
 cg2d: Sum(rhs),rhsMax =  -6.76083633521785E-11  2.65201599576461E-02
 cg2d: Sum(rhs),rhsMax =  -6.72227828957261E-11  2.67023523970111E-02
 cg2d: Sum(rhs),rhsMax =  -6.68541888515506E-11  2.68760426151849E-02
 cg2d: Sum(rhs),rhsMax =  -6.65172361635769E-11  2.70411538053282E-02
 cg2d: Sum(rhs),rhsMax =  -6.61890542374977E-11  2.71976130750571E-02
 cg2d: Sum(rhs),rhsMax =  -6.59170495964645E-11  2.73453515331303E-02
 cg2d: Sum(rhs),rhsMax =  -6.56106280416680E-11  2.74843043910709E-02
 cg2d: Sum(rhs),rhsMax =  -6.53672671546701E-11  2.76144110772445E-02
 cg2d: Sum(rhs),rhsMax =  -6.51302345389126E-11  2.77356153594056E-02
 cg2d: Sum(rhs),rhsMax =  -6.48999742836054E-11  2.78478654705075E-02
 cg2d: Sum(rhs),rhsMax =  -6.47710773904464E-11  2.79511142318101E-02
 cg2d: Sum(rhs),rhsMax =  -6.46175335461407E-11  2.80453191671049E-02
 cg2d: Sum(rhs),rhsMax =  -6.44848618946980E-11  2.81304426022486E-02
 cg2d: Sum(rhs),rhsMax =  -6.44155839779614E-11  2.82064517451091E-02
 cg2d: Sum(rhs),rhsMax =  -6.43081143891777E-11  2.82733187423734E-02
 cg2d: Sum(rhs),rhsMax =  -6.42221831270717E-11  2.83310207112969E-02
 cg2d: Sum(rhs),rhsMax =  -6.41936503953389E-11  2.83795397461942E-02
 cg2d: Sum(rhs),rhsMax =  -6.41884323471231E-11  2.84188629010902E-02
 cg2d: Sum(rhs),rhsMax =  -6.42093045399861E-11  2.84489821512929E-02
 cg2d: Sum(rhs),rhsMax =  -6.42454978105889E-11  2.84698943375965E-02
 cg2d: Sum(rhs),rhsMax =  -6.41301456383303E-11  2.84816010972905E-02
 cg2d: Sum(rhs),rhsMax =  -6.40596464762666E-11  2.84841087861789E-02
 cg2d: Sum(rhs),rhsMax =  -6.40377750826815E-11  2.84774283954664E-02
 cg2d: Sum(rhs),rhsMax =  -6.40075770164117E-11  2.84615754666991E-02
 cg2d: Sum(rhs),rhsMax =  -6.40203445811949E-11  2.84365700076927E-02
 cg2d: Sum(rhs),rhsMax =  -6.40939523677275E-11  2.84024364110750E-02
 cg2d: Sum(rhs),rhsMax =  -6.41396935563421E-11  2.83592033770550E-02
 cg2d: Sum(rhs),rhsMax =  -6.42257358407505E-11  2.83069038414493E-02
 cg2d: Sum(rhs),rhsMax =  -6.42988995380733E-11  2.82455749096222E-02
 cg2d: Sum(rhs),rhsMax =  -6.43779474174266E-11  2.81752577965764E-02
 cg2d: Sum(rhs),rhsMax =  -6.44991837717157E-11  2.80959977729332E-02
 cg2d: Sum(rhs),rhsMax =  -6.46234177281713E-11  2.80078441159770E-02
 cg2d: Sum(rhs),rhsMax =  -6.48125997315674E-11  2.79108500643617E-02
 cg2d: Sum(rhs),rhsMax =  -6.50228759724314E-11  2.78050727746193E-02
 cg2d: Sum(rhs),rhsMax =  -6.52455867111712E-11  2.76905732773633E-02
 cg2d: Sum(rhs),rhsMax =  -6.54823972823237E-11  2.75674164311498E-02
 cg2d: Sum(rhs),rhsMax =  -6.57559562355914E-11  2.74356708723354E-02
 cg2d: Sum(rhs),rhsMax =  -6.60314025680009E-11  2.72954089599080E-02
 cg2d: Sum(rhs),rhsMax =  -6.63490373753461E-11  2.71467067150438E-02
 cg2d: Sum(rhs),rhsMax =  -6.66537935956057E-11  2.69896437559306E-02
 cg2d: Sum(rhs),rhsMax =  -6.69815314324751E-11  2.68243032289431E-02
 cg2d: Sum(rhs),rhsMax =  -6.73593403277550E-11  2.66507717377442E-02
 cg2d: Sum(rhs),rhsMax =  -6.77474742971640E-11  2.64691392720448E-02
 cg2d: Sum(rhs),rhsMax =  -6.81581457939728E-11  2.62794991376186E-02
 cg2d: Sum(rhs),rhsMax =  -6.85967949110022E-11  2.60819478889084E-02
 cg2d: Sum(rhs),rhsMax =  -6.90573154216167E-11  2.58765852652011E-02
 cg2d: Sum(rhs),rhsMax =  -6.95303814524095E-11  2.56635141311783E-02
 cg2d: Sum(rhs),rhsMax =  -7.00171032264052E-11  2.54428404213993E-02
 cg2d: Sum(rhs),rhsMax =  -7.05502323228302E-11  2.52146730889223E-02
 cg2d: Sum(rhs),rhsMax =  -7.11043446344206E-11  2.49791240578210E-02
 cg2d: Sum(rhs),rhsMax =  -7.16785519827567E-11  2.47363081785611E-02
 cg2d: Sum(rhs),rhsMax =  -7.23585635853397E-11  2.44863431854596E-02
 cg2d: Sum(rhs),rhsMax =  -7.31047444801902E-11  2.42293496554633E-02
 cg2d: Sum(rhs),rhsMax =  -7.38450411930103E-11  2.39654509673915E-02
 cg2d: Sum(rhs),rhsMax =  -7.46421813246911E-11  2.36947732608972E-02
 cg2d: Sum(rhs),rhsMax =  -7.54498685751059E-11  2.34174453945204E-02
 cg2d: Sum(rhs),rhsMax =  -7.63078489285363E-11  2.31335989023187E-02
 cg2d: Sum(rhs),rhsMax =  -7.72084618461122E-11  2.28433679486301E-02
 cg2d: Sum(rhs),rhsMax =  -7.81623654688701E-11  2.25468892805566E-02
 cg2d: Sum(rhs),rhsMax =  -7.91692267299027E-11  2.22443021777999E-02
 cg2d: Sum(rhs),rhsMax =  -8.01791966154042E-11  2.19357483995384E-02
 cg2d: Sum(rhs),rhsMax =  -8.12814260342520E-11  2.16213721281714E-02
 cg2d: Sum(rhs),rhsMax =  -8.24417201172878E-11  2.13013199099481E-02
 cg2d: Sum(rhs),rhsMax =  -8.36302138651490E-11  2.09757405927426E-02
 cg2d: Sum(rhs),rhsMax =  -8.49080805664926E-11  2.06447852614824E-02
 cg2d: Sum(rhs),rhsMax =  -8.62184768024576E-11  2.03086071719163E-02
 cg2d: Sum(rhs),rhsMax =  -8.76165806573681E-11  1.99673616834836E-02
 cg2d: Sum(rhs),rhsMax =  -8.90661988606212E-11  1.96212061919688E-02
 cg2d: Sum(rhs),rhsMax =  -9.05853170252158E-11  1.92703000624136E-02
 cg2d: Sum(rhs),rhsMax =  -9.21969167677616E-11  1.89148045624329E-02
 cg2d: Sum(rhs),rhsMax =  -9.38903399472224E-11  1.85548827957172E-02
 cg2d: Sum(rhs),rhsMax =  -9.56809076413379E-11  1.81906996351699E-02
 cg2d: Sum(rhs),rhsMax =  -9.75660663371514E-11  1.78224216548960E-02
 cg2d: Sum(rhs),rhsMax =  -9.95116211655045E-11  1.74502170601720E-02
 cg2d: Sum(rhs),rhsMax =  -1.01589514578393E-10  1.70742556145989E-02
 cg2d: Sum(rhs),rhsMax =  -1.03787423100243E-10  1.66947085638404E-02
 cg2d: Sum(rhs),rhsMax =  -1.06124109500172E-10  1.63117485556178E-02
 cg2d: Sum(rhs),rhsMax =  -1.08567488332767E-10  1.59255495559033E-02
 cg2d: Sum(rhs),rhsMax =  -1.11148423798113E-10  1.55362867614506E-02
 cg2d: Sum(rhs),rhsMax =  -1.13973608328877E-10  1.51441365088860E-02
 cg2d: Sum(rhs),rhsMax =  -1.16995968468814E-10  1.47492761805535E-02
 cg2d: Sum(rhs),rhsMax =  -1.20158993865971E-10  1.43518841071933E-02
 cg2d: Sum(rhs),rhsMax =  -1.23524745987424E-10  1.39521394674157E-02
 cg2d: Sum(rhs),rhsMax =  -1.27121535520303E-10  1.35502221838976E-02
 cg2d: Sum(rhs),rhsMax =  -1.30973454304240E-10  1.31463128163618E-02
 cg2d: Sum(rhs),rhsMax =  -1.35084277097519E-10  1.27405924517454E-02
 cg2d: Sum(rhs),rhsMax =  -1.39488975925417E-10  1.23332425925360E-02
 cg2d: Sum(rhs),rhsMax =  -1.44185552386489E-10  1.19244450449381E-02
 cg2d: Sum(rhs),rhsMax =  -1.49253165382390E-10  1.15143818091505E-02
 cg2d: Sum(rhs),rhsMax =  -1.54710244615330E-10  1.11032349747037E-02
 cg2d: Sum(rhs),rhsMax =  -1.60585100772437E-10  1.06911866238710E-02
 cg2d: Sum(rhs),rhsMax =  -1.66946345636632E-10  1.02784187458503E-02
 cg2d: Sum(rhs),rhsMax =  -1.73856928853411E-10  9.86511316361428E-03
 cg2d: Sum(rhs),rhsMax =  -1.81385795272604E-10  9.45145147371673E-03
 cg2d: Sum(rhs),rhsMax =  -1.89612436862774E-10  9.03761499842128E-03
 cg2d: Sum(rhs),rhsMax =  -1.98614236168737E-10  8.62378474763615E-03
 cg2d: Sum(rhs),rhsMax =  -2.08543182722565E-10  8.21014138687350E-03
 cg2d: Sum(rhs),rhsMax =  -2.19468887507901E-10  7.79686520671482E-03
 cg2d: Sum(rhs),rhsMax =  -2.31634378344836E-10  7.38413608915745E-03
 cg2d: Sum(rhs),rhsMax =  -2.45289011324701E-10  6.97213346674498E-03
 cg2d: Sum(rhs),rhsMax =  -2.60633514770348E-10  6.56103627142343E-03
 cg2d: Sum(rhs),rhsMax =  -2.77974310236573E-10  6.15102287142632E-03
 cg2d: Sum(rhs),rhsMax =  -2.97720237352195E-10  5.74227099596607E-03
 cg2d: Sum(rhs),rhsMax =  -3.20385717955673E-10  5.33495764888901E-03
 cg2d: Sum(rhs),rhsMax =  -3.11052961166070E-10  5.49441620292192E-03
 cg2d: Sum(rhs),rhsMax =  -2.97338209609421E-10  5.74780899141668E-03
 cg2d: Sum(rhs),rhsMax =  -2.84835682817786E-10  5.99946334278011E-03
 cg2d: Sum(rhs),rhsMax =  -2.73433303776827E-10  6.24927640902730E-03
 cg2d: Sum(rhs),rhsMax =  -2.62932814409922E-10  6.49714594173906E-03
 cg2d: Sum(rhs),rhsMax =  -2.53303641950531E-10  6.74297032838905E-03
 cg2d: Sum(rhs),rhsMax =  -2.44448614128423E-10  6.98664868285535E-03
 cg2d: Sum(rhs),rhsMax =  -2.36172664758172E-10  7.22808094289593E-03
 cg2d: Sum(rhs),rhsMax =  -2.28484398068218E-10  7.46716171870353E-03
 cg2d: Sum(rhs),rhsMax =  -2.21383189558111E-10  7.70375890806858E-03
 cg2d: Sum(rhs),rhsMax =  -2.14731260550494E-10  7.93773868570448E-03
 cg2d: Sum(rhs),rhsMax =  -2.08553146974211E-10  8.16896592344711E-03
 cg2d: Sum(rhs),rhsMax =  -2.02819094852202E-10  8.39733074908118E-03
 cg2d: Sum(rhs),rhsMax =  -1.97380389810320E-10  8.62274414068907E-03
 cg2d: Sum(rhs),rhsMax =  -1.92356963690798E-10  8.84512085321421E-03
 cg2d: Sum(rhs),rhsMax =  -1.87645510241197E-10  9.06437332826320E-03
 cg2d: Sum(rhs),rhsMax =  -1.83182691237960E-10  9.28042287714714E-03
 cg2d: Sum(rhs),rhsMax =  -1.79024850499587E-10  9.49319215401175E-03
 cg2d: Sum(rhs),rhsMax =  -1.75122916168391E-10  9.70260225554004E-03
 cg2d: Sum(rhs),rhsMax =  -1.71431979723025E-10  9.90853806253771E-03
 cg2d: Sum(rhs),rhsMax =  -1.67939773199066E-10  1.01108900354062E-02
 cg2d: Sum(rhs),rhsMax =  -1.64638636057646E-10  1.03095771605004E-02
 cg2d: Sum(rhs),rhsMax =  -1.61522850650186E-10  1.05045198334579E-02
 cg2d: Sum(rhs),rhsMax =  -1.58573598696421E-10  1.06956366685425E-02
 cg2d: Sum(rhs),rhsMax =  -1.55770063514638E-10  1.08828476459024E-02
 cg2d: Sum(rhs),rhsMax =  -1.53128176805239E-10  1.10660781541586E-02
 cg2d: Sum(rhs),rhsMax =  -1.50632617490487E-10  1.12452567735632E-02
 cg2d: Sum(rhs),rhsMax =  -1.48259737819956E-10  1.14203161856789E-02
 cg2d: Sum(rhs),rhsMax =  -1.46064604855667E-10  1.15911871192099E-02
 cg2d: Sum(rhs),rhsMax =  -1.43848932765422E-10  1.17578063829933E-02
 cg2d: Sum(rhs),rhsMax =  -1.41751277382696E-10  1.19201104589354E-02
 cg2d: Sum(rhs),rhsMax =  -1.39787958985949E-10  1.20780397884052E-02
 cg2d: Sum(rhs),rhsMax =  -1.37923006349183E-10  1.22315349726354E-02
 cg2d: Sum(rhs),rhsMax =  -1.36115674287396E-10  1.23805369605841E-02
 cg2d: Sum(rhs),rhsMax =  -1.34472877277858E-10  1.25249883937406E-02
 cg2d: Sum(rhs),rhsMax =  -1.32895028315261E-10  1.26648339051256E-02
 cg2d: Sum(rhs),rhsMax =  -1.31376021172969E-10  1.28000192828162E-02
 cg2d: Sum(rhs),rhsMax =  -1.29945942894949E-10  1.29304978030095E-02
 cg2d: Sum(rhs),rhsMax =  -1.28594024317863E-10  1.30562261214507E-02
 cg2d: Sum(rhs),rhsMax =  -1.27299948360360E-10  1.31771609436233E-02
 cg2d: Sum(rhs),rhsMax =  -1.26123111954257E-10  1.32932571739969E-02
 cg2d: Sum(rhs),rhsMax =  -1.25004007145435E-10  1.34044695058572E-02
 cg2d: Sum(rhs),rhsMax =  -1.23941967800079E-10  1.35107551669805E-02
 cg2d: Sum(rhs),rhsMax =  -1.22957755088748E-10  1.36120747397672E-02
 cg2d: Sum(rhs),rhsMax =  -1.22043930517179E-10  1.37083914326271E-02
 cg2d: Sum(rhs),rhsMax =  -1.21159859922670E-10  1.37996709401658E-02
 cg2d: Sum(rhs),rhsMax =  -1.20348508936274E-10  1.38858813004033E-02
 cg2d: Sum(rhs),rhsMax =  -1.19581344826258E-10  1.39669913278154E-02
 cg2d: Sum(rhs),rhsMax =  -1.18878462629368E-10  1.40429710568746E-02
 cg2d: Sum(rhs),rhsMax =  -1.18217435840506E-10  1.41138092131253E-02
 cg2d: Sum(rhs),rhsMax =  -1.17640008845399E-10  1.41795001896685E-02
 cg2d: Sum(rhs),rhsMax =  -1.17051701664650E-10  1.42400285637306E-02
 cg2d: Sum(rhs),rhsMax =  -1.16519238702040E-10  1.42953719018160E-02
 cg2d: Sum(rhs),rhsMax =  -1.16016085627280E-10  1.43455073317143E-02
 cg2d: Sum(rhs),rhsMax =  -1.15544684931024E-10  1.43904122456045E-02
 cg2d: Sum(rhs),rhsMax =  -1.15149223489652E-10  1.44300701344855E-02
 cg2d: Sum(rhs),rhsMax =  -1.14814824314635E-10  1.44644688623222E-02
 cg2d: Sum(rhs),rhsMax =  -1.14529719041911E-10  1.44935981824489E-02
 cg2d: Sum(rhs),rhsMax =  -1.14243059456953E-10  1.45174491146018E-02
 cg2d: Sum(rhs),rhsMax =  -1.14043219312521E-10  1.45360124320803E-02
 cg2d: Sum(rhs),rhsMax =  -1.13901887921486E-10  1.45492800184265E-02
 cg2d: Sum(rhs),rhsMax =  -1.13789200284486E-10  1.45572475505442E-02
 cg2d: Sum(rhs),rhsMax =  -1.13684395230962E-10  1.45599149923349E-02
 cg2d: Sum(rhs),rhsMax =  -1.13675957535975E-10  1.45572853122415E-02
 cg2d: Sum(rhs),rhsMax =  -1.13696940751140E-10  1.45493629702313E-02
 cg2d: Sum(rhs),rhsMax =  -1.13794973444215E-10  1.45361534531510E-02
 cg2d: Sum(rhs),rhsMax =  -1.13912768107127E-10  1.45176645669324E-02
 cg2d: Sum(rhs),rhsMax =  -1.14055542788094E-10  1.44939069490172E-02
 cg2d: Sum(rhs),rhsMax =  -1.14221743174880E-10  1.44648905372524E-02
 cg2d: Sum(rhs),rhsMax =  -1.14452891608607E-10  1.44306144808412E-02
 cg2d: Sum(rhs),rhsMax =  -1.14853793142800E-10  1.43910856279318E-02
 cg2d: Sum(rhs),rhsMax =  -1.15253473431665E-10  1.43463214685081E-02
 cg2d: Sum(rhs),rhsMax =  -1.15663811861566E-10  1.42963502698212E-02
 cg2d: Sum(rhs),rhsMax =  -1.16111342762792E-10  1.42411994948027E-02
 cg2d: Sum(rhs),rhsMax =  -1.16658127602420E-10  1.41808954272978E-02
 cg2d: Sum(rhs),rhsMax =  -1.17234333352201E-10  1.41154656924456E-02
 cg2d: Sum(rhs),rhsMax =  -1.17864384918676E-10  1.40449408460704E-02
 cg2d: Sum(rhs),rhsMax =  -1.18574261520621E-10  1.39693544037471E-02
 cg2d: Sum(rhs),rhsMax =  -1.19345089366618E-10  1.38887421844600E-02
 cg2d: Sum(rhs),rhsMax =  -1.20133458736404E-10  1.38031419797568E-02
 cg2d: Sum(rhs),rhsMax =  -1.21025522936691E-10  1.37125655246520E-02
 cg2d: Sum(rhs),rhsMax =  -1.21978427358727E-10  1.36170072485270E-02
 cg2d: Sum(rhs),rhsMax =  -1.22961640869335E-10  1.35164817347636E-02
 cg2d: Sum(rhs),rhsMax =  -1.24046883875906E-10  1.34110304562604E-02
 cg2d: Sum(rhs),rhsMax =  -1.25094601344244E-10  1.33007075985351E-02
 cg2d: Sum(rhs),rhsMax =  -1.26233801189812E-10  1.31855691358493E-02
 cg2d: Sum(rhs),rhsMax =  -1.27446164732703E-10  1.30656694144729E-02
 cg2d: Sum(rhs),rhsMax =  -1.28767108087402E-10  1.29410622494177E-02
 cg2d: Sum(rhs),rhsMax =  -1.30132349340784E-10  1.28118025552695E-02
 cg2d: Sum(rhs),rhsMax =  -1.31584410034691E-10  1.26779474769278E-02
 cg2d: Sum(rhs),rhsMax =  -1.33132616042531E-10  1.25395564692475E-02
 cg2d: Sum(rhs),rhsMax =  -1.34719235767022E-10  1.23966910159674E-02
 cg2d: Sum(rhs),rhsMax =  -1.36428646158038E-10  1.22494144425809E-02
 cg2d: Sum(rhs),rhsMax =  -1.38235201063708E-10  1.20977919197177E-02
 cg2d: Sum(rhs),rhsMax =  -1.40099487566658E-10  1.19418905704991E-02
 cg2d: Sum(rhs),rhsMax =  -1.42089673360601E-10  1.17817835167738E-02
 cg2d: Sum(rhs),rhsMax =  -1.44183998074254E-10  1.16175622073596E-02
 cg2d: Sum(rhs),rhsMax =  -1.46418766000522E-10  1.14493134497543E-02
 cg2d: Sum(rhs),rhsMax =  -1.48750012307630E-10  1.12771158690844E-02
 cg2d: Sum(rhs),rhsMax =  -1.51245460600080E-10  1.11010451912388E-02
 cg2d: Sum(rhs),rhsMax =  -1.53819623704976E-10  1.09211788720056E-02
 cg2d: Sum(rhs),rhsMax =  -1.56592072642070E-10  1.07375975437737E-02
 cg2d: Sum(rhs),rhsMax =  -1.59522950404778E-10  1.05503847457816E-02
 cg2d: Sum(rhs),rhsMax =  -1.62509672385625E-10  1.03596266364124E-02
 cg2d: Sum(rhs),rhsMax =  -1.65648272876240E-10  1.01654104493953E-02
 cg2d: Sum(rhs),rhsMax =  -1.69004032990472E-10  9.96782435304398E-03
 cg2d: Sum(rhs),rhsMax =  -1.72345249183081E-10  9.77865210239126E-03
 cg2d: Sum(rhs),rhsMax =  -1.74802838870391E-10  9.64357779114217E-03
 cg2d: Sum(rhs),rhsMax =  -1.77405090617810E-10  9.50515923395639E-03
 cg2d: Sum(rhs),rhsMax =  -1.80162551544072E-10  9.36349311816360E-03
 cg2d: Sum(rhs),rhsMax =  -1.83071335868590E-10  9.21865868478363E-03
 cg2d: Sum(rhs),rhsMax =  -1.86147819380977E-10  9.07072802476646E-03
 cg2d: Sum(rhs),rhsMax =  -1.89361637481511E-10  8.91977418058438E-03
 cg2d: Sum(rhs),rhsMax =  -1.92771798523950E-10  8.76587335511262E-03
 cg2d: Sum(rhs),rhsMax =  -1.96354155157508E-10  8.60910392310009E-03
 cg2d: Sum(rhs),rhsMax =  -2.00107819203765E-10  8.44954533432520E-03
 cg2d: Sum(rhs),rhsMax =  -2.04119388058643E-10  8.28727740074996E-03
 cg2d: Sum(rhs),rhsMax =  -2.08324579809016E-10  8.12238021775199E-03
 cg2d: Sum(rhs),rhsMax =  -2.12788509035278E-10  7.95493445813988E-03
 cg2d: Sum(rhs),rhsMax =  -2.17528162149705E-10  7.78502164558474E-03
 cg2d: Sum(rhs),rhsMax =  -2.22529689120066E-10  7.61272429788324E-03
 cg2d: Sum(rhs),rhsMax =  -2.27828172993938E-10  7.43812597375227E-03
 cg2d: Sum(rhs),rhsMax =  -2.33465607957228E-10  7.26131127391760E-03
 cg2d: Sum(rhs),rhsMax =  -2.39487735198551E-10  7.08236583330881E-03
 cg2d: Sum(rhs),rhsMax =  -2.45842540769203E-10  6.90137627953774E-03
 cg2d: Sum(rhs),rhsMax =  -2.52661912225616E-10  6.71843015278927E-03
 cg2d: Sum(rhs),rhsMax =  -2.59812307085161E-10  6.53361586004236E-03
 cg2d: Sum(rhs),rhsMax =  -2.67473265758156E-10  6.34700912061205E-03
 cg2d: Sum(rhs),rhsMax =  -2.75672346061739E-10  6.15866718878705E-03
 cg2d: Sum(rhs),rhsMax =  -2.84463536059931E-10  5.96865169809884E-03
 cg2d: Sum(rhs),rhsMax =  -2.93983282162458E-10  5.77701264586677E-03
 cg2d: Sum(rhs),rhsMax =  -3.04214820001647E-10  5.58382469552926E-03
 cg2d: Sum(rhs),rhsMax =  -3.15233783521052E-10  5.38918405121358E-03
 cg2d: Sum(rhs),rhsMax =  -3.27197879901320E-10  5.19319216416480E-03
 cg2d: Sum(rhs),rhsMax =  -3.05816871826181E-10  5.55632072315158E-03
 cg2d: Sum(rhs),rhsMax =  -2.86387025205670E-10  5.93367791860429E-03
 cg2d: Sum(rhs),rhsMax =  -2.68540190084821E-10  6.32872608021322E-03
 cg2d: Sum(rhs),rhsMax =  -2.52539655853923E-10  6.72965736799765E-03
 cg2d: Sum(rhs),rhsMax =  -2.38401187679926E-10  7.13115822152558E-03
 cg2d: Sum(rhs),rhsMax =  -2.25759966276939E-10  7.53304398532271E-03
 cg2d: Sum(rhs),rhsMax =  -2.14434470180436E-10  7.93513046820698E-03
 cg2d: Sum(rhs),rhsMax =  -2.04207872833706E-10  8.33723410917938E-03
 cg2d: Sum(rhs),rhsMax =  -1.94915195095291E-10  8.73917211036888E-03
 cg2d: Sum(rhs),rhsMax =  -1.86415438641063E-10  9.14076253625440E-03
 cg2d: Sum(rhs),rhsMax =  -1.78653980498211E-10  9.54182438088506E-03
 cg2d: Sum(rhs),rhsMax =  -1.71537894999574E-10  9.94217760703170E-03
 cg2d: Sum(rhs),rhsMax =  -1.65018554376672E-10  1.03416431628866E-02
 cg2d: Sum(rhs),rhsMax =  -1.58964175156484E-10  1.07400429829128E-02
 cg2d: Sum(rhs),rhsMax =  -1.53355106391473E-10  1.11371999796773E-02
 cg2d: Sum(rhs),rhsMax =  -1.48156487078666E-10  1.15329380330216E-02
 cg2d: Sum(rhs),rhsMax =  -1.43332568036669E-10  1.19270819819021E-02
 cg2d: Sum(rhs),rhsMax =  -1.38829836515697E-10  1.23194576228831E-02
 cg2d: Sum(rhs),rhsMax =  -1.34638744597737E-10  1.27098917178471E-02
 cg2d: Sum(rhs),rhsMax =  -1.30690014366053E-10  1.30982120122103E-02
 cg2d: Sum(rhs),rhsMax =  -1.26994637028588E-10  1.34842472639308E-02
 cg2d: Sum(rhs),rhsMax =  -1.23521415318351E-10  1.38678272829014E-02
 cg2d: Sum(rhs),rhsMax =  -1.20269683101526E-10  1.42487829798644E-02
 cg2d: Sum(rhs),rhsMax =  -1.17214571382362E-10  1.46269464236391E-02
 cg2d: Sum(rhs),rhsMax =  -1.14339204770886E-10  1.50021509050107E-02
 cg2d: Sum(rhs),rhsMax =  -1.11696762949975E-10  1.53742310055167E-02
 cg2d: Sum(rhs),rhsMax =  -1.09193987185563E-10  1.57430226687312E-02
 cg2d: Sum(rhs),rhsMax =  -1.06822883871871E-10  1.61083632710844E-02
 cg2d: Sum(rhs),rhsMax =  -1.04586672655671E-10  1.64700916893372E-02
 cg2d: Sum(rhs),rhsMax =  -1.02500008480888E-10  1.68280483620862E-02
 cg2d: Sum(rhs),rhsMax =  -1.00460084695442E-10  1.71820753433482E-02
 cg2d: Sum(rhs),rhsMax =  -9.85630466132648E-11  1.75320163473344E-02
 cg2d: Sum(rhs),rhsMax =  -9.67445012989288E-11  1.78777167848139E-02
 cg2d: Sum(rhs),rhsMax =  -9.50080014661125E-11  1.82190237927739E-02
 cg2d: Sum(rhs),rhsMax =  -9.33954025228445E-11  1.85557862601751E-02
 cg2d: Sum(rhs),rhsMax =  -9.18501941171712E-11  1.88878548532779E-02
 cg2d: Sum(rhs),rhsMax =  -9.03682684239016E-11  1.92150820441851E-02
 cg2d: Sum(rhs),rhsMax =  -8.89763818179290E-11  1.95373221459134E-02
 cg2d: Sum(rhs),rhsMax =  -8.76551053963226E-11  1.98544313565693E-02
 cg2d: Sum(rhs),rhsMax =  -8.63806803863554E-11  2.01662678142489E-02
 cg2d: Sum(rhs),rhsMax =  -8.51685388880696E-11  2.04726916632785E-02
 cg2d: Sum(rhs),rhsMax =  -8.40039149352378E-11  2.07735651315432E-02
 cg2d: Sum(rhs),rhsMax =  -8.29063484530934E-11  2.10687526180008E-02
(PID.TID 0000.0001)      cg2d_init_res =   7.00680157651211E-02
(PID.TID 0000.0001)      cg2d_iters(min,last) =      -1      38
(PID.TID 0000.0001)      cg2d_last_res =   5.37187257006740E-14
(PID.TID 0000.0001) // =======================================================
(PID.TID 0000.0001) // Begin MONITOR dynamic field statistics
(PID.TID 0000.0001) // =======================================================
(PID.TID 0000.0001) %MON time_tsnumber                =                  4800
(PID.TID 0000.0001) %MON time_secondsf                =   7.2000000000000E+04
(PID.TID 0000.0001) %MON dynstat_eta_max              =   3.6926046691000E-03
(PID.TID 0000.0001) %MON dynstat_eta_min              =  -3.2257899248397E-03
(PID.TID 0000.0001) %MON dynstat_eta_mean             =   3.8551340953551E-15
(PID.TID 0000.0001) %MON dynstat_eta_sd               =   2.1052298889893E-03
(PID.TID 0000.0001) %MON dynstat_eta_del2             =   6.0228922473387E-06
(PID.TID 0000.0001) %MON dynstat_uvel_max             =   4.3163078032224E-01
(PID.TID 0000.0001) %MON dynstat_uvel_min             =  -3.9620027346516E-01
(PID.TID 0000.0001) %MON dynstat_uvel_mean            =   1.1295342041340E-01
(PID.TID 0000.0001) %MON dynstat_uvel_sd              =   4.1339791286860E-02
(PID.TID 0000.0001) %MON dynstat_uvel_del2            =   1.0385901291838E-04
(PID.TID 0000.0001) %MON dynstat_vvel_max             =   0.0000000000000E+00
(PID.TID 0000.0001) %MON dynstat_vvel_min             =   0.0000000000000E+00
(PID.TID 0000.0001) %MON dynstat_vvel_mean            =   0.0000000000000E+00
(PID.TID 0000.0001) %MON dynstat_vvel_sd              =   0.0000000000000E+00
(PID.TID 0000.0001) %MON dynstat_vvel_del2            =   0.0000000000000E+00
(PID.TID 0000.0001) %MON dynstat_wvel_max             =   4.6931982512191E-03
(PID.TID 0000.0001) %MON dynstat_wvel_min             =  -7.5785670891095E-03
(PID.TID 0000.0001) %MON dynstat_wvel_mean            =  -1.4590040015451E-21
(PID.TID 0000.0001) %MON dynstat_wvel_sd              =   4.0933645037920E-04
(PID.TID 0000.0001) %MON dynstat_wvel_del2            =   1.0933611278272E-05
(PID.TID 0000.0001) %MON dynstat_theta_max            =   1.5000000000016E+01
(PID.TID 0000.0001) %MON dynstat_theta_min            =   9.9999999999916E+00
(PID.TID 0000.0001) %MON dynstat_theta_mean           =   1.4038800701578E+01
(PID.TID 0000.0001) %MON dynstat_theta_sd             =   1.8924494027101E+00
(PID.TID 0000.0001) %MON dynstat_theta_del2           =   3.6759735413765E-04
(PID.TID 0000.0001) %MON dynstat_salt_max             =   3.5000000000000E+01
(PID.TID 0000.0001) %MON dynstat_salt_min             =   3.5000000000000E+01
(PID.TID 0000.0001) %MON dynstat_salt_mean            =   3.5000000000000E+01
(PID.TID 0000.0001) %MON dynstat_salt_sd              =   3.0553337637684E-13
(PID.TID 0000.0001) %MON dynstat_salt_del2            =   0.0000000000000E+00
(PID.TID 0000.0001) %MON dynstat_sst_max              =   1.5000000000000E+01
(PID.TID 0000.0001) %MON dynstat_sst_min              =   1.4999999999998E+01
(PID.TID 0000.0001) %MON dynstat_sst_mean             =   1.5000000000000E+01
(PID.TID 0000.0001) %MON dynstat_sst_sd               =   4.0846126423099E-13
(PID.TID 0000.0001) %MON dynstat_sst_del2             =   1.0261465704730E-14
(PID.TID 0000.0001) %MON dynstat_sss_max              =   3.5000000000000E+01
(PID.TID 0000.0001) %MON dynstat_sss_min              =   3.5000000000000E+01
(PID.TID 0000.0001) %MON dynstat_sss_mean             =   3.5000000000000E+01
(PID.TID 0000.0001) %MON dynstat_sss_sd               =   2.8421709430404E-14
(PID.TID 0000.0001) %MON dynstat_sss_del2             =   0.0000000000000E+00
(PID.TID 0000.0001) %MON forcing_qnet_max             =   0.0000000000000E+00
(PID.TID 0000.0001) %MON forcing_qnet_min             =   0.0000000000000E+00
(PID.TID 0000.0001) %MON forcing_qnet_mean            =   0.0000000000000E+00
(PID.TID 0000.0001) %MON forcing_qnet_sd              =   0.0000000000000E+00
(PID.TID 0000.0001) %MON forcing_qnet_del2            =   0.0000000000000E+00
(PID.TID 0000.0001) %MON forcing_qsw_max              =   0.0000000000000E+00
(PID.TID 0000.0001) %MON forcing_qsw_min              =   0.0000000000000E+00
(PID.TID 0000.0001) %MON forcing_qsw_mean             =   0.0000000000000E+00
(PID.TID 0000.0001) %MON forcing_qsw_sd               =   0.0000000000000E+00
(PID.TID 0000.0001) %MON forcing_qsw_del2             =   0.0000000000000E+00
(PID.TID 0000.0001) %MON forcing_empmr_max            =   0.0000000000000E+00
(PID.TID 0000.0001) %MON forcing_empmr_min            =   0.0000000000000E+00
(PID.TID 0000.0001) %MON forcing_empmr_mean           =   0.0000000000000E+00
(PID.TID 0000.0001) %MON forcing_empmr_sd             =   0.0000000000000E+00
(PID.TID 0000.0001) %MON forcing_empmr_del2           =   0.0000000000000E+00
(PID.TID 0000.0001) %MON forcing_fu_max               =   0.0000000000000E+00
(PID.TID 0000.0001) %MON forcing_fu_min               =   0.0000000000000E+00
(PID.TID 0000.0001) %MON forcing_fu_mean              =   0.0000000000000E+00
(PID.TID 0000.0001) %MON forcing_fu_sd                =   0.0000000000000E+00
(PID.TID 0000.0001) %MON forcing_fu_del2              =   0.0000000000000E+00
(PID.TID 0000.0001) %MON forcing_fv_max               =   0.0000000000000E+00
(PID.TID 0000.0001) %MON forcing_fv_min               =   0.0000000000000E+00
(PID.TID 0000.0001) %MON forcing_fv_mean              =   0.0000000000000E+00
(PID.TID 0000.0001) %MON forcing_fv_sd                =   0.0000000000000E+00
(PID.TID 0000.0001) %MON forcing_fv_del2              =   0.0000000000000E+00
(PID.TID 0000.0001) %MON advcfl_uvel_max              =   3.2372308524168E-02
(PID.TID 0000.0001) %MON advcfl_vvel_max              =   0.0000000000000E+00
(PID.TID 0000.0001) %MON advcfl_wvel_max              =   3.8874728743782E-02
(PID.TID 0000.0001) %MON advcfl_W_hf_max              =   3.9297662630423E-02
(PID.TID 0000.0001) %MON pe_b_mean                    =   1.0984552307694E-07
(PID.TID 0000.0001) %MON ke_max                       =   5.7410122150213E-02
(PID.TID 0000.0001) %MON ke_mean                      =   7.2427969626953E-03
(PID.TID 0000.0001) %MON ke_vol                       =   9.6656965507697E+10
(PID.TID 0000.0001) %MON vort_r_min                   =   0.0000000000000E+00
(PID.TID 0000.0001) %MON vort_r_max                   =   0.0000000000000E+00
(PID.TID 0000.0001) %MON vort_a_mean                  =   0.0000000000000E+00
(PID.TID 0000.0001) %MON vort_a_sd                    =   0.0000000000000E+00
(PID.TID 0000.0001) %MON vort_p_mean                  =   0.0000000000000E+00
(PID.TID 0000.0001) %MON vort_p_sd                    =   0.0000000000000E+00
(PID.TID 0000.0001) %MON surfExpan_theta_mean         =  -3.9501590016989E-19
(PID.TID 0000.0001) %MON surfExpan_salt_mean          =   1.8621845617909E-20
(PID.TID 0000.0001) // =======================================================
(PID.TID 0000.0001) // End MONITOR dynamic field statistics
(PID.TID 0000.0001) // =======================================================
(PID.TID 0000.0001) // =======================================================
(PID.TID 0000.0001) // Begin OBCS MONITOR field statistics
(PID.TID 0000.0001) // =======================================================
(PID.TID 0000.0001) %MON obc_E_uVel_max               =   1.1205712828732E-01
(PID.TID 0000.0001) %MON obc_E_uVel_min               =   1.1205712828732E-01
(PID.TID 0000.0001) %MON obc_E_uVel_mean              =   1.1205712828732E-01
(PID.TID 0000.0001) %MON obc_E_uVel_sd                =   0.0000000000000E+00
(PID.TID 0000.0001) %MON obc_E_uVel_Int               =   1.1205712828732E+05
(PID.TID 0000.0001) %MON obc_W_uVel_max               =   1.1205712828732E-01
(PID.TID 0000.0001) %MON obc_W_uVel_min               =   1.1205712828732E-01
(PID.TID 0000.0001) %MON obc_W_uVel_mean              =   1.1205712828732E-01
(PID.TID 0000.0001) %MON obc_W_uVel_sd                =   0.0000000000000E+00
(PID.TID 0000.0001) %MON obc_W_uVel_Int               =   1.1205712828732E+05
(PID.TID 0000.0001) // =======================================================
(PID.TID 0000.0001) // End OBCS MONITOR field statistics
(PID.TID 0000.0001) // =======================================================
 cg2d: Sum(rhs),rhsMax =  -8.18468626206936E-11  2.13581207890820E-02
 cg2d: Sum(rhs),rhsMax =  -8.08260125495508E-11  2.16415386824699E-02
 cg2d: Sum(rhs),rhsMax =  -7.98774379973111E-11  2.19188778166519E-02
 cg2d: Sum(rhs),rhsMax =  -7.89862619754444E-11  2.21900123045370E-02
 cg2d: Sum(rhs),rhsMax =  -7.80852049686587E-11  2.24548189692824E-02
 cg2d: Sum(rhs),rhsMax =  -7.72816255434350E-11  2.27131774602670E-02
 cg2d: Sum(rhs),rhsMax =  -7.65053576046171E-11  2.29649703669624E-02
 cg2d: Sum(rhs),rhsMax =  -7.57255369521204E-11  2.32100833283875E-02
 cg2d: Sum(rhs),rhsMax =  -7.50809414640230E-11  2.34484051359951E-02
 cg2d: Sum(rhs),rhsMax =  -7.44542205666221E-11  2.36798278282954E-02
 cg2d: Sum(rhs),rhsMax =  -7.38511474196457E-11  2.39042467762473E-02
 cg2d: Sum(rhs),rhsMax =  -7.32967020411479E-11  2.41215607593333E-02
 cg2d: Sum(rhs),rhsMax =  -7.27533588928964E-11  2.43316720331117E-02
 cg2d: Sum(rhs),rhsMax =  -7.22579773793086E-11  2.45344863897155E-02
 cg2d: Sum(rhs),rhsMax =  -7.17783610326705E-11  2.47299132130829E-02
 cg2d: Sum(rhs),rhsMax =  -7.13213932357348E-11  2.49178655305989E-02
 cg2d: Sum(rhs),rhsMax =  -7.08983982633526E-11  2.50982600623488E-02
 cg2d: Sum(rhs),rhsMax =  -7.04661884398661E-11  2.52710172684739E-02
 cg2d: Sum(rhs),rhsMax =  -7.00934865704994E-11  2.54360613944002E-02
 cg2d: Sum(rhs),rhsMax =  -6.97270019500706E-11  2.55933205131725E-02
 cg2d: Sum(rhs),rhsMax =  -6.94098112319352E-11  2.57427265639191E-02
 cg2d: Sum(rhs),rhsMax =  -6.91030566102313E-11  2.58842153856365E-02
 cg2d: Sum(rhs),rhsMax =  -6.87663259668625E-11  2.60177267459431E-02
 cg2d: Sum(rhs),rhsMax =  -6.85118628496184E-11  2.61432043650496E-02
 cg2d: Sum(rhs),rhsMax =  -6.82601752899359E-11  2.62605959357637E-02
 cg2d: Sum(rhs),rhsMax =  -6.80122624885371E-11  2.63698531407088E-02
 cg2d: Sum(rhs),rhsMax =  -6.77806699656003E-11  2.64709316680184E-02
 cg2d: Sum(rhs),rhsMax =  -6.76441125335714E-11  2.65637912265440E-02
 cg2d: Sum(rhs),rhsMax =  -6.75094424806844E-11  2.66483955611648E-02
 cg2d: Sum(rhs),rhsMax =  -6.73773259407540E-11  2.67247124682180E-02
 cg2d: Sum(rhs),rhsMax =  -6.72846223181978E-11  2.67927138105521E-02
 cg2d: Sum(rhs),rhsMax =  -6.71899202941972E-11  2.68523755311693E-02
 cg2d: Sum(rhs),rhsMax =  -6.70948852032893E-11  2.69036776642246E-02
 cg2d: Sum(rhs),rhsMax =  -6.70532518398659E-11  2.69466043422693E-02
 cg2d: Sum(rhs),rhsMax =  -6.70621336240629E-11  2.69811437986839E-02
 cg2d: Sum(rhs),rhsMax =  -6.70459243679034E-11  2.70072883645471E-02
 cg2d: Sum(rhs),rhsMax =  -6.69950761533755E-11  2.70250344595592E-02
 cg2d: Sum(rhs),rhsMax =  -6.69527766561373E-11  2.70343825770007E-02
 cg2d: Sum(rhs),rhsMax =  -6.69425626043108E-11  2.70353372629926E-02
 cg2d: Sum(rhs),rhsMax =  -6.69094779581769E-11  2.70279070905126E-02
 cg2d: Sum(rhs),rhsMax =  -6.69085897797572E-11  2.70121046286080E-02
 cg2d: Sum(rhs),rhsMax =  -6.68560762306925E-11  2.69879464076013E-02
 cg2d: Sum(rhs),rhsMax =  -6.69171384970468E-11  2.69554528803531E-02
 cg2d: Sum(rhs),rhsMax =  -6.69546640352792E-11  2.69146483800848E-02
 cg2d: Sum(rhs),rhsMax =  -6.70068445174365E-11  2.68655610751485E-02
 cg2d: Sum(rhs),rhsMax =  -6.70964395155238E-11  2.68082229212925E-02
 cg2d: Sum(rhs),rhsMax =  -6.71876998481480E-11  2.67426696122632E-02
 cg2d: Sum(rhs),rhsMax =  -6.72890632102963E-11  2.66689405299504E-02
 cg2d: Sum(rhs),rhsMax =  -6.73999744904563E-11  2.65870786956165E-02
 cg2d: Sum(rhs),rhsMax =  -6.75909328506918E-11  2.64971307238965E-02
 cg2d: Sum(rhs),rhsMax =  -6.78241907081656E-11  2.63991467810908E-02
 cg2d: Sum(rhs),rhsMax =  -6.80171474698454E-11  2.62931805487355E-02
 cg2d: Sum(rhs),rhsMax =  -6.82987000288904E-11  2.61792891925726E-02
 cg2d: Sum(rhs),rhsMax =  -6.85397294475365E-11  2.60575333360276E-02
 cg2d: Sum(rhs),rhsMax =  -6.88269441440070E-11  2.59279770363646E-02
 cg2d: Sum(rhs),rhsMax =  -6.91509072225927E-11  2.57906877611523E-02
 cg2d: Sum(rhs),rhsMax =  -6.94665436284936E-11  2.56457363623414E-02
 cg2d: Sum(rhs),rhsMax =  -6.98311408697805E-11  2.54931970459360E-02
 cg2d: Sum(rhs),rhsMax =  -7.02345959169293E-11  2.53331473360845E-02
 cg2d: Sum(rhs),rhsMax =  -7.05848712811985E-11  2.51656680334157E-02
 cg2d: Sum(rhs),rhsMax =  -7.10093095435127E-11  2.49908431684294E-02
 cg2d: Sum(rhs),rhsMax =  -7.14378556310180E-11  2.48087599514061E-02
 cg2d: Sum(rhs),rhsMax =  -7.19123649517428E-11  2.46195087205060E-02
 cg2d: Sum(rhs),rhsMax =  -7.24131865581512E-11  2.44231828894933E-02
 cg2d: Sum(rhs),rhsMax =  -7.29505345020698E-11  2.42198788959908E-02
 cg2d: Sum(rhs),rhsMax =  -7.34912131150622E-11  2.40096961504953E-02
 cg2d: Sum(rhs),rhsMax =  -7.40704164670092E-11  2.37927369858578E-02
 cg2d: Sum(rhs),rhsMax =  -7.46507300419808E-11  2.35691066067904E-02
 cg2d: Sum(rhs),rhsMax =  -7.52694573336044E-11  2.33389130383862E-02
 cg2d: Sum(rhs),rhsMax =  -7.60141949385229E-11  2.31022670731406E-02
 cg2d: Sum(rhs),rhsMax =  -7.67448327110287E-11  2.28592822163789E-02
 cg2d: Sum(rhs),rhsMax =  -7.75400854635677E-11  2.26100746300045E-02
 cg2d: Sum(rhs),rhsMax =  -7.83819675831410E-11  2.23547630747338E-02
 cg2d: Sum(rhs),rhsMax =  -7.92530485682619E-11  2.20934688512158E-02
 cg2d: Sum(rhs),rhsMax =  -8.01501087721590E-11  2.18263157406531E-02
 cg2d: Sum(rhs),rhsMax =  -8.11083422647130E-11  2.15534299457058E-02
 cg2d: Sum(rhs),rhsMax =  -8.21115397897643E-11  2.12749400325456E-02
 cg2d: Sum(rhs),rhsMax =  -8.31514856969306E-11  2.09909768748671E-02
 cg2d: Sum(rhs),rhsMax =  -8.42409475509953E-11  2.07016736004063E-02
 cg2d: Sum(rhs),rhsMax =  -8.53929149613464E-11  2.04071655400654E-02
 cg2d: Sum(rhs),rhsMax =  -8.65687521667269E-11  2.01075901791350E-02
 cg2d: Sum(rhs),rhsMax =  -8.78356276601266E-11  1.98030871094602E-02
 cg2d: Sum(rhs),rhsMax =  -8.91178242312662E-11  1.94937979808541E-02
 cg2d: Sum(rhs),rhsMax =  -9.05067132350723E-11  1.91798664497413E-02
 cg2d: Sum(rhs),rhsMax =  -9.19423426282151E-11  1.88614381230287E-02
 cg2d: Sum(rhs),rhsMax =  -9.34684551978648E-11  1.85386604955249E-02
 cg2d: Sum(rhs),rhsMax =  -9.50470813165794E-11  1.82116828798441E-02
 cg2d: Sum(rhs),rhsMax =  -9.67219637715289E-11  1.78806563284798E-02
 cg2d: Sum(rhs),rhsMax =  -9.84567982698081E-11  1.75457335484945E-02
 cg2d: Sum(rhs),rhsMax =  -1.00279118342428E-10  1.72070688098794E-02
 cg2d: Sum(rhs),rhsMax =  -1.02195474305233E-10  1.68648178490010E-02
 cg2d: Sum(rhs),rhsMax =  -1.04244168852574E-10  1.65191377686052E-02
 cg2d: Sum(rhs),rhsMax =  -1.06375797059854E-10  1.61701869356242E-02
 cg2d: Sum(rhs),rhsMax =  -1.08611120097635E-10  1.58181248776176E-02
 cg2d: Sum(rhs),rhsMax =  -1.10979336831463E-10  1.54631121782209E-02
 cg2d: Sum(rhs),rhsMax =  -1.13477005569962E-10  1.51053103716481E-02
 cg2d: Sum(rhs),rhsMax =  -1.16134990513217E-10  1.47448818361324E-02
 cg2d: Sum(rhs),rhsMax =  -1.18926424264032E-10  1.43819896865453E-02
 cg2d: Sum(rhs),rhsMax =  -1.21995746837911E-10  1.40167976668786E-02
 cg2d: Sum(rhs),rhsMax =  -1.25204513423682E-10  1.36494700439461E-02
 cg2d: Sum(rhs),rhsMax =  -1.28652311026656E-10  1.32801715042886E-02
 cg2d: Sum(rhs),rhsMax =  -1.32290067789143E-10  1.29090670566724E-02
 cg2d: Sum(rhs),rhsMax =  -1.36179734155917E-10  1.25363219425814E-02
 cg2d: Sum(rhs),rhsMax =  -1.40331191111898E-10  1.21621015566802E-02
 cg2d: Sum(rhs),rhsMax =  -1.44732448248419E-10  1.17865713784183E-02
 cg2d: Sum(rhs),rhsMax =  -1.49437573426781E-10  1.14098969149046E-02
 cg2d: Sum(rhs),rhsMax =  -1.54476098579437E-10  1.10322436541123E-02
 cg2d: Sum(rhs),rhsMax =  -1.59914081976353E-10  1.06537770265756E-02
 cg2d: Sum(rhs),rhsMax =  -1.65743863078660E-10  1.02746623731682E-02
 cg2d: Sum(rhs),rhsMax =  -1.72041825230451E-10  9.89506491638108E-03
 cg2d: Sum(rhs),rhsMax =  -1.78826065067028E-10  9.51514973272036E-03
 cg2d: Sum(rhs),rhsMax =  -1.86169191174201E-10  9.13508172430955E-03
 cg2d: Sum(rhs),rhsMax =  -1.94148808141392E-10  8.75502558835907E-03
 cg2d: Sum(rhs),rhsMax =  -2.02853067676756E-10  8.37514578368892E-03
 cg2d: Sum(rhs),rhsMax =  -2.12388329146052E-10  7.99560649383713E-03
 cg2d: Sum(rhs),rhsMax =  -2.22857621245964E-10  7.61657158641403E-03
 cg2d: Sum(rhs),rhsMax =  -2.34392616427215E-10  7.23820456830314E-03
 cg2d: Sum(rhs),rhsMax =  -2.47183384871619E-10  6.86066853617319E-03
 cg2d: Sum(rhs),rhsMax =  -2.61427324232955E-10  6.48412612169959E-03
 cg2d: Sum(rhs),rhsMax =  -2.68916444667866E-10  6.30324534787223E-03
 cg2d: Sum(rhs),rhsMax =  -2.59935573065917E-10  6.52073025611194E-03
 cg2d: Sum(rhs),rhsMax =  -2.51547449536815E-10  6.73644622339546E-03
 cg2d: Sum(rhs),rhsMax =  -2.43773279340331E-10  6.95030691814155E-03
 cg2d: Sum(rhs),rhsMax =  -2.36455882651754E-10  7.16221653858814E-03
 cg2d: Sum(rhs),rhsMax =  -2.29619920300017E-10  7.37208060916961E-03
 cg2d: Sum(rhs),rhsMax =  -2.23182500258545E-10  7.57980828916192E-03
 cg2d: Sum(rhs),rhsMax =  -2.17203269259336E-10  7.78531094565914E-03
 cg2d: Sum(rhs),rhsMax =  -2.11583405310134E-10  7.98850092429618E-03
 cg2d: Sum(rhs),rhsMax =  -2.06263964241948E-10  8.18929136826117E-03
 cg2d: Sum(rhs),rhsMax =  -2.01322153392525E-10  8.38759382198676E-03
 cg2d: Sum(rhs),rhsMax =  -1.96631502746847E-10  8.58332068951230E-03
 cg2d: Sum(rhs),rhsMax =  -1.92202892490556E-10  8.77638688508188E-03
 cg2d: Sum(rhs),rhsMax =  -1.88019017022256E-10  8.96671028641370E-03
 cg2d: Sum(rhs),rhsMax =  -1.84076837106417E-10  9.15421079088714E-03
 cg2d: Sum(rhs),rhsMax =  -1.80403608718294E-10  9.33880890191634E-03
 cg2d: Sum(rhs),rhsMax =  -1.76852921196513E-10  9.52042519920068E-03
 cg2d: Sum(rhs),rhsMax =  -1.73546288451121E-10  9.69898128392235E-03
 cg2d: Sum(rhs),rhsMax =  -1.70386760256491E-10  9.87439996277707E-03
 cg2d: Sum(rhs),rhsMax =  -1.67427627317807E-10  1.00466052802800E-02
 cg2d: Sum(rhs),rhsMax =  -1.64565305826869E-10  1.02155084674025E-02
 cg2d: Sum(rhs),rhsMax =  -1.61885893579239E-10  1.03810269889187E-02
 cg2d: Sum(rhs),rhsMax =  -1.59349422546029E-10  1.05430881029479E-02
 cg2d: Sum(rhs),rhsMax =  -1.56953450236585E-10  1.07016249062126E-02
 cg2d: Sum(rhs),rhsMax =  -1.54649126837825E-10  1.08565720960503E-02
 cg2d: Sum(rhs),rhsMax =  -1.52441448353358E-10  1.10078650096901E-02
 cg2d: Sum(rhs),rhsMax =  -1.50384593666786E-10  1.11554396222854E-02
 cg2d: Sum(rhs),rhsMax =  -1.48431877899924E-10  1.12992331879056E-02
 cg2d: Sum(rhs),rhsMax =  -1.46479495199969E-10  1.14391845436845E-02
 cg2d: Sum(rhs),rhsMax =  -1.44629974663246E-10  1.15752340833164E-02
 cg2d: Sum(rhs),rhsMax =  -1.42896916521806E-10  1.17073243440393E-02
 cg2d: Sum(rhs),rhsMax =  -1.41203715386951E-10  1.18353873290242E-02
 cg2d: Sum(rhs),rhsMax =  -1.39603661963861E-10  1.19593218527358E-02
 cg2d: Sum(rhs),rhsMax =  -1.38114519820931E-10  1.20790351920610E-02
 cg2d: Sum(rhs),rhsMax =  -1.36716638010626E-10  1.21944633800798E-02
 cg2d: Sum(rhs),rhsMax =  -1.35364719433539E-10  1.23055612485902E-02
 cg2d: Sum(rhs),rhsMax =  -1.34096067583300E-10  1.24122889299934E-02
 cg2d: Sum(rhs),rhsMax =  -1.32921784690154E-10  1.25146055292532E-02
 cg2d: Sum(rhs),rhsMax =  -1.31772703859667E-10  1.26124690004637E-02
 cg2d: Sum(rhs),rhsMax =  -1.30735200443155E-10  1.27058380680168E-02
 cg2d: Sum(rhs),rhsMax =  -1.29748545241171E-10  1.27946736054257E-02
 cg2d: Sum(rhs),rhsMax =  -1.28823174350146E-10  1.28789389830623E-02
 cg2d: Sum(rhs),rhsMax =  -1.27918675651983E-10  1.29585998566915E-02
 cg2d: Sum(rhs),rhsMax =  -1.27117427695111E-10  1.30336240636515E-02
 cg2d: Sum(rhs),rhsMax =  -1.26328947303023E-10  1.31039813881188E-02
 cg2d: Sum(rhs),rhsMax =  -1.25620736035614E-10  1.31696427999065E-02
 cg2d: Sum(rhs),rhsMax =  -1.24999788297941E-10  1.32305871932961E-02
 cg2d: Sum(rhs),rhsMax =  -1.24391830169657E-10  1.32868122718638E-02
 cg2d: Sum(rhs),rhsMax =  -1.23849819289035E-10  1.33383083798826E-02
 cg2d: Sum(rhs),rhsMax =  -1.23322463352338E-10  1.33850553851095E-02
 cg2d: Sum(rhs),rhsMax =  -1.22949206371459E-10  1.34270290480988E-02
 cg2d: Sum(rhs),rhsMax =  -1.22472587626987E-10  1.34642036574297E-02
 cg2d: Sum(rhs),rhsMax =  -1.22099219623806E-10  1.34965578668332E-02
 cg2d: Sum(rhs),rhsMax =  -1.21769372363190E-10  1.35240746607353E-02
 cg2d: Sum(rhs),rhsMax =  -1.21471721570288E-10  1.35467393858902E-02
 cg2d: Sum(rhs),rhsMax =  -1.21204934977470E-10  1.35645386349444E-02
 cg2d: Sum(rhs),rhsMax =  -1.21018639553938E-10  1.35774605406896E-02
 cg2d: Sum(rhs),rhsMax =  -1.20888188348545E-10  1.35854951896434E-02
 cg2d: Sum(rhs),rhsMax =  -1.20090271060747E-10  1.36681834166376E-02
 cg2d: Sum(rhs),rhsMax =  -1.19345089366618E-10  1.37502979745372E-02
 cg2d: Sum(rhs),rhsMax =  -1.18616116928649E-10  1.38272427103869E-02
 cg2d: Sum(rhs),rhsMax =  -1.17949761069269E-10  1.38989952449027E-02
 cg2d: Sum(rhs),rhsMax =  -1.17386989018087E-10  1.39655293847106E-02
 cg2d: Sum(rhs),rhsMax =  -1.16797571614313E-10  1.40268221886848E-02
 cg2d: Sum(rhs),rhsMax =  -1.16254672555272E-10  1.40828555987822E-02
 cg2d: Sum(rhs),rhsMax =  -1.15796039423799E-10  1.41336153201189E-02
 cg2d: Sum(rhs),rhsMax =  -1.15377929432725E-10  1.41790895178477E-02
 cg2d: Sum(rhs),rhsMax =  -1.15084275442712E-10  1.42192682451336E-02
 cg2d: Sum(rhs),rhsMax =  -1.14730114297856E-10  1.42541434361930E-02
 cg2d: Sum(rhs),rhsMax =  -1.14437792575472E-10  1.42837090745205E-02
 cg2d: Sum(rhs),rhsMax =  -1.14185549904278E-10  1.43079613199634E-02
 cg2d: Sum(rhs),rhsMax =  -1.14078191337796E-10  1.43268985658451E-02
 cg2d: Sum(rhs),rhsMax =  -1.14030229703133E-10  1.43405214679620E-02
 cg2d: Sum(rhs),rhsMax =  -1.14002141060610E-10  1.43488329781313E-02
 cg2d: Sum(rhs),rhsMax =  -1.14045661803175E-10  1.43518382354548E-02
 cg2d: Sum(rhs),rhsMax =  -1.14123599459504E-10  1.43495447805991E-02
 cg2d: Sum(rhs),rhsMax =  -1.14240172877089E-10  1.43419626820530E-02
 cg2d: Sum(rhs),rhsMax =  -1.14364628878150E-10  1.43290812256572E-02
 cg2d: Sum(rhs),rhsMax =  -1.14568798892378E-10  1.43108835722713E-02
 cg2d: Sum(rhs),rhsMax =  -1.14866671729885E-10  1.42873750910979E-02
 cg2d: Sum(rhs),rhsMax =  -1.15168097281071E-10  1.42585479183265E-02
 cg2d: Sum(rhs),rhsMax =  -1.15513043574822E-10  1.42243941045343E-02
 cg2d: Sum(rhs),rhsMax =  -1.15899401187392E-10  1.41849299984409E-02
 cg2d: Sum(rhs),rhsMax =  -1.16355036716698E-10  1.41401888392056E-02
 cg2d: Sum(rhs),rhsMax =  -1.16854526055477E-10  1.40902081868563E-02
 cg2d: Sum(rhs),rhsMax =  -1.17425957846251E-10  1.40350263877362E-02
 cg2d: Sum(rhs),rhsMax =  -1.18057008613448E-10  1.39746873957432E-02
 cg2d: Sum(rhs),rhsMax =  -1.18671406035276E-10  1.39092306485378E-02
 cg2d: Sum(rhs),rhsMax =  -1.19333209980255E-10  1.38386939155269E-02
 cg2d: Sum(rhs),rhsMax =  -1.20061738329014E-10  1.37631178293395E-02
 cg2d: Sum(rhs),rhsMax =  -1.20837340134017E-10  1.36825473849648E-02
 cg2d: Sum(rhs),rhsMax =  -1.21664567309665E-10  1.35970311083598E-02
 cg2d: Sum(rhs),rhsMax =  -1.22501231381023E-10  1.35066138814046E-02
 cg2d: Sum(rhs),rhsMax =  -1.23474452884409E-10  1.34113536486727E-02
 cg2d: Sum(rhs),rhsMax =  -1.24481869256954E-10  1.33113179110582E-02
 cg2d: Sum(rhs),rhsMax =  -1.25551236074273E-10  1.32065671632959E-02
 cg2d: Sum(rhs),rhsMax =  -1.26677002221243E-10  1.30971563067479E-02
 cg2d: Sum(rhs),rhsMax =  -1.27855059872672E-10  1.29831442275998E-02
 cg2d: Sum(rhs),rhsMax =  -1.29137034399207E-10  1.28645943643884E-02
 cg2d: Sum(rhs),rhsMax =  -1.30500499295749E-10  1.27415323636440E-02
 cg2d: Sum(rhs),rhsMax =  -1.31864408281501E-10  1.26139957267417E-02
 cg2d: Sum(rhs),rhsMax =  -1.33378974531695E-10  1.24820518152227E-02
 cg2d: Sum(rhs),rhsMax =  -1.34952493624496E-10  1.23457710424624E-02
 cg2d: Sum(rhs),rhsMax =  -1.36593292232590E-10  1.22052215905438E-02
 cg2d: Sum(rhs),rhsMax =  -1.38300815244463E-10  1.20604736007761E-02
 cg2d: Sum(rhs),rhsMax =  -1.40131239945163E-10  1.19116018296998E-02
 cg2d: Sum(rhs),rhsMax =  -1.42089562338299E-10  1.17586832807362E-02
 cg2d: Sum(rhs),rhsMax =  -1.44124767675891E-10  1.16017950339424E-02
 cg2d: Sum(rhs),rhsMax =  -1.46288314795129E-10  1.14410141434108E-02
 cg2d: Sum(rhs),rhsMax =  -1.48553225276515E-10  1.12764185788975E-02
 cg2d: Sum(rhs),rhsMax =  -1.50937817799957E-10  1.11080878910863E-02
 cg2d: Sum(rhs),rhsMax =  -1.53351997767004E-10  1.09361034683728E-02
 cg2d: Sum(rhs),rhsMax =  -1.55904678056373E-10  1.07605497016156E-02
 cg2d: Sum(rhs),rhsMax =  -1.58604462896506E-10  1.05815169358456E-02
 cg2d: Sum(rhs),rhsMax =  -1.61461899406135E-10  1.03990938110846E-02
 cg2d: Sum(rhs),rhsMax =  -1.64468383356819E-10  1.02133679323983E-02
 cg2d: Sum(rhs),rhsMax =  -1.67631630798581E-10  1.00244252187082E-02
 cg2d: Sum(rhs),rhsMax =  -1.70957525913451E-10  9.83235247316121E-03
 cg2d: Sum(rhs),rhsMax =  -1.74520342621776E-10  9.63723893561181E-03
 cg2d: Sum(rhs),rhsMax =  -1.78231096548132E-10  9.43917806756941E-03
 cg2d: Sum(rhs),rhsMax =  -1.82166531859096E-10  9.23826359464133E-03
 cg2d: Sum(rhs),rhsMax =  -1.86360399334617E-10  9.03458876462912E-03
 cg2d: Sum(rhs),rhsMax =  -1.90777033060030E-10  8.82824745813269E-03
 cg2d: Sum(rhs),rhsMax =  -1.95480492903854E-10  8.61933596668168E-03
 cg2d: Sum(rhs),rhsMax =  -2.00480743117737E-10  8.40795152782662E-03
 cg2d: Sum(rhs),rhsMax =  -2.05793312946234E-10  8.19419157670656E-03
 cg2d: Sum(rhs),rhsMax =  -2.11456900600648E-10  7.97815411212516E-03
 cg2d: Sum(rhs),rhsMax =  -2.17478442806479E-10  7.75993812305470E-03
 cg2d: Sum(rhs),rhsMax =  -2.23920548769740E-10  7.53964489228166E-03
 cg2d: Sum(rhs),rhsMax =  -2.30803431922055E-10  7.31739877491915E-03
 cg2d: Sum(rhs),rhsMax =  -2.38185124401546E-10  7.09331702751190E-03
 cg2d: Sum(rhs),rhsMax =  -2.46173137430361E-10  6.86750338387730E-03
 cg2d: Sum(rhs),rhsMax =  -2.54730042614781E-10  6.64005779477638E-03
 cg2d: Sum(rhs),rhsMax =  -2.63939259337320E-10  6.41108144258778E-03
 cg2d: Sum(rhs),rhsMax =  -2.73834843689258E-10  6.18067746791929E-03
 cg2d: Sum(rhs),rhsMax =  -2.84553547391653E-10  5.94895028393465E-03
 cg2d: Sum(rhs),rhsMax =  -2.79375800271708E-10  6.06057078472518E-03
 cg2d: Sum(rhs),rhsMax =  -2.63401966904553E-10  6.42878912452255E-03
 cg2d: Sum(rhs),rhsMax =  -2.49159581855452E-10  6.79782766157457E-03
 cg2d: Sum(rhs),rhsMax =  -2.36391239916145E-10  7.16751895921091E-03
 cg2d: Sum(rhs),rhsMax =  -2.24848140106815E-10  7.53769548700861E-03
 cg2d: Sum(rhs),rhsMax =  -2.14425255329331E-10  7.90818967083394E-03
 cg2d: Sum(rhs),rhsMax =  -2.04904981870868E-10  8.27883394127404E-03
 cg2d: Sum(rhs),rhsMax =  -1.96183402856320E-10  8.64946078325735E-03
 cg2d: Sum(rhs),rhsMax =  -1.88223991948178E-10  9.01990278946900E-03
 cg2d: Sum(rhs),rhsMax =  -1.80884862643893E-10  9.38999271957808E-03
 cg2d: Sum(rhs),rhsMax =  -1.74072534164793E-10  9.75956356638630E-03
 cg2d: Sum(rhs),rhsMax =  -1.67799107941846E-10  1.01284486289257E-02
 cg2d: Sum(rhs),rhsMax =  -1.62001412284951E-10  1.04964815914591E-02
 cg2d: Sum(rhs),rhsMax =  -1.56562318665010E-10  1.08634966064908E-02
 cg2d: Sum(rhs),rhsMax =  -1.51554879757043E-10  1.12293283794548E-02
 cg2d: Sum(rhs),rhsMax =  -1.46848200266447E-10  1.15938122527977E-02
 cg2d: Sum(rhs),rhsMax =  -1.42451606066629E-10  1.19567842877074E-02
 cg2d: Sum(rhs),rhsMax =  -1.38343669853214E-10  1.23180813424820E-02
 cg2d: Sum(rhs),rhsMax =  -1.34494304582233E-10  1.26775411479060E-02
 cg2d: Sum(rhs),rhsMax =  -1.30856325775142E-10  1.30350023803062E-02
 cg2d: Sum(rhs),rhsMax =  -1.27421295736951E-10  1.33903047336112E-02
 cg2d: Sum(rhs),rhsMax =  -1.24222632180704E-10  1.37432889918265E-02
 cg2d: Sum(rhs),rhsMax =  -1.21179732914811E-10  1.40937971029898E-02
 cg2d: Sum(rhs),rhsMax =  -1.18391185743860E-10  1.44416722550133E-02
 cg2d: Sum(rhs),rhsMax =  -1.15765952379832E-10  1.47867589530520E-02
 cg2d: Sum(rhs),rhsMax =  -1.13249853939124E-10  1.51289030973178E-02
 cg2d: Sum(rhs),rhsMax =  -1.10886633208906E-10  1.54679520597373E-02
 cg2d: Sum(rhs),rhsMax =  -1.08643094520744E-10  1.58037547576048E-02
 cg2d: Sum(rhs),rhsMax =  -1.06517350495494E-10  1.61361617224601E-02
 cg2d: Sum(rhs),rhsMax =  -1.04501296505077E-10  1.64650251628106E-02
 cg2d: Sum(rhs),rhsMax =  -1.02575614668865E-10  1.67901990199553E-02
 cg2d: Sum(rhs),rhsMax =  -1.00756514243017E-10  1.71115390169894E-02
 cg2d: Sum(rhs),rhsMax =  -9.90307835735393E-11  1.74289027019226E-02
 cg2d: Sum(rhs),rhsMax =  -9.73960911920813E-11  1.77421494865980E-02
 cg2d: Sum(rhs),rhsMax =  -9.57854906502575E-11  1.80511406835816E-02
 cg2d: Sum(rhs),rhsMax =  -9.43203293246597E-11  1.83557395432753E-02
 cg2d: Sum(rhs),rhsMax =  -9.28358501184334E-11  1.86558112931242E-02
 cg2d: Sum(rhs),rhsMax =  -9.14884834557483E-11  1.89512231800141E-02
 cg2d: Sum(rhs),rhsMax =  -9.01897445615418E-11  1.92418445159731E-02
 cg2d: Sum(rhs),rhsMax =  -8.89578410934178E-11  1.95275467264337E-02
 cg2d: Sum(rhs),rhsMax =  -8.77862227355308E-11  1.98082033998939E-02
 cg2d: Sum(rhs),rhsMax =  -8.66461347115433E-11  2.00836903380816E-02
 cg2d: Sum(rhs),rhsMax =  -8.55659987308854E-11  2.03538856066690E-02
 cg2d: Sum(rhs),rhsMax =  -8.45055136977635E-11  2.06186695879375E-02
 cg2d: Sum(rhs),rhsMax =  -8.35388425102224E-11  2.08779250380738E-02
 cg2d: Sum(rhs),rhsMax =  -8.25711721219591E-11  2.11315371524240E-02
 cg2d: Sum(rhs),rhsMax =  -8.17031997613071E-11  2.13793936416491E-02
 cg2d: Sum(rhs),rhsMax =  -8.08476618985310E-11  2.16213848202103E-02
 cg2d: Sum(rhs),rhsMax =  -7.99911248350327E-11  2.18574037062696E-02
 cg2d: Sum(rhs),rhsMax =  -7.92291787732324E-11  2.20873461295254E-02
 cg2d: Sum(rhs),rhsMax =  -7.85520537505136E-11  2.23111108414255E-02
 cg2d: Sum(rhs),rhsMax =  -7.78830333558744E-11  2.25285996212172E-02
 cg2d: Sum(rhs),rhsMax =  -7.72807373650153E-11  2.27397173716541E-02
 cg2d: Sum(rhs),rhsMax =  -7.66987584555068E-11  2.29443721997530E-02
 cg2d: Sum(rhs),rhsMax =  -7.61422036532622E-11  2.31424754802997E-02
 cg2d: Sum(rhs),rhsMax =  -7.55951967690294E-11  2.33339419022068E-02
 cg2d: Sum(rhs),rhsMax =  -7.50884909805904E-11  2.35186894997784E-02
 cg2d: Sum(rhs),rhsMax =  -7.46063211209957E-11  2.36966396720847E-02
 cg2d: Sum(rhs),rhsMax =  -7.41530170600413E-11  2.38677171939832E-02
 cg2d: Sum(rhs),rhsMax =  -7.37340188905478E-11  2.40318502220109E-02
 cg2d: Sum(rhs),rhsMax =  -7.33136884534247E-11  2.41889702977227E-02
 cg2d: Sum(rhs),rhsMax =  -7.29538651711437E-11  2.43390123503156E-02
 cg2d: Sum(rhs),rhsMax =  -7.25834947701287E-11  2.44819146996949E-02
 cg2d: Sum(rhs),rhsMax =  -7.22053528079414E-11  2.46176190605336E-02
 cg2d: Sum(rhs),rhsMax =  -7.19180270891684E-11  2.47460705473341E-02
 cg2d: Sum(rhs),rhsMax =  -7.16502412956288E-11  2.48672176800199E-02
 cg2d: Sum(rhs),rhsMax =  -7.13611392200164E-11  2.49810123892455E-02
 cg2d: Sum(rhs),rhsMax =  -7.11001257869270E-11  2.50874100205204E-02
 cg2d: Sum(rhs),rhsMax =  -7.08332281718071E-11  2.51863693364769E-02
 cg2d: Sum(rhs),rhsMax =  -7.06992242527349E-11  2.52778525171478E-02
 cg2d: Sum(rhs),rhsMax =  -7.05494551667130E-11  2.53618251587926E-02
 cg2d: Sum(rhs),rhsMax =  -7.03899161180743E-11  2.54382562723763E-02
 cg2d: Sum(rhs),rhsMax =  -7.02826685738955E-11  2.55071182830079E-02
 cg2d: Sum(rhs),rhsMax =  -7.01912972189689E-11  2.55683870313484E-02
 cg2d: Sum(rhs),rhsMax =  -7.00839386524876E-11  2.56220417772358E-02
 cg2d: Sum(rhs),rhsMax =  -7.00152158472633E-11  2.56680652047632E-02
 cg2d: Sum(rhs),rhsMax =  -6.99612590082666E-11  2.57064434271017E-02
 cg2d: Sum(rhs),rhsMax =  -6.99285074290401E-11  2.57371659887959E-02
 cg2d: Sum(rhs),rhsMax =  -6.99619251420813E-11  2.57602258632813E-02
 cg2d: Sum(rhs),rhsMax =  -6.98220370409786E-11  2.57756194440032E-02
 cg2d: Sum(rhs),rhsMax =  -6.97940594207580E-11  2.57833465286143E-02
 cg2d: Sum(rhs),rhsMax =  -6.97224500356697E-11  2.57834102970197E-02
 cg2d: Sum(rhs),rhsMax =  -6.97929491977334E-11  2.57758172851961E-02
 cg2d: Sum(rhs),rhsMax =  -6.97304436414470E-11  2.57605773575548E-02
 cg2d: Sum(rhs),rhsMax =  -6.97917279524063E-11  2.57377036809085E-02
 cg2d: Sum(rhs),rhsMax =  -6.98285873568238E-11  2.57072127024709E-02
 cg2d: Sum(rhs),rhsMax =  -6.98724411662965E-11  2.56691241336857E-02
 cg2d: Sum(rhs),rhsMax =  -6.99365010348174E-11  2.56234609403974E-02
 cg2d: Sum(rhs),rhsMax =  -7.00194346947569E-11  2.55702493386520E-02
 cg2d: Sum(rhs),rhsMax =  -7.01196878338806E-11  2.55095187944209E-02
 cg2d: Sum(rhs),rhsMax =  -7.02301550248308E-11  2.54413020250556E-02
 cg2d: Sum(rhs),rhsMax =  -7.03211933128500E-11  2.53656350003858E-02
 cg2d: Sum(rhs),rhsMax =  -7.05517866350647E-11  2.52825569420540E-02
 cg2d: Sum(rhs),rhsMax =  -7.07790492882054E-11  2.51921103207043E-02
 cg2d: Sum(rhs),rhsMax =  -7.09776681873109E-11  2.50943408516759E-02
 cg2d: Sum(rhs),rhsMax =  -7.12435666017086E-11  2.49892974905515E-02
 cg2d: Sum(rhs),rhsMax =  -7.15125736405753E-11  2.48770324299993E-02
 cg2d: Sum(rhs),rhsMax =  -7.18279880018713E-11  2.47576010987806E-02
 cg2d: Sum(rhs),rhsMax =  -7.21177562112985E-11  2.46310621627613E-02
 cg2d: Sum(rhs),rhsMax =  -7.24591497913707E-11  2.44974775266180E-02
 cg2d: Sum(rhs),rhsMax =  -7.28088700441276E-11  2.43569123341076E-02
 cg2d: Sum(rhs),rhsMax =  -7.31751326199515E-11  2.42094349645713E-02
 cg2d: Sum(rhs),rhsMax =  -7.35708161059279E-11  2.40551170238205E-02
 cg2d: Sum(rhs),rhsMax =  -7.39874828070697E-11  2.38940333284990E-02
 cg2d: Sum(rhs),rhsMax =  -7.44272421471237E-11  2.37262618839860E-02
 cg2d: Sum(rhs),rhsMax =  -7.49076356498790E-11  2.35518838564751E-02
 cg2d: Sum(rhs),rhsMax =  -7.53843654166531E-11  2.33709835397808E-02
 cg2d: Sum(rhs),rhsMax =  -7.58981766324496E-11  2.31836483167292E-02
 cg2d: Sum(rhs),rhsMax =  -7.64366347993928E-11  2.29899686140565E-02
 cg2d: Sum(rhs),rhsMax =  -7.70258301585613E-11  2.27900378490584E-02
 cg2d: Sum(rhs),rhsMax =  -7.76336772645436E-11  2.25839523662472E-02
 cg2d: Sum(rhs),rhsMax =  -7.82366393892175E-11  2.23718113631391E-02
 cg2d: Sum(rhs),rhsMax =  -7.89360798947314E-11  2.21537168058145E-02
 cg2d: Sum(rhs),rhsMax =  -7.96663846003298E-11  2.19297733366149E-02
 cg2d: Sum(rhs),rhsMax =  -8.04598609960294E-11  2.17000881776623E-02
 cg2d: Sum(rhs),rhsMax =  -8.12574452169201E-11  2.14647710345109E-02
 cg2d: Sum(rhs),rhsMax =  -8.21172019271899E-11  2.12239340035126E-02
 cg2d: Sum(rhs),rhsMax =  -8.30329138779007E-11  2.09776914854076E-02
 cg2d: Sum(rhs),rhsMax =  -8.39741609581779E-11  2.07261601063542E-02
 cg2d: Sum(rhs),rhsMax =  -8.49440517924904E-11  2.04694586459186E-02
 cg2d: Sum(rhs),rhsMax =  -8.59978754874646E-11  2.02077079706167E-02
 cg2d: Sum(rhs),rhsMax =  -8.70640226580122E-11  1.99410309713340E-02
 cg2d: Sum(rhs),rhsMax =  -8.82020012582529E-11  1.96695525032592E-02
 cg2d: Sum(rhs),rhsMax =  -8.93680685010168E-11  1.93933993275459E-02
 cg2d: Sum(rhs),rhsMax =  -9.05958641439497E-11  1.91127000544435E-02
 cg2d: Sum(rhs),rhsMax =  -9.18867204546814E-11  1.88275850878364E-02
 cg2d: Sum(rhs),rhsMax =  -9.32444121914955E-11  1.85381865709072E-02
 cg2d: Sum(rhs),rhsMax =  -9.46548395219793E-11  1.82446383320810E-02
 cg2d: Sum(rhs),rhsMax =  -9.61397628174154E-11  1.79470758297521E-02
 cg2d: Sum(rhs),rhsMax =  -9.77081748843034E-11  1.76456360938465E-02
 cg2d: Sum(rhs),rhsMax =  -9.93179982700099E-11  1.73404576622599E-02
 cg2d: Sum(rhs),rhsMax =  -1.01037511690549E-10  1.70316805107739E-02
 cg2d: Sum(rhs),rhsMax =  -1.02838515481096E-10  1.67194459761092E-02
 cg2d: Sum(rhs),rhsMax =  -1.04710129456009E-10  1.64038966730981E-02
 cg2d: Sum(rhs),rhsMax =  -1.06684883149910E-10  1.60851764082464E-02
 cg2d: Sum(rhs),rhsMax =  -1.08754005800904E-10  1.57634300928797E-02
 cg2d: Sum(rhs),rhsMax =  -1.10935149955083E-10  1.54388036593936E-02
 cg2d: Sum(rhs),rhsMax =  -1.13225429032582E-10  1.51114439837751E-02
 cg2d: Sum(rhs),rhsMax =  -1.15626175301031E-10  1.47814988165737E-02
 cg2d: Sum(rhs),rhsMax =  -1.18176912700108E-10  1.44491167230870E-02
 cg2d: Sum(rhs),rhsMax =  -1.20844778628282E-10  1.41144470319566E-02
 cg2d: Sum(rhs),rhsMax =  -1.23697163623149E-10  1.37776397899776E-02
 cg2d: Sum(rhs),rhsMax =  -1.26683330492483E-10  1.34388457199651E-02
 cg2d: Sum(rhs),rhsMax =  -1.29925292746691E-10  1.30982161782054E-02
 cg2d: Sum(rhs),rhsMax =  -1.33362654253233E-10  1.27559031083634E-02
 cg2d: Sum(rhs),rhsMax =  -1.37005407019331E-10  1.24120589896334E-02
 cg2d: Sum(rhs),rhsMax =  -1.40881861732112E-10  1.20668367781606E-02
 cg2d: Sum(rhs),rhsMax =  -1.44986800343361E-10  1.17203898420380E-02
 cg2d: Sum(rhs),rhsMax =  -1.49346424116459E-10  1.13728718912046E-02
 cg2d: Sum(rhs),rhsMax =  -1.54017909537174E-10  1.10244369041612E-02
 cg2d: Sum(rhs),rhsMax =  -1.58998925137155E-10  1.06752390534903E-02
 cg2d: Sum(rhs),rhsMax =  -1.64300906213555E-10  1.03254326317784E-02
 cg2d: Sum(rhs),rhsMax =  -1.69994240906135E-10  9.97517197884044E-03
 cg2d: Sum(rhs),rhsMax =  -1.76108905236561E-10  9.62461141029033E-03
 cg2d: Sum(rhs),rhsMax =  -1.82655113256658E-10  9.27390514668210E-03
 cg2d: Sum(rhs),rhsMax =  -1.89740501088664E-10  8.92320724179636E-03
 cg2d: Sum(rhs),rhsMax =  -1.97394378620430E-10  8.57267150827460E-03
 cg2d: Sum(rhs),rhsMax =  -2.05716610413020E-10  8.22245143878935E-03
 cg2d: Sum(rhs),rhsMax =  -2.14774309448273E-10  7.87270012130844E-03
 cg2d: Sum(rhs),rhsMax =  -2.24667617843011E-10  7.52357014775749E-03
 cg2d: Sum(rhs),rhsMax =  -2.35486352639924E-10  7.17521351642425E-03
 cg2d: Sum(rhs),rhsMax =  -2.47387832441603E-10  6.82778152964707E-03
 cg2d: Sum(rhs),rhsMax =  -2.60468202561981E-10  6.48142468948465E-03
 cg2d: Sum(rhs),rhsMax =  -2.75005906935633E-10  6.13629259495150E-03
 cg2d: Sum(rhs),rhsMax =  -2.67510125162573E-10  6.30745722222752E-03
 cg2d: Sum(rhs),rhsMax =  -2.59767540811140E-10  6.49257471008917E-03
 cg2d: Sum(rhs),rhsMax =  -2.52537074585391E-10  6.67590876796754E-03
 cg2d: Sum(rhs),rhsMax =  -2.45751696770213E-10  6.85737326858256E-03
 cg2d: Sum(rhs),rhsMax =  -2.39408534663532E-10  7.03690168796323E-03
 cg2d: Sum(rhs),rhsMax =  -2.33417389583490E-10  7.21443032423978E-03
 cg2d: Sum(rhs),rhsMax =  -2.27825216157773E-10  7.38988497254692E-03
 cg2d: Sum(rhs),rhsMax =  -2.22539497246599E-10  7.56318338659614E-03
 cg2d: Sum(rhs),rhsMax =  -2.17507886701718E-10  7.73424144761717E-03
 cg2d: Sum(rhs),rhsMax =  -2.12805301158525E-10  7.90297679655532E-03
 cg2d: Sum(rhs),rhsMax =  -2.08344286267703E-10  8.06930946330588E-03
 cg2d: Sum(rhs),rhsMax =  -2.04116362700901E-10  8.23316132861726E-03
 cg2d: Sum(rhs),rhsMax =  -2.00108984937941E-10  8.39445507139846E-03
 cg2d: Sum(rhs),rhsMax =  -1.96372224037233E-10  8.55311213497798E-03
 cg2d: Sum(rhs),rhsMax =  -1.92786980823811E-10  8.70905677167512E-03
 cg2d: Sum(rhs),rhsMax =  -1.89374071979387E-10  8.86221101488706E-03
 cg2d: Sum(rhs),rhsMax =  -1.86143045421971E-10  9.01246339788173E-03
 cg2d: Sum(rhs),rhsMax =  -1.83104809092782E-10  9.15971584740378E-03
 cg2d: Sum(rhs),rhsMax =  -1.80202019972597E-10  9.30389202291445E-03
 cg2d: Sum(rhs),rhsMax =  -1.76729297862721E-10  9.48358738938848E-03
 cg2d: Sum(rhs),rhsMax =  -1.72447833790557E-10  9.71608961106687E-03
 cg2d: Sum(rhs),rhsMax =  -1.68406122380560E-10  9.94515098274014E-03
 cg2d: Sum(rhs),rhsMax =  -1.64617097730968E-10  1.01706838873352E-02
 cg2d: Sum(rhs),rhsMax =  -1.61033464340932E-10  1.03926033030552E-02
 cg2d: Sum(rhs),rhsMax =  -1.57634016950681E-10  1.06108258411008E-02
 cg2d: Sum(rhs),rhsMax =  -1.54427082232900E-10  1.08252696111657E-02
 cg2d: Sum(rhs),rhsMax =  -1.51330226128010E-10  1.10358544480403E-02
 cg2d: Sum(rhs),rhsMax =  -1.48470513661181E-10  1.12425020918700E-02
 cg2d: Sum(rhs),rhsMax =  -1.45696066322643E-10  1.14451362590353E-02
 cg2d: Sum(rhs),rhsMax =  -1.43123679574586E-10  1.16436826283884E-02
 cg2d: Sum(rhs),rhsMax =  -1.40674027981902E-10  1.18380687959012E-02
 cg2d: Sum(rhs),rhsMax =  -1.38325018106400E-10  1.20282242717360E-02
 cg2d: Sum(rhs),rhsMax =  -1.36147648710505E-10  1.22140804172200E-02
 cg2d: Sum(rhs),rhsMax =  -1.34063093959469E-10  1.23955703714295E-02
 cg2d: Sum(rhs),rhsMax =  -1.32074351455458E-10  1.25726023949600E-02
 cg2d: Sum(rhs),rhsMax =  -1.30195854097792E-10  1.27450801924206E-02
 cg2d: Sum(rhs),rhsMax =  -1.28412280808732E-10  1.29129295832147E-02
 cg2d: Sum(rhs),rhsMax =  -1.26736288130758E-10  1.30760925382527E-02
 cg2d: Sum(rhs),rhsMax =  -1.25156551789019E-10  1.32344762170718E-02
 cg2d: Sum(rhs),rhsMax =  -1.23623666858919E-10  1.33879980530731E-02
 cg2d: Sum(rhs),rhsMax =  -1.22202359342793E-10  1.35365987543539E-02
 cg2d: Sum(rhs),rhsMax =  -1.20842447159930E-10  1.36802339416391E-02
 cg2d: Sum(rhs),rhsMax =  -1.19566467837728E-10  1.38188611034309E-02
 cg2d: Sum(rhs),rhsMax =  -1.18375309554608E-10  1.39524424329628E-02
 cg2d: Sum(rhs),rhsMax =  -1.17205911642770E-10  1.40809366207230E-02
 cg2d: Sum(rhs),rhsMax =  -1.16170628672307E-10  1.42042962839189E-02
 cg2d: Sum(rhs),rhsMax =  -1.15101705944198E-10  1.43224735484519E-02
 cg2d: Sum(rhs),rhsMax =  -1.14098286374542E-10  1.44354243819373E-02
 cg2d: Sum(rhs),rhsMax =  -1.13164366766227E-10  1.45431092208643E-02
 cg2d: Sum(rhs),rhsMax =  -1.12280518216323E-10  1.46454916029317E-02
 cg2d: Sum(rhs),rhsMax =  -1.11442521877336E-10  1.47425313617050E-02
 cg2d: Sum(rhs),rhsMax =  -1.10670361763709E-10  1.48341904189740E-02
 cg2d: Sum(rhs),rhsMax =  -1.09940279102716E-10  1.49204417685681E-02
 cg2d: Sum(rhs),rhsMax =  -1.09308451179402E-10  1.50012697588127E-02
 cg2d: Sum(rhs),rhsMax =  -1.08690390021593E-10  1.50766539049216E-02
 cg2d: Sum(rhs),rhsMax =  -1.08115294494837E-10  1.51465676882786E-02
 cg2d: Sum(rhs),rhsMax =  -1.07644448910094E-10  1.52109842879746E-02
 cg2d: Sum(rhs),rhsMax =  -1.07175934793702E-10  1.52698810406184E-02
 cg2d: Sum(rhs),rhsMax =  -1.06755826401184E-10  1.53232400089101E-02
 cg2d: Sum(rhs),rhsMax =  -1.06333830629524E-10  1.53710463331242E-02
 cg2d: Sum(rhs),rhsMax =  -1.05948250173071E-10  1.54132862557103E-02
(PID.TID 0000.0001)      cg2d_init_res =   1.25537815367229E-02
(PID.TID 0000.0001)      cg2d_iters(min,last) =      -1      36
(PID.TID 0000.0001)      cg2d_last_res =   7.10744973379172E-14
(PID.TID 0000.0001) // =======================================================
(PID.TID 0000.0001) // Begin MONITOR dynamic field statistics
(PID.TID 0000.0001) // =======================================================
(PID.TID 0000.0001) %MON time_tsnumber                =                  5280
(PID.TID 0000.0001) %MON time_secondsf                =   7.9200000000000E+04
(PID.TID 0000.0001) %MON dynstat_eta_max              =   2.8153301147813E-03
(PID.TID 0000.0001) %MON dynstat_eta_min              =  -3.0201396304198E-03
(PID.TID 0000.0001) %MON dynstat_eta_mean             =   3.5989404529897E-15
(PID.TID 0000.0001) %MON dynstat_eta_sd               =   1.8103983776785E-03
(PID.TID 0000.0001) %MON dynstat_eta_del2             =   6.8714989947648E-06
(PID.TID 0000.0001) %MON dynstat_uvel_max             =   4.4325917255024E-01
(PID.TID 0000.0001) %MON dynstat_uvel_min             =  -4.7370639644323E-01
(PID.TID 0000.0001) %MON dynstat_uvel_mean            =   1.1331672619374E-01
(PID.TID 0000.0001) %MON dynstat_uvel_sd              =   4.2627717059606E-02
(PID.TID 0000.0001) %MON dynstat_uvel_del2            =   1.0576141638252E-04
(PID.TID 0000.0001) %MON dynstat_vvel_max             =   0.0000000000000E+00
(PID.TID 0000.0001) %MON dynstat_vvel_min             =   0.0000000000000E+00
(PID.TID 0000.0001) %MON dynstat_vvel_mean            =   0.0000000000000E+00
(PID.TID 0000.0001) %MON dynstat_vvel_sd              =   0.0000000000000E+00
(PID.TID 0000.0001) %MON dynstat_vvel_del2            =   0.0000000000000E+00
(PID.TID 0000.0001) %MON dynstat_wvel_max             =   2.5694168367386E-03
(PID.TID 0000.0001) %MON dynstat_wvel_min             =  -5.1620613450006E-03
(PID.TID 0000.0001) %MON dynstat_wvel_mean            =   2.2221664297021E-21
(PID.TID 0000.0001) %MON dynstat_wvel_sd              =   3.1173948476007E-04
(PID.TID 0000.0001) %MON dynstat_wvel_del2            =   5.7201429962943E-06
(PID.TID 0000.0001) %MON dynstat_theta_max            =   1.5000000000017E+01
(PID.TID 0000.0001) %MON dynstat_theta_min            =   9.9999999999908E+00
(PID.TID 0000.0001) %MON dynstat_theta_mean           =   1.4032650444925E+01
(PID.TID 0000.0001) %MON dynstat_theta_sd             =   1.8956309109809E+00
(PID.TID 0000.0001) %MON dynstat_theta_del2           =   3.5734926268218E-04
(PID.TID 0000.0001) %MON dynstat_salt_max             =   3.5000000000000E+01
(PID.TID 0000.0001) %MON dynstat_salt_min             =   3.5000000000000E+01
(PID.TID 0000.0001) %MON dynstat_salt_mean            =   3.5000000000000E+01
(PID.TID 0000.0001) %MON dynstat_salt_sd              =   3.0553337637684E-13
(PID.TID 0000.0001) %MON dynstat_salt_del2            =   0.0000000000000E+00
(PID.TID 0000.0001) %MON dynstat_sst_max              =   1.5000000000000E+01
(PID.TID 0000.0001) %MON dynstat_sst_min              =   1.4999999999998E+01
(PID.TID 0000.0001) %MON dynstat_sst_mean             =   1.5000000000000E+01
(PID.TID 0000.0001) %MON dynstat_sst_sd               =   4.5570998586078E-13
(PID.TID 0000.0001) %MON dynstat_sst_del2             =   1.0821197548367E-14
(PID.TID 0000.0001) %MON dynstat_sss_max              =   3.5000000000000E+01
(PID.TID 0000.0001) %MON dynstat_sss_min              =   3.5000000000000E+01
(PID.TID 0000.0001) %MON dynstat_sss_mean             =   3.5000000000000E+01
(PID.TID 0000.0001) %MON dynstat_sss_sd               =   2.8421709430404E-14
(PID.TID 0000.0001) %MON dynstat_sss_del2             =   0.0000000000000E+00
(PID.TID 0000.0001) %MON forcing_qnet_max             =   0.0000000000000E+00
(PID.TID 0000.0001) %MON forcing_qnet_min             =   0.0000000000000E+00
(PID.TID 0000.0001) %MON forcing_qnet_mean            =   0.0000000000000E+00
(PID.TID 0000.0001) %MON forcing_qnet_sd              =   0.0000000000000E+00
(PID.TID 0000.0001) %MON forcing_qnet_del2            =   0.0000000000000E+00
(PID.TID 0000.0001) %MON forcing_qsw_max              =   0.0000000000000E+00
(PID.TID 0000.0001) %MON forcing_qsw_min              =   0.0000000000000E+00
(PID.TID 0000.0001) %MON forcing_qsw_mean             =   0.0000000000000E+00
(PID.TID 0000.0001) %MON forcing_qsw_sd               =   0.0000000000000E+00
(PID.TID 0000.0001) %MON forcing_qsw_del2             =   0.0000000000000E+00
(PID.TID 0000.0001) %MON forcing_empmr_max            =   0.0000000000000E+00
(PID.TID 0000.0001) %MON forcing_empmr_min            =   0.0000000000000E+00
(PID.TID 0000.0001) %MON forcing_empmr_mean           =   0.0000000000000E+00
(PID.TID 0000.0001) %MON forcing_empmr_sd             =   0.0000000000000E+00
(PID.TID 0000.0001) %MON forcing_empmr_del2           =   0.0000000000000E+00
(PID.TID 0000.0001) %MON forcing_fu_max               =   0.0000000000000E+00
(PID.TID 0000.0001) %MON forcing_fu_min               =   0.0000000000000E+00
(PID.TID 0000.0001) %MON forcing_fu_mean              =   0.0000000000000E+00
(PID.TID 0000.0001) %MON forcing_fu_sd                =   0.0000000000000E+00
(PID.TID 0000.0001) %MON forcing_fu_del2              =   0.0000000000000E+00
(PID.TID 0000.0001) %MON forcing_fv_max               =   0.0000000000000E+00
(PID.TID 0000.0001) %MON forcing_fv_min               =   0.0000000000000E+00
(PID.TID 0000.0001) %MON forcing_fv_mean              =   0.0000000000000E+00
(PID.TID 0000.0001) %MON forcing_fv_sd                =   0.0000000000000E+00
(PID.TID 0000.0001) %MON forcing_fv_del2              =   0.0000000000000E+00
(PID.TID 0000.0001) %MON advcfl_uvel_max              =   3.5527979733242E-02
(PID.TID 0000.0001) %MON advcfl_vvel_max              =   0.0000000000000E+00
(PID.TID 0000.0001) %MON advcfl_wvel_max              =   2.3087700712648E-02
(PID.TID 0000.0001) %MON advcfl_W_hf_max              =   3.5527979733242E-02
(PID.TID 0000.0001) %MON pe_b_mean                    =   8.1232835002947E-08
(PID.TID 0000.0001) %MON ke_max                       =   5.6099437507808E-02
(PID.TID 0000.0001) %MON ke_mean                      =   7.3390719544707E-03
(PID.TID 0000.0001) %MON ke_vol                       =   9.6656965507697E+10
(PID.TID 0000.0001) %MON vort_r_min                   =   0.0000000000000E+00
(PID.TID 0000.0001) %MON vort_r_max                   =   0.0000000000000E+00
(PID.TID 0000.0001) %MON vort_a_mean                  =   0.0000000000000E+00
(PID.TID 0000.0001) %MON vort_a_sd                    =   0.0000000000000E+00
(PID.TID 0000.0001) %MON vort_p_mean                  =   0.0000000000000E+00
(PID.TID 0000.0001) %MON vort_p_sd                    =   0.0000000000000E+00
(PID.TID 0000.0001) %MON surfExpan_theta_mean         =  -5.4556188333717E-21
(PID.TID 0000.0001) %MON surfExpan_salt_mean          =  -1.4821825246504E-19
(PID.TID 0000.0001) // =======================================================
(PID.TID 0000.0001) // End MONITOR dynamic field statistics
(PID.TID 0000.0001) // =======================================================
(PID.TID 0000.0001) // =======================================================
(PID.TID 0000.0001) // Begin OBCS MONITOR field statistics
(PID.TID 0000.0001) // =======================================================
(PID.TID 0000.0001) %MON obc_E_uVel_max               =   1.1205712828732E-01
(PID.TID 0000.0001) %MON obc_E_uVel_min               =   1.1205712828732E-01
(PID.TID 0000.0001) %MON obc_E_uVel_mean              =   1.1205712828732E-01
(PID.TID 0000.0001) %MON obc_E_uVel_sd                =   0.0000000000000E+00
(PID.TID 0000.0001) %MON obc_E_uVel_Int               =   1.1205712828732E+05
(PID.TID 0000.0001) %MON obc_W_uVel_max               =   1.1205712828732E-01
(PID.TID 0000.0001) %MON obc_W_uVel_min               =   1.1205712828732E-01
(PID.TID 0000.0001) %MON obc_W_uVel_mean              =   1.1205712828732E-01
(PID.TID 0000.0001) %MON obc_W_uVel_sd                =   0.0000000000000E+00
(PID.TID 0000.0001) %MON obc_W_uVel_Int               =   1.1205712828732E+05
(PID.TID 0000.0001) // =======================================================
(PID.TID 0000.0001) // End OBCS MONITOR field statistics
(PID.TID 0000.0001) // =======================================================
 cg2d: Sum(rhs),rhsMax =  -1.05622066648436E-10  1.54499424624959E-02
 cg2d: Sum(rhs),rhsMax =  -1.05374264869340E-10  1.54809728498772E-02
 cg2d: Sum(rhs),rhsMax =  -1.05135233852138E-10  1.55063473435916E-02
 cg2d: Sum(rhs),rhsMax =  -1.04944497536508E-10  1.55260558699419E-02
 cg2d: Sum(rhs),rhsMax =  -1.04842245995940E-10  1.55401002068526E-02
 cg2d: Sum(rhs),rhsMax =  -1.04723452132305E-10  1.55484867555434E-02
 cg2d: Sum(rhs),rhsMax =  -1.04563691039061E-10  1.55512222869786E-02
 cg2d: Sum(rhs),rhsMax =  -1.04670938583240E-10  1.55483134392221E-02
 cg2d: Sum(rhs),rhsMax =  -1.04769748432432E-10  1.55397683220085E-02
 cg2d: Sum(rhs),rhsMax =  -1.04934505529286E-10  1.55255971121627E-02
 cg2d: Sum(rhs),rhsMax =  -1.05153663554347E-10  1.55058126059377E-02
 cg2d: Sum(rhs),rhsMax =  -1.05389030835568E-10  1.54804304107290E-02
 cg2d: Sum(rhs),rhsMax =  -1.05734532240831E-10  1.54494697391652E-02
 cg2d: Sum(rhs),rhsMax =  -1.06042841174769E-10  1.54129584775766E-02
 cg2d: Sum(rhs),rhsMax =  -1.06346931261214E-10  1.53709230992076E-02
 cg2d: Sum(rhs),rhsMax =  -1.06732844784574E-10  1.53233908679630E-02
 cg2d: Sum(rhs),rhsMax =  -1.07189923603812E-10  1.52703884791971E-02
 cg2d: Sum(rhs),rhsMax =  -1.07638231661156E-10  1.52119443917120E-02
 cg2d: Sum(rhs),rhsMax =  -1.08167697021599E-10  1.51480905620836E-02
 cg2d: Sum(rhs),rhsMax =  -1.08748787752688E-10  1.50788625175659E-02
 cg2d: Sum(rhs),rhsMax =  -1.09362630063004E-10  1.50042983500776E-02
 cg2d: Sum(rhs),rhsMax =  -1.10006559417286E-10  1.49244383069666E-02
 cg2d: Sum(rhs),rhsMax =  -1.10721543045145E-10  1.48393246383436E-02
 cg2d: Sum(rhs),rhsMax =  -1.11525233492671E-10  1.47490019965990E-02
 cg2d: Sum(rhs),rhsMax =  -1.12323039758166E-10  1.46535174770614E-02
 cg2d: Sum(rhs),rhsMax =  -1.13203890705904E-10  1.45529209256559E-02
 cg2d: Sum(rhs),rhsMax =  -1.14166676112859E-10  1.44472655871554E-02
 cg2d: Sum(rhs),rhsMax =  -1.15104814568667E-10  1.43366050859941E-02
 cg2d: Sum(rhs),rhsMax =  -1.16092579993676E-10  1.42209937424957E-02
 cg2d: Sum(rhs),rhsMax =  -1.17161502721785E-10  1.41004878098621E-02
 cg2d: Sum(rhs),rhsMax =  -1.18283716155076E-10  1.39751460915971E-02
 cg2d: Sum(rhs),rhsMax =  -1.19447340907186E-10  1.38450460758381E-02
 cg2d: Sum(rhs),rhsMax =  -1.20685461624248E-10  1.37102658164375E-02
 cg2d: Sum(rhs),rhsMax =  -1.21987309142924E-10  1.35708768815456E-02
 cg2d: Sum(rhs),rhsMax =  -1.23368260052104E-10  1.34269458020099E-02
 cg2d: Sum(rhs),rhsMax =  -1.24830201730930E-10  1.32785380747478E-02
 cg2d: Sum(rhs),rhsMax =  -1.26351928919632E-10  1.31257210083832E-02
 cg2d: Sum(rhs),rhsMax =  -1.27962918039515E-10  1.29685646902964E-02
 cg2d: Sum(rhs),rhsMax =  -1.29666999360012E-10  1.28071417616597E-02
 cg2d: Sum(rhs),rhsMax =  -1.31450406115619E-10  1.26415237415241E-02
 cg2d: Sum(rhs),rhsMax =  -1.33369260080229E-10  1.24717843050127E-02
 cg2d: Sum(rhs),rhsMax =  -1.35358890762660E-10  1.22980003435576E-02
 cg2d: Sum(rhs),rhsMax =  -1.37437339287061E-10  1.21202510584905E-02
 cg2d: Sum(rhs),rhsMax =  -1.39654676711842E-10  1.19386175785606E-02
 cg2d: Sum(rhs),rhsMax =  -1.41962774868887E-10  1.17531816440073E-02
 cg2d: Sum(rhs),rhsMax =  -1.44395051471236E-10  1.15640260212930E-02
 cg2d: Sum(rhs),rhsMax =  -1.46957446212070E-10  1.13712352250129E-02
 cg2d: Sum(rhs),rhsMax =  -1.49662393589267E-10  1.11748959625691E-02
 cg2d: Sum(rhs),rhsMax =  -1.52515611251403E-10  1.09750967260961E-02
 cg2d: Sum(rhs),rhsMax =  -1.55503276921820E-10  1.07719189043089E-02
 cg2d: Sum(rhs),rhsMax =  -1.58615898193659E-10  1.05654419149653E-02
 cg2d: Sum(rhs),rhsMax =  -1.61895552519553E-10  1.03557516367178E-02
 cg2d: Sum(rhs),rhsMax =  -1.65349678393767E-10  1.01429407346155E-02
 cg2d: Sum(rhs),rhsMax =  -1.68995262228577E-10  9.92710508757483E-03
 cg2d: Sum(rhs),rhsMax =  -1.72843794832289E-10  9.70834169088928E-03
 cg2d: Sum(rhs),rhsMax =  -1.76939407570131E-10  9.48674808236100E-03
 cg2d: Sum(rhs),rhsMax =  -1.81311743396861E-10  9.26242205890350E-03
 cg2d: Sum(rhs),rhsMax =  -1.85907372829419E-10  9.03546204030899E-03
 cg2d: Sum(rhs),rhsMax =  -1.90825327761601E-10  8.80596728044276E-03
 cg2d: Sum(rhs),rhsMax =  -1.96081539893811E-10  8.57403789964370E-03
 cg2d: Sum(rhs),rhsMax =  -2.01667890720181E-10  8.33977482914673E-03
 cg2d: Sum(rhs),rhsMax =  -2.07639197502552E-10  8.10325143093999E-03
 cg2d: Sum(rhs),rhsMax =  -2.14018060218368E-10  7.86451711345148E-03
 cg2d: Sum(rhs),rhsMax =  -2.20855285448796E-10  7.62364538389366E-03
 cg2d: Sum(rhs),rhsMax =  -2.28226024884259E-10  7.38073670530742E-03
 cg2d: Sum(rhs),rhsMax =  -2.36145200616100E-10  7.13590376975050E-03
 cg2d: Sum(rhs),rhsMax =  -2.44689435380252E-10  6.88925970618352E-03
 cg2d: Sum(rhs),rhsMax =  -2.53927490145855E-10  6.64091432334955E-03
 cg2d: Sum(rhs),rhsMax =  -2.63975868941557E-10  6.39097535693528E-03
 cg2d: Sum(rhs),rhsMax =  -2.74892331120213E-10  6.13955341745211E-03
 cg2d: Sum(rhs),rhsMax =  -2.86829893170193E-10  5.88676044595945E-03
 cg2d: Sum(rhs),rhsMax =  -2.82982248744901E-10  5.96817114329144E-03
 cg2d: Sum(rhs),rhsMax =  -2.67832866995832E-10  6.30630561968086E-03
 cg2d: Sum(rhs),rhsMax =  -2.54238075036994E-10  6.64543519668810E-03
 cg2d: Sum(rhs),rhsMax =  -2.41962505587168E-10  6.98540770508000E-03
 cg2d: Sum(rhs),rhsMax =  -2.30803820500114E-10  7.32607080845646E-03
 cg2d: Sum(rhs),rhsMax =  -2.20604257084034E-10  7.66727207489284E-03
 cg2d: Sum(rhs),rhsMax =  -2.11252626503011E-10  8.00885903834983E-03
 cg2d: Sum(rhs),rhsMax =  -2.02690142447892E-10  8.35067925009561E-03
 cg2d: Sum(rhs),rhsMax =  -1.94788851715089E-10  8.69258032249376E-03
 cg2d: Sum(rhs),rhsMax =  -1.87520110550565E-10  9.03440996920609E-03
 cg2d: Sum(rhs),rhsMax =  -1.80773285229918E-10  9.37601604619870E-03
 cg2d: Sum(rhs),rhsMax =  -1.74506853412026E-10  9.71724659678614E-03
 cg2d: Sum(rhs),rhsMax =  -1.68653535581598E-10  1.00579499016734E-02
 cg2d: Sum(rhs),rhsMax =  -1.63225544191903E-10  1.03979745323539E-02
 cg2d: Sum(rhs),rhsMax =  -1.58122070992306E-10  1.07371694042630E-02
 cg2d: Sum(rhs),rhsMax =  -1.53343338027412E-10  1.10753838254910E-02
 cg2d: Sum(rhs),rhsMax =  -1.48875356487110E-10  1.14124675378666E-02
 cg2d: Sum(rhs),rhsMax =  -1.44670275759040E-10  1.17482707494737E-02
 cg2d: Sum(rhs),rhsMax =  -1.40712774765461E-10  1.20826441603824E-02
 cg2d: Sum(rhs),rhsMax =  -1.36976985309900E-10  1.24154389856315E-02
 cg2d: Sum(rhs),rhsMax =  -1.33476119046350E-10  1.27465069805816E-02
 cg2d: Sum(rhs),rhsMax =  -1.30145338950172E-10  1.30757004734165E-02
 cg2d: Sum(rhs),rhsMax =  -1.27091004387125E-10  1.34028724080385E-02
 cg2d: Sum(rhs),rhsMax =  -1.24191101846804E-10  1.37278763985456E-02
 cg2d: Sum(rhs),rhsMax =  -1.21428200827722E-10  1.40505667946217E-02
 cg2d: Sum(rhs),rhsMax =  -1.18848375585401E-10  1.43707987560596E-02
 cg2d: Sum(rhs),rhsMax =  -1.16370801883647E-10  1.46884283344124E-02
 cg2d: Sum(rhs),rhsMax =  -1.14023679387287E-10  1.50033125601727E-02
 cg2d: Sum(rhs),rhsMax =  -1.11795905866074E-10  1.53153095343881E-02
 cg2d: Sum(rhs),rhsMax =  -1.09719233698513E-10  1.56242785238132E-02
 cg2d: Sum(rhs),rhsMax =  -1.07702624596584E-10  1.59300800583674E-02
 cg2d: Sum(rhs),rhsMax =  -1.05800035399284E-10  1.62325760290253E-02
 cg2d: Sum(rhs),rhsMax =  -1.03973607501473E-10  1.65316297837537E-02
 cg2d: Sum(rhs),rhsMax =  -1.02249542166533E-10  1.68271062191742E-02
 cg2d: Sum(rhs),rhsMax =  -1.00597419283588E-10  1.71188718664933E-02
 cg2d: Sum(rhs),rhsMax =  -9.90247883692064E-11  1.74067949717213E-02
 cg2d: Sum(rhs),rhsMax =  -9.75270975089870E-11  1.76907455718208E-02
 cg2d: Sum(rhs),rhsMax =  -9.61000168331339E-11  1.79705955695582E-02
 cg2d: Sum(rhs),rhsMax =  -9.47137923645869E-11  1.82462188100300E-02
 cg2d: Sum(rhs),rhsMax =  -9.33854105156229E-11  1.85174911609623E-02
 cg2d: Sum(rhs),rhsMax =  -9.21409615273205E-11  1.87842905972291E-02
 cg2d: Sum(rhs),rhsMax =  -9.09400332815835E-11  1.90464972881416E-02
 cg2d: Sum(rhs),rhsMax =  -8.98138230454038E-11  1.93039936845522E-02
 cg2d: Sum(rhs),rhsMax =  -8.87069306898525E-11  1.95566646021684E-02
 cg2d: Sum(rhs),rhsMax =  -8.76653194481491E-11  1.98043972978490E-02
 cg2d: Sum(rhs),rhsMax =  -8.66656746367767E-11  2.00470815369128E-02
 cg2d: Sum(rhs),rhsMax =  -8.57279802701783E-11  2.02846096511989E-02
 cg2d: Sum(rhs),rhsMax =  -8.47965031525177E-11  2.05168765892651E-02
 cg2d: Sum(rhs),rhsMax =  -8.39228686544402E-11  2.07437799612124E-02
 cg2d: Sum(rhs),rhsMax =  -8.31151814040254E-11  2.09652200808883E-02
 cg2d: Sum(rhs),rhsMax =  -8.23002777039505E-11  2.11811000075968E-02
 cg2d: Sum(rhs),rhsMax =  -8.16100520495411E-11  2.13913255881721E-02
 cg2d: Sum(rhs),rhsMax =  -8.09563527326418E-11  2.15958054987265E-02
 cg2d: Sum(rhs),rhsMax =  -8.02919952747061E-11  2.17944512840770E-02
 cg2d: Sum(rhs),rhsMax =  -7.97182320155798E-11  2.19871773921986E-02
 cg2d: Sum(rhs),rhsMax =  -7.91126053556468E-11  2.21739012013142E-02
 cg2d: Sum(rhs),rhsMax =  -7.85876919096040E-11  2.23545430384014E-02
 cg2d: Sum(rhs),rhsMax =  -7.80420172930008E-11  2.25290261897073E-02
 cg2d: Sum(rhs),rhsMax =  -7.75113306872299E-11  2.26972769058036E-02
 cg2d: Sum(rhs),rhsMax =  -7.70721264586882E-11  2.28592244051896E-02
 cg2d: Sum(rhs),rhsMax =  -7.66124941264934E-11  2.30148008809524E-02
 cg2d: Sum(rhs),rhsMax =  -7.61908314217408E-11  2.31639415142399E-02
 cg2d: Sum(rhs),rhsMax =  -7.57988116717456E-11  2.33065844964001E-02
 cg2d: Sum(rhs),rhsMax =  -7.54083462339850E-11  2.34426710590435E-02
 cg2d: Sum(rhs),rhsMax =  -7.50760564827146E-11  2.35721455087276E-02
 cg2d: Sum(rhs),rhsMax =  -7.47407691292779E-11  2.36949552612099E-02
 cg2d: Sum(rhs),rhsMax =  -7.44120320916863E-11  2.38110508698639E-02
 cg2d: Sum(rhs),rhsMax =  -7.41355865585547E-11  2.39203860440733E-02
 cg2d: Sum(rhs),rhsMax =  -7.38384908771650E-11  2.40229176559404E-02
 cg2d: Sum(rhs),rhsMax =  -7.36017913283149E-11  2.41186057367325E-02
 cg2d: Sum(rhs),rhsMax =  -7.34233784882576E-11  2.42074134672335E-02
 cg2d: Sum(rhs),rhsMax =  -7.32813809634081E-11  2.42893071677183E-02
 cg2d: Sum(rhs),rhsMax =  -7.31139593312946E-11  2.43642562931422E-02
 cg2d: Sum(rhs),rhsMax =  -7.29901694640489E-11  2.44322334373380E-02
 cg2d: Sum(rhs),rhsMax =  -7.28671567529204E-11  2.44932143470711E-02
 cg2d: Sum(rhs),rhsMax =  -7.27775617548332E-11  2.45471779435455E-02
 cg2d: Sum(rhs),rhsMax =  -7.26864124445115E-11  2.45941063463412E-02
 cg2d: Sum(rhs),rhsMax =  -7.25990378924735E-11  2.46339848935042E-02
 cg2d: Sum(rhs),rhsMax =  -7.25229876152866E-11  2.46668021519806E-02
 cg2d: Sum(rhs),rhsMax =  -7.25230986375891E-11  2.46925499146369E-02
 cg2d: Sum(rhs),rhsMax =  -7.24920123928996E-11  2.47112231831985E-02
 cg2d: Sum(rhs),rhsMax =  -7.24257320783295E-11  2.47228201397266E-02
 cg2d: Sum(rhs),rhsMax =  -7.23598958529692E-11  2.47273421118836E-02
 cg2d: Sum(rhs),rhsMax =  -7.22703008548820E-11  2.47247935385360E-02
 cg2d: Sum(rhs),rhsMax =  -7.22730764124435E-11  2.47151819418315E-02
 cg2d: Sum(rhs),rhsMax =  -7.22329973612545E-11  2.46985179102564E-02
 cg2d: Sum(rhs),rhsMax =  -7.22994997204296E-11  2.46748150938205E-02
 cg2d: Sum(rhs),rhsMax =  -7.23312520989339E-11  2.46440902096317E-02
 cg2d: Sum(rhs),rhsMax =  -7.24118542905217E-11  2.46063630533091E-02
 cg2d: Sum(rhs),rhsMax =  -7.24739157575982E-11  2.45616565101213E-02
 cg2d: Sum(rhs),rhsMax =  -7.25541848822786E-11  2.45099965596236E-02
 cg2d: Sum(rhs),rhsMax =  -7.26748661250554E-11  2.44514122688119E-02
 cg2d: Sum(rhs),rhsMax =  -7.27889970519868E-11  2.43859357709488E-02
 cg2d: Sum(rhs),rhsMax =  -7.29130089638375E-11  2.43136022296091E-02
 cg2d: Sum(rhs),rhsMax =  -7.30857596664691E-11  2.42344497895013E-02
 cg2d: Sum(rhs),rhsMax =  -7.33384464268738E-11  2.41485195168573E-02
 cg2d: Sum(rhs),rhsMax =  -7.35562721843053E-11  2.40558553325816E-02
 cg2d: Sum(rhs),rhsMax =  -7.38119565468764E-11  2.39565039411686E-02
 cg2d: Sum(rhs),rhsMax =  -7.40726369130584E-11  2.38505147580256E-02
 cg2d: Sum(rhs),rhsMax =  -7.43701766836580E-11  2.37379398376350E-02
 cg2d: Sum(rhs),rhsMax =  -7.46578354693384E-11  2.36188338050999E-02
 cg2d: Sum(rhs),rhsMax =  -7.50077777667002E-11  2.34932537939765E-02
 cg2d: Sum(rhs),rhsMax =  -7.53571649525497E-11  2.33612593936659E-02
 cg2d: Sum(rhs),rhsMax =  -7.57359730485518E-11  2.32229126097975E-02
 cg2d: Sum(rhs),rhsMax =  -7.61437579654967E-11  2.30782778408285E-02
 cg2d: Sum(rhs),rhsMax =  -7.65433272320593E-11  2.29274218734950E-02
 cg2d: Sum(rhs),rhsMax =  -7.69978525383408E-11  2.27704138988265E-02
 cg2d: Sum(rhs),rhsMax =  -7.74834640893118E-11  2.26073255492147E-02
 cg2d: Sum(rhs),rhsMax =  -7.79593056776662E-11  2.24382309555146E-02
 cg2d: Sum(rhs),rhsMax =  -7.84532439013219E-11  2.22632068213635E-02
 cg2d: Sum(rhs),rhsMax =  -7.90119081273133E-11  2.20823325099231E-02
 cg2d: Sum(rhs),rhsMax =  -7.95966625943834E-11  2.18956901363476E-02
 cg2d: Sum(rhs),rhsMax =  -8.02140576183774E-11  2.17033646578332E-02
 cg2d: Sum(rhs),rhsMax =  -8.08361155790749E-11  2.15054439525485E-02
 cg2d: Sum(rhs),rhsMax =  -8.15083556204854E-11  2.13020188793581E-02
 cg2d: Sum(rhs),rhsMax =  -8.21992474087097E-11  2.10931833120409E-02
 cg2d: Sum(rhs),rhsMax =  -8.29767365928546E-11  2.08790341443870E-02
 cg2d: Sum(rhs),rhsMax =  -8.38147329318417E-11  2.06596712656054E-02
 cg2d: Sum(rhs),rhsMax =  -8.46810399579567E-11  2.04351975083129E-02
 cg2d: Sum(rhs),rhsMax =  -8.55709947344963E-11  2.02057185735319E-02
 cg2d: Sum(rhs),rhsMax =  -8.65194582644335E-11  1.99713429383524E-02
 cg2d: Sum(rhs),rhsMax =  -8.75018946189243E-11  1.97321817521707E-02
 cg2d: Sum(rhs),rhsMax =  -8.85458373289794E-11  1.94883487268550E-02
 cg2d: Sum(rhs),rhsMax =  -8.96140939232737E-11  1.92399600251288E-02
 cg2d: Sum(rhs),rhsMax =  -9.07269814831579E-11  1.89871341496430E-02
 cg2d: Sum(rhs),rhsMax =  -9.19210263461423E-11  1.87299918340060E-02
 cg2d: Sum(rhs),rhsMax =  -9.31501542567048E-11  1.84686559357140E-02
 cg2d: Sum(rhs),rhsMax =  -9.44556655113615E-11  1.82032513298923E-02
 cg2d: Sum(rhs),rhsMax =  -9.57917078991954E-11  1.79339048024296E-02
 cg2d: Sum(rhs),rhsMax =  -9.72094627016418E-11  1.76607449413295E-02
 cg2d: Sum(rhs),rhsMax =  -9.86544179681914E-11  1.73839020257888E-02
 cg2d: Sum(rhs),rhsMax =  -1.00188635165921E-10  1.71035079133774E-02
 cg2d: Sum(rhs),rhsMax =  -1.01801123086886E-10  1.68196959264632E-02
 cg2d: Sum(rhs),rhsMax =  -1.03471120560528E-10  1.65326007394429E-02
 cg2d: Sum(rhs),rhsMax =  -1.05219721824312E-10  1.62423582682088E-02
 cg2d: Sum(rhs),rhsMax =  -1.07057251952369E-10  1.59491055625433E-02
 cg2d: Sum(rhs),rhsMax =  -1.08999809178556E-10  1.56529807008874E-02
 cg2d: Sum(rhs),rhsMax =  -1.11024966997775E-10  1.53541226855198E-02
 cg2d: Sum(rhs),rhsMax =  -1.13137721413636E-10  1.50526713351447E-02
 cg2d: Sum(rhs),rhsMax =  -1.15384923837780E-10  1.47487671718314E-02
 cg2d: Sum(rhs),rhsMax =  -1.17729159754276E-10  1.44425513005934E-02
 cg2d: Sum(rhs),rhsMax =  -1.20173426765291E-10  1.41341652825619E-02
 cg2d: Sum(rhs),rhsMax =  -1.22759025167340E-10  1.38237510060589E-02
 cg2d: Sum(rhs),rhsMax =  -1.25466192990586E-10  1.35114505627425E-02
 cg2d: Sum(rhs),rhsMax =  -1.28331789639446E-10  1.31974061371799E-02
 cg2d: Sum(rhs),rhsMax =  -1.31355926136223E-10  1.28817599169136E-02
 cg2d: Sum(rhs),rhsMax =  -1.34549149599650E-10  1.25646540264208E-02
 cg2d: Sum(rhs),rhsMax =  -1.38000388894000E-10  1.22462304833508E-02
 cg2d: Sum(rhs),rhsMax =  -1.41645917217659E-10  1.19266311706848E-02
 cg2d: Sum(rhs),rhsMax =  -1.45497280890083E-10  1.16059978156567E-02
 cg2d: Sum(rhs),rhsMax =  -1.49603440746660E-10  1.12844719663661E-02
 cg2d: Sum(rhs),rhsMax =  -1.53966950300344E-10  1.09621949599576E-02
 cg2d: Sum(rhs),rhsMax =  -1.58568935759718E-10  1.06393078809096E-02
 cg2d: Sum(rhs),rhsMax =  -1.63478786063820E-10  1.03159515126784E-02
 cg2d: Sum(rhs),rhsMax =  -1.68716041137884E-10  9.99226628902557E-03
 cg2d: Sum(rhs),rhsMax =  -1.74313119494229E-10  9.66839225188039E-03
 cg2d: Sum(rhs),rhsMax =  -1.80301606977906E-10  9.34446902061416E-03
 cg2d: Sum(rhs),rhsMax =  -1.86713478012024E-10  9.02063577413047E-03
 cg2d: Sum(rhs),rhsMax =  -1.93572879947368E-10  8.69703124365511E-03
 cg2d: Sum(rhs),rhsMax =  -2.00951810747085E-10  8.37379371186261E-03
 cg2d: Sum(rhs),rhsMax =  -2.08942974033732E-10  8.05106101365648E-03
 cg2d: Sum(rhs),rhsMax =  -2.17557027948345E-10  7.72897053532549E-03
 cg2d: Sum(rhs),rhsMax =  -2.26900609412439E-10  7.40765921103881E-03
 cg2d: Sum(rhs),rhsMax =  -2.37096176025631E-10  7.08726351759914E-03
 cg2d: Sum(rhs),rhsMax =  -2.48167097982588E-10  6.76791946922611E-03
 cg2d: Sum(rhs),rhsMax =  -2.60309718225216E-10  6.44976261368108E-03
 cg2d: Sum(rhs),rhsMax =  -2.73632894121079E-10  6.13292802972262E-03
 cg2d: Sum(rhs),rhsMax =  -2.63888078055885E-10  6.35707825010712E-03
 cg2d: Sum(rhs),rhsMax =  -2.53193632726578E-10  6.62353221134833E-03
 cg2d: Sum(rhs),rhsMax =  -2.43364467467089E-10  6.88805085488955E-03
 cg2d: Sum(rhs),rhsMax =  -2.34329833315172E-10  7.15052440267243E-03
 cg2d: Sum(rhs),rhsMax =  -2.26035863637453E-10  7.41081156042360E-03
 cg2d: Sum(rhs),rhsMax =  -2.18362649143100E-10  7.66878746949452E-03
 cg2d: Sum(rhs),rhsMax =  -2.11226699325939E-10  7.92434938504352E-03
 cg2d: Sum(rhs),rhsMax =  -2.04599344411083E-10  8.17740069753694E-03
 cg2d: Sum(rhs),rhsMax =  -1.98429911391074E-10  8.42781470022890E-03
 cg2d: Sum(rhs),rhsMax =  -1.92685437050422E-10  8.67546694594450E-03
 cg2d: Sum(rhs),rhsMax =  -1.87341947510689E-10  8.92025261965034E-03
 cg2d: Sum(rhs),rhsMax =  -1.82326292952339E-10  9.16208051224406E-03
 cg2d: Sum(rhs),rhsMax =  -1.77612785590142E-10  9.40086261090654E-03
 cg2d: Sum(rhs),rhsMax =  -1.73223768662467E-10  9.63651415281179E-03
 cg2d: Sum(rhs),rhsMax =  -1.69078279155244E-10  9.86895276009024E-03
 cg2d: Sum(rhs),rhsMax =  -1.65215646719119E-10  1.00980899435578E-02
 cg2d: Sum(rhs),rhsMax =  -1.61535118614609E-10  1.03238337085012E-02
 cg2d: Sum(rhs),rhsMax =  -1.58060287080986E-10  1.05460936885133E-02
 cg2d: Sum(rhs),rhsMax =  -1.54822599185422E-10  1.07647833793314E-02
 cg2d: Sum(rhs),rhsMax =  -1.51640422441091E-10  1.09798185654129E-02
 cg2d: Sum(rhs),rhsMax =  -1.48652035125707E-10  1.11911157235260E-02
 cg2d: Sum(rhs),rhsMax =  -1.45810197249574E-10  1.13985873512951E-02
 cg2d: Sum(rhs),rhsMax =  -1.43141221098375E-10  1.16021503947135E-02
 cg2d: Sum(rhs),rhsMax =  -1.40618794386427E-10  1.18017296399145E-02
 cg2d: Sum(rhs),rhsMax =  -1.38220379586329E-10  1.19972656614636E-02
 cg2d: Sum(rhs),rhsMax =  -1.35974786985571E-10  1.21886951537939E-02
 cg2d: Sum(rhs),rhsMax =  -1.33834443527547E-10  1.23759441205984E-02
 cg2d: Sum(rhs),rhsMax =  -1.31795352409370E-10  1.25589346749942E-02
 cg2d: Sum(rhs),rhsMax =  -1.29842914198264E-10  1.27375922278625E-02
 cg2d: Sum(rhs),rhsMax =  -1.28016708345058E-10  1.29118475027388E-02
 cg2d: Sum(rhs),rhsMax =  -1.26261223698521E-10  1.30816318550508E-02
 cg2d: Sum(rhs),rhsMax =  -1.24583399152556E-10  1.32468810783265E-02
 cg2d: Sum(rhs),rhsMax =  -1.23034693544355E-10  1.34075395811769E-02
 cg2d: Sum(rhs),rhsMax =  -1.21541721131990E-10  1.35635461783735E-02
 cg2d: Sum(rhs),rhsMax =  -1.20119969526655E-10  1.37148305078277E-02
 cg2d: Sum(rhs),rhsMax =  -1.18778986646362E-10  1.38613310882214E-02
 cg2d: Sum(rhs),rhsMax =  -1.17503951013731E-10  1.40029835278697E-02
 cg2d: Sum(rhs),rhsMax =  -1.16296972052510E-10  1.41397117886498E-02
 cg2d: Sum(rhs),rhsMax =  -1.15150222690374E-10  1.42714489512451E-02
 cg2d: Sum(rhs),rhsMax =  -1.14084075519827E-10  1.43981427327036E-02
 cg2d: Sum(rhs),rhsMax =  -1.13087594844075E-10  1.45197491448914E-02
 cg2d: Sum(rhs),rhsMax =  -1.12097997551075E-10  1.46362265521993E-02
 cg2d: Sum(rhs),rhsMax =  -1.11141096326151E-10  1.47475334374033E-02
 cg2d: Sum(rhs),rhsMax =  -1.10241760165053E-10  1.48536287200971E-02
 cg2d: Sum(rhs),rhsMax =  -1.09434294959243E-10  1.49544728583275E-02
 cg2d: Sum(rhs),rhsMax =  -1.08623332550906E-10  1.50500284966931E-02
 cg2d: Sum(rhs),rhsMax =  -1.07905129276276E-10  1.51402605724847E-02
 cg2d: Sum(rhs),rhsMax =  -1.07250874847864E-10  1.52251428319162E-02
 cg2d: Sum(rhs),rhsMax =  -1.06603281757600E-10  1.53046485109604E-02
 cg2d: Sum(rhs),rhsMax =  -1.06010755729358E-10  1.53787510590318E-02
 cg2d: Sum(rhs),rhsMax =  -1.05477848677538E-10  1.54474228529734E-02
 cg2d: Sum(rhs),rhsMax =  -1.04989461569005E-10  1.55106371093878E-02
 cg2d: Sum(rhs),rhsMax =  -1.04531272526742E-10  1.55683700667411E-02
 cg2d: Sum(rhs),rhsMax =  -1.04130926104062E-10  1.56206015196414E-02
 cg2d: Sum(rhs),rhsMax =  -1.03757669123183E-10  1.56673141534250E-02
 cg2d: Sum(rhs),rhsMax =  -1.03432040710061E-10  1.57084928921128E-02
 cg2d: Sum(rhs),rhsMax =  -1.03144270902078E-10  1.57441246602501E-02
 cg2d: Sum(rhs),rhsMax =  -1.02864050610663E-10  1.57741984702555E-02
 cg2d: Sum(rhs),rhsMax =  -1.02652109035262E-10  1.57987062256073E-02
 cg2d: Sum(rhs),rhsMax =  -1.02443831195842E-10  1.58176418911035E-02
 cg2d: Sum(rhs),rhsMax =  -1.02303387983227E-10  1.58310014132939E-02
 cg2d: Sum(rhs),rhsMax =  -1.02230890419719E-10  1.58387836435736E-02
 cg2d: Sum(rhs),rhsMax =  -1.02154285031020E-10  1.58409891745965E-02
 cg2d: Sum(rhs),rhsMax =  -1.02165720328173E-10  1.58376212862960E-02
 cg2d: Sum(rhs),rhsMax =  -1.02204245067128E-10  1.58286875864041E-02
 cg2d: Sum(rhs),rhsMax =  -1.02270747426303E-10  1.58141964401996E-02
 cg2d: Sum(rhs),rhsMax =  -1.02522212941381E-10  1.57941565514606E-02
 cg2d: Sum(rhs),rhsMax =  -1.02829189607689E-10  1.57685878852120E-02
 cg2d: Sum(rhs),rhsMax =  -1.03092534509130E-10  1.57375227273972E-02
 cg2d: Sum(rhs),rhsMax =  -1.03406394558192E-10  1.57009901807405E-02
 cg2d: Sum(rhs),rhsMax =  -1.03797193062860E-10  1.56590128498446E-02
 cg2d: Sum(rhs),rhsMax =  -1.04132702460902E-10  1.56116105238214E-02
 cg2d: Sum(rhs),rhsMax =  -1.04513953047558E-10  1.55588046145449E-02
 cg2d: Sum(rhs),rhsMax =  -1.04938613354477E-10  1.55006203830946E-02
 cg2d: Sum(rhs),rhsMax =  -1.05399466931999E-10  1.54370869667718E-02
 cg2d: Sum(rhs),rhsMax =  -1.05934927496776E-10  1.53682317713682E-02
 cg2d: Sum(rhs),rhsMax =  -1.06508246666692E-10  1.52940875797982E-02
 cg2d: Sum(rhs),rhsMax =  -1.07116648884187E-10  1.52146902297219E-02
 cg2d: Sum(rhs),rhsMax =  -1.07742259558563E-10  1.51300771020209E-02
 cg2d: Sum(rhs),rhsMax =  -1.08458908520959E-10  1.50402884421043E-02
 cg2d: Sum(rhs),rhsMax =  -1.09189324248860E-10  1.49453675470066E-02
 cg2d: Sum(rhs),rhsMax =  -1.10034426015204E-10  1.48453593983345E-02
 cg2d: Sum(rhs),rhsMax =  -1.10876419157080E-10  1.47403100509168E-02
 cg2d: Sum(rhs),rhsMax =  -1.11783138301291E-10  1.46302678522765E-02
 cg2d: Sum(rhs),rhsMax =  -1.12773790306164E-10  1.45152824589123E-02
 cg2d: Sum(rhs),rhsMax =  -1.13808851232022E-10  1.43953949494650E-02
 cg2d: Sum(rhs),rhsMax =  -1.14897646952272E-10  1.42706509981218E-02
 cg2d: Sum(rhs),rhsMax =  -1.16037957020865E-10  1.41411039940769E-02
 cg2d: Sum(rhs),rhsMax =  -1.17156506718175E-10  1.40068127980887E-02
 cg2d: Sum(rhs),rhsMax =  -1.18399956505755E-10  1.38678388339511E-02
 cg2d: Sum(rhs),rhsMax =  -1.19703247314362E-10  1.37242447066420E-02
 cg2d: Sum(rhs),rhsMax =  -1.21051557666618E-10  1.35760944452868E-02
 cg2d: Sum(rhs),rhsMax =  -1.22461041307531E-10  1.34234536261161E-02
 cg2d: Sum(rhs),rhsMax =  -1.23990873124313E-10  1.32663893601177E-02
 cg2d: Sum(rhs),rhsMax =  -1.25608412560041E-10  1.31049703510777E-02
 cg2d: Sum(rhs),rhsMax =  -1.27292731910700E-10  1.29392669270028E-02
 cg2d: Sum(rhs),rhsMax =  -1.29071198173847E-10  1.27693510675536E-02
 cg2d: Sum(rhs),rhsMax =  -1.30925159602668E-10  1.25952877406248E-02
 cg2d: Sum(rhs),rhsMax =  -1.32911348593723E-10  1.24170969395034E-02
 cg2d: Sum(rhs),rhsMax =  -1.34964650566616E-10  1.22348148544270E-02
 cg2d: Sum(rhs),rhsMax =  -1.37142908140930E-10  1.20485086526037E-02
 cg2d: Sum(rhs),rhsMax =  -1.39441236335358E-10  1.18582646165401E-02
 cg2d: Sum(rhs),rhsMax =  -1.41840039713514E-10  1.16641735227458E-02
 cg2d: Sum(rhs),rhsMax =  -1.44416922864821E-10  1.14663236359818E-02
 cg2d: Sum(rhs),rhsMax =  -1.47067746869567E-10  1.12648004914491E-02
 cg2d: Sum(rhs),rhsMax =  -1.49915246883126E-10  1.10596892947149E-02
 cg2d: Sum(rhs),rhsMax =  -1.52865442526462E-10  1.08510768460626E-02
 cg2d: Sum(rhs),rhsMax =  -1.56052504252102E-10  1.06390521279499E-02
 cg2d: Sum(rhs),rhsMax =  -1.59390556309091E-10  1.04237060288189E-02
 cg2d: Sum(rhs),rhsMax =  -1.62931612646133E-10  1.02051315020310E-02
 cg2d: Sum(rhs),rhsMax =  -1.66707370130581E-10  9.98342594080031E-03
 cg2d: Sum(rhs),rhsMax =  -1.70607639127240E-10  9.75868554106869E-03
 cg2d: Sum(rhs),rhsMax =  -1.74745773406926E-10  9.53101489740512E-03
 cg2d: Sum(rhs),rhsMax =  -1.79119413745710E-10  9.30053143557267E-03
 cg2d: Sum(rhs),rhsMax =  -1.83787096652566E-10  9.06734631914526E-03
 cg2d: Sum(rhs),rhsMax =  -1.88781407173266E-10  8.83156174977412E-03
 cg2d: Sum(rhs),rhsMax =  -1.94071925196937E-10  8.59327612860082E-03
 cg2d: Sum(rhs),rhsMax =  -1.99725930238870E-10  8.35258869609310E-03
 cg2d: Sum(rhs),rhsMax =  -2.05746697456988E-10  8.10960106205501E-03
 cg2d: Sum(rhs),rhsMax =  -2.12217271533532E-10  7.86441672368749E-03
 cg2d: Sum(rhs),rhsMax =  -2.19185683492107E-10  7.61714024081834E-03
 cg2d: Sum(rhs),rhsMax =  -2.26653605606142E-10  7.36787684923621E-03
 cg2d: Sum(rhs),rhsMax =  -2.34753526080073E-10  7.11673247287230E-03
 cg2d: Sum(rhs),rhsMax =  -2.43449566061926E-10  6.86381383702109E-03
 cg2d: Sum(rhs),rhsMax =  -2.52928678001751E-10  6.60919915820576E-03
 cg2d: Sum(rhs),rhsMax =  -2.63220736873571E-10  6.35296078367915E-03
 cg2d: Sum(rhs),rhsMax =  -2.74414740930595E-10  6.09519063326323E-03
 cg2d: Sum(rhs),rhsMax =  -2.86717677377979E-10  5.83599842630084E-03
 cg2d: Sum(rhs),rhsMax =  -2.95940660866023E-10  5.65584709612782E-03
 cg2d: Sum(rhs),rhsMax =  -2.80733603030825E-10  5.96412357306586E-03
 cg2d: Sum(rhs),rhsMax =  -2.66928479319972E-10  6.27364140844283E-03
 cg2d: Sum(rhs),rhsMax =  -2.54417764633530E-10  6.58426304166730E-03
 cg2d: Sum(rhs),rhsMax =  -2.42993569710137E-10  6.89585055512929E-03
 cg2d: Sum(rhs),rhsMax =  -2.32554198120738E-10  7.20826571137001E-03
 cg2d: Sum(rhs),rhsMax =  -2.22968699059578E-10  7.52136998197489E-03
 cg2d: Sum(rhs),rhsMax =  -2.14097795048218E-10  7.83502457199848E-03
 cg2d: Sum(rhs),rhsMax =  -2.05909067574339E-10  8.14909044322935E-03
 cg2d: Sum(rhs),rhsMax =  -1.98326133293847E-10  8.46342833817748E-03
 cg2d: Sum(rhs),rhsMax =  -1.91255011827707E-10  8.77789880548516E-03
 cg2d: Sum(rhs),rhsMax =  -1.84712356521288E-10  9.09236222734920E-03
 cg2d: Sum(rhs),rhsMax =  -1.78607295620026E-10  9.40667885054903E-03
 cg2d: Sum(rhs),rhsMax =  -1.72888481309030E-10  9.72070882411778E-03
 cg2d: Sum(rhs),rhsMax =  -1.67548752649793E-10  1.00343122475375E-02
 cg2d: Sum(rhs),rhsMax =  -1.62518443147519E-10  1.03473492328266E-02
 cg2d: Sum(rhs),rhsMax =  -1.57829749269922E-10  1.06596799818745E-02
 cg2d: Sum(rhs),rhsMax =  -1.53419610349204E-10  1.09711648774636E-02
 cg2d: Sum(rhs),rhsMax =  -1.49243728486681E-10  1.12816645836007E-02
 cg2d: Sum(rhs),rhsMax =  -1.45294443143484E-10  1.15910401490555E-02
 cg2d: Sum(rhs),rhsMax =  -1.41594180824711E-10  1.18991531079008E-02
 cg2d: Sum(rhs),rhsMax =  -1.38064448762520E-10  1.22058655723450E-02
 cg2d: Sum(rhs),rhsMax =  -1.34813382679511E-10  1.25110403156674E-02
 cg2d: Sum(rhs),rhsMax =  -1.31726740626448E-10  1.28145408457906E-02
 cg2d: Sum(rhs),rhsMax =  -1.28807631227801E-10  1.31162314721440E-02
 cg2d: Sum(rhs),rhsMax =  -1.26042953851879E-10  1.34159773694652E-02
 cg2d: Sum(rhs),rhsMax =  -1.23425936138233E-10  1.37136446419048E-02
 cg2d: Sum(rhs),rhsMax =  -1.20924714686055E-10  1.40091003895006E-02
 cg2d: Sum(rhs),rhsMax =  -1.18563381334980E-10  1.43022127772810E-02
 cg2d: Sum(rhs),rhsMax =  -1.16303300323750E-10  1.45928511055150E-02
 cg2d: Sum(rhs),rhsMax =  -1.14163012376878E-10  1.48808858784291E-02
 cg2d: Sum(rhs),rhsMax =  -1.12107212402179E-10  1.51661888683294E-02
 cg2d: Sum(rhs),rhsMax =  -1.10167985845067E-10  1.54486331725646E-02
 cg2d: Sum(rhs),rhsMax =  -1.08268061183026E-10  1.57280932620492E-02
 cg2d: Sum(rhs),rhsMax =  -1.06509245867414E-10  1.60044450218592E-02
 cg2d: Sum(rhs),rhsMax =  -1.04796726851930E-10  1.62775657863687E-02
 cg2d: Sum(rhs),rhsMax =  -1.03181241328798E-10  1.65473343729882E-02
 cg2d: Sum(rhs),rhsMax =  -1.01628927495767E-10  1.68136311193070E-02
 cg2d: Sum(rhs),rhsMax =  -1.00129571301011E-10  1.70763379279417E-02
 cg2d: Sum(rhs),rhsMax =  -9.87087078740956E-11  1.73353383215470E-02
 cg2d: Sum(rhs),rhsMax =  -9.73379155055909E-11  1.75905175075409E-02
 cg2d: Sum(rhs),rhsMax =  -9.60319601617243E-11  1.78417624487862E-02
 cg2d: Sum(rhs),rhsMax =  -9.47917300209156E-11  1.80889619336492E-02
 cg2d: Sum(rhs),rhsMax =  -9.35782562550003E-11  1.83320066373941E-02
 cg2d: Sum(rhs),rhsMax =  -9.24536003310550E-11  1.85707891673997E-02
 cg2d: Sum(rhs),rhsMax =  -9.13561448712130E-11  1.88052040873318E-02
 cg2d: Sum(rhs),rhsMax =  -9.03218611014722E-11  1.90351479197201E-02
 cg2d: Sum(rhs),rhsMax =  -8.93176643756988E-11  1.92605191313555E-02
 cg2d: Sum(rhs),rhsMax =  -8.83496609205281E-11  1.94812181102048E-02
 cg2d: Sum(rhs),rhsMax =  -8.74574856979393E-11  1.96971471448821E-02
 cg2d: Sum(rhs),rhsMax =  -8.65717497688934E-11  1.99082104173771E-02
 cg2d: Sum(rhs),rhsMax =  -8.57813819976627E-11  2.01143140168336E-02
 cg2d: Sum(rhs),rhsMax =  -8.50608472546810E-11  2.03153659776967E-02
 cg2d: Sum(rhs),rhsMax =  -8.43343173073663E-11  2.05112763410309E-02
 cg2d: Sum(rhs),rhsMax =  -8.36677394033813E-11  2.07019572347331E-02
 cg2d: Sum(rhs),rhsMax =  -8.30238100490988E-11  2.08873229674823E-02
 cg2d: Sum(rhs),rhsMax =  -8.23895396351304E-11  2.10672901322786E-02
 cg2d: Sum(rhs),rhsMax =  -8.17917955586722E-11  2.12417777171568E-02
 cg2d: Sum(rhs),rhsMax =  -8.12351297341252E-11  2.14107072217130E-02
 cg2d: Sum(rhs),rhsMax =  -8.07218736298410E-11  2.15740027777119E-02
 cg2d: Sum(rhs),rhsMax =  -8.02086175255567E-11  2.17315912705214E-02
 cg2d: Sum(rhs),rhsMax =  -7.97524268847383E-11  2.18834024566757E-02
 cg2d: Sum(rhs),rhsMax =  -7.92648169323229E-11  2.20293690728053E-02
 cg2d: Sum(rhs),rhsMax =  -7.88197285217507E-11  2.21694269330591E-02
 cg2d: Sum(rhs),rhsMax =  -7.84052822666581E-11  2.23035150153406E-02
 cg2d: Sum(rhs),rhsMax =  -7.80159270519221E-11  2.24315755395985E-02
 cg2d: Sum(rhs),rhsMax =  -7.76712028027760E-11  2.25535540423790E-02
 cg2d: Sum(rhs),rhsMax =  -7.73450192781411E-11  2.26693994500406E-02
 cg2d: Sum(rhs),rhsMax =  -7.70112862369388E-11  2.27790641490160E-02
 cg2d: Sum(rhs),rhsMax =  -7.67407248858376E-11  2.28825040469735E-02
 cg2d: Sum(rhs),rhsMax =  -7.64682761555946E-11  2.29796786157848E-02
 cg2d: Sum(rhs),rhsMax =  -7.61957164030491E-11  2.30705509073048E-02
 cg2d: Sum(rhs),rhsMax =  -7.59612373002483E-11  2.31550875363367E-02
 cg2d: Sum(rhs),rhsMax =  -7.57727214306669E-11  2.32332586306711E-02
 cg2d: Sum(rhs),rhsMax =  -7.56260609691140E-11  2.33050377538250E-02
 cg2d: Sum(rhs),rhsMax =  -7.54699636118517E-11  2.33704018101523E-02
 cg2d: Sum(rhs),rhsMax =  -7.53542783726857E-11  2.34293309432086E-02
 cg2d: Sum(rhs),rhsMax =  -7.52616857724320E-11  2.34818084366190E-02
 cg2d: Sum(rhs),rhsMax =  -7.51663176146167E-11  2.35278206232447E-02
 cg2d: Sum(rhs),rhsMax =  -7.50991491216269E-11  2.35673568047119E-02
 cg2d: Sum(rhs),rhsMax =  -7.50881579136831E-11  2.36004091807525E-02
 cg2d: Sum(rhs),rhsMax =  -7.51008144561638E-11  2.36269727870050E-02
 cg2d: Sum(rhs),rhsMax =  -7.50748352373876E-11  2.36470454407421E-02
 cg2d: Sum(rhs),rhsMax =  -7.51205764260021E-11  2.36606276955109E-02
 cg2d: Sum(rhs),rhsMax =  -7.50438600150005E-11  2.36677228067128E-02
 cg2d: Sum(rhs),rhsMax =  -7.50051132314411E-11  2.36683367098819E-02
 cg2d: Sum(rhs),rhsMax =  -7.49724726745171E-11  2.36624780116619E-02
 cg2d: Sum(rhs),rhsMax =  -7.49235118391312E-11  2.36501579908482E-02
 cg2d: Sum(rhs),rhsMax =  -7.49043049808051E-11  2.36313906047820E-02
 cg2d: Sum(rhs),rhsMax =  -7.49278417089272E-11  2.36061924948532E-02
 cg2d: Sum(rhs),rhsMax =  -7.49907913544234E-11  2.35745829859188E-02
 cg2d: Sum(rhs),rhsMax =  -7.50626227841167E-11  2.35365840764503E-02
 cg2d: Sum(rhs),rhsMax =  -7.51573248081172E-11  2.34922204188429E-02
 cg2d: Sum(rhs),rhsMax =  -7.52266027248538E-11  2.34415192914184E-02
 cg2d: Sum(rhs),rhsMax =  -7.53490603244700E-11  2.33845105645613E-02
 cg2d: Sum(rhs),rhsMax =  -7.54757367715797E-11  2.33212266631586E-02
 cg2d: Sum(rhs),rhsMax =  -7.56074092223002E-11  2.32517025266042E-02
 cg2d: Sum(rhs),rhsMax =  -7.58118012811337E-11  2.31759755668371E-02
 cg2d: Sum(rhs),rhsMax =  -7.60693730228468E-11  2.30940856247616E-02
 cg2d: Sum(rhs),rhsMax =  -7.63105134637954E-11  2.30060749260531E-02
 cg2d: Sum(rhs),rhsMax =  -7.65677521386010E-11  2.29119880384711E-02
 cg2d: Sum(rhs),rhsMax =  -7.68695107566941E-11  2.28118718338268E-02
 cg2d: Sum(rhs),rhsMax =  -7.71496200258071E-11  2.27057754581889E-02
 cg2d: Sum(rhs),rhsMax =  -7.74825759108921E-11  2.25937503134637E-02
 cg2d: Sum(rhs),rhsMax =  -7.78342945650934E-11  2.24758500521254E-02
 cg2d: Sum(rhs),rhsMax =  -7.82157671963546E-11  2.23521305848666E-02
 cg2d: Sum(rhs),rhsMax =  -7.86026799204365E-11  2.22226500987416E-02
 cg2d: Sum(rhs),rhsMax =  -7.90044696330483E-11  2.20874690815519E-02
 cg2d: Sum(rhs),rhsMax =  -7.94315724306216E-11  2.19466503473179E-02
 cg2d: Sum(rhs),rhsMax =  -7.99077470858833E-11  2.18002590579842E-02
 cg2d: Sum(rhs),rhsMax =  -8.04036837109834E-11  2.16483627379510E-02
 cg2d: Sum(rhs),rhsMax =  -8.08836331245288E-11  2.14910312801222E-02
 cg2d: Sum(rhs),rhsMax =  -8.14268652504779E-11  2.13283369441946E-02
 cg2d: Sum(rhs),rhsMax =  -8.19869727664013E-11  2.11603543492229E-02
(PID.TID 0000.0001)      cg2d_init_res =   4.41436821181506E-02
(PID.TID 0000.0001)      cg2d_iters(min,last) =      -1      37
(PID.TID 0000.0001)      cg2d_last_res =   8.33169706978478E-14
(PID.TID 0000.0001) // =======================================================
(PID.TID 0000.0001) // Begin MONITOR dynamic field statistics
(PID.TID 0000.0001) // =======================================================
(PID.TID 0000.0001) %MON time_tsnumber                =                  5760
(PID.TID 0000.0001) %MON time_secondsf                =   8.6400000000000E+04
(PID.TID 0000.0001) %MON dynstat_eta_max              =   3.6801817425868E-03
(PID.TID 0000.0001) %MON dynstat_eta_min              =  -2.9354237926572E-03
(PID.TID 0000.0001) %MON dynstat_eta_mean             =   3.8206541020140E-15
(PID.TID 0000.0001) %MON dynstat_eta_sd               =   1.7758238666110E-03
(PID.TID 0000.0001) %MON dynstat_eta_del2             =   7.6256843532032E-06
(PID.TID 0000.0001) %MON dynstat_uvel_max             =   4.5156410461371E-01
(PID.TID 0000.0001) %MON dynstat_uvel_min             =  -4.8364037328698E-01
(PID.TID 0000.0001) %MON dynstat_uvel_mean            =   1.1348387488194E-01
(PID.TID 0000.0001) %MON dynstat_uvel_sd              =   4.4092092200948E-02
(PID.TID 0000.0001) %MON dynstat_uvel_del2            =   1.0630955425731E-04
(PID.TID 0000.0001) %MON dynstat_vvel_max             =   0.0000000000000E+00
(PID.TID 0000.0001) %MON dynstat_vvel_min             =   0.0000000000000E+00
(PID.TID 0000.0001) %MON dynstat_vvel_mean            =   0.0000000000000E+00
(PID.TID 0000.0001) %MON dynstat_vvel_sd              =   0.0000000000000E+00
(PID.TID 0000.0001) %MON dynstat_vvel_del2            =   0.0000000000000E+00
(PID.TID 0000.0001) %MON dynstat_wvel_max             =   4.7631719350441E-03
(PID.TID 0000.0001) %MON dynstat_wvel_min             =  -4.8660571381422E-03
(PID.TID 0000.0001) %MON dynstat_wvel_mean            =  -6.3627713337233E-21
(PID.TID 0000.0001) %MON dynstat_wvel_sd              =   3.4290455247713E-04
(PID.TID 0000.0001) %MON dynstat_wvel_del2            =   7.1813050422917E-06
(PID.TID 0000.0001) %MON dynstat_theta_max            =   1.5000000000019E+01
(PID.TID 0000.0001) %MON dynstat_theta_min            =   9.9999999999899E+00
(PID.TID 0000.0001) %MON dynstat_theta_mean           =   1.4027343598169E+01
(PID.TID 0000.0001) %MON dynstat_theta_sd             =   1.8984639861004E+00
(PID.TID 0000.0001) %MON dynstat_theta_del2           =   3.7888328545838E-04
(PID.TID 0000.0001) %MON dynstat_salt_max             =   3.5000000000000E+01
(PID.TID 0000.0001) %MON dynstat_salt_min             =   3.5000000000000E+01
(PID.TID 0000.0001) %MON dynstat_salt_mean            =   3.5000000000000E+01
(PID.TID 0000.0001) %MON dynstat_salt_sd              =   3.0553337637684E-13
(PID.TID 0000.0001) %MON dynstat_salt_del2            =   0.0000000000000E+00
(PID.TID 0000.0001) %MON dynstat_sst_max              =   1.5000000000000E+01
(PID.TID 0000.0001) %MON dynstat_sst_min              =   1.4999999999998E+01
(PID.TID 0000.0001) %MON dynstat_sst_mean             =   1.5000000000000E+01
(PID.TID 0000.0001) %MON dynstat_sst_sd               =   4.4184383387103E-13
(PID.TID 0000.0001) %MON dynstat_sst_del2             =   9.5415004533366E-15
(PID.TID 0000.0001) %MON dynstat_sss_max              =   3.5000000000000E+01
(PID.TID 0000.0001) %MON dynstat_sss_min              =   3.5000000000000E+01
(PID.TID 0000.0001) %MON dynstat_sss_mean             =   3.5000000000000E+01
(PID.TID 0000.0001) %MON dynstat_sss_sd               =   2.8421709430404E-14
(PID.TID 0000.0001) %MON dynstat_sss_del2             =   0.0000000000000E+00
(PID.TID 0000.0001) %MON forcing_qnet_max             =   0.0000000000000E+00
(PID.TID 0000.0001) %MON forcing_qnet_min             =   0.0000000000000E+00
(PID.TID 0000.0001) %MON forcing_qnet_mean            =   0.0000000000000E+00
(PID.TID 0000.0001) %MON forcing_qnet_sd              =   0.0000000000000E+00
(PID.TID 0000.0001) %MON forcing_qnet_del2            =   0.0000000000000E+00
(PID.TID 0000.0001) %MON forcing_qsw_max              =   0.0000000000000E+00
(PID.TID 0000.0001) %MON forcing_qsw_min              =   0.0000000000000E+00
(PID.TID 0000.0001) %MON forcing_qsw_mean             =   0.0000000000000E+00
(PID.TID 0000.0001) %MON forcing_qsw_sd               =   0.0000000000000E+00
(PID.TID 0000.0001) %MON forcing_qsw_del2             =   0.0000000000000E+00
(PID.TID 0000.0001) %MON forcing_empmr_max            =   0.0000000000000E+00
(PID.TID 0000.0001) %MON forcing_empmr_min            =   0.0000000000000E+00
(PID.TID 0000.0001) %MON forcing_empmr_mean           =   0.0000000000000E+00
(PID.TID 0000.0001) %MON forcing_empmr_sd             =   0.0000000000000E+00
(PID.TID 0000.0001) %MON forcing_empmr_del2           =   0.0000000000000E+00
(PID.TID 0000.0001) %MON forcing_fu_max               =   0.0000000000000E+00
(PID.TID 0000.0001) %MON forcing_fu_min               =   0.0000000000000E+00
(PID.TID 0000.0001) %MON forcing_fu_mean              =   0.0000000000000E+00
(PID.TID 0000.0001) %MON forcing_fu_sd                =   0.0000000000000E+00
(PID.TID 0000.0001) %MON forcing_fu_del2              =   0.0000000000000E+00
(PID.TID 0000.0001) %MON forcing_fv_max               =   0.0000000000000E+00
(PID.TID 0000.0001) %MON forcing_fv_min               =   0.0000000000000E+00
(PID.TID 0000.0001) %MON forcing_fv_mean              =   0.0000000000000E+00
(PID.TID 0000.0001) %MON forcing_fv_sd                =   0.0000000000000E+00
(PID.TID 0000.0001) %MON forcing_fv_del2              =   0.0000000000000E+00
(PID.TID 0000.0001) %MON advcfl_uvel_max              =   3.6273027996524E-02
(PID.TID 0000.0001) %MON advcfl_vvel_max              =   0.0000000000000E+00
(PID.TID 0000.0001) %MON advcfl_wvel_max              =   2.3276418815975E-02
(PID.TID 0000.0001) %MON advcfl_W_hf_max              =   3.6273027996524E-02
(PID.TID 0000.0001) %MON pe_b_mean                    =   7.8159735983612E-08
(PID.TID 0000.0001) %MON ke_max                       =   5.8477002668293E-02
(PID.TID 0000.0001) %MON ke_mean                      =   7.4224751162575E-03
(PID.TID 0000.0001) %MON ke_vol                       =   9.6656965507697E+10
(PID.TID 0000.0001) %MON vort_r_min                   =   0.0000000000000E+00
(PID.TID 0000.0001) %MON vort_r_max                   =   0.0000000000000E+00
(PID.TID 0000.0001) %MON vort_a_mean                  =   0.0000000000000E+00
(PID.TID 0000.0001) %MON vort_a_sd                    =   0.0000000000000E+00
(PID.TID 0000.0001) %MON vort_p_mean                  =   0.0000000000000E+00
(PID.TID 0000.0001) %MON vort_p_sd                    =   0.0000000000000E+00
(PID.TID 0000.0001) %MON surfExpan_theta_mean         =   1.2022729077062E-19
(PID.TID 0000.0001) %MON surfExpan_salt_mean          =  -3.1459280440754E-19
(PID.TID 0000.0001) // =======================================================
(PID.TID 0000.0001) // End MONITOR dynamic field statistics
(PID.TID 0000.0001) // =======================================================
(PID.TID 0000.0001) // =======================================================
(PID.TID 0000.0001) // Begin OBCS MONITOR field statistics
(PID.TID 0000.0001) // =======================================================
(PID.TID 0000.0001) %MON obc_E_uVel_max               =   1.1205712828732E-01
(PID.TID 0000.0001) %MON obc_E_uVel_min               =   1.1205712828732E-01
(PID.TID 0000.0001) %MON obc_E_uVel_mean              =   1.1205712828732E-01
(PID.TID 0000.0001) %MON obc_E_uVel_sd                =   0.0000000000000E+00
(PID.TID 0000.0001) %MON obc_E_uVel_Int               =   1.1205712828732E+05
(PID.TID 0000.0001) %MON obc_W_uVel_max               =   1.1205712828732E-01
(PID.TID 0000.0001) %MON obc_W_uVel_min               =   1.1205712828732E-01
(PID.TID 0000.0001) %MON obc_W_uVel_mean              =   1.1205712828732E-01
(PID.TID 0000.0001) %MON obc_W_uVel_sd                =   0.0000000000000E+00
(PID.TID 0000.0001) %MON obc_W_uVel_Int               =   1.1205712828732E+05
(PID.TID 0000.0001) // =======================================================
(PID.TID 0000.0001) // End OBCS MONITOR field statistics
(PID.TID 0000.0001) // =======================================================
(PID.TID 0000.0001) %CHECKPOINT      5760 0000005760
 cg2d: Sum(rhs),rhsMax =  -8.25717272334714E-11  2.09871604627896E-02
 cg2d: Sum(rhs),rhsMax =  -8.31775759380093E-11  2.08088345885777E-02
 cg2d: Sum(rhs),rhsMax =  -8.37944158504911E-11  2.06254583532620E-02
 cg2d: Sum(rhs),rhsMax =  -8.44777581221479E-11  2.04371156927971E-02
 cg2d: Sum(rhs),rhsMax =  -8.51895221032350E-11  2.02438928374107E-02
 cg2d: Sum(rhs),rhsMax =  -8.58990656382730E-11  2.00458782936426E-02
 cg2d: Sum(rhs),rhsMax =  -8.67180771635390E-11  1.98431628204539E-02
 cg2d: Sum(rhs),rhsMax =  -8.75872707695180E-11  1.96358393951513E-02
 cg2d: Sum(rhs),rhsMax =  -8.84747830554033E-11  1.94240031645682E-02
 cg2d: Sum(rhs),rhsMax =  -8.94122553773968E-11  1.92077513786574E-02
 cg2d: Sum(rhs),rhsMax =  -9.03873642599251E-11  1.89871833076907E-02
 cg2d: Sum(rhs),rhsMax =  -9.14018860598276E-11  1.87624001496765E-02
 cg2d: Sum(rhs),rhsMax =  -9.24654797174185E-11  1.85335049392652E-02
 cg2d: Sum(rhs),rhsMax =  -9.36001276485854E-11  1.83006024709199E-02
 cg2d: Sum(rhs),rhsMax =  -9.47569800402448E-11  1.80637992460598E-02
 cg2d: Sum(rhs),rhsMax =  -9.59567980629572E-11  1.78232034467298E-02
 cg2d: Sum(rhs),rhsMax =  -9.72212310657028E-11  1.75789249295183E-02
 cg2d: Sum(rhs),rhsMax =  -9.85453940671732E-11  1.73310752262770E-02
 cg2d: Sum(rhs),rhsMax =  -9.99117455435794E-11  1.70797675355159E-02
 cg2d: Sum(rhs),rhsMax =  -1.01362251925252E-10  1.68251166912038E-02
 cg2d: Sum(rhs),rhsMax =  -1.02843067395497E-10  1.65672391029555E-02
 cg2d: Sum(rhs),rhsMax =  -1.04393160782479E-10  1.63062526704176E-02
 cg2d: Sum(rhs),rhsMax =  -1.06017417067505E-10  1.60422766817998E-02
 cg2d: Sum(rhs),rhsMax =  -1.07748698852106E-10  1.57754317095513E-02
 cg2d: Sum(rhs),rhsMax =  -1.09527387159858E-10  1.55058395141751E-02
 cg2d: Sum(rhs),rhsMax =  -1.11371800670668E-10  1.52336229621503E-02
 cg2d: Sum(rhs),rhsMax =  -1.13347331520686E-10  1.49589059572067E-02
 cg2d: Sum(rhs),rhsMax =  -1.15380260901077E-10  1.46818133790578E-02
 cg2d: Sum(rhs),rhsMax =  -1.17521103959461E-10  1.44024710216797E-02
 cg2d: Sum(rhs),rhsMax =  -1.19755094729612E-10  1.41210055246352E-02
 cg2d: Sum(rhs),rhsMax =  -1.22097443266966E-10  1.38375442946519E-02
 cg2d: Sum(rhs),rhsMax =  -1.24553700686647E-10  1.35522154187373E-02
 cg2d: Sum(rhs),rhsMax =  -1.27122978810235E-10  1.32651475727516E-02
 cg2d: Sum(rhs),rhsMax =  -1.29831589923413E-10  1.29764699296927E-02
 cg2d: Sum(rhs),rhsMax =  -1.32706623467982E-10  1.26863120704127E-02
 cg2d: Sum(rhs),rhsMax =  -1.35736311079881E-10  1.23948038974486E-02
 cg2d: Sum(rhs),rhsMax =  -1.38872247035238E-10  1.21020755516315E-02
 cg2d: Sum(rhs),rhsMax =  -1.42193368191101E-10  1.18082573318983E-02
 cg2d: Sum(rhs),rhsMax =  -1.45694456499257E-10  1.15134796208652E-02
 cg2d: Sum(rhs),rhsMax =  -1.49474987942710E-10  1.12178728208901E-02
 cg2d: Sum(rhs),rhsMax =  -1.53476453768064E-10  1.09215673060415E-02
 cg2d: Sum(rhs),rhsMax =  -1.57697577218840E-10  1.06246933937197E-02
 cg2d: Sum(rhs),rhsMax =  -1.62175051166003E-10  1.03273813359089E-02
 cg2d: Sum(rhs),rhsMax =  -1.66930802514287E-10  1.00297613254623E-02
 cg2d: Sum(rhs),rhsMax =  -1.71991310082831E-10  9.73196350909173E-03
 cg2d: Sum(rhs),rhsMax =  -1.77356018760122E-10  9.43411799718348E-03
 cg2d: Sum(rhs),rhsMax =  -1.83073445292337E-10  9.13635486159623E-03
 cg2d: Sum(rhs),rhsMax =  -1.89184445886781E-10  8.83880411556888E-03
 cg2d: Sum(rhs),rhsMax =  -1.95700233796003E-10  8.54159567383243E-03
 cg2d: Sum(rhs),rhsMax =  -2.02633854140544E-10  8.24485929500489E-03
 cg2d: Sum(rhs),rhsMax =  -2.10103656694827E-10  7.94872451116272E-03
 cg2d: Sum(rhs),rhsMax =  -2.18140727703542E-10  7.65332055115020E-03
 cg2d: Sum(rhs),rhsMax =  -2.26825613847126E-10  7.35877626455034E-03
 cg2d: Sum(rhs),rhsMax =  -2.36161701305804E-10  7.06522005238307E-03
 cg2d: Sum(rhs),rhsMax =  -2.46277276350071E-10  6.77277980870749E-03
 cg2d: Sum(rhs),rhsMax =  -2.41635350617386E-10  6.90147560626955E-03
 cg2d: Sum(rhs),rhsMax =  -2.32936114841209E-10  7.15693296105712E-03
 cg2d: Sum(rhs),rhsMax =  -2.24912061197458E-10  7.41036313738126E-03
 cg2d: Sum(rhs),rhsMax =  -2.17453818840418E-10  7.66166381907995E-03
 cg2d: Sum(rhs),rhsMax =  -2.10549785939484E-10  7.91073410481057E-03
 cg2d: Sum(rhs),rhsMax =  -2.04114572466274E-10  8.15747379512987E-03
 cg2d: Sum(rhs),rhsMax =  -1.98096861830921E-10  8.40177975259095E-03
 cg2d: Sum(rhs),rhsMax =  -1.92485707928292E-10  8.64355582674134E-03
 cg2d: Sum(rhs),rhsMax =  -1.87266389894969E-10  8.88271273659141E-03
 cg2d: Sum(rhs),rhsMax =  -1.82323281472385E-10  9.11917287463099E-03
 cg2d: Sum(rhs),rhsMax =  -1.77707848436626E-10  9.35284946517509E-03
 cg2d: Sum(rhs),rhsMax =  -1.73369874012508E-10  9.58364492493488E-03
 cg2d: Sum(rhs),rhsMax =  -1.69304806285631E-10  9.81145442171330E-03
 cg2d: Sum(rhs),rhsMax =  -1.65459618228780E-10  1.00361787689508E-02
 cg2d: Sum(rhs),rhsMax =  -1.61840901791166E-10  1.02577236642046E-02
 cg2d: Sum(rhs),rhsMax =  -1.58318302911908E-10  1.04760059681122E-02
 cg2d: Sum(rhs),rhsMax =  -1.55033097470891E-10  1.06909498962150E-02
 cg2d: Sum(rhs),rhsMax =  -1.51891110800051E-10  1.09024846634731E-02
 cg2d: Sum(rhs),rhsMax =  -1.48917156383988E-10  1.11105336153714E-02
 cg2d: Sum(rhs),rhsMax =  -1.46101936104870E-10  1.13150093126521E-02
 cg2d: Sum(rhs),rhsMax =  -1.43475953340300E-10  1.15158196038791E-02
 cg2d: Sum(rhs),rhsMax =  -1.40950529026185E-10  1.17128755507307E-02
 cg2d: Sum(rhs),rhsMax =  -1.38569322682969E-10  1.19060944277476E-02
 cg2d: Sum(rhs),rhsMax =  -1.36276712137118E-10  1.20953768383140E-02
 cg2d: Sum(rhs),rhsMax =  -1.34173228083512E-10  1.22806331135164E-02
 cg2d: Sum(rhs),rhsMax =  -1.32140187680818E-10  1.24617871450520E-02
 cg2d: Sum(rhs),rhsMax =  -1.30165433986917E-10  1.26387711555936E-02
 cg2d: Sum(rhs),rhsMax =  -1.28348609518270E-10  1.28115201344912E-02
 cg2d: Sum(rhs),rhsMax =  -1.26614885243015E-10  1.29799693071679E-02
 cg2d: Sum(rhs),rhsMax =  -1.24975529924853E-10  1.31440541557764E-02
 cg2d: Sum(rhs),rhsMax =  -1.23376420191335E-10  1.33037112569745E-02
 cg2d: Sum(rhs),rhsMax =  -1.21888998894093E-10  1.34588789107927E-02
 cg2d: Sum(rhs),rhsMax =  -1.20444598739056E-10  1.36094973356459E-02
 cg2d: Sum(rhs),rhsMax =  -1.19130927345168E-10  1.37555101585748E-02
 cg2d: Sum(rhs),rhsMax =  -1.17830190049517E-10  1.38968677729944E-02
 cg2d: Sum(rhs),rhsMax =  -1.16608500633220E-10  1.40335184714265E-02
 cg2d: Sum(rhs),rhsMax =  -1.15466469718939E-10  1.41654116114092E-02
 cg2d: Sum(rhs),rhsMax =  -1.14382892046905E-10  1.42924948385114E-02
 cg2d: Sum(rhs),rhsMax =  -1.13384357458557E-10  1.44147166769852E-02
 cg2d: Sum(rhs),rhsMax =  -1.12372000593552E-10  1.45320287343095E-02
 cg2d: Sum(rhs),rhsMax =  -1.11468501096113E-10  1.46443860990940E-02
 cg2d: Sum(rhs),rhsMax =  -1.10536912956150E-10  1.47517465146148E-02
 cg2d: Sum(rhs),rhsMax =  -1.09690423411024E-10  1.48540701270164E-02
 cg2d: Sum(rhs),rhsMax =  -1.08869246950860E-10  1.49513186292861E-02
 cg2d: Sum(rhs),rhsMax =  -1.08079045713083E-10  1.50434549418074E-02
 cg2d: Sum(rhs),rhsMax =  -1.07397424287115E-10  1.51304435148418E-02
 cg2d: Sum(rhs),rhsMax =  -1.06731679050398E-10  1.52122507344992E-02
 cg2d: Sum(rhs),rhsMax =  -1.06129049992632E-10  1.52888451596515E-02
 cg2d: Sum(rhs),rhsMax =  -1.05501662961416E-10  1.53601975753370E-02
 cg2d: Sum(rhs),rhsMax =  -1.04977637693793E-10  1.54262814337568E-02
 cg2d: Sum(rhs),rhsMax =  -1.04483144358625E-10  1.54870725403097E-02
 cg2d: Sum(rhs),rhsMax =  -1.04072528372967E-10  1.55425483072670E-02
 cg2d: Sum(rhs),rhsMax =  -1.03650144023248E-10  1.55926902467569E-02
 cg2d: Sum(rhs),rhsMax =  -1.03301311948911E-10  1.56374995406785E-02
 cg2d: Sum(rhs),rhsMax =  -1.02983011007751E-10  1.56769740038076E-02
 cg2d: Sum(rhs),rhsMax =  -1.02727992778995E-10  1.57111027170064E-02
 cg2d: Sum(rhs),rhsMax =  -1.02503838750323E-10  1.57398719919928E-02
 cg2d: Sum(rhs),rhsMax =  -1.02318375994059E-10  1.57632696878310E-02
 cg2d: Sum(rhs),rhsMax =  -1.02146013869486E-10  1.57812867215286E-02
 cg2d: Sum(rhs),rhsMax =  -1.01956387776880E-10  1.57939170420561E-02
 cg2d: Sum(rhs),rhsMax =  -1.01863129042812E-10  1.58011572732580E-02
 cg2d: Sum(rhs),rhsMax =  -1.01769814797592E-10  1.58030064840160E-02
 cg2d: Sum(rhs),rhsMax =  -1.01691488563205E-10  1.57994657625011E-02
 cg2d: Sum(rhs),rhsMax =  -1.01718133915796E-10  1.57905366332060E-02
 cg2d: Sum(rhs),rhsMax =  -1.01796737705939E-10  1.57762211338456E-02
 cg2d: Sum(rhs),rhsMax =  -1.01918917749799E-10  1.57565161724592E-02
 cg2d: Sum(rhs),rhsMax =  -1.02154507075625E-10  1.57314217299556E-02
 cg2d: Sum(rhs),rhsMax =  -1.02322483819250E-10  1.57009452850422E-02
 cg2d: Sum(rhs),rhsMax =  -1.02614916563937E-10  1.56651028152379E-02
 cg2d: Sum(rhs),rhsMax =  -1.02939379242883E-10  1.56239148267427E-02
 cg2d: Sum(rhs),rhsMax =  -1.03295594300334E-10  1.55774032876067E-02
 cg2d: Sum(rhs),rhsMax =  -1.03684838492768E-10  1.55255901184802E-02
 cg2d: Sum(rhs),rhsMax =  -1.04076303131251E-10  1.54684986117881E-02
 cg2d: Sum(rhs),rhsMax =  -1.04532715816674E-10  1.54061561662984E-02
 cg2d: Sum(rhs),rhsMax =  -1.05030317776311E-10  1.53385947475670E-02
 cg2d: Sum(rhs),rhsMax =  -1.05546182904703E-10  1.52658471829846E-02
 cg2d: Sum(rhs),rhsMax =  -1.06148867473621E-10  1.51879465050439E-02
 cg2d: Sum(rhs),rhsMax =  -1.06803399457789E-10  1.51049268294534E-02
 cg2d: Sum(rhs),rhsMax =  -1.07471198607101E-10  1.50168247287815E-02
 cg2d: Sum(rhs),rhsMax =  -1.08201059223489E-10  1.49236793814753E-02
 cg2d: Sum(rhs),rhsMax =  -1.09003917003747E-10  1.48255328135528E-02
 cg2d: Sum(rhs),rhsMax =  -1.09855735619391E-10  1.47224271845691E-02
 cg2d: Sum(rhs),rhsMax =  -1.10735753899860E-10  1.46143592438907E-02
 cg2d: Sum(rhs),rhsMax =  -1.11706643934895E-10  1.45013278009046E-02
 cg2d: Sum(rhs),rhsMax =  -1.12713116617869E-10  1.43833606516034E-02
 cg2d: Sum(rhs),rhsMax =  -1.13773768184444E-10  1.42605099855006E-02
 cg2d: Sum(rhs),rhsMax =  -1.14880771562298E-10  1.41328379552401E-02
 cg2d: Sum(rhs),rhsMax =  -1.16061493748987E-10  1.40004065669122E-02
 cg2d: Sum(rhs),rhsMax =  -1.17338472271911E-10  1.38632749311693E-02
 cg2d: Sum(rhs),rhsMax =  -1.18636322987697E-10  1.37215011947273E-02
 cg2d: Sum(rhs),rhsMax =  -1.19950160915039E-10  1.35751446471978E-02
 cg2d: Sum(rhs),rhsMax =  -1.21373466832608E-10  1.34242664912989E-02
 cg2d: Sum(rhs),rhsMax =  -1.22845345007505E-10  1.32689299488529E-02
 cg2d: Sum(rhs),rhsMax =  -1.24389887279364E-10  1.31092001965815E-02
 cg2d: Sum(rhs),rhsMax =  -1.26044674697567E-10  1.29451442602225E-02
 cg2d: Sum(rhs),rhsMax =  -1.27783172931828E-10  1.27768310255921E-02
 cg2d: Sum(rhs),rhsMax =  -1.29613431099074E-10  1.26043433390947E-02
 cg2d: Sum(rhs),rhsMax =  -1.31523847368697E-10  1.24277770655976E-02
 cg2d: Sum(rhs),rhsMax =  -1.33531574686430E-10  1.22472214204630E-02
 cg2d: Sum(rhs),rhsMax =  -1.35646993637550E-10  1.20627557979060E-02
 cg2d: Sum(rhs),rhsMax =  -1.37879541117769E-10  1.18744549027006E-02
 cg2d: Sum(rhs),rhsMax =  -1.40211786625599E-10  1.16823943146007E-02
 cg2d: Sum(rhs),rhsMax =  -1.42684086767986E-10  1.14866527082939E-02
 cg2d: Sum(rhs),rhsMax =  -1.45327971878828E-10  1.12873120988460E-02
 cg2d: Sum(rhs),rhsMax =  -1.48081380491050E-10  1.10844567828260E-02
 cg2d: Sum(rhs),rhsMax =  -1.51001322556965E-10  1.08781725569150E-02
 cg2d: Sum(rhs),rhsMax =  -1.54062040902403E-10  1.06685468857687E-02
 cg2d: Sum(rhs),rhsMax =  -1.57317159299453E-10  1.04556661289188E-02
 cg2d: Sum(rhs),rhsMax =  -1.60755020406356E-10  1.02395796505867E-02
 cg2d: Sum(rhs),rhsMax =  -1.64388391787895E-10  1.00203457080577E-02
 cg2d: Sum(rhs),rhsMax =  -1.68252412002801E-10  9.79804548995146E-03
 cg2d: Sum(rhs),rhsMax =  -1.72363179284929E-10  9.57277656972848E-03
 cg2d: Sum(rhs),rhsMax =  -1.76719638922407E-10  9.34464210487950E-03
 cg2d: Sum(rhs),rhsMax =  -1.81222092887623E-10  9.11374449698306E-03
 cg2d: Sum(rhs),rhsMax =  -1.86029636140006E-10  8.88018425522546E-03
 cg2d: Sum(rhs),rhsMax =  -1.91157811801901E-10  8.64406004621547E-03
 cg2d: Sum(rhs),rhsMax =  -1.96658245243952E-10  8.40547088291419E-03
 cg2d: Sum(rhs),rhsMax =  -2.00901045799284E-10  8.23084762594826E-03
 cg2d: Sum(rhs),rhsMax =  -2.04630909439452E-10  8.08264834725248E-03
 cg2d: Sum(rhs),rhsMax =  -2.08567108028745E-10  7.93228125859503E-03
 cg2d: Sum(rhs),rhsMax =  -2.12712243652380E-10  7.77983310854856E-03
 cg2d: Sum(rhs),rhsMax =  -2.17122222978539E-10  7.62539150652923E-03
 cg2d: Sum(rhs),rhsMax =  -2.21754924319140E-10  7.46904479845310E-03
 cg2d: Sum(rhs),rhsMax =  -2.26609158521240E-10  7.31088171964032E-03
 cg2d: Sum(rhs),rhsMax =  -2.31752304846733E-10  7.15099109002646E-03
 cg2d: Sum(rhs),rhsMax =  -2.37215885823261E-10  6.98946163421631E-03
 cg2d: Sum(rhs),rhsMax =  -2.42935116467891E-10  6.82634300734831E-03
 cg2d: Sum(rhs),rhsMax =  -2.49022635845364E-10  6.66169120250610E-03
 cg2d: Sum(rhs),rhsMax =  -2.55496152012924E-10  6.49558564182690E-03
 cg2d: Sum(rhs),rhsMax =  -2.62327048972111E-10  6.32812593273262E-03
 cg2d: Sum(rhs),rhsMax =  -2.55020449202448E-10  6.51159106403311E-03
 cg2d: Sum(rhs),rhsMax =  -2.44905817847751E-10  6.78278108707650E-03
 cg2d: Sum(rhs),rhsMax =  -2.35089503419772E-10  7.06797225351721E-03
 cg2d: Sum(rhs),rhsMax =  -2.26001606318249E-10  7.35397694661650E-03
 cg2d: Sum(rhs),rhsMax =  -2.17602935670413E-10  7.64066192399266E-03
 cg2d: Sum(rhs),rhsMax =  -2.09805006701203E-10  7.92789365893752E-03
 cg2d: Sum(rhs),rhsMax =  -2.02536099003225E-10  8.21553857819677E-03
 cg2d: Sum(rhs),rhsMax =  -1.95740312847192E-10  8.50346332117726E-03
 cg2d: Sum(rhs),rhsMax =  -1.89392390659293E-10  8.79153499771970E-03
 cg2d: Sum(rhs),rhsMax =  -1.83437098844053E-10  9.07962142105958E-03
 cg2d: Sum(rhs),rhsMax =  -1.77870607132036E-10  9.36759129872527E-03
 cg2d: Sum(rhs),rhsMax =  -1.72640846063388E-10  9.65531437483276E-03
 cg2d: Sum(rhs),rhsMax =  -1.67709457432608E-10  9.94266152806539E-03
 cg2d: Sum(rhs),rhsMax =  -1.63054236779203E-10  1.02295048360240E-02
 cg2d: Sum(rhs),rhsMax =  -1.58670021566110E-10  1.05157176165589E-02
 cg2d: Sum(rhs),rhsMax =  -1.54514345762635E-10  1.08011744516969E-02
 cg2d: Sum(rhs),rhsMax =  -1.50613632676766E-10  1.10857511939052E-02
 cg2d: Sum(rhs),rhsMax =  -1.46884282514748E-10  1.13693249516450E-02
 cg2d: Sum(rhs),rhsMax =  -1.43424605525411E-10  1.16517740529926E-02
 cg2d: Sum(rhs),rhsMax =  -1.40176203977660E-10  1.19329779910059E-02
 cg2d: Sum(rhs),rhsMax =  -1.37094002816696E-10  1.22128173592089E-02
 cg2d: Sum(rhs),rhsMax =  -1.34150246466902E-10  1.24911737870055E-02
 cg2d: Sum(rhs),rhsMax =  -1.31364030764303E-10  1.27679298821946E-02
 cg2d: Sum(rhs),rhsMax =  -1.28698607326783E-10  1.30429691825573E-02
 cg2d: Sum(rhs),rhsMax =  -1.26156085578089E-10  1.33161761135065E-02
 cg2d: Sum(rhs),rhsMax =  -1.23747900815374E-10  1.35874359463295E-02
 cg2d: Sum(rhs),rhsMax =  -1.21438969991061E-10  1.38566347523953E-02
 cg2d: Sum(rhs),rhsMax =  -1.19230292305872E-10  1.41236593520008E-02
 cg2d: Sum(rhs),rhsMax =  -1.17156617740477E-10  1.43883972606819E-02
 cg2d: Sum(rhs),rhsMax =  -1.15138898415523E-10  1.46507366393554E-02
 cg2d: Sum(rhs),rhsMax =  -1.13233200593754E-10  1.49105662568180E-02
 cg2d: Sum(rhs),rhsMax =  -1.11403997138382E-10  1.51677754736592E-02
 cg2d: Sum(rhs),rhsMax =  -1.09643294443629E-10  1.54222542554561E-02
 cg2d: Sum(rhs),rhsMax =  -1.07966635631840E-10  1.56738932200264E-02
 cg2d: Sum(rhs),rhsMax =  -1.06350372952591E-10  1.59225837184960E-02
 cg2d: Sum(rhs),rhsMax =  -1.04802722056263E-10  1.61682179436212E-02
 cg2d: Sum(rhs),rhsMax =  -1.03362096659509E-10  1.64106890527050E-02
 cg2d: Sum(rhs),rhsMax =  -1.01956221243427E-10  1.66498912887157E-02
 cg2d: Sum(rhs),rhsMax =  -1.00599306662730E-10  1.68857200836660E-02
 cg2d: Sum(rhs),rhsMax =  -9.93026771922700E-11  1.71180721334997E-02
 cg2d: Sum(rhs),rhsMax =  -9.80747705270346E-11  1.73468454423126E-02
 cg2d: Sum(rhs),rhsMax =  -9.68812807755626E-11  1.75719393429087E-02
 cg2d: Sum(rhs),rhsMax =  -9.57497414688646E-11  1.77932545072318E-02
 cg2d: Sum(rhs),rhsMax =  -9.46538403212571E-11  1.80106929619128E-02
 cg2d: Sum(rhs),rhsMax =  -9.35949096003696E-11  1.82241581207533E-02
 cg2d: Sum(rhs),rhsMax =  -9.26027032832621E-11  1.84335548391478E-02
 cg2d: Sum(rhs),rhsMax =  -9.16380304971653E-11  1.86387894881256E-02
 cg2d: Sum(rhs),rhsMax =  -9.07305341968367E-11  1.88397700405917E-02
 cg2d: Sum(rhs),rhsMax =  -8.98383589742480E-11  1.90364061609743E-02
 cg2d: Sum(rhs),rhsMax =  -8.90418849763819E-11  1.92286092917698E-02
 cg2d: Sum(rhs),rhsMax =  -8.82830475390506E-11  1.94162927348431E-02
 cg2d: Sum(rhs),rhsMax =  -8.75602923500196E-11  1.95993717296886E-02
 cg2d: Sum(rhs),rhsMax =  -8.68706218071225E-11  1.97777635335046E-02
 cg2d: Sum(rhs),rhsMax =  -8.61949400743356E-11  1.99513875081068E-02
 cg2d: Sum(rhs),rhsMax =  -8.55691073553544E-11  2.01201652165458E-02
 cg2d: Sum(rhs),rhsMax =  -8.49686987436371E-11  2.02840205285054E-02
 cg2d: Sum(rhs),rhsMax =  -8.44111447406704E-11  2.04428797291780E-02
 cg2d: Sum(rhs),rhsMax =  -8.38465963326485E-11  2.05966716225405E-02
 cg2d: Sum(rhs),rhsMax =  -8.33288993362657E-11  2.07453276181487E-02
 cg2d: Sum(rhs),rhsMax =  -8.28316304435361E-11  2.08887817918790E-02
 cg2d: Sum(rhs),rhsMax =  -8.23642265501690E-11  2.10269709158514E-02
 cg2d: Sum(rhs),rhsMax =  -8.19108114669120E-11  2.11598344600490E-02
 cg2d: Sum(rhs),rhsMax =  -8.14688316808088E-11  2.12873145755707E-02
 cg2d: Sum(rhs),rhsMax =  -8.10820299790294E-11  2.14093560741723E-02
 cg2d: Sum(rhs),rhsMax =  -8.07079958420331E-11  2.15259064187097E-02
 cg2d: Sum(rhs),rhsMax =  -8.03467292698201E-11  2.16369157340698E-02
 cg2d: Sum(rhs),rhsMax =  -8.00042254667233E-11  2.17423368399890E-02
 cg2d: Sum(rhs),rhsMax =  -7.96945842651553E-11  2.18421252988874E-02
 cg2d: Sum(rhs),rhsMax =  -7.93966004053459E-11  2.19362394666033E-02
 cg2d: Sum(rhs),rhsMax =  -7.91228194074733E-11  2.20246405335358E-02
 cg2d: Sum(rhs),rhsMax =  -7.88614729074766E-11  2.21072925479623E-02
 cg2d: Sum(rhs),rhsMax =  -7.86883891379375E-11  2.21841624198969E-02
 cg2d: Sum(rhs),rhsMax =  -7.84632359085435E-11  2.22552199095386E-02
 cg2d: Sum(rhs),rhsMax =  -7.83195730491570E-11  2.23204376066643E-02
 cg2d: Sum(rhs),rhsMax =  -7.81797959703567E-11  2.23797909059240E-02
 cg2d: Sum(rhs),rhsMax =  -7.80590037052775E-11  2.24332579798455E-02
 cg2d: Sum(rhs),rhsMax =  -7.79558639862898E-11  2.24808197492980E-02
 cg2d: Sum(rhs),rhsMax =  -7.78502817766480E-11  2.25224598520733E-02
 cg2d: Sum(rhs),rhsMax =  -7.77551356634376E-11  2.25581646136746E-02
 cg2d: Sum(rhs),rhsMax =  -7.77675701613134E-11  2.25879230278876E-02
 cg2d: Sum(rhs),rhsMax =  -7.77423680986544E-11  2.26117267553378E-02
 cg2d: Sum(rhs),rhsMax =  -7.78084263686196E-11  2.26295701445871E-02
 cg2d: Sum(rhs),rhsMax =  -7.77963249376512E-11  2.26414502734123E-02
 cg2d: Sum(rhs),rhsMax =  -7.77452546785184E-11  2.26473670006436E-02
 cg2d: Sum(rhs),rhsMax =  -7.76733122265227E-11  2.26473230145558E-02
 cg2d: Sum(rhs),rhsMax =  -7.76316788630993E-11  2.26413238641010E-02
 cg2d: Sum(rhs),rhsMax =  -7.75963737709162E-11  2.26293779640220E-02
 cg2d: Sum(rhs),rhsMax =  -7.75647324147144E-11  2.26114965718870E-02
 cg2d: Sum(rhs),rhsMax =  -7.76153585846373E-11  2.25876937414862E-02
 cg2d: Sum(rhs),rhsMax =  -7.76738673380351E-11  2.25579862613829E-02
 cg2d: Sum(rhs),rhsMax =  -7.77491404591046E-11  2.25223935883957E-02
 cg2d: Sum(rhs),rhsMax =  -7.78191955319585E-11  2.24809377842641E-02
 cg2d: Sum(rhs),rhsMax =  -7.79403208639451E-11  2.24336434608410E-02
 cg2d: Sum(rhs),rhsMax =  -7.80592257498824E-11  2.23805377359864E-02
 cg2d: Sum(rhs),rhsMax =  -7.81578135544692E-11  2.23216501995523E-02
 cg2d: Sum(rhs),rhsMax =  -7.82910403174242E-11  2.22570128866966E-02
 cg2d: Sum(rhs),rhsMax =  -7.84757814287218E-11  2.21866602543463E-02
 cg2d: Sum(rhs),rhsMax =  -7.86896103832646E-11  2.21106291562081E-02
 cg2d: Sum(rhs),rhsMax =  -7.89666110279086E-11  2.20289588125751E-02
 cg2d: Sum(rhs),rhsMax =  -7.92022003537340E-11  2.19416907733633E-02
 cg2d: Sum(rhs),rhsMax =  -7.94970755890745E-11  2.18488688758909E-02
 cg2d: Sum(rhs),rhsMax =  -7.98070498575498E-11  2.17505392019198E-02
 cg2d: Sum(rhs),rhsMax =  -8.01212429735187E-11  2.16467500402709E-02
 cg2d: Sum(rhs),rhsMax =  -8.04784017205407E-11  2.15375518610902E-02
 cg2d: Sum(rhs),rhsMax =  -8.08533240359566E-11  2.14229973055206E-02
 cg2d: Sum(rhs),rhsMax =  -8.12258038607183E-11  2.13031411908517E-02
 cg2d: Sum(rhs),rhsMax =  -8.16579026619024E-11  2.11780405273835E-02
 cg2d: Sum(rhs),rhsMax =  -8.20674639356866E-11  2.10477545403734E-02
 cg2d: Sum(rhs),rhsMax =  -8.25444157470656E-11  2.09123446891996E-02
 cg2d: Sum(rhs),rhsMax =  -8.30158164433215E-11  2.07718746764456E-02
 cg2d: Sum(rhs),rhsMax =  -8.35239655216924E-11  2.06264104418874E-02
 cg2d: Sum(rhs),rhsMax =  -8.40626457332405E-11  2.04760201399507E-02
 cg2d: Sum(rhs),rhsMax =  -8.46120951081275E-11  2.03207741033268E-02
 cg2d: Sum(rhs),rhsMax =  -8.52041770471601E-11  2.01607447988404E-02
 cg2d: Sum(rhs),rhsMax =  -8.58312310114684E-11  1.99960067830149E-02
 cg2d: Sum(rhs),rhsMax =  -8.64529559052585E-11  1.98266366633471E-02
 cg2d: Sum(rhs),rhsMax =  -8.71379635114522E-11  1.96527130675301E-02
 cg2d: Sum(rhs),rhsMax =  -8.78253025859976E-11  1.94743166183635E-02
 cg2d: Sum(rhs),rhsMax =  -8.85623796520463E-11  1.92915299088984E-02
 cg2d: Sum(rhs),rhsMax =  -8.93154439296495E-11  1.91044374719247E-02
 cg2d: Sum(rhs),rhsMax =  -9.01572150269203E-11  1.89131257402881E-02
 cg2d: Sum(rhs),rhsMax =  -9.10458375358303E-11  1.87176829984605E-02
 cg2d: Sum(rhs),rhsMax =  -9.19505582785973E-11  1.85181993293424E-02
 cg2d: Sum(rhs),rhsMax =  -9.29223364920517E-11  1.83147665618576E-02
 cg2d: Sum(rhs),rhsMax =  -9.39506250574595E-11  1.81074782239911E-02
 cg2d: Sum(rhs),rhsMax =  -9.49891276746939E-11  1.78964295032884E-02
 cg2d: Sum(rhs),rhsMax =  -9.60694856999567E-11  1.76817172140742E-02
 cg2d: Sum(rhs),rhsMax =  -9.72015801181669E-11  1.74634397691110E-02
 cg2d: Sum(rhs),rhsMax =  -9.83695347400726E-11  1.72416971531408E-02
 cg2d: Sum(rhs),rhsMax =  -9.96204230219178E-11  1.70165908955260E-02
 cg2d: Sum(rhs),rhsMax =  -1.00885855225386E-10  1.67882240378509E-02
 cg2d: Sum(rhs),rhsMax =  -1.02214570141257E-10  1.65567010901763E-02
 cg2d: Sum(rhs),rhsMax =  -1.03606234702625E-10  1.63221279687267E-02
 cg2d: Sum(rhs),rhsMax =  -1.05077502254858E-10  1.60846119104815E-02
 cg2d: Sum(rhs),rhsMax =  -1.06585962278416E-10  1.58442613670604E-02
 cg2d: Sum(rhs),rhsMax =  -1.08164588397131E-10  1.56011858893270E-02
 cg2d: Sum(rhs),rhsMax =  -1.09817710480797E-10  1.53554960211930E-02
 cg2d: Sum(rhs),rhsMax =  -1.11531894830819E-10  1.51073032223505E-02
 cg2d: Sum(rhs),rhsMax =  -1.13315690164484E-10  1.48567198336094E-02
 cg2d: Sum(rhs),rhsMax =  -1.15201737038717E-10  1.46038590868209E-02
 cg2d: Sum(rhs),rhsMax =  -1.17135301458404E-10  1.43488351478703E-02
 cg2d: Sum(rhs),rhsMax =  -1.19186105429492E-10  1.40917631703150E-02
 cg2d: Sum(rhs),rhsMax =  -1.21309295941785E-10  1.38327593322971E-02
 cg2d: Sum(rhs),rhsMax =  -1.23550614183898E-10  1.35719408318584E-02
 cg2d: Sum(rhs),rhsMax =  -1.25869092926223E-10  1.33094258252833E-02
 cg2d: Sum(rhs),rhsMax =  -1.28321353543015E-10  1.30453333074124E-02
 cg2d: Sum(rhs),rhsMax =  -1.30865318581641E-10  1.27797829481310E-02
 cg2d: Sum(rhs),rhsMax =  -1.33564492799110E-10  1.25128949103641E-02
 cg2d: Sum(rhs),rhsMax =  -1.36371469672270E-10  1.22447896773281E-02
 cg2d: Sum(rhs),rhsMax =  -1.39303180102246E-10  1.19755879088694E-02
 cg2d: Sum(rhs),rhsMax =  -1.42405975900317E-10  1.17054103314450E-02
 cg2d: Sum(rhs),rhsMax =  -1.45647605087618E-10  1.14343776505149E-02
 cg2d: Sum(rhs),rhsMax =  -1.49076584410324E-10  1.11626104652820E-02
 cg2d: Sum(rhs),rhsMax =  -1.52669155095708E-10  1.08902291680210E-02
 cg2d: Sum(rhs),rhsMax =  -1.56535118200907E-10  1.06173538224025E-02
 cg2d: Sum(rhs),rhsMax =  -1.60608359944803E-10  1.03441040313382E-02
 cg2d: Sum(rhs),rhsMax =  -1.64918301237549E-10  1.00705988175419E-02
 cg2d: Sum(rhs),rhsMax =  -1.69459668519778E-10  9.79695654360458E-03
 cg2d: Sum(rhs),rhsMax =  -1.74285530452067E-10  9.52329489125361E-03
 cg2d: Sum(rhs),rhsMax =  -1.79360248875327E-10  9.24973090420679E-03
 cg2d: Sum(rhs),rhsMax =  -1.84753157217443E-10  8.97638108142113E-03
 cg2d: Sum(rhs),rhsMax =  -1.90471916017287E-10  8.70336149428897E-03
 cg2d: Sum(rhs),rhsMax =  -1.96577976119272E-10  8.43078789747053E-03
 cg2d: Sum(rhs),rhsMax =  -2.03055350311843E-10  8.15877580976678E-03
 cg2d: Sum(rhs),rhsMax =  -2.09932293770976E-10  7.88744055555188E-03
 cg2d: Sum(rhs),rhsMax =  -2.17308726568888E-10  7.61689727266636E-03
 cg2d: Sum(rhs),rhsMax =  -2.25205520898442E-10  7.34726090301122E-03
 cg2d: Sum(rhs),rhsMax =  -2.33669195104369E-10  7.07864618375235E-03
 cg2d: Sum(rhs),rhsMax =  -2.42773856573564E-10  6.81116765051067E-03
 cg2d: Sum(rhs),rhsMax =  -2.52518700394333E-10  6.54493965310854E-03
 cg2d: Sum(rhs),rhsMax =  -2.56363791306669E-10  6.44508654373362E-03
 cg2d: Sum(rhs),rhsMax =  -2.50134607471253E-10  6.60349934387036E-03
 cg2d: Sum(rhs),rhsMax =  -2.44248135605751E-10  6.76036561657074E-03
 cg2d: Sum(rhs),rhsMax =  -2.38637512528506E-10  6.91561305906481E-03
 cg2d: Sum(rhs),rhsMax =  -2.33406884098120E-10  7.06916736137377E-03
 cg2d: Sum(rhs),rhsMax =  -2.28438149472987E-10  7.22095194422585E-03
 cg2d: Sum(rhs),rhsMax =  -2.23719362479891E-10  7.37088956379236E-03
 cg2d: Sum(rhs),rhsMax =  -2.19211968022215E-10  7.51893578613796E-03
 cg2d: Sum(rhs),rhsMax =  -2.14914780416464E-10  7.66504705626295E-03
 cg2d: Sum(rhs),rhsMax =  -2.10876677231298E-10  7.80916292265148E-03
 cg2d: Sum(rhs),rhsMax =  -2.07040107280676E-10  7.95120885356327E-03
 cg2d: Sum(rhs),rhsMax =  -2.03405264853629E-10  8.09110640166910E-03
 cg2d: Sum(rhs),rhsMax =  -1.99922384203077E-10  8.22877940255527E-03
 cg2d: Sum(rhs),rhsMax =  -1.96601429580667E-10  8.36415524825174E-03
 cg2d: Sum(rhs),rhsMax =  -1.93510069079750E-10  8.49716390042223E-03
 cg2d: Sum(rhs),rhsMax =  -1.90540055955424E-10  8.62775232348338E-03
 cg2d: Sum(rhs),rhsMax =  -1.87677595686608E-10  8.75586825218214E-03
 cg2d: Sum(rhs),rhsMax =  -1.84953163895329E-10  8.88144578654432E-03
 cg2d: Sum(rhs),rhsMax =  -1.81294812495736E-10  9.05505267675379E-03
 cg2d: Sum(rhs),rhsMax =  -1.77267867051967E-10  9.25475614425014E-03
 cg2d: Sum(rhs),rhsMax =  -1.73452030516330E-10  9.45098443161033E-03
 cg2d: Sum(rhs),rhsMax =  -1.69897040880329E-10  9.64365861609807E-03
 cg2d: Sum(rhs),rhsMax =  -1.66503089094050E-10  9.83270056515435E-03
 cg2d: Sum(rhs),rhsMax =  -1.63324631596851E-10  1.00180339530054E-02
 cg2d: Sum(rhs),rhsMax =  -1.60304991503324E-10  1.01995834995258E-02
 cg2d: Sum(rhs),rhsMax =  -1.57456214733287E-10  1.03772665753743E-02
 cg2d: Sum(rhs),rhsMax =  -1.54773083238524E-10  1.05510074739746E-02
 cg2d: Sum(rhs),rhsMax =  -1.52260537511495E-10  1.07207394526049E-02
 cg2d: Sum(rhs),rhsMax =  -1.49843804031491E-10  1.08864011150875E-02
 cg2d: Sum(rhs),rhsMax =  -1.47578338438592E-10  1.10479334607959E-02
 cg2d: Sum(rhs),rhsMax =  -1.45470746559795E-10  1.12052761869261E-02
 cg2d: Sum(rhs),rhsMax =  -1.43374034866639E-10  1.13583680984504E-02
 cg2d: Sum(rhs),rhsMax =  -1.41491540706085E-10  1.15071490290601E-02
 cg2d: Sum(rhs),rhsMax =  -1.39674494192832E-10  1.16515651716693E-02
 cg2d: Sum(rhs),rhsMax =  -1.37940769917577E-10  1.17915667399265E-02
 cg2d: Sum(rhs),rhsMax =  -1.36324784794084E-10  1.19271020293718E-02
 cg2d: Sum(rhs),rhsMax =  -1.34772804027961E-10  1.20581179707134E-02
 cg2d: Sum(rhs),rhsMax =  -1.33278110769908E-10  1.21845629080754E-02
 cg2d: Sum(rhs),rhsMax =  -1.31906929823344E-10  1.23063883926097E-02
 cg2d: Sum(rhs),rhsMax =  -1.30626232053288E-10  1.24235492998677E-02
 cg2d: Sum(rhs),rhsMax =  -1.29398491921506E-10  1.25360028436669E-02
 cg2d: Sum(rhs),rhsMax =  -1.28197008564257E-10  1.26437081374359E-02
 cg2d: Sum(rhs),rhsMax =  -1.27057087073723E-10  1.27466259982991E-02
 cg2d: Sum(rhs),rhsMax =  -1.25984445098482E-10  1.28447179395852E-02
 cg2d: Sum(rhs),rhsMax =  -1.24997290296136E-10  1.29379335383214E-02
 cg2d: Sum(rhs),rhsMax =  -1.24077970120595E-10  1.30262300022442E-02
 cg2d: Sum(rhs),rhsMax =  -1.23202503754527E-10  1.31095775805869E-02
 cg2d: Sum(rhs),rhsMax =  -1.22420684700586E-10  1.31879528800969E-02
 cg2d: Sum(rhs),rhsMax =  -1.21650967077613E-10  1.32613322948492E-02
 cg2d: Sum(rhs),rhsMax =  -1.20933152381042E-10  1.33296916939371E-02
 cg2d: Sum(rhs),rhsMax =  -1.20295773342605E-10  1.33930080055491E-02
 cg2d: Sum(rhs),rhsMax =  -1.19721343949664E-10  1.34512649295321E-02
 cg2d: Sum(rhs),rhsMax =  -1.19176835067236E-10  1.35044491224657E-02
 cg2d: Sum(rhs),rhsMax =  -1.18752840894132E-10  1.35525461357718E-02
 cg2d: Sum(rhs),rhsMax =  -1.18296983320221E-10  1.35955387812450E-02
 cg2d: Sum(rhs),rhsMax =  -1.17867160476237E-10  1.36334083642186E-02
 cg2d: Sum(rhs),rhsMax =  -1.17512166664113E-10  1.36661446670218E-02
 cg2d: Sum(rhs),rhsMax =  -1.17207854533063E-10  1.36937452132363E-02
 cg2d: Sum(rhs),rhsMax =  -1.16973652986019E-10  1.37162164588687E-02
 cg2d: Sum(rhs),rhsMax =  -1.16785414672194E-10  1.37335629766385E-02
 cg2d: Sum(rhs),rhsMax =  -1.16642029368563E-10  1.37457848601386E-02
 cg2d: Sum(rhs),rhsMax =  -1.16554044193862E-10  1.37528812403744E-02
 cg2d: Sum(rhs),rhsMax =  -1.16506138070349E-10  1.37548540787178E-02
 cg2d: Sum(rhs),rhsMax =  -1.16506693181861E-10  1.37517094074347E-02
 cg2d: Sum(rhs),rhsMax =  -1.16590737064826E-10  1.37434525871975E-02
 cg2d: Sum(rhs),rhsMax =  -1.16838816399678E-10  1.37300963686761E-02
 cg2d: Sum(rhs),rhsMax =  -1.17047871395215E-10  1.37116567464026E-02
 cg2d: Sum(rhs),rhsMax =  -1.17287124457022E-10  1.36881493720457E-02
 cg2d: Sum(rhs),rhsMax =  -1.17598042415068E-10  1.36595884830033E-02
 cg2d: Sum(rhs),rhsMax =  -1.17942100530399E-10  1.36259885208157E-02
 cg2d: Sum(rhs),rhsMax =  -1.18378584712531E-10  1.35873664388927E-02
 cg2d: Sum(rhs),rhsMax =  -1.18798970660805E-10  1.35437426030919E-02
 cg2d: Sum(rhs),rhsMax =  -1.19270926468573E-10  1.34951394990546E-02
 cg2d: Sum(rhs),rhsMax =  -1.19787957331141E-10  1.34415799528254E-02
 cg2d: Sum(rhs),rhsMax =  -1.20368603973020E-10  1.33830896741344E-02
 cg2d: Sum(rhs),rhsMax =  -1.20993604024733E-10  1.33196972323559E-02
 cg2d: Sum(rhs),rhsMax =  -1.21669341268671E-10  1.32514333746713E-02
 cg2d: Sum(rhs),rhsMax =  -1.22419741011015E-10  1.31783309940529E-02
 cg2d: Sum(rhs),rhsMax =  -1.23216326031184E-10  1.31004260291006E-02
 cg2d: Sum(rhs),rhsMax =  -1.24067200957256E-10  1.30177565206340E-02
 cg2d: Sum(rhs),rhsMax =  -1.25026988762045E-10  1.29303609950240E-02
 cg2d: Sum(rhs),rhsMax =  -1.25959354058125E-10  1.28382791029443E-02
 cg2d: Sum(rhs),rhsMax =  -1.27024557539102E-10  1.27415522268478E-02
 cg2d: Sum(rhs),rhsMax =  -1.28148602840383E-10  1.26402239167150E-02
 cg2d: Sum(rhs),rhsMax =  -1.29326327424906E-10  1.25343400608963E-02
 cg2d: Sum(rhs),rhsMax =  -1.30593202918305E-10  1.24239487356774E-02
 cg2d: Sum(rhs),rhsMax =  -1.31896771282669E-10  1.23091000309594E-02
 cg2d: Sum(rhs),rhsMax =  -1.33232480603596E-10  1.21898446540856E-02
 cg2d: Sum(rhs),rhsMax =  -1.34647848426539E-10  1.20662352435170E-02
 cg2d: Sum(rhs),rhsMax =  -1.36150313245764E-10  1.19383271614027E-02
 cg2d: Sum(rhs),rhsMax =  -1.37742484085379E-10  1.18061780684502E-02
 cg2d: Sum(rhs),rhsMax =  -1.39446121316666E-10  1.16698479353220E-02
 cg2d: Sum(rhs),rhsMax =  -1.41220646288076E-10  1.15293989490706E-02
 cg2d: Sum(rhs),rhsMax =  -1.43045963962862E-10  1.13848949261441E-02
 cg2d: Sum(rhs),rhsMax =  -1.45007283958165E-10  1.12364011003262E-02
 cg2d: Sum(rhs),rhsMax =  -1.47086898216742E-10  1.10839841750415E-02
 cg2d: Sum(rhs),rhsMax =  -1.49277423755478E-10  1.09277123836814E-02
 cg2d: Sum(rhs),rhsMax =  -1.51572643325437E-10  1.07676555694519E-02
 cg2d: Sum(rhs),rhsMax =  -1.54006973840382E-10  1.06038852169870E-02
 cg2d: Sum(rhs),rhsMax =  -1.56572477205685E-10  1.04364744306311E-02
 cg2d: Sum(rhs),rhsMax =  -1.59299073931862E-10  1.02654979940701E-02
 cg2d: Sum(rhs),rhsMax =  -1.62175384232910E-10  1.00910315556485E-02
 cg2d: Sum(rhs),rhsMax =  -1.65190860990094E-10  9.91315220535915E-03
 cg2d: Sum(rhs),rhsMax =  -1.68371039332982E-10  9.73194340670300E-03
 cg2d: Sum(rhs),rhsMax =  -1.71734793052991E-10  9.54748992479492E-03
 cg2d: Sum(rhs),rhsMax =  -1.75300773896936E-10  9.35987560899150E-03
 cg2d: Sum(rhs),rhsMax =  -1.79092018992577E-10  9.16918364381171E-03
 cg2d: Sum(rhs),rhsMax =  -1.83052462077171E-10  8.97549763499360E-03
 cg2d: Sum(rhs),rhsMax =  -1.87246551597298E-10  8.77890240570315E-03
 cg2d: Sum(rhs),rhsMax =  -1.91722970832586E-10  8.57948393045664E-03
 cg2d: Sum(rhs),rhsMax =  -1.96428096010948E-10  8.37732938741559E-03
 cg2d: Sum(rhs),rhsMax =  -2.01376471054004E-10  8.17252721991017E-03
 cg2d: Sum(rhs),rhsMax =  -2.06670514035778E-10  7.96516730327823E-03
 cg2d: Sum(rhs),rhsMax =  -2.12328321591571E-10  7.75534082663509E-03
 cg2d: Sum(rhs),rhsMax =  -2.18355444836504E-10  7.54313955910113E-03
 cg2d: Sum(rhs),rhsMax =  -2.24751633970399E-10  7.32865575542358E-03
 cg2d: Sum(rhs),rhsMax =  -2.31695163055434E-10  7.11198222231984E-03
 cg2d: Sum(rhs),rhsMax =  -2.39135058976991E-10  6.89320118964030E-03
 cg2d: Sum(rhs),rhsMax =  -2.47090028993036E-10  6.67239587423464E-03
 cg2d: Sum(rhs),rhsMax =  -2.55675141648537E-10  6.44965653603636E-03
 cg2d: Sum(rhs),rhsMax =  -2.64963984780708E-10  6.22507964065732E-03
 cg2d: Sum(rhs),rhsMax =  -2.75049788500681E-10  5.99876465208134E-03
 cg2d: Sum(rhs),rhsMax =  -2.85990758852606E-10  5.77081143048246E-03
 cg2d: Sum(rhs),rhsMax =  -2.96366264862513E-10  5.56983205365562E-03
 cg2d: Sum(rhs),rhsMax =  -2.84480078382998E-10  5.80463361473257E-03
(PID.TID 0000.0001)      cg2d_init_res =   2.31476279302315E-01
(PID.TID 0000.0001)      cg2d_iters(min,last) =      -1      39
(PID.TID 0000.0001)      cg2d_last_res =   7.99427273165804E-14
(PID.TID 0000.0001) // =======================================================
(PID.TID 0000.0001) // Begin MONITOR dynamic field statistics
(PID.TID 0000.0001) // =======================================================
(PID.TID 0000.0001) %MON time_tsnumber                =                  6240
(PID.TID 0000.0001) %MON time_secondsf                =   9.3600000000000E+04
(PID.TID 0000.0001) %MON dynstat_eta_max              =   1.0691473832825E-03
(PID.TID 0000.0001) %MON dynstat_eta_min              =  -8.5358501468185E-04
(PID.TID 0000.0001) %MON dynstat_eta_mean             =   3.6425019140632E-15
(PID.TID 0000.0001) %MON dynstat_eta_sd               =   5.5690526414343E-04
(PID.TID 0000.0001) %MON dynstat_eta_del2             =   6.5153729562771E-06
(PID.TID 0000.0001) %MON dynstat_uvel_max             =   4.3262331303572E-01
(PID.TID 0000.0001) %MON dynstat_uvel_min             =  -4.6056237037529E-01
(PID.TID 0000.0001) %MON dynstat_uvel_mean            =   1.1298193285012E-01
(PID.TID 0000.0001) %MON dynstat_uvel_sd              =   4.4811218645257E-02
(PID.TID 0000.0001) %MON dynstat_uvel_del2            =   1.0485476199081E-04
(PID.TID 0000.0001) %MON dynstat_vvel_max             =   0.0000000000000E+00
(PID.TID 0000.0001) %MON dynstat_vvel_min             =   0.0000000000000E+00
(PID.TID 0000.0001) %MON dynstat_vvel_mean            =   0.0000000000000E+00
(PID.TID 0000.0001) %MON dynstat_vvel_sd              =   0.0000000000000E+00
(PID.TID 0000.0001) %MON dynstat_vvel_del2            =   0.0000000000000E+00
(PID.TID 0000.0001) %MON dynstat_wvel_max             =   3.9066169110235E-03
(PID.TID 0000.0001) %MON dynstat_wvel_min             =  -6.1680208148191E-03
(PID.TID 0000.0001) %MON dynstat_wvel_mean            =  -9.8185121892884E-21
(PID.TID 0000.0001) %MON dynstat_wvel_sd              =   3.3373117828467E-04
(PID.TID 0000.0001) %MON dynstat_wvel_del2            =   8.1987254123545E-06
(PID.TID 0000.0001) %MON dynstat_theta_max            =   1.5000000000020E+01
(PID.TID 0000.0001) %MON dynstat_theta_min            =   9.9999999999891E+00
(PID.TID 0000.0001) %MON dynstat_theta_mean           =   1.4023784427129E+01
(PID.TID 0000.0001) %MON dynstat_theta_sd             =   1.8991390995156E+00
(PID.TID 0000.0001) %MON dynstat_theta_del2           =   3.7972964865643E-04
(PID.TID 0000.0001) %MON dynstat_salt_max             =   3.5000000000000E+01
(PID.TID 0000.0001) %MON dynstat_salt_min             =   3.5000000000000E+01
(PID.TID 0000.0001) %MON dynstat_salt_mean            =   3.5000000000000E+01
(PID.TID 0000.0001) %MON dynstat_salt_sd              =   3.0553337637684E-13
(PID.TID 0000.0001) %MON dynstat_salt_del2            =   0.0000000000000E+00
(PID.TID 0000.0001) %MON dynstat_sst_max              =   1.5000000000000E+01
(PID.TID 0000.0001) %MON dynstat_sst_min              =   1.4999999999998E+01
(PID.TID 0000.0001) %MON dynstat_sst_mean             =   1.5000000000000E+01
(PID.TID 0000.0001) %MON dynstat_sst_sd               =   4.0901117461332E-13
(PID.TID 0000.0001) %MON dynstat_sst_del2             =   1.0042822981593E-14
(PID.TID 0000.0001) %MON dynstat_sss_max              =   3.5000000000000E+01
(PID.TID 0000.0001) %MON dynstat_sss_min              =   3.5000000000000E+01
(PID.TID 0000.0001) %MON dynstat_sss_mean             =   3.5000000000000E+01
(PID.TID 0000.0001) %MON dynstat_sss_sd               =   2.8421709430404E-14
(PID.TID 0000.0001) %MON dynstat_sss_del2             =   0.0000000000000E+00
(PID.TID 0000.0001) %MON forcing_qnet_max             =   0.0000000000000E+00
(PID.TID 0000.0001) %MON forcing_qnet_min             =   0.0000000000000E+00
(PID.TID 0000.0001) %MON forcing_qnet_mean            =   0.0000000000000E+00
(PID.TID 0000.0001) %MON forcing_qnet_sd              =   0.0000000000000E+00
(PID.TID 0000.0001) %MON forcing_qnet_del2            =   0.0000000000000E+00
(PID.TID 0000.0001) %MON forcing_qsw_max              =   0.0000000000000E+00
(PID.TID 0000.0001) %MON forcing_qsw_min              =   0.0000000000000E+00
(PID.TID 0000.0001) %MON forcing_qsw_mean             =   0.0000000000000E+00
(PID.TID 0000.0001) %MON forcing_qsw_sd               =   0.0000000000000E+00
(PID.TID 0000.0001) %MON forcing_qsw_del2             =   0.0000000000000E+00
(PID.TID 0000.0001) %MON forcing_empmr_max            =   0.0000000000000E+00
(PID.TID 0000.0001) %MON forcing_empmr_min            =   0.0000000000000E+00
(PID.TID 0000.0001) %MON forcing_empmr_mean           =   0.0000000000000E+00
(PID.TID 0000.0001) %MON forcing_empmr_sd             =   0.0000000000000E+00
(PID.TID 0000.0001) %MON forcing_empmr_del2           =   0.0000000000000E+00
(PID.TID 0000.0001) %MON forcing_fu_max               =   0.0000000000000E+00
(PID.TID 0000.0001) %MON forcing_fu_min               =   0.0000000000000E+00
(PID.TID 0000.0001) %MON forcing_fu_mean              =   0.0000000000000E+00
(PID.TID 0000.0001) %MON forcing_fu_sd                =   0.0000000000000E+00
(PID.TID 0000.0001) %MON forcing_fu_del2              =   0.0000000000000E+00
(PID.TID 0000.0001) %MON forcing_fv_max               =   0.0000000000000E+00
(PID.TID 0000.0001) %MON forcing_fv_min               =   0.0000000000000E+00
(PID.TID 0000.0001) %MON forcing_fv_mean              =   0.0000000000000E+00
(PID.TID 0000.0001) %MON forcing_fv_sd                =   0.0000000000000E+00
(PID.TID 0000.0001) %MON forcing_fv_del2              =   0.0000000000000E+00
(PID.TID 0000.0001) %MON advcfl_uvel_max              =   3.4542177778147E-02
(PID.TID 0000.0001) %MON advcfl_vvel_max              =   0.0000000000000E+00
(PID.TID 0000.0001) %MON advcfl_wvel_max              =   3.0535648466379E-02
(PID.TID 0000.0001) %MON advcfl_W_hf_max              =   3.4542177778147E-02
(PID.TID 0000.0001) %MON pe_b_mean                    =   7.6868065734997E-09
(PID.TID 0000.0001) %MON ke_max                       =   5.4131872254315E-02
(PID.TID 0000.0001) %MON ke_mean                      =   7.3973175769697E-03
(PID.TID 0000.0001) %MON ke_vol                       =   9.6656965507697E+10
(PID.TID 0000.0001) %MON vort_r_min                   =   0.0000000000000E+00
(PID.TID 0000.0001) %MON vort_r_max                   =   0.0000000000000E+00
(PID.TID 0000.0001) %MON vort_a_mean                  =   0.0000000000000E+00
(PID.TID 0000.0001) %MON vort_a_sd                    =   0.0000000000000E+00
(PID.TID 0000.0001) %MON vort_p_mean                  =   0.0000000000000E+00
(PID.TID 0000.0001) %MON vort_p_sd                    =   0.0000000000000E+00
(PID.TID 0000.0001) %MON surfExpan_theta_mean         =  -5.8158351595431E-19
(PID.TID 0000.0001) %MON surfExpan_salt_mean          =  -6.9994862216314E-19
(PID.TID 0000.0001) // =======================================================
(PID.TID 0000.0001) // End MONITOR dynamic field statistics
(PID.TID 0000.0001) // =======================================================
(PID.TID 0000.0001) // =======================================================
(PID.TID 0000.0001) // Begin OBCS MONITOR field statistics
(PID.TID 0000.0001) // =======================================================
(PID.TID 0000.0001) %MON obc_E_uVel_max               =   1.1205712828732E-01
(PID.TID 0000.0001) %MON obc_E_uVel_min               =   1.1205712828732E-01
(PID.TID 0000.0001) %MON obc_E_uVel_mean              =   1.1205712828732E-01
(PID.TID 0000.0001) %MON obc_E_uVel_sd                =   0.0000000000000E+00
(PID.TID 0000.0001) %MON obc_E_uVel_Int               =   1.1205712828732E+05
(PID.TID 0000.0001) %MON obc_W_uVel_max               =   1.1205712828732E-01
(PID.TID 0000.0001) %MON obc_W_uVel_min               =   1.1205712828732E-01
(PID.TID 0000.0001) %MON obc_W_uVel_mean              =   1.1205712828732E-01
(PID.TID 0000.0001) %MON obc_W_uVel_sd                =   0.0000000000000E+00
(PID.TID 0000.0001) %MON obc_W_uVel_Int               =   1.1205712828732E+05
(PID.TID 0000.0001) // =======================================================
(PID.TID 0000.0001) // End OBCS MONITOR field statistics
(PID.TID 0000.0001) // =======================================================
 cg2d: Sum(rhs),rhsMax =  -2.72501826659166E-10  6.06175137323919E-03
 cg2d: Sum(rhs),rhsMax =  -2.61402288703749E-10  6.32024087182115E-03
 cg2d: Sum(rhs),rhsMax =  -2.51163256859144E-10  6.57998170574153E-03
 cg2d: Sum(rhs),rhsMax =  -2.41667019729164E-10  6.84085305304920E-03
 cg2d: Sum(rhs),rhsMax =  -2.32811325773241E-10  7.10273376641229E-03
 cg2d: Sum(rhs),rhsMax =  -2.24573137863615E-10  7.36550247300653E-03
 cg2d: Sum(rhs),rhsMax =  -2.16873852210142E-10  7.62903768024505E-03
 cg2d: Sum(rhs),rhsMax =  -2.09671058293281E-10  7.89321788015594E-03
 cg2d: Sum(rhs),rhsMax =  -2.02922956216156E-10  8.15792164365634E-03
 cg2d: Sum(rhs),rhsMax =  -1.96605121072224E-10  8.42302769843930E-03
 cg2d: Sum(rhs),rhsMax =  -1.90684523726503E-10  8.68841498918510E-03
 cg2d: Sum(rhs),rhsMax =  -1.85094384264062E-10  8.95396272375016E-03
 cg2d: Sum(rhs),rhsMax =  -1.79800896393800E-10  9.21955041169095E-03
 cg2d: Sum(rhs),rhsMax =  -1.74838310496028E-10  9.48505790117147E-03
 cg2d: Sum(rhs),rhsMax =  -1.70132130605793E-10  9.75036541773383E-03
 cg2d: Sum(rhs),rhsMax =  -1.65667368712263E-10  1.00153536051936E-02
 cg2d: Sum(rhs),rhsMax =  -1.61439861479096E-10  1.02799035666263E-02
 cg2d: Sum(rhs),rhsMax =  -1.57441837345118E-10  1.05438969028260E-02
 cg2d: Sum(rhs),rhsMax =  -1.53731527507972E-10  1.08072157466103E-02
 cg2d: Sum(rhs),rhsMax =  -1.50216838967765E-10  1.10697427931167E-02
 cg2d: Sum(rhs),rhsMax =  -1.46874012951770E-10  1.13313613278339E-02
 cg2d: Sum(rhs),rhsMax =  -1.43701162080845E-10  1.15919552548631E-02
 cg2d: Sum(rhs),rhsMax =  -1.40650158186872E-10  1.18514091276334E-02
 cg2d: Sum(rhs),rhsMax =  -1.37778899400587E-10  1.21096081832539E-02
 cg2d: Sum(rhs),rhsMax =  -1.35038757953510E-10  1.23664383803786E-02
 cg2d: Sum(rhs),rhsMax =  -1.32405753028308E-10  1.26217864393945E-02
 cg2d: Sum(rhs),rhsMax =  -1.29877442134330E-10  1.28755398832103E-02
 cg2d: Sum(rhs),rhsMax =  -1.27509336422804E-10  1.31275870769774E-02
 cg2d: Sum(rhs),rhsMax =  -1.25219279389910E-10  1.33778172655320E-02
 cg2d: Sum(rhs),rhsMax =  -1.23039467503361E-10  1.36261206079441E-02
 cg2d: Sum(rhs),rhsMax =  -1.20946030968128E-10  1.38723882090809E-02
 cg2d: Sum(rhs),rhsMax =  -1.18953846772740E-10  1.41165121484665E-02
 cg2d: Sum(rhs),rhsMax =  -1.17016840661677E-10  1.43583855069064E-02
 cg2d: Sum(rhs),rhsMax =  -1.15204956685488E-10  1.45979023918288E-02
 cg2d: Sum(rhs),rhsMax =  -1.13448139771322E-10  1.48349579623083E-02
 cg2d: Sum(rhs),rhsMax =  -1.11759934640077E-10  1.50694484549785E-02
 cg2d: Sum(rhs),rhsMax =  -1.10135567332748E-10  1.53012712122256E-02
 cg2d: Sum(rhs),rhsMax =  -1.08600017867388E-10  1.55303247139898E-02
 cg2d: Sum(rhs),rhsMax =  -1.07122422043915E-10  1.57565086141715E-02
 cg2d: Sum(rhs),rhsMax =  -1.05715547427110E-10  1.59797237820761E-02
 cg2d: Sum(rhs),rhsMax =  -1.04349084928401E-10  1.61998723486578E-02
 cg2d: Sum(rhs),rhsMax =  -1.03031805309683E-10  1.64168577566675E-02
 cg2d: Sum(rhs),rhsMax =  -1.01779362715604E-10  1.66305848133264E-02
 cg2d: Sum(rhs),rhsMax =  -1.00566777128108E-10  1.68409597439208E-02
 cg2d: Sum(rhs),rhsMax =  -9.94143656285473E-11  1.70478902447800E-02
 cg2d: Sum(rhs),rhsMax =  -9.83172432356128E-11  1.72512855343986E-02
 cg2d: Sum(rhs),rhsMax =  -9.72533165111145E-11  1.74510564018385E-02
 cg2d: Sum(rhs),rhsMax =  -9.62129265147382E-11  1.76471152518614E-02
 cg2d: Sum(rhs),rhsMax =  -9.52182777069766E-11  1.78393761464353E-02
 cg2d: Sum(rhs),rhsMax =  -9.42821376526126E-11  1.80277548424175E-02
 cg2d: Sum(rhs),rhsMax =  -9.34402555330394E-11  1.82121688254833E-02
 cg2d: Sum(rhs),rhsMax =  -9.26326793049270E-11  1.83925373408606E-02
 cg2d: Sum(rhs),rhsMax =  -9.18681797301701E-11  1.85687814220453E-02
 cg2d: Sum(rhs),rhsMax =  -9.11294373295846E-11  1.87408239191555E-02
 cg2d: Sum(rhs),rhsMax =  -9.04072372520659E-11  1.89085895288092E-02
 cg2d: Sum(rhs),rhsMax =  -8.97305563185569E-11  1.90720048274881E-02
 cg2d: Sum(rhs),rhsMax =  -8.90889584326260E-11  1.92309983103865E-02
 cg2d: Sum(rhs),rhsMax =  -8.84569084647069E-11  1.93855004380925E-02
 cg2d: Sum(rhs),rhsMax =  -8.78638273249521E-11  1.95354436932349E-02
 cg2d: Sum(rhs),rhsMax =  -8.72899530435234E-11  1.96807626478753E-02
 cg2d: Sum(rhs),rhsMax =  -8.67595995046599E-11  1.98213940400360E-02
 cg2d: Sum(rhs),rhsMax =  -8.62681037716584E-11  1.99572768551146E-02
 cg2d: Sum(rhs),rhsMax =  -8.57588444702628E-11  2.00883524061361E-02
 cg2d: Sum(rhs),rhsMax =  -8.53116466359438E-11  2.02145644067516E-02
 cg2d: Sum(rhs),rhsMax =  -8.48719983181923E-11  2.03358590327139E-02
 cg2d: Sum(rhs),rhsMax =  -8.44675440703213E-11  2.04521849703991E-02
 cg2d: Sum(rhs),rhsMax =  -8.40550962166731E-11  2.05634934534263E-02
 cg2d: Sum(rhs),rhsMax =  -8.36768432321833E-11  2.06697382894153E-02
 cg2d: Sum(rhs),rhsMax =  -8.33438873470982E-11  2.07708758782318E-02
 cg2d: Sum(rhs),rhsMax =  -8.30069346591245E-11  2.08668652215537E-02
 cg2d: Sum(rhs),rhsMax =  -8.27149460036480E-11  2.09576679225958E-02
 cg2d: Sum(rhs),rhsMax =  -8.24066370697096E-11  2.10432481752955E-02
 cg2d: Sum(rhs),rhsMax =  -8.21327450495346E-11  2.11235727441828E-02
 cg2d: Sum(rhs),rhsMax =  -8.19507794957985E-11  2.11986109385369E-02
 cg2d: Sum(rhs),rhsMax =  -8.17680367859452E-11  2.12683345858594E-02
 cg2d: Sum(rhs),rhsMax =  -8.16114953394731E-11  2.13327180092320E-02
 cg2d: Sum(rhs),rhsMax =  -8.14557310491182E-11  2.13917380109600E-02
 cg2d: Sum(rhs),rhsMax =  -8.13239475760952E-11  2.14453738623135E-02
 cg2d: Sum(rhs),rhsMax =  -8.11933853483993E-11  2.14936072976320E-02
 cg2d: Sum(rhs),rhsMax =  -8.11007927481455E-11  2.15364225112108E-02
 cg2d: Sum(rhs),rhsMax =  -8.10047584565154E-11  2.15738061565737E-02
 cg2d: Sum(rhs),rhsMax =  -8.09805555945786E-11  2.16057473484524E-02
 cg2d: Sum(rhs),rhsMax =  -8.09194933282242E-11  2.16322376668774E-02
 cg2d: Sum(rhs),rhsMax =  -8.08905165072815E-11  2.16532711602816E-02
 cg2d: Sum(rhs),rhsMax =  -8.09192712836193E-11  2.16688443418163E-02
 cg2d: Sum(rhs),rhsMax =  -8.09042832727869E-11  2.16789561720990E-02
 cg2d: Sum(rhs),rhsMax =  -8.08633160431782E-11  2.16836080235437E-02
 cg2d: Sum(rhs),rhsMax =  -8.07870437213865E-11  2.16828036261992E-02
 cg2d: Sum(rhs),rhsMax =  -8.06973377009967E-11  2.16765490008959E-02
 cg2d: Sum(rhs),rhsMax =  -8.06743560843870E-11  2.16648523900002E-02
 cg2d: Sum(rhs),rhsMax =  -8.07026667715149E-11  2.16477241961226E-02
 cg2d: Sum(rhs),rhsMax =  -8.07420796888891E-11  2.16251769357924E-02
 cg2d: Sum(rhs),rhsMax =  -8.08068056912248E-11  2.15972252096157E-02
 cg2d: Sum(rhs),rhsMax =  -8.08721978273752E-11  2.15638856859004E-02
 cg2d: Sum(rhs),rhsMax =  -8.09694533643324E-11  2.15251770929827E-02
 cg2d: Sum(rhs),rhsMax =  -8.10786993099555E-11  2.14811202163171E-02
 cg2d: Sum(rhs),rhsMax =  -8.11790634713816E-11  2.14317378984787E-02
 cg2d: Sum(rhs),rhsMax =  -8.13278333566814E-11  2.13770550420100E-02
 cg2d: Sum(rhs),rhsMax =  -8.14812661786846E-11  2.13170986156999E-02
 cg2d: Sum(rhs),rhsMax =  -8.16268164172129E-11  2.12518976643666E-02
 cg2d: Sum(rhs),rhsMax =  -8.18540790703537E-11  2.11814833211461E-02
 cg2d: Sum(rhs),rhsMax =  -8.21188672617268E-11  2.11058888203239E-02
 cg2d: Sum(rhs),rhsMax =  -8.23769941149521E-11  2.10251495083900E-02
 cg2d: Sum(rhs),rhsMax =  -8.26719803725950E-11  2.09393028513649E-02
 cg2d: Sum(rhs),rhsMax =  -8.29669666302379E-11  2.08483884373420E-02
 cg2d: Sum(rhs),rhsMax =  -8.32885982404719E-11  2.07524479743517E-02
 cg2d: Sum(rhs),rhsMax =  -8.36398728054633E-11  2.06515252847738E-02
 cg2d: Sum(rhs),rhsMax =  -8.40104652510831E-11  2.05456662983332E-02
 cg2d: Sum(rhs),rhsMax =  -8.43927150384616E-11  2.04349190460227E-02
 cg2d: Sum(rhs),rhsMax =  -8.48205949921521E-11  2.03193336569955E-02
 cg2d: Sum(rhs),rhsMax =  -8.52686810048908E-11  2.01989623596761E-02
 cg2d: Sum(rhs),rhsMax =  -8.57106607909941E-11  2.00738594873491E-02
 cg2d: Sum(rhs),rhsMax =  -8.62082627506311E-11  1.99440814876092E-02
 cg2d: Sum(rhs),rhsMax =  -8.67169669405143E-11  1.98096869343387E-02
 cg2d: Sum(rhs),rhsMax =  -8.72406591412300E-11  1.96707365402045E-02
 cg2d: Sum(rhs),rhsMax =  -8.78076500399061E-11  1.95272931669912E-02
 cg2d: Sum(rhs),rhsMax =  -8.83811912544274E-11  1.93794218306821E-02
 cg2d: Sum(rhs),rhsMax =  -8.90045814827545E-11  1.92271896984603E-02
 cg2d: Sum(rhs),rhsMax =  -8.96357432722539E-11  1.90706660758904E-02
 cg2d: Sum(rhs),rhsMax =  -9.02847796524497E-11  1.89099223841718E-02
 cg2d: Sum(rhs),rhsMax =  -9.09909925184138E-11  1.87450321289497E-02
 cg2d: Sum(rhs),rhsMax =  -9.17372844355668E-11  1.85760708632570E-02
 cg2d: Sum(rhs),rhsMax =  -9.24946785829661E-11  1.84031161474401E-02
 cg2d: Sum(rhs),rhsMax =  -9.32833810196598E-11  1.82262475081544E-02
 cg2d: Sum(rhs),rhsMax =  -9.41124955744499E-11  1.80455463967320E-02
 cg2d: Sum(rhs),rhsMax =  -9.50242107222721E-11  1.78610961448832E-02
 cg2d: Sum(rhs),rhsMax =  -9.59766710550980E-11  1.76729819137866E-02
 cg2d: Sum(rhs),rhsMax =  -9.69866409405995E-11  1.74812906322289E-02
 cg2d: Sum(rhs),rhsMax =  -9.80227010671797E-11  1.72861109211700E-02
 cg2d: Sum(rhs),rhsMax =  -9.90731940930800E-11  1.70875330055667E-02
 cg2d: Sum(rhs),rhsMax =  -1.00193409124927E-10  1.68856486182028E-02
 cg2d: Sum(rhs),rhsMax =  -1.01367692018073E-10  1.66805509030128E-02
 cg2d: Sum(rhs),rhsMax =  -1.02592934148049E-10  1.64723343259361E-02
 cg2d: Sum(rhs),rhsMax =  -1.03854147504023E-10  1.62610945996768E-02
 cg2d: Sum(rhs),rhsMax =  -1.05180086862333E-10  1.60469286257672E-02
 cg2d: Sum(rhs),rhsMax =  -1.06557873635893E-10  1.58299344540182E-02
 cg2d: Sum(rhs),rhsMax =  -1.07975406393734E-10  1.56102112564066E-02
 cg2d: Sum(rhs),rhsMax =  -1.09475206677700E-10  1.53878593098256E-02
 cg2d: Sum(rhs),rhsMax =  -1.11003872760307E-10  1.51629799800667E-02
 cg2d: Sum(rhs),rhsMax =  -1.12624132242445E-10  1.49356756983976E-02
 cg2d: Sum(rhs),rhsMax =  -1.14306564213962E-10  1.47060499229181E-02
 cg2d: Sum(rhs),rhsMax =  -1.16068932243252E-10  1.44742070799510E-02
 cg2d: Sum(rhs),rhsMax =  -1.17883591777002E-10  1.42402524856271E-02
 cg2d: Sum(rhs),rhsMax =  -1.19786958130419E-10  1.40042922531717E-02
 cg2d: Sum(rhs),rhsMax =  -1.21774146322196E-10  1.37664331953509E-02
 cg2d: Sum(rhs),rhsMax =  -1.23817289754413E-10  1.35267827326733E-02
 cg2d: Sum(rhs),rhsMax =  -1.25986554522228E-10  1.32854488159139E-02
 cg2d: Sum(rhs),rhsMax =  -1.28240751351427E-10  1.30425398671730E-02
 cg2d: Sum(rhs),rhsMax =  -1.30582877844176E-10  1.27981647386807E-02
 cg2d: Sum(rhs),rhsMax =  -1.33037914018530E-10  1.25524326846017E-02
 cg2d: Sum(rhs),rhsMax =  -1.35596534001081E-10  1.23054533393305E-02
 cg2d: Sum(rhs),rhsMax =  -1.38294931062433E-10  1.20573366963318E-02
 cg2d: Sum(rhs),rhsMax =  -1.41098022155006E-10  1.18081930837775E-02
 cg2d: Sum(rhs),rhsMax =  -1.44040612770624E-10  1.15581331358916E-02
 cg2d: Sum(rhs),rhsMax =  -1.47115652993079E-10  1.13072677609283E-02
 cg2d: Sum(rhs),rhsMax =  -1.50360834894059E-10  1.10557081074028E-02
 cg2d: Sum(rhs),rhsMax =  -1.53763946020291E-10  1.08035655295076E-02
 cg2d: Sum(rhs),rhsMax =  -1.57309110182524E-10  1.05509515510675E-02
 cg2d: Sum(rhs),rhsMax =  -1.61031854517546E-10  1.02979778257098E-02
 cg2d: Sum(rhs),rhsMax =  -1.64977087546703E-10  1.00447560899015E-02
 cg2d: Sum(rhs),rhsMax =  -1.69123437476770E-10  9.79139810548718E-03
 cg2d: Sum(rhs),rhsMax =  -1.73552561211210E-10  9.53801558944603E-03
 cg2d: Sum(rhs),rhsMax =  -1.78227432812150E-10  9.28472013049143E-03
 cg2d: Sum(rhs),rhsMax =  -1.83150883348304E-10  9.03162309431272E-03
 cg2d: Sum(rhs),rhsMax =  -1.88374094101107E-10  8.77883552134346E-03
 cg2d: Sum(rhs),rhsMax =  -1.93910332235703E-10  8.52646802254036E-03
 cg2d: Sum(rhs),rhsMax =  -1.99740390893766E-10  8.27463067943099E-03
 cg2d: Sum(rhs),rhsMax =  -2.05947092712933E-10  8.02343295436981E-03
 cg2d: Sum(rhs),rhsMax =  -2.12534545518395E-10  7.77298361546629E-03
 cg2d: Sum(rhs),rhsMax =  -2.19523565991864E-10  7.52339067826378E-03
 cg2d: Sum(rhs),rhsMax =  -2.26934637748144E-10  7.27476136353227E-03
 cg2d: Sum(rhs),rhsMax =  -2.34856384340176E-10  7.02720206825760E-03
 cg2d: Sum(rhs),rhsMax =  -2.43310427361365E-10  6.78081834576719E-03
 cg2d: Sum(rhs),rhsMax =  -2.52378923315533E-10  6.53571489139604E-03
 cg2d: Sum(rhs),rhsMax =  -2.62098676095945E-10  6.29199553229436E-03
 cg2d: Sum(rhs),rhsMax =  -2.60360760728773E-10  6.33170420102612E-03
 cg2d: Sum(rhs),rhsMax =  -2.52118978472105E-10  6.53668363297594E-03
 cg2d: Sum(rhs),rhsMax =  -2.44445311214925E-10  6.73989380369093E-03
 cg2d: Sum(rhs),rhsMax =  -2.37268621416931E-10  6.94124846030387E-03
 cg2d: Sum(rhs),rhsMax =  -2.30574755469282E-10  7.14066292837078E-03
 cg2d: Sum(rhs),rhsMax =  -2.24324680359045E-10  7.33805380803119E-03
 cg2d: Sum(rhs),rhsMax =  -2.18460478873528E-10  7.53333854577383E-03
 cg2d: Sum(rhs),rhsMax =  -2.12945688859989E-10  7.72643633866061E-03
 cg2d: Sum(rhs),rhsMax =  -2.07720118883259E-10  7.91726656953556E-03
 cg2d: Sum(rhs),rhsMax =  -2.02839314789038E-10  8.10574872398116E-03
 cg2d: Sum(rhs),rhsMax =  -1.98204147539016E-10  8.29180300034094E-03
 cg2d: Sum(rhs),rhsMax =  -1.93856958263794E-10  8.47535081689103E-03
 cg2d: Sum(rhs),rhsMax =  -1.89652960003173E-10  8.65631495588034E-03
 cg2d: Sum(rhs),rhsMax =  -1.85697568433341E-10  8.83461947512613E-03
 cg2d: Sum(rhs),rhsMax =  -1.81973824897597E-10  9.01018959766981E-03
 cg2d: Sum(rhs),rhsMax =  -1.78427883579246E-10  9.18295171649634E-03
 cg2d: Sum(rhs),rhsMax =  -1.75094855281444E-10  9.35283314530397E-03
 cg2d: Sum(rhs),rhsMax =  -1.71915065516615E-10  9.51976188835977E-03
 cg2d: Sum(rhs),rhsMax =  -1.68886016282954E-10  9.68366809189741E-03
 cg2d: Sum(rhs),rhsMax =  -1.66041014271201E-10  9.84448357631139E-03
 cg2d: Sum(rhs),rhsMax =  -1.63338287340054E-10  1.00021415148082E-02
 cg2d: Sum(rhs),rhsMax =  -1.60775892599219E-10  1.01565749635277E-02
 cg2d: Sum(rhs),rhsMax =  -1.58319302112631E-10  1.03077183342355E-02
 cg2d: Sum(rhs),rhsMax =  -1.55990886874235E-10  1.04555088741683E-02
 cg2d: Sum(rhs),rhsMax =  -1.53771995137220E-10  1.05998866305529E-02
 cg2d: Sum(rhs),rhsMax =  -1.51695822570019E-10  1.07407938345816E-02
 cg2d: Sum(rhs),rhsMax =  -1.49707912733277E-10  1.08781743095691E-02
 cg2d: Sum(rhs),rhsMax =  -1.47810708117646E-10  1.10119732036042E-02
 cg2d: Sum(rhs),rhsMax =  -1.46015199931071E-10  1.11421368907940E-02
 cg2d: Sum(rhs),rhsMax =  -1.44312173322447E-10  1.12686135796755E-02
 cg2d: Sum(rhs),rhsMax =  -1.42675371517242E-10  1.13913534887522E-02
 cg2d: Sum(rhs),rhsMax =  -1.41156919486463E-10  1.15103086820126E-02
 cg2d: Sum(rhs),rhsMax =  -1.39687927891430E-10  1.16254329093175E-02
 cg2d: Sum(rhs),rhsMax =  -1.38307365560308E-10  1.17366813953727E-02
 cg2d: Sum(rhs),rhsMax =  -1.37003242084432E-10  1.18440107956453E-02
 cg2d: Sum(rhs),rhsMax =  -1.35779221199783E-10  1.19473794394748E-02
 cg2d: Sum(rhs),rhsMax =  -1.34613098445868E-10  1.20467471743815E-02
 cg2d: Sum(rhs),rhsMax =  -1.33429989279676E-10  1.21420742765106E-02
 cg2d: Sum(rhs),rhsMax =  -1.32338473513016E-10  1.22333215659152E-02
 cg2d: Sum(rhs),rhsMax =  -1.31298971695060E-10  1.23204523481647E-02
 cg2d: Sum(rhs),rhsMax =  -1.30337796111490E-10  1.24034327550439E-02
 cg2d: Sum(rhs),rhsMax =  -1.29416477534505E-10  1.24822311621469E-02
 cg2d: Sum(rhs),rhsMax =  -1.28555555090060E-10  1.25568175824533E-02
 cg2d: Sum(rhs),rhsMax =  -1.27769128610566E-10  1.26271636432426E-02
 cg2d: Sum(rhs),rhsMax =  -1.26982535597620E-10  1.26932428136165E-02
 cg2d: Sum(rhs),rhsMax =  -1.26310129022755E-10  1.27550312387014E-02
 cg2d: Sum(rhs),rhsMax =  -1.25659926908384E-10  1.28125068066457E-02
 cg2d: Sum(rhs),rhsMax =  -1.25093713165825E-10  1.28656483573587E-02
 cg2d: Sum(rhs),rhsMax =  -1.24585231020546E-10  1.29144362611554E-02
 cg2d: Sum(rhs),rhsMax =  -1.24121213307404E-10  1.29588523832931E-02
 cg2d: Sum(rhs),rhsMax =  -1.23683285835341E-10  1.29988800748182E-02
 cg2d: Sum(rhs),rhsMax =  -1.23323351530757E-10  1.30345045828629E-02
 cg2d: Sum(rhs),rhsMax =  -1.22988175199623E-10  1.30657132246445E-02
 cg2d: Sum(rhs),rhsMax =  -1.22645837929980E-10  1.30924953593269E-02
 cg2d: Sum(rhs),rhsMax =  -1.22392818102668E-10  1.31148423038193E-02
 cg2d: Sum(rhs),rhsMax =  -1.22151455617114E-10  1.31327472929841E-02
 cg2d: Sum(rhs),rhsMax =  -1.21969434552227E-10  1.31462055904701E-02
 cg2d: Sum(rhs),rhsMax =  -1.21862131496897E-10  1.31552129469171E-02
 cg2d: Sum(rhs),rhsMax =  -1.21738730207710E-10  1.31597663431133E-02
 cg2d: Sum(rhs),rhsMax =  -1.21699872401848E-10  1.31598654880988E-02
 cg2d: Sum(rhs),rhsMax =  -1.21738397140803E-10  1.31555130116753E-02
 cg2d: Sum(rhs),rhsMax =  -1.21750165504864E-10  1.31467140432984E-02
 cg2d: Sum(rhs),rhsMax =  -1.21853749313061E-10  1.31334758110901E-02
 cg2d: Sum(rhs),rhsMax =  -1.22039045535871E-10  1.31158096448984E-02
 cg2d: Sum(rhs),rhsMax =  -1.22308552175099E-10  1.30937285677226E-02
 cg2d: Sum(rhs),rhsMax =  -1.22605703367640E-10  1.30672463100620E-02
 cg2d: Sum(rhs),rhsMax =  -1.22979293415426E-10  1.30363777834887E-02
 cg2d: Sum(rhs),rhsMax =  -1.23363985693459E-10  1.30011388863442E-02
 cg2d: Sum(rhs),rhsMax =  -1.23817234243262E-10  1.29615458417630E-02
 cg2d: Sum(rhs),rhsMax =  -1.24341370533188E-10  1.29176174341137E-02
 cg2d: Sum(rhs),rhsMax =  -1.24858567929209E-10  1.28693759713737E-02
 cg2d: Sum(rhs),rhsMax =  -1.25398524897236E-10  1.28168468051812E-02
 cg2d: Sum(rhs),rhsMax =  -1.26018306900733E-10  1.27600575094220E-02
 cg2d: Sum(rhs),rhsMax =  -1.26673005418354E-10  1.26990373466462E-02
 cg2d: Sum(rhs),rhsMax =  -1.27384047754475E-10  1.26338171391953E-02
 cg2d: Sum(rhs),rhsMax =  -1.28153931910902E-10  1.25644293463125E-02
 cg2d: Sum(rhs),rhsMax =  -1.28956900713462E-10  1.24909080233649E-02
 cg2d: Sum(rhs),rhsMax =  -1.29837807172350E-10  1.24132888867285E-02
 cg2d: Sum(rhs),rhsMax =  -1.30781663276736E-10  1.23316093067865E-02
 cg2d: Sum(rhs),rhsMax =  -1.31798183478082E-10  1.22459082827991E-02
 cg2d: Sum(rhs),rhsMax =  -1.32857225221272E-10  1.21562264687070E-02
 cg2d: Sum(rhs),rhsMax =  -1.34006694629818E-10  1.20626061738346E-02
 cg2d: Sum(rhs),rhsMax =  -1.35178201965402E-10  1.19650912386629E-02
 cg2d: Sum(rhs),rhsMax =  -1.36411271167702E-10  1.18637269642458E-02
 cg2d: Sum(rhs),rhsMax =  -1.37741984485018E-10  1.17585601212876E-02
 cg2d: Sum(rhs),rhsMax =  -1.39078859540120E-10  1.16496390156218E-02
 cg2d: Sum(rhs),rhsMax =  -1.40483624733179E-10  1.15370135374478E-02
 cg2d: Sum(rhs),rhsMax =  -1.41972655853806E-10  1.14207351599946E-02
 cg2d: Sum(rhs),rhsMax =  -1.43518641415596E-10  1.13008569089617E-02
 cg2d: Sum(rhs),rhsMax =  -1.45148892904956E-10  1.11774333310685E-02
 cg2d: Sum(rhs),rhsMax =  -1.46878231799263E-10  1.10505204476664E-02
 cg2d: Sum(rhs),rhsMax =  -1.48694723201004E-10  1.09201753457365E-02
 cg2d: Sum(rhs),rhsMax =  -1.50612633476044E-10  1.07864548724712E-02
 cg2d: Sum(rhs),rhsMax =  -1.52608037318203E-10  1.06494159181819E-02
 cg2d: Sum(rhs),rhsMax =  -1.54749324465797E-10  1.05091184355701E-02
 cg2d: Sum(rhs),rhsMax =  -1.56984814037031E-10  1.03656255903862E-02
 cg2d: Sum(rhs),rhsMax =  -1.59322333104228E-10  1.02190026914296E-02
 cg2d: Sum(rhs),rhsMax =  -1.61753166416645E-10  1.00693162761303E-02
 cg2d: Sum(rhs),rhsMax =  -1.64351143805419E-10  9.91663378255792E-03
 cg2d: Sum(rhs),rhsMax =  -1.67052316424332E-10  9.76102361084831E-03
 cg2d: Sum(rhs),rhsMax =  -1.69928626725380E-10  9.60255525570373E-03
 cg2d: Sum(rhs),rhsMax =  -1.72921288399408E-10  9.44129939970983E-03
 cg2d: Sum(rhs),rhsMax =  -1.76116454753128E-10  9.27732784444790E-03
 cg2d: Sum(rhs),rhsMax =  -1.79437104064206E-10  9.11071338592162E-03
 cg2d: Sum(rhs),rhsMax =  -1.82968112882875E-10  8.94152965991877E-03
 cg2d: Sum(rhs),rhsMax =  -1.86666293533477E-10  8.76985107778120E-03
 cg2d: Sum(rhs),rhsMax =  -1.90539028999126E-10  8.59575299458966E-03
 cg2d: Sum(rhs),rhsMax =  -1.94657456820124E-10  8.41931166443037E-03
 cg2d: Sum(rhs),rhsMax =  -1.98973032494720E-10  8.24060420539736E-03
 cg2d: Sum(rhs),rhsMax =  -2.03481648197723E-10  8.05970863421278E-03
 cg2d: Sum(rhs),rhsMax =  -2.08267014745189E-10  7.87670378408268E-03
 cg2d: Sum(rhs),rhsMax =  -2.13310993868454E-10  7.69166881217229E-03
 cg2d: Sum(rhs),rhsMax =  -2.18691717512876E-10  7.50468368038674E-03
 cg2d: Sum(rhs),rhsMax =  -2.24412058380530E-10  7.31582914671980E-03
 cg2d: Sum(rhs),rhsMax =  -2.30483465646358E-10  7.12518727421010E-03
 cg2d: Sum(rhs),rhsMax =  -2.36922053156730E-10  6.93284126016200E-03
 cg2d: Sum(rhs),rhsMax =  -2.43794717053047E-10  6.73887507889688E-03
 cg2d: Sum(rhs),rhsMax =  -2.51149732954925E-10  6.54337325972986E-03
 cg2d: Sum(rhs),rhsMax =  -2.59009605430016E-10  6.34642084963338E-03
 cg2d: Sum(rhs),rhsMax =  -2.67416283561417E-10  6.14810351893807E-03
 cg2d: Sum(rhs),rhsMax =  -2.76478007155134E-10  5.94850755174670E-03
 cg2d: Sum(rhs),rhsMax =  -2.76094619389156E-10  5.95843404756882E-03
 cg2d: Sum(rhs),rhsMax =  -2.65642952079759E-10  6.19488111684592E-03
 cg2d: Sum(rhs),rhsMax =  -2.55898358059170E-10  6.43265017046109E-03
 cg2d: Sum(rhs),rhsMax =  -2.46843046003420E-10  6.67163489497410E-03
 cg2d: Sum(rhs),rhsMax =  -2.38352337866843E-10  6.91172866125550E-03
 cg2d: Sum(rhs),rhsMax =  -2.30402696921317E-10  7.15282453954201E-03
 cg2d: Sum(rhs),rhsMax =  -2.22956597628610E-10  7.39481531018047E-03
 cg2d: Sum(rhs),rhsMax =  -2.15946038828463E-10  7.63759347471916E-03
 cg2d: Sum(rhs),rhsMax =  -2.09321171507071E-10  7.88105127127953E-03
 cg2d: Sum(rhs),rhsMax =  -2.03099315143618E-10  8.12508069640464E-03
 cg2d: Sum(rhs),rhsMax =  -1.97227179032922E-10  8.36957353360892E-03
 cg2d: Sum(rhs),rhsMax =  -1.91667015592145E-10  8.61442138750502E-03
 cg2d: Sum(rhs),rhsMax =  -1.86421933445757E-10  8.85951572203629E-03
 cg2d: Sum(rhs),rhsMax =  -1.81466286441889E-10  9.10474790180794E-03
 cg2d: Sum(rhs),rhsMax =  -1.76772985138740E-10  9.35000923615509E-03
 cg2d: Sum(rhs),rhsMax =  -1.72290126609909E-10  9.59519102582720E-03
 cg2d: Sum(rhs),rhsMax =  -1.68050295901168E-10  9.84018461178508E-03
 cg2d: Sum(rhs),rhsMax =  -1.64109170697202E-10  1.00848814248532E-02
 cg2d: Sum(rhs),rhsMax =  -1.60346846911352E-10  1.03291730343463E-02
 cg2d: Sum(rhs),rhsMax =  -1.56774704329621E-10  1.05729511937287E-02
 cg2d: Sum(rhs),rhsMax =  -1.53356938259464E-10  1.08161078819741E-02
 cg2d: Sum(rhs),rhsMax =  -1.50116752362095E-10  1.10585353403283E-02
 cg2d: Sum(rhs),rhsMax =  -1.46997081174050E-10  1.13001261051929E-02
 cg2d: Sum(rhs),rhsMax =  -1.44039169480692E-10  1.15407730384496E-02
 cg2d: Sum(rhs),rhsMax =  -1.41235578787757E-10  1.17803693565735E-02
 cg2d: Sum(rhs),rhsMax =  -1.38546063510603E-10  1.20188086594200E-02
 cg2d: Sum(rhs),rhsMax =  -1.35962130443090E-10  1.22559849589406E-02
 cg2d: Sum(rhs),rhsMax =  -1.33485444919756E-10  1.24917927076430E-02
 cg2d: Sum(rhs),rhsMax =  -1.31112454226923E-10  1.27261268266752E-02
 cg2d: Sum(rhs),rhsMax =  -1.28852484237996E-10  1.29588827340648E-02
 cg2d: Sum(rhs),rhsMax =  -1.26663679544947E-10  1.31899563746473E-02
 cg2d: Sum(rhs),rhsMax =  -1.24611654328532E-10  1.34192442541094E-02
 cg2d: Sum(rhs),rhsMax =  -1.22601373497844E-10  1.36466434798249E-02
 cg2d: Sum(rhs),rhsMax =  -1.20668697256576E-10  1.38720518104509E-02
 cg2d: Sum(rhs),rhsMax =  -1.18840381979624E-10  1.40953677146785E-02
 cg2d: Sum(rhs),rhsMax =  -1.17091780715839E-10  1.43164904376074E-02
 cg2d: Sum(rhs),rhsMax =  -1.15394804822699E-10  1.45353200716636E-02
 cg2d: Sum(rhs),rhsMax =  -1.13796971845659E-10  1.47517576284076E-02
 cg2d: Sum(rhs),rhsMax =  -1.12217124481617E-10  1.49657051082053E-02
 cg2d: Sum(rhs),rhsMax =  -1.10715325796207E-10  1.51770655663183E-02
 cg2d: Sum(rhs),rhsMax =  -1.09308007090192E-10  1.53857431758765E-02
 cg2d: Sum(rhs),rhsMax =  -1.07910347324491E-10  1.55916432896958E-02
 cg2d: Sum(rhs),rhsMax =  -1.06592512594261E-10  1.57946725034786E-02
 cg2d: Sum(rhs),rhsMax =  -1.05319086785016E-10  1.59947387223943E-02
 cg2d: Sum(rhs),rhsMax =  -1.04106057108311E-10  1.61917512316410E-02
 cg2d: Sum(rhs),rhsMax =  -1.02919006650382E-10  1.63856207699875E-02
 cg2d: Sum(rhs),rhsMax =  -1.01792796414202E-10  1.65762596042925E-02
 cg2d: Sum(rhs),rhsMax =  -1.00731312180358E-10  1.67635816031206E-02
 cg2d: Sum(rhs),rhsMax =  -9.96785987084081E-11  1.69475023087114E-02
 cg2d: Sum(rhs),rhsMax =  -9.86900561272819E-11  1.71279390078943E-02
 cg2d: Sum(rhs),rhsMax =  -9.77478098462825E-11  1.73048108029093E-02
 cg2d: Sum(rhs),rhsMax =  -9.68876090468029E-11  1.74780386827510E-02
 cg2d: Sum(rhs),rhsMax =  -9.60530543991922E-11  1.76475455937549E-02
 cg2d: Sum(rhs),rhsMax =  -9.52566914236286E-11  1.78132565064064E-02
 cg2d: Sum(rhs),rhsMax =  -9.44875289121683E-11  1.79750984745676E-02
 cg2d: Sum(rhs),rhsMax =  -9.37616650986683E-11  1.81330006839867E-02
 cg2d: Sum(rhs),rhsMax =  -9.30785448716165E-11  1.82868944887514E-02
 cg2d: Sum(rhs),rhsMax =  -9.24041954064592E-11  1.84367134364371E-02
 cg2d: Sum(rhs),rhsMax =  -9.17498299557451E-11  1.85823932841164E-02
 cg2d: Sum(rhs),rhsMax =  -9.11637432210455E-11  1.87238720076198E-02
 cg2d: Sum(rhs),rhsMax =  -9.05807651108148E-11  1.88610898055725E-02
 cg2d: Sum(rhs),rhsMax =  -9.00273189330392E-11  1.89939890984802E-02
 cg2d: Sum(rhs),rhsMax =  -8.94910812121452E-11  1.91225145224068E-02
 cg2d: Sum(rhs),rhsMax =  -8.89880391596876E-11  1.92466129172262E-02
 cg2d: Sum(rhs),rhsMax =  -8.84999851180623E-11  1.93662333110061E-02
 cg2d: Sum(rhs),rhsMax =  -8.80494566146695E-11  1.94813269039952E-02
 cg2d: Sum(rhs),rhsMax =  -8.76027028695603E-11  1.95918470567899E-02
 cg2d: Sum(rhs),rhsMax =  -8.72188987699474E-11  1.96977492865868E-02
 cg2d: Sum(rhs),rhsMax =  -8.68125571429346E-11  1.97989912728882E-02
 cg2d: Sum(rhs),rhsMax =  -8.64655014254367E-11  1.98955328704576E-02
 cg2d: Sum(rhs),rhsMax =  -8.61146709496552E-11  1.99873361242097E-02
 cg2d: Sum(rhs),rhsMax =  -8.57751647487248E-11  2.00743652794417E-02
 cg2d: Sum(rhs),rhsMax =  -8.54891712975814E-11  2.01565867819716E-02
 cg2d: Sum(rhs),rhsMax =  -8.52049542032773E-11  2.02339692659437E-02
 cg2d: Sum(rhs),rhsMax =  -8.49240677780472E-11  2.03064835310521E-02
 cg2d: Sum(rhs),rhsMax =  -8.47406589343791E-11  2.03741025142666E-02
 cg2d: Sum(rhs),rhsMax =  -8.45840064656045E-11  2.04368012627411E-02
 cg2d: Sum(rhs),rhsMax =  -8.44387892939835E-11  2.04945569140470E-02
 cg2d: Sum(rhs),rhsMax =  -8.42769187769932E-11  2.05473486875837E-02
 cg2d: Sum(rhs),rhsMax =  -8.41483549507416E-11  2.05951578878323E-02
 cg2d: Sum(rhs),rhsMax =  -8.40398861612357E-11  2.06379679170713E-02
 cg2d: Sum(rhs),rhsMax =  -8.39378566652726E-11  2.06757642930904E-02
 cg2d: Sum(rhs),rhsMax =  -8.38593638974316E-11  2.07085346669326E-02
 cg2d: Sum(rhs),rhsMax =  -8.38622504772957E-11  2.07362688368425E-02
 cg2d: Sum(rhs),rhsMax =  -8.38729086183321E-11  2.07589587568209E-02
 cg2d: Sum(rhs),rhsMax =  -8.38823455140414E-11  2.07765985404010E-02
 cg2d: Sum(rhs),rhsMax =  -8.38908942313310E-11  2.07891844614581E-02
 cg2d: Sum(rhs),rhsMax =  -8.38712432837951E-11  2.07967149537091E-02
 cg2d: Sum(rhs),rhsMax =  -8.38465963326485E-11  2.07991906095367E-02
 cg2d: Sum(rhs),rhsMax =  -8.38039637685029E-11  2.07966141778273E-02
 cg2d: Sum(rhs),rhsMax =  -8.37770963713069E-11  2.07889905604309E-02
 cg2d: Sum(rhs),rhsMax =  -8.37737657022330E-11  2.07763268077774E-02
 cg2d: Sum(rhs),rhsMax =  -8.38126235080949E-11  2.07586321148502E-02
 cg2d: Sum(rhs),rhsMax =  -8.38157321325639E-11  2.07359178192844E-02
 cg2d: Sum(rhs),rhsMax =  -8.39052161083487E-11  2.07081974028806E-02
 cg2d: Sum(rhs),rhsMax =  -8.39900371474300E-11  2.06754864967709E-02
 cg2d: Sum(rhs),rhsMax =  -8.40872926843872E-11  2.06378028892268E-02
 cg2d: Sum(rhs),rhsMax =  -8.42070857487442E-11  2.05951665341486E-02
 cg2d: Sum(rhs),rhsMax =  -8.43344283296688E-11  2.05475995579564E-02
 cg2d: Sum(rhs),rhsMax =  -8.44925240883754E-11  2.04951262629562E-02
 cg2d: Sum(rhs),rhsMax =  -8.46600567427913E-11  2.04377731260913E-02
 cg2d: Sum(rhs),rhsMax =  -8.48413561627126E-11  2.03755687928956E-02
 cg2d: Sum(rhs),rhsMax =  -8.50299830545964E-11  2.03085440670734E-02
 cg2d: Sum(rhs),rhsMax =  -8.53020987179320E-11  2.02367318962801E-02
 cg2d: Sum(rhs),rhsMax =  -8.55719939352184E-11  2.01601673544590E-02
 cg2d: Sum(rhs),rhsMax =  -8.58634274791825E-11  2.00788876208243E-02
 cg2d: Sum(rhs),rhsMax =  -8.61749560598923E-11  1.99929319555130E-02
 cg2d: Sum(rhs),rhsMax =  -8.65307825392847E-11  1.99023416721668E-02
 cg2d: Sum(rhs),rhsMax =  -8.69041505424661E-11  1.98071601081107E-02
 cg2d: Sum(rhs),rhsMax =  -8.72838468168879E-11  1.97074325930360E-02
 cg2d: Sum(rhs),rhsMax =  -8.76922978676475E-11  1.96032064168742E-02
 cg2d: Sum(rhs),rhsMax =  -8.81218431558750E-11  1.94945307967635E-02
 cg2d: Sum(rhs),rhsMax =  -8.85802542427427E-11  1.93814568419148E-02
 cg2d: Sum(rhs),rhsMax =  -8.90617579685227E-11  1.92640375142504E-02
 cg2d: Sum(rhs),rhsMax =  -8.95480356533085E-11  1.91423275824330E-02
 cg2d: Sum(rhs),rhsMax =  -9.00579610885188E-11  1.90163835675659E-02
 cg2d: Sum(rhs),rhsMax =  -9.06106301101772E-11  1.88862636803202E-02
 cg2d: Sum(rhs),rhsMax =  -9.11847264362109E-11  1.87520277510398E-02
 cg2d: Sum(rhs),rhsMax =  -9.17754761076139E-11  1.86137371559161E-02
 cg2d: Sum(rhs),rhsMax =  -9.24074150532306E-11  1.84714547431420E-02
 cg2d: Sum(rhs),rhsMax =  -9.30606702809200E-11  1.83252447629490E-02
 cg2d: Sum(rhs),rhsMax =  -9.37424582403423E-11  1.81751728047982E-02
 cg2d: Sum(rhs),rhsMax =  -9.44537781322197E-11  1.80213057441282E-02
 cg2d: Sum(rhs),rhsMax =  -9.52082856997549E-11  1.78637117003376E-02
 cg2d: Sum(rhs),rhsMax =  -9.59891055529738E-11  1.77024600072823E-02
 cg2d: Sum(rhs),rhsMax =  -9.67781410565749E-11  1.75376211974777E-02
 cg2d: Sum(rhs),rhsMax =  -9.76111413919512E-11  1.73692670012260E-02
 cg2d: Sum(rhs),rhsMax =  -9.84869963360779E-11  1.71974703617732E-02
 cg2d: Sum(rhs),rhsMax =  -9.93848336960923E-11  1.70223054671312E-02
 cg2d: Sum(rhs),rhsMax =  -1.00386920998119E-10  1.68438477982778E-02
 cg2d: Sum(rhs),rhsMax =  -1.01415653652737E-10  1.66621741921161E-02
 cg2d: Sum(rhs),rhsMax =  -1.02487907049920E-10  1.64773629160511E-02
 cg2d: Sum(rhs),rhsMax =  -1.03607344925649E-10  1.62894937496066E-02
 cg2d: Sum(rhs),rhsMax =  -1.04798725253374E-10  1.60986480674483E-02
 cg2d: Sum(rhs),rhsMax =  -1.05993880339383E-10  1.59049089177051E-02
 cg2d: Sum(rhs),rhsMax =  -1.07246544978068E-10  1.57083610896327E-02
 cg2d: Sum(rhs),rhsMax =  -1.08562381306854E-10  1.55090911654814E-02
 cg2d: Sum(rhs),rhsMax =  -1.09938946835086E-10  1.53071875520677E-02
 cg2d: Sum(rhs),rhsMax =  -1.11345266340379E-10  1.51027404893780E-02
 cg2d: Sum(rhs),rhsMax =  -1.12822529096945E-10  1.48958420348415E-02
 cg2d: Sum(rhs),rhsMax =  -1.14332876499645E-10  1.46865860231429E-02
 cg2d: Sum(rhs),rhsMax =  -1.15932041744315E-10  1.44750680028024E-02
 cg2d: Sum(rhs),rhsMax =  -1.17608034422290E-10  1.42613851519697E-02
 cg2d: Sum(rhs),rhsMax =  -1.19321108549286E-10  1.40456361768759E-02
 cg2d: Sum(rhs),rhsMax =  -1.21121779272926E-10  1.38279211971044E-02
 cg2d: Sum(rhs),rhsMax =  -1.23006604901832E-10  1.36083416222613E-02
 cg2d: Sum(rhs),rhsMax =  -1.24966370584900E-10  1.33870000246778E-02
 cg2d: Sum(rhs),rhsMax =  -1.26966104296855E-10  1.31640000123832E-02
 cg2d: Sum(rhs),rhsMax =  -1.29087074363099E-10  1.29394461057290E-02
 cg2d: Sum(rhs),rhsMax =  -1.31288202531721E-10  1.27134436198313E-02
 cg2d: Sum(rhs),rhsMax =  -1.33594801887682E-10  1.24860985537065E-02
 cg2d: Sum(rhs),rhsMax =  -1.35978228676947E-10  1.22575174858973E-02
 cg2d: Sum(rhs),rhsMax =  -1.38466793586645E-10  1.20278074756986E-02
 cg2d: Sum(rhs),rhsMax =  -1.41074152359977E-10  1.17970759688415E-02
 cg2d: Sum(rhs),rhsMax =  -1.43802303398388E-10  1.15654307066053E-02
 cg2d: Sum(rhs),rhsMax =  -1.46632483932763E-10  1.13329796376674E-02
 cg2d: Sum(rhs),rhsMax =  -1.49609047372934E-10  1.10998308323888E-02
 cg2d: Sum(rhs),rhsMax =  -1.52722945401251E-10  1.08660923994420E-02
 cg2d: Sum(rhs),rhsMax =  -1.55986445982137E-10  1.06318724046086E-02
 cg2d: Sum(rhs),rhsMax =  -1.59377733233157E-10  1.03972787912276E-02
 cg2d: Sum(rhs),rhsMax =  -1.62956870219944E-10  1.01624193014108E-02
 cg2d: Sum(rhs),rhsMax =  -1.66694325010042E-10  9.92740139707052E-03
 cg2d: Sum(rhs),rhsMax =  -1.70602032500966E-10  9.69233218023714E-03
 cg2d: Sum(rhs),rhsMax =  -1.74729508639615E-10  9.45731831306645E-03
 cg2d: Sum(rhs),rhsMax =  -1.79063208705088E-10  9.22246593905292E-03
 cg2d: Sum(rhs),rhsMax =  -1.83615012083749E-10  8.98788060788423E-03
 cg2d: Sum(rhs),rhsMax =  -1.88476234619372E-10  8.75366720674267E-03
 cg2d: Sum(rhs),rhsMax =  -1.93605353970838E-10  8.51992990055077E-03
 cg2d: Sum(rhs),rhsMax =  -1.99013805435300E-10  8.28677208280721E-03
 cg2d: Sum(rhs),rhsMax =  -2.04674055481746E-10  8.05429633755279E-03
 cg2d: Sum(rhs),rhsMax =  -2.10703732239637E-10  7.82260441201327E-03
 cg2d: Sum(rhs),rhsMax =  -2.17046047801261E-10  7.59179719882201E-03
 cg2d: Sum(rhs),rhsMax =  -2.23790430631254E-10  7.36197472652772E-03
 cg2d: Sum(rhs),rhsMax =  -2.30900382147681E-10  7.13323615723999E-03
 cg2d: Sum(rhs),rhsMax =  -2.38462111168403E-10  6.90567979058253E-03
 cg2d: Sum(rhs),rhsMax =  -2.46459685993017E-10  6.67940307339039E-03
 cg2d: Sum(rhs),rhsMax =  -2.54991777692837E-10  6.45450261469311E-03
 cg2d: Sum(rhs),rhsMax =  -2.64078731104789E-10  6.23107420544507E-03
 cg2d: Sum(rhs),rhsMax =  -2.73724098942552E-10  6.00921284228029E-03
 cg2d: Sum(rhs),rhsMax =  -2.84085310831017E-10  5.78901275436409E-03
 cg2d: Sum(rhs),rhsMax =  -2.95140134554117E-10  5.57056743218781E-03
 cg2d: Sum(rhs),rhsMax =  -2.88823340244271E-10  5.69144407484289E-03
 cg2d: Sum(rhs),rhsMax =  -2.81010322650266E-10  5.84776806278759E-03
 cg2d: Sum(rhs),rhsMax =  -2.73720320714821E-10  6.00230126120539E-03
(PID.TID 0000.0001)      cg2d_init_res =   1.83243812563815E-01
(PID.TID 0000.0001)      cg2d_iters(min,last) =      -1      39
(PID.TID 0000.0001)      cg2d_last_res =   6.31287951530187E-14
(PID.TID 0000.0001) // =======================================================
(PID.TID 0000.0001) // Begin MONITOR dynamic field statistics
(PID.TID 0000.0001) // =======================================================
(PID.TID 0000.0001) %MON time_tsnumber                =                  6720
(PID.TID 0000.0001) %MON time_secondsf                =   1.0080000000000E+05
(PID.TID 0000.0001) %MON dynstat_eta_max              =   1.0188964016943E-03
(PID.TID 0000.0001) %MON dynstat_eta_min              =  -1.2222093853476E-03
(PID.TID 0000.0001) %MON dynstat_eta_mean             =   3.6220455316846E-15
(PID.TID 0000.0001) %MON dynstat_eta_sd               =   7.0381372138262E-04
(PID.TID 0000.0001) %MON dynstat_eta_del2             =   3.9087357101927E-06
(PID.TID 0000.0001) %MON dynstat_uvel_max             =   4.5174579935146E-01
(PID.TID 0000.0001) %MON dynstat_uvel_min             =  -4.5265190955828E-01
(PID.TID 0000.0001) %MON dynstat_uvel_mean            =   1.1352117772989E-01
(PID.TID 0000.0001) %MON dynstat_uvel_sd              =   4.4777594414928E-02
(PID.TID 0000.0001) %MON dynstat_uvel_del2            =   1.0347630431154E-04
(PID.TID 0000.0001) %MON dynstat_vvel_max             =   0.0000000000000E+00
(PID.TID 0000.0001) %MON dynstat_vvel_min             =   0.0000000000000E+00
(PID.TID 0000.0001) %MON dynstat_vvel_mean            =   0.0000000000000E+00
(PID.TID 0000.0001) %MON dynstat_vvel_sd              =   0.0000000000000E+00
(PID.TID 0000.0001) %MON dynstat_vvel_del2            =   0.0000000000000E+00
(PID.TID 0000.0001) %MON dynstat_wvel_max             =   2.4314639289523E-03
(PID.TID 0000.0001) %MON dynstat_wvel_min             =  -5.1194663509823E-03
(PID.TID 0000.0001) %MON dynstat_wvel_mean            =   9.5051261230279E-21
(PID.TID 0000.0001) %MON dynstat_wvel_sd              =   2.7655756206462E-04
(PID.TID 0000.0001) %MON dynstat_wvel_del2            =   4.6967764964606E-06
(PID.TID 0000.0001) %MON dynstat_theta_max            =   1.5000000000021E+01
(PID.TID 0000.0001) %MON dynstat_theta_min            =   9.9999999999883E+00
(PID.TID 0000.0001) %MON dynstat_theta_mean           =   1.4023518036097E+01
(PID.TID 0000.0001) %MON dynstat_theta_sd             =   1.8974211137900E+00
(PID.TID 0000.0001) %MON dynstat_theta_del2           =   3.1954143599006E-04
(PID.TID 0000.0001) %MON dynstat_salt_max             =   3.5000000000000E+01
(PID.TID 0000.0001) %MON dynstat_salt_min             =   3.5000000000000E+01
(PID.TID 0000.0001) %MON dynstat_salt_mean            =   3.5000000000000E+01
(PID.TID 0000.0001) %MON dynstat_salt_sd              =   3.0553337637684E-13
(PID.TID 0000.0001) %MON dynstat_salt_del2            =   0.0000000000000E+00
(PID.TID 0000.0001) %MON dynstat_sst_max              =   1.5000000000000E+01
(PID.TID 0000.0001) %MON dynstat_sst_min              =   1.4999999999998E+01
(PID.TID 0000.0001) %MON dynstat_sst_mean             =   1.5000000000000E+01
(PID.TID 0000.0001) %MON dynstat_sst_sd               =   3.9803496113446E-13
(PID.TID 0000.0001) %MON dynstat_sst_del2             =   9.1400425552447E-15
(PID.TID 0000.0001) %MON dynstat_sss_max              =   3.5000000000000E+01
(PID.TID 0000.0001) %MON dynstat_sss_min              =   3.5000000000000E+01
(PID.TID 0000.0001) %MON dynstat_sss_mean             =   3.5000000000000E+01
(PID.TID 0000.0001) %MON dynstat_sss_sd               =   2.8421709430404E-14
(PID.TID 0000.0001) %MON dynstat_sss_del2             =   0.0000000000000E+00
(PID.TID 0000.0001) %MON forcing_qnet_max             =   0.0000000000000E+00
(PID.TID 0000.0001) %MON forcing_qnet_min             =   0.0000000000000E+00
(PID.TID 0000.0001) %MON forcing_qnet_mean            =   0.0000000000000E+00
(PID.TID 0000.0001) %MON forcing_qnet_sd              =   0.0000000000000E+00
(PID.TID 0000.0001) %MON forcing_qnet_del2            =   0.0000000000000E+00
(PID.TID 0000.0001) %MON forcing_qsw_max              =   0.0000000000000E+00
(PID.TID 0000.0001) %MON forcing_qsw_min              =   0.0000000000000E+00
(PID.TID 0000.0001) %MON forcing_qsw_mean             =   0.0000000000000E+00
(PID.TID 0000.0001) %MON forcing_qsw_sd               =   0.0000000000000E+00
(PID.TID 0000.0001) %MON forcing_qsw_del2             =   0.0000000000000E+00
(PID.TID 0000.0001) %MON forcing_empmr_max            =   0.0000000000000E+00
(PID.TID 0000.0001) %MON forcing_empmr_min            =   0.0000000000000E+00
(PID.TID 0000.0001) %MON forcing_empmr_mean           =   0.0000000000000E+00
(PID.TID 0000.0001) %MON forcing_empmr_sd             =   0.0000000000000E+00
(PID.TID 0000.0001) %MON forcing_empmr_del2           =   0.0000000000000E+00
(PID.TID 0000.0001) %MON forcing_fu_max               =   0.0000000000000E+00
(PID.TID 0000.0001) %MON forcing_fu_min               =   0.0000000000000E+00
(PID.TID 0000.0001) %MON forcing_fu_mean              =   0.0000000000000E+00
(PID.TID 0000.0001) %MON forcing_fu_sd                =   0.0000000000000E+00
(PID.TID 0000.0001) %MON forcing_fu_del2              =   0.0000000000000E+00
(PID.TID 0000.0001) %MON forcing_fv_max               =   0.0000000000000E+00
(PID.TID 0000.0001) %MON forcing_fv_min               =   0.0000000000000E+00
(PID.TID 0000.0001) %MON forcing_fv_mean              =   0.0000000000000E+00
(PID.TID 0000.0001) %MON forcing_fv_sd                =   0.0000000000000E+00
(PID.TID 0000.0001) %MON forcing_fv_del2              =   0.0000000000000E+00
(PID.TID 0000.0001) %MON advcfl_uvel_max              =   3.3948893216871E-02
(PID.TID 0000.0001) %MON advcfl_vvel_max              =   0.0000000000000E+00
(PID.TID 0000.0001) %MON advcfl_wvel_max              =   2.3784755994437E-02
(PID.TID 0000.0001) %MON advcfl_W_hf_max              =   3.3948893216871E-02
(PID.TID 0000.0001) %MON pe_b_mean                    =   1.2277184026850E-08
(PID.TID 0000.0001) %MON ke_max                       =   5.6123374197896E-02
(PID.TID 0000.0001) %MON ke_mean                      =   7.4575704002829E-03
(PID.TID 0000.0001) %MON ke_vol                       =   9.6656965507697E+10
(PID.TID 0000.0001) %MON vort_r_min                   =   0.0000000000000E+00
(PID.TID 0000.0001) %MON vort_r_max                   =   0.0000000000000E+00
(PID.TID 0000.0001) %MON vort_a_mean                  =   0.0000000000000E+00
(PID.TID 0000.0001) %MON vort_a_sd                    =   0.0000000000000E+00
(PID.TID 0000.0001) %MON vort_p_mean                  =   0.0000000000000E+00
(PID.TID 0000.0001) %MON vort_p_sd                    =   0.0000000000000E+00
(PID.TID 0000.0001) %MON surfExpan_theta_mean         =   4.0351211723306E-19
(PID.TID 0000.0001) %MON surfExpan_salt_mean          =   4.7043437492242E-19
(PID.TID 0000.0001) // =======================================================
(PID.TID 0000.0001) // End MONITOR dynamic field statistics
(PID.TID 0000.0001) // =======================================================
(PID.TID 0000.0001) // =======================================================
(PID.TID 0000.0001) // Begin OBCS MONITOR field statistics
(PID.TID 0000.0001) // =======================================================
(PID.TID 0000.0001) %MON obc_E_uVel_max               =   1.1205712828732E-01
(PID.TID 0000.0001) %MON obc_E_uVel_min               =   1.1205712828732E-01
(PID.TID 0000.0001) %MON obc_E_uVel_mean              =   1.1205712828732E-01
(PID.TID 0000.0001) %MON obc_E_uVel_sd                =   0.0000000000000E+00
(PID.TID 0000.0001) %MON obc_E_uVel_Int               =   1.1205712828732E+05
(PID.TID 0000.0001) %MON obc_W_uVel_max               =   1.1205712828732E-01
(PID.TID 0000.0001) %MON obc_W_uVel_min               =   1.1205712828732E-01
(PID.TID 0000.0001) %MON obc_W_uVel_mean              =   1.1205712828732E-01
(PID.TID 0000.0001) %MON obc_W_uVel_sd                =   0.0000000000000E+00
(PID.TID 0000.0001) %MON obc_W_uVel_Int               =   1.1205712828732E+05
(PID.TID 0000.0001) // =======================================================
(PID.TID 0000.0001) // End OBCS MONITOR field statistics
(PID.TID 0000.0001) // =======================================================
 cg2d: Sum(rhs),rhsMax =  -2.66834859763421E-10  6.15497543971041E-03
 cg2d: Sum(rhs),rhsMax =  -2.60416230246641E-10  6.30572362942803E-03
 cg2d: Sum(rhs),rhsMax =  -2.54360657536701E-10  6.45447979198993E-03
 cg2d: Sum(rhs),rhsMax =  -2.48674816849537E-10  6.60117887397277E-03
 cg2d: Sum(rhs),rhsMax =  -2.43296854884889E-10  6.74575685028393E-03
 cg2d: Sum(rhs),rhsMax =  -2.38150471565390E-10  6.88815072708390E-03
 cg2d: Sum(rhs),rhsMax =  -2.33349228828672E-10  7.02829852246621E-03
 cg2d: Sum(rhs),rhsMax =  -2.28791680045859E-10  7.16613925107162E-03
 cg2d: Sum(rhs),rhsMax =  -2.24482515909230E-10  7.30161292553552E-03
 cg2d: Sum(rhs),rhsMax =  -2.20410606432964E-10  7.43465719900989E-03
 cg2d: Sum(rhs),rhsMax =  -2.16477780146107E-10  7.56521053454385E-03
 cg2d: Sum(rhs),rhsMax =  -2.12765249862912E-10  7.69321430559292E-03
 cg2d: Sum(rhs),rhsMax =  -2.09252282168393E-10  7.81861262870052E-03
 cg2d: Sum(rhs),rhsMax =  -2.05888528448384E-10  7.94135136844896E-03
 cg2d: Sum(rhs),rhsMax =  -2.02343863886512E-10  8.07681808680642E-03
 cg2d: Sum(rhs),rhsMax =  -1.98882910140696E-10  8.21327405212710E-03
 cg2d: Sum(rhs),rhsMax =  -1.95587823714760E-10  8.34702671902519E-03
 cg2d: Sum(rhs),rhsMax =  -1.92442339841392E-10  8.47801955495022E-03
 cg2d: Sum(rhs),rhsMax =  -1.89513960080490E-10  8.60619735288293E-03
 cg2d: Sum(rhs),rhsMax =  -1.86714810279653E-10  8.73150645266348E-03
 cg2d: Sum(rhs),rhsMax =  -1.84056214713735E-10  8.85389455468541E-03
 cg2d: Sum(rhs),rhsMax =  -1.81519743680525E-10  8.97331053585343E-03
 cg2d: Sum(rhs),rhsMax =  -1.79117609633295E-10  9.08970452031467E-03
 cg2d: Sum(rhs),rhsMax =  -1.76832937182070E-10  9.20302802347733E-03
 cg2d: Sum(rhs),rhsMax =  -1.74678604913936E-10  9.31323406317936E-03
 cg2d: Sum(rhs),rhsMax =  -1.72607927950708E-10  9.42027805536469E-03
 cg2d: Sum(rhs),rhsMax =  -1.70648994934908E-10  9.52411845541566E-03
 cg2d: Sum(rhs),rhsMax =  -1.68788427679090E-10  9.62470887475905E-03
 cg2d: Sum(rhs),rhsMax =  -1.67042712995169E-10  9.72200356149608E-03
 cg2d: Sum(rhs),rhsMax =  -1.65403246654705E-10  9.81596079308666E-03
 cg2d: Sum(rhs),rhsMax =  -1.63846158862668E-10  9.90654294532244E-03
 cg2d: Sum(rhs),rhsMax =  -1.62366897704658E-10  9.99371487344939E-03
 cg2d: Sum(rhs),rhsMax =  -1.60970348161982E-10  1.00774433720985E-02
 cg2d: Sum(rhs),rhsMax =  -1.59564417234748E-10  1.01576967603760E-02
 cg2d: Sum(rhs),rhsMax =  -1.58278723461081E-10  1.02344471905411E-02
 cg2d: Sum(rhs),rhsMax =  -1.57037993719911E-10  1.03076686581368E-02
 cg2d: Sum(rhs),rhsMax =  -1.55900570231182E-10  1.03773354276877E-02
 cg2d: Sum(rhs),rhsMax =  -1.54865786861080E-10  1.04434219725997E-02
 cg2d: Sum(rhs),rhsMax =  -1.53844381678425E-10  1.05059035879131E-02
 cg2d: Sum(rhs),rhsMax =  -1.52913959272638E-10  1.05647540191216E-02
 cg2d: Sum(rhs),rhsMax =  -1.52033496902959E-10  1.06199467803927E-02
 cg2d: Sum(rhs),rhsMax =  -1.51263335190777E-10  1.06714562563077E-02
 cg2d: Sum(rhs),rhsMax =  -1.50523593589469E-10  1.07192600682902E-02
 cg2d: Sum(rhs),rhsMax =  -1.49868117915730E-10  1.07633403043278E-02
 cg2d: Sum(rhs),rhsMax =  -1.49276591088210E-10  1.08036817348582E-02
 cg2d: Sum(rhs),rhsMax =  -1.48719592196755E-10  1.08402717392724E-02
 cg2d: Sum(rhs),rhsMax =  -1.48162149216091E-10  1.08730988323565E-02
 cg2d: Sum(rhs),rhsMax =  -1.47717504894729E-10  1.09021521686753E-02
 cg2d: Sum(rhs),rhsMax =  -1.47316825405142E-10  1.09274223569514E-02
 cg2d: Sum(rhs),rhsMax =  -1.46984979743081E-10  1.09489018126242E-02
 cg2d: Sum(rhs),rhsMax =  -1.46735790185204E-10  1.09665844444074E-02
 cg2d: Sum(rhs),rhsMax =  -1.46460232830492E-10  1.09804664876054E-02
 cg2d: Sum(rhs),rhsMax =  -1.46270107137525E-10  1.09905463528892E-02
 cg2d: Sum(rhs),rhsMax =  -1.46110623600038E-10  1.09968234195144E-02
 cg2d: Sum(rhs),rhsMax =  -1.46074208284830E-10  1.09992979396265E-02
 cg2d: Sum(rhs),rhsMax =  -1.46153145141881E-10  1.09979714990945E-02
 cg2d: Sum(rhs),rhsMax =  -1.46234468978435E-10  1.09928548977700E-02
 cg2d: Sum(rhs),rhsMax =  -1.46429646186164E-10  1.09839603534743E-02
 cg2d: Sum(rhs),rhsMax =  -1.46672729517405E-10  1.09712979153641E-02
 cg2d: Sum(rhs),rhsMax =  -1.46974321602045E-10  1.09548762045064E-02
 cg2d: Sum(rhs),rhsMax =  -1.47356404855969E-10  1.09347044597704E-02
 cg2d: Sum(rhs),rhsMax =  -1.47704681818794E-10  1.09107939835750E-02
 cg2d: Sum(rhs),rhsMax =  -1.48110967934656E-10  1.08831576300848E-02
 cg2d: Sum(rhs),rhsMax =  -1.48588086279489E-10  1.08518106626075E-02
 cg2d: Sum(rhs),rhsMax =  -1.49124379511534E-10  1.08167711299333E-02
 cg2d: Sum(rhs),rhsMax =  -1.49702084062397E-10  1.07780593048969E-02
 cg2d: Sum(rhs),rhsMax =  -1.50381429531166E-10  1.07356971599723E-02
 cg2d: Sum(rhs),rhsMax =  -1.51102741430265E-10  1.06897088545056E-02
 cg2d: Sum(rhs),rhsMax =  -1.51860857222630E-10  1.06401195075765E-02
 cg2d: Sum(rhs),rhsMax =  -1.52692913868435E-10  1.05869552483885E-02
 cg2d: Sum(rhs),rhsMax =  -1.53629442500858E-10  1.05302432625515E-02
 cg2d: Sum(rhs),rhsMax =  -1.54582180389440E-10  1.04700117041313E-02
 cg2d: Sum(rhs),rhsMax =  -1.55627899456334E-10  1.04062914294177E-02
 cg2d: Sum(rhs),rhsMax =  -1.56738733103623E-10  1.03391158693002E-02
 cg2d: Sum(rhs),rhsMax =  -1.57915791554331E-10  1.02685202165523E-02
 cg2d: Sum(rhs),rhsMax =  -1.59114943443228E-10  1.01945409098673E-02
 cg2d: Sum(rhs),rhsMax =  -1.60400637216895E-10  1.01172141129136E-02
 cg2d: Sum(rhs),rhsMax =  -1.61793634045893E-10  1.00365756558910E-02
 cg2d: Sum(rhs),rhsMax =  -1.63213775827842E-10  9.95266306425403E-03
 cg2d: Sum(rhs),rhsMax =  -1.64710634020793E-10  9.86551702746896E-03
 cg2d: Sum(rhs),rhsMax =  -1.66294644721177E-10  9.77518099129666E-03
 cg2d: Sum(rhs),rhsMax =  -1.67994063104970E-10  9.68169994096491E-03
 cg2d: Sum(rhs),rhsMax =  -1.69751324108347E-10  9.58512040377386E-03
 cg2d: Sum(rhs),rhsMax =  -1.71595848641459E-10  9.48549034539520E-03
 cg2d: Sum(rhs),rhsMax =  -1.73543013293198E-10  9.38285903234886E-03
 cg2d: Sum(rhs),rhsMax =  -1.75612691055704E-10  9.27727693362232E-03
 cg2d: Sum(rhs),rhsMax =  -1.77783066046544E-10  9.16879568493851E-03
 cg2d: Sum(rhs),rhsMax =  -1.80056525245220E-10  9.05746809617788E-03
 cg2d: Sum(rhs),rhsMax =  -1.82434456430514E-10  8.94334665909847E-03
 cg2d: Sum(rhs),rhsMax =  -1.84957327231672E-10  8.82648318149615E-03
 cg2d: Sum(rhs),rhsMax =  -1.87599380474524E-10  8.70693180747245E-03
 cg2d: Sum(rhs),rhsMax =  -1.90373605768457E-10  8.58474955878639E-03
 cg2d: Sum(rhs),rhsMax =  -1.93291105343718E-10  8.45999556235027E-03
 cg2d: Sum(rhs),rhsMax =  -1.96318072909207E-10  8.33273014559786E-03
 cg2d: Sum(rhs),rhsMax =  -1.99559785363235E-10  8.20301437086675E-03
 cg2d: Sum(rhs),rhsMax =  -2.02957428641071E-10  8.07090998767363E-03
 cg2d: Sum(rhs),rhsMax =  -2.06505479383168E-10  7.93647955965348E-03
 cg2d: Sum(rhs),rhsMax =  -2.10262307565046E-10  7.79978657272673E-03
 cg2d: Sum(rhs),rhsMax =  -2.14114753704919E-10  7.66089545972944E-03
 cg2d: Sum(rhs),rhsMax =  -2.18280893360401E-10  7.51987156405064E-03
 cg2d: Sum(rhs),rhsMax =  -2.22652035697379E-10  7.37678138082268E-03
 cg2d: Sum(rhs),rhsMax =  -2.27164731469998E-10  7.23169221862339E-03
 cg2d: Sum(rhs),rhsMax =  -2.31950861295793E-10  7.08467191484016E-03
 cg2d: Sum(rhs),rhsMax =  -2.36992619973009E-10  6.93578893554266E-03
 cg2d: Sum(rhs),rhsMax =  -2.42314800169563E-10  6.78511255444881E-03
 cg2d: Sum(rhs),rhsMax =  -2.47947065656895E-10  6.63271292953395E-03
 cg2d: Sum(rhs),rhsMax =  -2.53909211364589E-10  6.47866106592642E-03
 cg2d: Sum(rhs),rhsMax =  -2.60232304455377E-10  6.32302873079899E-03
 cg2d: Sum(rhs),rhsMax =  -2.66923039227152E-10  6.16588837792470E-03
 cg2d: Sum(rhs),rhsMax =  -2.74004874345479E-10  6.00731310113456E-03
 cg2d: Sum(rhs),rhsMax =  -2.81603240726014E-10  5.84737660727718E-03
 cg2d: Sum(rhs),rhsMax =  -2.88178730878386E-10  5.71559635653666E-03
 cg2d: Sum(rhs),rhsMax =  -2.77830730643913E-10  5.93037889469638E-03
 cg2d: Sum(rhs),rhsMax =  -2.68135097458710E-10  6.14660840065864E-03
 cg2d: Sum(rhs),rhsMax =  -2.59001542435300E-10  6.36418591125128E-03
 cg2d: Sum(rhs),rhsMax =  -2.50453852101984E-10  6.58301211899309E-03
 cg2d: Sum(rhs),rhsMax =  -2.42418751739137E-10  6.80298741906774E-03
 cg2d: Sum(rhs),rhsMax =  -2.34854746761215E-10  7.02401195044456E-03
 cg2d: Sum(rhs),rhsMax =  -2.27733665258967E-10  7.24598563213446E-03
 cg2d: Sum(rhs),rhsMax =  -2.20977736109518E-10  7.46880819610155E-03
 cg2d: Sum(rhs),rhsMax =  -2.14597839498509E-10  7.69237921863511E-03
 cg2d: Sum(rhs),rhsMax =  -2.08534856049880E-10  7.91659815199101E-03
 cg2d: Sum(rhs),rhsMax =  -2.02826588857619E-10  8.14136435785618E-03
 cg2d: Sum(rhs),rhsMax =  -1.97419525171938E-10  8.36657714374051E-03
 cg2d: Sum(rhs),rhsMax =  -1.92303062362953E-10  8.59213580283682E-03
 cg2d: Sum(rhs),rhsMax =  -1.87429627374058E-10  8.81793965729320E-03
 cg2d: Sum(rhs),rhsMax =  -1.82808934656720E-10  9.04388810428448E-03
 cg2d: Sum(rhs),rhsMax =  -1.78409231832433E-10  9.26988066378964E-03
 cg2d: Sum(rhs),rhsMax =  -1.74279313203130E-10  9.49581702661912E-03
 cg2d: Sum(rhs),rhsMax =  -1.70342184802053E-10  9.72159710100755E-03
 cg2d: Sum(rhs),rhsMax =  -1.66609115392902E-10  9.94712105602716E-03
 cg2d: Sum(rhs),rhsMax =  -1.63040303480244E-10  1.01722893601941E-02
 cg2d: Sum(rhs),rhsMax =  -1.59646629249721E-10  1.03970028139347E-02
 cg2d: Sum(rhs),rhsMax =  -1.56380242088971E-10  1.06211625750453E-02
 cg2d: Sum(rhs),rhsMax =  -1.53235368838267E-10  1.08446701768701E-02
 cg2d: Sum(rhs),rhsMax =  -1.50254864106358E-10  1.10674275396143E-02
 cg2d: Sum(rhs),rhsMax =  -1.47393430793841E-10  1.12893369759245E-02
 cg2d: Sum(rhs),rhsMax =  -1.44651457478773E-10  1.15103011925549E-02
 cg2d: Sum(rhs),rhsMax =  -1.42022504867612E-10  1.17302232904923E-02
 cg2d: Sum(rhs),rhsMax =  -1.39525391240625E-10  1.19490067662655E-02
 cg2d: Sum(rhs),rhsMax =  -1.37110878206670E-10  1.21665555172451E-02
 cg2d: Sum(rhs),rhsMax =  -1.34816269259375E-10  1.23827738535061E-02
 cg2d: Sum(rhs),rhsMax =  -1.32585498135995E-10  1.25975665183261E-02
 cg2d: Sum(rhs),rhsMax =  -1.30453980951017E-10  1.28108387186611E-02
 cg2d: Sum(rhs),rhsMax =  -1.28404398225257E-10  1.30224961661060E-02
 cg2d: Sum(rhs),rhsMax =  -1.26448518322775E-10  1.32324451279996E-02
 cg2d: Sum(rhs),rhsMax =  -1.24557808511838E-10  1.34405924875798E-02
 cg2d: Sum(rhs),rhsMax =  -1.22758136988921E-10  1.36468458115108E-02
 cg2d: Sum(rhs),rhsMax =  -1.21023413512944E-10  1.38511134227249E-02
 cg2d: Sum(rhs),rhsMax =  -1.19359744310543E-10  1.40533044763668E-02
 cg2d: Sum(rhs),rhsMax =  -1.17747811501090E-10  1.42533290366646E-02
 cg2d: Sum(rhs),rhsMax =  -1.16201825939299E-10  1.44510981527520E-02
 cg2d: Sum(rhs),rhsMax =  -1.14730891453974E-10  1.46465239317757E-02
 cg2d: Sum(rhs),rhsMax =  -1.13305143045750E-10  1.48395196079985E-02
 cg2d: Sum(rhs),rhsMax =  -1.11926246049165E-10  1.50299996070154E-02
 cg2d: Sum(rhs),rhsMax =  -1.10609188475053E-10  1.52178796046057E-02
 cg2d: Sum(rhs),rhsMax =  -1.09346975918356E-10  1.54030765801087E-02
 cg2d: Sum(rhs),rhsMax =  -1.08130393527972E-10  1.55855088644886E-02
 cg2d: Sum(rhs),rhsMax =  -1.06962438906066E-10  1.57650961834148E-02
 cg2d: Sum(rhs),rhsMax =  -1.05824571328128E-10  1.59417596957559E-02
 cg2d: Sum(rhs),rhsMax =  -1.04742770012933E-10  1.61154220279060E-02
 cg2d: Sum(rhs),rhsMax =  -1.03694941522292E-10  1.62860073043986E-02
 cg2d: Sum(rhs),rhsMax =  -1.02749253549916E-10  1.64534411753144E-02
 cg2d: Sum(rhs),rhsMax =  -1.01854524814371E-10  1.66176508410485E-02
 cg2d: Sum(rhs),rhsMax =  -1.00966346394671E-10  1.67785650749879E-02
 cg2d: Sum(rhs),rhsMax =  -1.00120689516814E-10  1.69361142445487E-02
 cg2d: Sum(rhs),rhsMax =  -9.93181092923123E-11  1.70902303308116E-02
 cg2d: Sum(rhs),rhsMax =  -9.85330705915999E-11  1.72408469467289E-02
 cg2d: Sum(rhs),rhsMax =  -9.77948833025266E-11  1.73878993536214E-02
 cg2d: Sum(rhs),rhsMax =  -9.70793445631557E-11  1.75313244754943E-02
 cg2d: Sum(rhs),rhsMax =  -9.64081037224673E-11  1.76710609106073E-02
 cg2d: Sum(rhs),rhsMax =  -9.57394163947356E-11  1.78070489397908E-02
 cg2d: Sum(rhs),rhsMax =  -9.51118073189150E-11  1.79392305307304E-02
 cg2d: Sum(rhs),rhsMax =  -9.45153955100864E-11  1.80675493379783E-02
 cg2d: Sum(rhs),rhsMax =  -9.39397448718182E-11  1.81919506982966E-02
 cg2d: Sum(rhs),rhsMax =  -9.34093913329548E-11  1.83123816210455E-02
 cg2d: Sum(rhs),rhsMax =  -9.28870313998686E-11  1.84287907736048E-02
 cg2d: Sum(rhs),rhsMax =  -9.23984222467311E-11  1.85411284622421E-02
 cg2d: Sum(rhs),rhsMax =  -9.19182507885807E-11  1.86493466094525E-02
 cg2d: Sum(rhs),rhsMax =  -9.14700537535396E-11  1.87533987295338E-02
 cg2d: Sum(rhs),rhsMax =  -9.10492792272066E-11  1.88532399049685E-02
 cg2d: Sum(rhs),rhsMax =  -9.06372754627682E-11  1.89488267669589E-02
 cg2d: Sum(rhs),rhsMax =  -9.02582453221612E-11  1.90401174840471E-02
 cg2d: Sum(rhs),rhsMax =  -8.99020857758615E-11  1.91270717630394E-02
 cg2d: Sum(rhs),rhsMax =  -8.95694629576838E-11  1.92096508663195E-02
 cg2d: Sum(rhs),rhsMax =  -8.92595997115109E-11  1.92878176490174E-02
 cg2d: Sum(rhs),rhsMax =  -8.89717188812256E-11  1.93615366183831E-02
 cg2d: Sum(rhs),rhsMax =  -8.87282469719253E-11  1.94307740161731E-02
 cg2d: Sum(rhs),rhsMax =  -8.85357342994553E-11  1.94954979230059E-02
 cg2d: Sum(rhs),rhsMax =  -8.83561002140709E-11  1.95556783816852E-02
 cg2d: Sum(rhs),rhsMax =  -8.81835715560442E-11  1.96112875346417E-02
 cg2d: Sum(rhs),rhsMax =  -8.80232553512883E-11  1.96622997691474E-02
 cg2d: Sum(rhs),rhsMax =  -8.78865868969569E-11  1.97086918629758E-02
 cg2d: Sum(rhs),rhsMax =  -8.77563577361684E-11  1.97504431228751E-02
 cg2d: Sum(rhs),rhsMax =  -8.76494432588970E-11  1.97875355085858E-02
 cg2d: Sum(rhs),rhsMax =  -8.75284289492129E-11  1.98199537361450E-02
 cg2d: Sum(rhs),rhsMax =  -8.75317596182867E-11  1.98476853557471E-02
 cg2d: Sum(rhs),rhsMax =  -8.75213235218553E-11  1.98707208012893E-02
 cg2d: Sum(rhs),rhsMax =  -8.74974537268258E-11  1.98890534107112E-02
 cg2d: Sum(rhs),rhsMax =  -8.74886829649313E-11  1.99026794181287E-02
 cg2d: Sum(rhs),rhsMax =  -8.75169936520592E-11  1.99115979204136E-02
 cg2d: Sum(rhs),rhsMax =  -8.75105543585164E-11  1.99158108219309E-02
 cg2d: Sum(rhs),rhsMax =  -8.74571526310319E-11  1.99153227617964E-02
 cg2d: Sum(rhs),rhsMax =  -8.74224026503612E-11  1.99101410285217E-02
 cg2d: Sum(rhs),rhsMax =  -8.74202932266144E-11  1.99002754668365E-02
 cg2d: Sum(rhs),rhsMax =  -8.74279537654843E-11  1.98857383807043E-02
 cg2d: Sum(rhs),rhsMax =  -8.74176286913553E-11  1.98665444361826E-02
 cg2d: Sum(rhs),rhsMax =  -8.74260663863424E-11  1.98427105668946E-02
 cg2d: Sum(rhs),rhsMax =  -8.75126637822632E-11  1.98142558842631E-02
 cg2d: Sum(rhs),rhsMax =  -8.75980399328569E-11  1.97812015939083E-02
 cg2d: Sum(rhs),rhsMax =  -8.77062866777578E-11  1.97435709188415E-02
 cg2d: Sum(rhs),rhsMax =  -8.78316308572380E-11  1.97013890293150E-02
 cg2d: Sum(rhs),rhsMax =  -8.79777362072787E-11  1.96546829784821E-02
 cg2d: Sum(rhs),rhsMax =  -8.81392736573616E-11  1.96034816424787E-02
 cg2d: Sum(rhs),rhsMax =  -8.83049189326357E-11  1.95478156632758E-02
 cg2d: Sum(rhs),rhsMax =  -8.84989859173402E-11  1.94877173927727E-02
 cg2d: Sum(rhs),rhsMax =  -8.87182549647036E-11  1.94232208371144E-02
 cg2d: Sum(rhs),rhsMax =  -8.89788243085832E-11  1.93543616010247E-02
 cg2d: Sum(rhs),rhsMax =  -8.92665941165660E-11  1.92811768328491E-02
 cg2d: Sum(rhs),rhsMax =  -8.95958862656698E-11  1.92037051717507E-02
 cg2d: Sum(rhs),rhsMax =  -8.99230689910269E-11  1.91219866988871E-02
 cg2d: Sum(rhs),rhsMax =  -9.02864449869867E-11  1.90360628943413E-02
 cg2d: Sum(rhs),rhsMax =  -9.06852370974320E-11  1.89459766011171E-02
 cg2d: Sum(rhs),rhsMax =  -9.10626019035021E-11  1.88517719968242E-02
 cg2d: Sum(rhs),rhsMax =  -9.14751607794528E-11  1.87534945729677E-02
 cg2d: Sum(rhs),rhsMax =  -9.19301301749442E-11  1.86511911211934E-02
 cg2d: Sum(rhs),rhsMax =  -9.23991994028484E-11  1.85449097255006E-02
 cg2d: Sum(rhs),rhsMax =  -9.29016863437937E-11  1.84346997593063E-02
 cg2d: Sum(rhs),rhsMax =  -9.34134991581459E-11  1.83206118862637E-02
 cg2d: Sum(rhs),rhsMax =  -9.39340827343926E-11  1.82026980638382E-02
 cg2d: Sum(rhs),rhsMax =  -9.45050704359574E-11  1.80810115487870E-02
 cg2d: Sum(rhs),rhsMax =  -9.50970413526875E-11  1.79556069038665E-02
 cg2d: Sum(rhs),rhsMax =  -9.56903445370472E-11  1.78265400053070E-02
 cg2d: Sum(rhs),rhsMax =  -9.63231716610835E-11  1.76938680508109E-02
 cg2d: Sum(rhs),rhsMax =  -9.70031832636664E-11  1.75576495680040E-02
 cg2d: Sum(rhs),rhsMax =  -9.76745351266572E-11  1.74179444233966E-02
 cg2d: Sum(rhs),rhsMax =  -9.84039516538360E-11  1.72748138318865E-02
 cg2d: Sum(rhs),rhsMax =  -9.91602355782106E-11  1.71283203667052E-02
 cg2d: Sum(rhs),rhsMax =  -9.99468285911576E-11  1.69785279695032E-02
 cg2d: Sum(rhs),rhsMax =  -1.00742414410604E-10  1.68255019600751E-02
 cg2d: Sum(rhs),rhsMax =  -1.01592179113652E-10  1.66693090450222E-02
 cg2d: Sum(rhs),rhsMax =  -1.02466479745544E-10  1.65100173245324E-02
 cg2d: Sum(rhs),rhsMax =  -1.03359099057343E-10  1.63476962964332E-02
 cg2d: Sum(rhs),rhsMax =  -1.04319997085156E-10  1.61824168567317E-02
 cg2d: Sum(rhs),rhsMax =  -1.05358388680088E-10  1.60142512960212E-02
 cg2d: Sum(rhs),rhsMax =  -1.06433972746345E-10  1.58432732913946E-02
 cg2d: Sum(rhs),rhsMax =  -1.07549857908396E-10  1.56695578938625E-02
 cg2d: Sum(rhs),rhsMax =  -1.08707709500777E-10  1.54931815116157E-02
 cg2d: Sum(rhs),rhsMax =  -1.09916520329989E-10  1.53142218896739E-02
 cg2d: Sum(rhs),rhsMax =  -1.11168518834859E-10  1.51327580864383E-02
 cg2d: Sum(rhs),rhsMax =  -1.12464038082294E-10  1.49488704473902E-02
 cg2d: Sum(rhs),rhsMax =  -1.13822395952923E-10  1.47626405758015E-02
 cg2d: Sum(rhs),rhsMax =  -1.15227161145981E-10  1.45741512999920E-02
 cg2d: Sum(rhs),rhsMax =  -1.16687548512573E-10  1.43834866365616E-02
 cg2d: Sum(rhs),rhsMax =  -1.18202891918884E-10  1.41907317491851E-02
 cg2d: Sum(rhs),rhsMax =  -1.19781407015296E-10  1.39959729029379E-02
 cg2d: Sum(rhs),rhsMax =  -1.21412768727680E-10  1.37992974146277E-02
 cg2d: Sum(rhs),rhsMax =  -1.23120180717251E-10  1.36007936000993E-02
 cg2d: Sum(rhs),rhsMax =  -1.24876553542208E-10  1.34005507198276E-02
 cg2d: Sum(rhs),rhsMax =  -1.26720300919203E-10  1.31986589241934E-02
 cg2d: Sum(rhs),rhsMax =  -1.28618227179800E-10  1.29952091995349E-02
 cg2d: Sum(rhs),rhsMax =  -1.30591537583769E-10  1.27902933153990E-02
 cg2d: Sum(rhs),rhsMax =  -1.32643007688671E-10  1.25840037725302E-02
 cg2d: Sum(rhs),rhsMax =  -1.34790290040598E-10  1.23764337503322E-02
 cg2d: Sum(rhs),rhsMax =  -1.37029887437023E-10  1.21676770521317E-02
 cg2d: Sum(rhs),rhsMax =  -1.39310785129965E-10  1.19578280467446E-02
 cg2d: Sum(rhs),rhsMax =  -1.41736677949922E-10  1.17469816055382E-02
 cg2d: Sum(rhs),rhsMax =  -1.44249556743858E-10  1.15352330351374E-02
 cg2d: Sum(rhs),rhsMax =  -1.46874790107887E-10  1.13226780068221E-02
 cg2d: Sum(rhs),rhsMax =  -1.49600443144493E-10  1.11094124842612E-02
 cg2d: Sum(rhs),rhsMax =  -1.52454493473897E-10  1.08955326514418E-02
 cg2d: Sum(rhs),rhsMax =  -1.55418344860436E-10  1.06811348425403E-02
 cg2d: Sum(rhs),rhsMax =  -1.58497936997293E-10  1.04663154751385E-02
 cg2d: Sum(rhs),rhsMax =  -1.61710200785592E-10  1.02511709877391E-02
 cg2d: Sum(rhs),rhsMax =  -1.65089220072190E-10  1.00357977820352E-02
 cg2d: Sum(rhs),rhsMax =  -1.68603853101246E-10  9.82029216994731E-03
 cg2d: Sum(rhs),rhsMax =  -1.72284575494785E-10  9.60475032509737E-03
 cg2d: Sum(rhs),rhsMax =  -1.76127057383013E-10  9.38926823822243E-03
 cg2d: Sum(rhs),rhsMax =  -1.80159442919603E-10  9.17394167602187E-03
 cg2d: Sum(rhs),rhsMax =  -1.84374238099139E-10  8.95886614304148E-03
 cg2d: Sum(rhs),rhsMax =  -1.88768445319454E-10  8.74413684633324E-03
 cg2d: Sum(rhs),rhsMax =  -1.93378313362302E-10  8.52984866272038E-03
 cg2d: Sum(rhs),rhsMax =  -1.98228600201134E-10  8.31609610851721E-03
 cg2d: Sum(rhs),rhsMax =  -2.03362271467000E-10  8.10297331152266E-03
 cg2d: Sum(rhs),rhsMax =  -2.08785044808479E-10  7.89057398505300E-03
 cg2d: Sum(rhs),rhsMax =  -2.14462447800656E-10  7.67899140371217E-03
 cg2d: Sum(rhs),rhsMax =  -2.20462148536882E-10  7.46831838049887E-03
 cg2d: Sum(rhs),rhsMax =  -2.26767604694089E-10  7.25864724468836E-03
 cg2d: Sum(rhs),rhsMax =  -2.33410846206539E-10  7.05006981971862E-03
 cg2d: Sum(rhs),rhsMax =  -2.40391789807504E-10  6.84267740011042E-03
 cg2d: Sum(rhs),rhsMax =  -2.47784015527941E-10  6.63656072636174E-03
 cg2d: Sum(rhs),rhsMax =  -2.55559212680723E-10  6.43180995688494E-03
 cg2d: Sum(rhs),rhsMax =  -2.63848026760272E-10  6.22851463647206E-03
 cg2d: Sum(rhs),rhsMax =  -2.72612987739507E-10  6.02676366145399E-03
 cg2d: Sum(rhs),rhsMax =  -2.81885695341266E-10  5.82664524250395E-03
 cg2d: Sum(rhs),rhsMax =  -2.84363671498866E-10  5.77391677050654E-03
 cg2d: Sum(rhs),rhsMax =  -2.77347290966734E-10  5.91866379294261E-03
 cg2d: Sum(rhs),rhsMax =  -2.70743236857607E-10  6.06186273012792E-03
 cg2d: Sum(rhs),rhsMax =  -2.64531154793579E-10  6.20344868488059E-03
 cg2d: Sum(rhs),rhsMax =  -2.58611701497991E-10  6.34335758925385E-03
 cg2d: Sum(rhs),rhsMax =  -2.53025801699724E-10  6.48152612187346E-03
 cg2d: Sum(rhs),rhsMax =  -2.47785139628753E-10  6.61789171318105E-03
 cg2d: Sum(rhs),rhsMax =  -2.42789441329272E-10  6.75239260168377E-03
 cg2d: Sum(rhs),rhsMax =  -2.38073144531725E-10  6.88496789145698E-03
 cg2d: Sum(rhs),rhsMax =  -2.33593894227724E-10  7.01555758593210E-03
 cg2d: Sum(rhs),rhsMax =  -2.29332858259212E-10  7.14410261373575E-03
 cg2d: Sum(rhs),rhsMax =  -2.25211849169682E-10  7.27054485322271E-03
 cg2d: Sum(rhs),rhsMax =  -2.21336365902047E-10  7.39482715939050E-03
 cg2d: Sum(rhs),rhsMax =  -2.17627693643863E-10  7.51689339361538E-03
 cg2d: Sum(rhs),rhsMax =  -2.14122664043970E-10  7.63668845540922E-03
 cg2d: Sum(rhs),rhsMax =  -2.10748668516558E-10  7.75415831575796E-03
 cg2d: Sum(rhs),rhsMax =  -2.07577705024775E-10  7.86925005227752E-03
 cg2d: Sum(rhs),rhsMax =  -2.04537498049717E-10  7.98191188647636E-03
 cg2d: Sum(rhs),rhsMax =  -2.01685224077153E-10  8.09209322219367E-03
 cg2d: Sum(rhs),rhsMax =  -1.98939142936894E-10  8.19974468525859E-03
 cg2d: Sum(rhs),rhsMax =  -1.96310578903791E-10  8.30481816145507E-03
 cg2d: Sum(rhs),rhsMax =  -1.93837168538380E-10  8.40726683040640E-03
 cg2d: Sum(rhs),rhsMax =  -1.91486326794887E-10  8.50704519456931E-03
 cg2d: Sum(rhs),rhsMax =  -1.89218751778242E-10  8.60410910657340E-03
 cg2d: Sum(rhs),rhsMax =  -1.87067361601123E-10  8.69841578501214E-03
 cg2d: Sum(rhs),rhsMax =  -1.85091553195349E-10  8.78992382873752E-03
 cg2d: Sum(rhs),rhsMax =  -1.83139003961941E-10  8.87859322868695E-03
 cg2d: Sum(rhs),rhsMax =  -1.81329340431802E-10  8.96438537593418E-03
 cg2d: Sum(rhs),rhsMax =  -1.79624259910582E-10  9.04726306567780E-03
 cg2d: Sum(rhs),rhsMax =  -1.77976688942039E-10  9.12719049789623E-03
 cg2d: Sum(rhs),rhsMax =  -1.76427705778082E-10  9.20413327715908E-03
 cg2d: Sum(rhs),rhsMax =  -1.74958936227654E-10  9.27805841323631E-03
 cg2d: Sum(rhs),rhsMax =  -1.73578262874230E-10  9.34893431802074E-03
 cg2d: Sum(rhs),rhsMax =  -1.72300229639433E-10  9.41673119177689E-03
 cg2d: Sum(rhs),rhsMax =  -1.71047342956143E-10  9.48141978220222E-03
 cg2d: Sum(rhs),rhsMax =  -1.69813163530819E-10  9.54297212251150E-03
 cg2d: Sum(rhs),rhsMax =  -1.68664693322995E-10  9.60136190180924E-03
 cg2d: Sum(rhs),rhsMax =  -1.67601821310370E-10  9.65656447772892E-03
 cg2d: Sum(rhs),rhsMax =  -1.66597347028841E-10  9.70855673596804E-03
 cg2d: Sum(rhs),rhsMax =  -1.65710389854468E-10  9.75731696534963E-03
 cg2d: Sum(rhs),rhsMax =  -1.64805669111701E-10  9.80282480984134E-03
 cg2d: Sum(rhs),rhsMax =  -1.64033897576132E-10  9.84506118098548E-03
 cg2d: Sum(rhs),rhsMax =  -1.63288882415458E-10  9.88400666080684E-03
 cg2d: Sum(rhs),rhsMax =  -1.62627245003932E-10  9.91964376272409E-03
 cg2d: Sum(rhs),rhsMax =  -1.62053093166747E-10  9.95195749841967E-03
 cg2d: Sum(rhs),rhsMax =  -1.61515578689375E-10  9.98093495000376E-03
 cg2d: Sum(rhs),rhsMax =  -1.61081259442142E-10  1.00065647212871E-02
 cg2d: Sum(rhs),rhsMax =  -1.60664370696395E-10  1.00288366759879E-02
 cg2d: Sum(rhs),rhsMax =  -1.60276181215835E-10  1.00477419448774E-02
 cg2d: Sum(rhs),rhsMax =  -1.59924518072785E-10  1.00632730350527E-02
 cg2d: Sum(rhs),rhsMax =  -1.59721791348488E-10  1.00754239162479E-02
 cg2d: Sum(rhs),rhsMax =  -1.59485924466907E-10  1.00841900478319E-02
 cg2d: Sum(rhs),rhsMax =  -1.59371793539975E-10  1.00895683688575E-02
 cg2d: Sum(rhs),rhsMax =  -1.59294744062066E-10  1.00915572736925E-02
 cg2d: Sum(rhs),rhsMax =  -1.59279089917419E-10  1.00901565895585E-02
 cg2d: Sum(rhs),rhsMax =  -1.59299129443013E-10  1.00853676627832E-02
 cg2d: Sum(rhs),rhsMax =  -1.59411317479652E-10  1.00771933919406E-02
 cg2d: Sum(rhs),rhsMax =  -1.59636859287104E-10  1.00656382116302E-02
 cg2d: Sum(rhs),rhsMax =  -1.59966928592326E-10  1.00507080870801E-02
 cg2d: Sum(rhs),rhsMax =  -1.60265467563647E-10  1.00324105492343E-02
 cg2d: Sum(rhs),rhsMax =  -1.60663982118336E-10  1.00107547414068E-02
 cg2d: Sum(rhs),rhsMax =  -1.61124003028590E-10  9.98575183030825E-03
 cg2d: Sum(rhs),rhsMax =  -1.61626989569896E-10  9.95741516836234E-03
 cg2d: Sum(rhs),rhsMax =  -1.62161228889346E-10  9.92575936571941E-03
 cg2d: Sum(rhs),rhsMax =  -1.62766911060430E-10  9.89080009889075E-03
 cg2d: Sum(rhs),rhsMax =  -1.63418722998188E-10  9.85255431860137E-03
 cg2d: Sum(rhs),rhsMax =  -1.64167734961751E-10  9.81104055177117E-03
 cg2d: Sum(rhs),rhsMax =  -1.64953273262824E-10  9.76627894909402E-03
 cg2d: Sum(rhs),rhsMax =  -1.65844615818145E-10  9.71829119650931E-03
 cg2d: Sum(rhs),rhsMax =  -1.66788138855622E-10  9.66710046350584E-03
 cg2d: Sum(rhs),rhsMax =  -1.67785174642887E-10  9.61273139861589E-03
 cg2d: Sum(rhs),rhsMax =  -1.68833336200436E-10  9.55521013168541E-03
 cg2d: Sum(rhs),rhsMax =  -1.69974645469750E-10  9.49456424915056E-03
 cg2d: Sum(rhs),rhsMax =  -1.71256286929378E-10  9.43082274395088E-03
 cg2d: Sum(rhs),rhsMax =  -1.72557301780785E-10  9.36401595628361E-03
 cg2d: Sum(rhs),rhsMax =  -1.73944914028112E-10  9.29417552802821E-03
 cg2d: Sum(rhs),rhsMax =  -1.75432779414564E-10  9.22133438376426E-03
 cg2d: Sum(rhs),rhsMax =  -1.77019066072148E-10  9.14552672597678E-03
 cg2d: Sum(rhs),rhsMax =  -1.78571657460935E-10  9.06678802586458E-03
 cg2d: Sum(rhs),rhsMax =  -1.80229886570515E-10  8.98515500389818E-03
 cg2d: Sum(rhs),rhsMax =  -1.82009074478628E-10  8.90066560728421E-03
 cg2d: Sum(rhs),rhsMax =  -1.83902060246766E-10  8.81335899358503E-03
 cg2d: Sum(rhs),rhsMax =  -1.85833626265008E-10  8.72327552307850E-03
 cg2d: Sum(rhs),rhsMax =  -1.87897974956996E-10  8.63045674311638E-03
 cg2d: Sum(rhs),rhsMax =  -1.90081561601829E-10  8.53494538497140E-03
 cg2d: Sum(rhs),rhsMax =  -1.92377502816754E-10  8.43678537546369E-03
 cg2d: Sum(rhs),rhsMax =  -1.94763538630127E-10  8.33602182225739E-03
 cg2d: Sum(rhs),rhsMax =  -1.97319105499361E-10  8.23270098191593E-03
 cg2d: Sum(rhs),rhsMax =  -1.99953442692191E-10  8.12687022415022E-03
 cg2d: Sum(rhs),rhsMax =  -2.02747318933660E-10  8.01857800100843E-03
 cg2d: Sum(rhs),rhsMax =  -2.05690631194244E-10  7.90787382234179E-03
 cg2d: Sum(rhs),rhsMax =  -2.08757788833225E-10  7.79480823398601E-03
 cg2d: Sum(rhs),rhsMax =  -2.11965556218274E-10  7.67943279463671E-03
 cg2d: Sum(rhs),rhsMax =  -2.15325868246907E-10  7.56180004956128E-03
 cg2d: Sum(rhs),rhsMax =  -2.18907281190894E-10  7.44196350176636E-03
 cg2d: Sum(rhs),rhsMax =  -2.22650703429750E-10  7.31997758387526E-03
 cg2d: Sum(rhs),rhsMax =  -2.26589219609608E-10  7.19589763268888E-03
 cg2d: Sum(rhs),rhsMax =  -2.30746116658409E-10  7.06977986605429E-03
 cg2d: Sum(rhs),rhsMax =  -2.35092861844421E-10  6.94168136129285E-03
 cg2d: Sum(rhs),rhsMax =  -2.39716108074717E-10  6.81166003568273E-03
 cg2d: Sum(rhs),rhsMax =  -2.44551989769803E-10  6.67977493843559E-03
 cg2d: Sum(rhs),rhsMax =  -2.49614301450762E-10  6.54608652330316E-03
 cg2d: Sum(rhs),rhsMax =  -2.54929383158853E-10  6.41065583420460E-03
 cg2d: Sum(rhs),rhsMax =  -2.60552301956096E-10  6.27354408804325E-03
 cg2d: Sum(rhs),rhsMax =  -2.66504845969351E-10  6.13481252756068E-03
 cg2d: Sum(rhs),rhsMax =  -2.72798575395861E-10  5.99452256802781E-03
 cg2d: Sum(rhs),rhsMax =  -2.79480348586159E-10  5.85273728947439E-03
 cg2d: Sum(rhs),rhsMax =  -2.86544152663416E-10  5.70952117263361E-03
 cg2d: Sum(rhs),rhsMax =  -2.94061407168922E-10  5.56493956432153E-03
 cg2d: Sum(rhs),rhsMax =  -3.02026362253294E-10  5.41905850039088E-03
 cg2d: Sum(rhs),rhsMax =  -3.06847394715426E-10  5.33519238742730E-03
 cg2d: Sum(rhs),rhsMax =  -2.96309435321440E-10  5.52612107020446E-03
 cg2d: Sum(rhs),rhsMax =  -2.86346196753939E-10  5.71870458606945E-03
 cg2d: Sum(rhs),rhsMax =  -2.76992401238019E-10  5.91285598516344E-03
 cg2d: Sum(rhs),rhsMax =  -2.68149585869182E-10  6.10848771520302E-03
 cg2d: Sum(rhs),rhsMax =  -2.59861132612116E-10  6.30551164990401E-03
 cg2d: Sum(rhs),rhsMax =  -2.51962423147845E-10  6.50383911062016E-03
 cg2d: Sum(rhs),rhsMax =  -2.44525816261998E-10  6.70338088179340E-03
 cg2d: Sum(rhs),rhsMax =  -2.37494746091471E-10  6.90404722102542E-03
 cg2d: Sum(rhs),rhsMax =  -2.30802710277089E-10  7.10574786444843E-03
 cg2d: Sum(rhs),rhsMax =  -2.24461615960792E-10  7.30839202774711E-03
 cg2d: Sum(rhs),rhsMax =  -2.18450424416261E-10  7.51188840296762E-03
 cg2d: Sum(rhs),rhsMax =  -2.12731887661022E-10  7.71614515142661E-03
 cg2d: Sum(rhs),rhsMax =  -2.07284966968757E-10  7.92106989371971E-03
 cg2d: Sum(rhs),rhsMax =  -2.02109662339467E-10  8.12656969889262E-03
 cg2d: Sum(rhs),rhsMax =  -1.97229788057030E-10  8.33255107597777E-03
 cg2d: Sum(rhs),rhsMax =  -1.92630356110612E-10  8.53891997194951E-03
 cg2d: Sum(rhs),rhsMax =  -1.88196846995226E-10  8.74558178045388E-03
 cg2d: Sum(rhs),rhsMax =  -1.83976833767474E-10  8.95244136539111E-03
 cg2d: Sum(rhs),rhsMax =  -1.79945447431606E-10  9.15940310269035E-03
 cg2d: Sum(rhs),rhsMax =  -1.76074765878553E-10  9.36637094266462E-03
 cg2d: Sum(rhs),rhsMax =  -1.72400371756254E-10  9.57324849435216E-03
 cg2d: Sum(rhs),rhsMax =  -1.68879299433655E-10  9.77993913230887E-03
 cg2d: Sum(rhs),rhsMax =  -1.65461255807742E-10  9.98634612535047E-03
 cg2d: Sum(rhs),rhsMax =  -1.62234448097820E-10  1.01923727856288E-02
 cg2d: Sum(rhs),rhsMax =  -1.59116386733160E-10  1.03979226350779E-02
 cg2d: Sum(rhs),rhsMax =  -1.56122725858410E-10  1.06028995847371E-02
 cg2d: Sum(rhs),rhsMax =  -1.53253021384359E-10  1.08072081209421E-02
 cg2d: Sum(rhs),rhsMax =  -1.50530643505675E-10  1.10107534911426E-02
 cg2d: Sum(rhs),rhsMax =  -1.47933276739565E-10  1.12134418814532E-02
 cg2d: Sum(rhs),rhsMax =  -1.45406020557459E-10  1.14151805781459E-02
 cg2d: Sum(rhs),rhsMax =  -1.42972800265539E-10  1.16158781061872E-02
 cg2d: Sum(rhs),rhsMax =  -1.40654432545517E-10  1.18154443395037E-02
 cg2d: Sum(rhs),rhsMax =  -1.38408062788642E-10  1.20137905797097E-02
 cg2d: Sum(rhs),rhsMax =  -1.36263778038881E-10  1.22108296022497E-02
 cg2d: Sum(rhs),rhsMax =  -1.34202537971362E-10  1.24064756710732E-02
 cg2d: Sum(rhs),rhsMax =  -1.32213906489653E-10  1.26006445248483E-02
 cg2d: Sum(rhs),rhsMax =  -1.30324417924044E-10  1.27932533392509E-02
 cg2d: Sum(rhs),rhsMax =  -1.28469901383710E-10  1.29842206710045E-02
 cg2d: Sum(rhs),rhsMax =  -1.26706312109093E-10  1.31734663900517E-02
 cg2d: Sum(rhs),rhsMax =  -1.24996235584263E-10  1.33609116064746E-02
 cg2d: Sum(rhs),rhsMax =  -1.23342447366781E-10  1.35464785984404E-02
 cg2d: Sum(rhs),rhsMax =  -1.21760823645900E-10  1.37300907464768E-02
 cg2d: Sum(rhs),rhsMax =  -1.20235044143158E-10  1.39116724778339E-02
 cg2d: Sum(rhs),rhsMax =  -1.18781429137016E-10  1.40911492227731E-02
 cg2d: Sum(rhs),rhsMax =  -1.17371223851137E-10  1.42684473826910E-02
 cg2d: Sum(rhs),rhsMax =  -1.16014087225835E-10  1.44434943084433E-02
 cg2d: Sum(rhs),rhsMax =  -1.14709575171901E-10  1.46162182863739E-02
 cg2d: Sum(rhs),rhsMax =  -1.13452025551908E-10  1.47865485294801E-02
 cg2d: Sum(rhs),rhsMax =  -1.12245324146443E-10  1.49544151717402E-02
 cg2d: Sum(rhs),rhsMax =  -1.11090359133925E-10  1.51197492645676E-02
 cg2d: Sum(rhs),rhsMax =  -1.09936504344432E-10  1.52824827753259E-02
 cg2d: Sum(rhs),rhsMax =  -1.08823838829153E-10  1.54425485885218E-02
 cg2d: Sum(rhs),rhsMax =  -1.07834741136514E-10  1.55998805105922E-02
 cg2d: Sum(rhs),rhsMax =  -1.06884279205133E-10  1.57544132791389E-02
 cg2d: Sum(rhs),rhsMax =  -1.05969455432842E-10  1.59060825771782E-02
 cg2d: Sum(rhs),rhsMax =  -1.05095931957067E-10  1.60548250526500E-02
 cg2d: Sum(rhs),rhsMax =  -1.04254160859796E-10  1.62005783431796E-02
 cg2d: Sum(rhs),rhsMax =  -1.03442587828795E-10  1.63432811059251E-02
 cg2d: Sum(rhs),rhsMax =  -1.02660324685644E-10  1.64828730521775E-02
 cg2d: Sum(rhs),rhsMax =  -1.01918584682892E-10  1.66192949860976E-02
 cg2d: Sum(rhs),rhsMax =  -1.01193164958602E-10  1.67524888464971E-02
 cg2d: Sum(rhs),rhsMax =  -1.00503605438007E-10  1.68823977499904E-02
 cg2d: Sum(rhs),rhsMax =  -9.98279237052202E-11  1.70089660333302E-02
 cg2d: Sum(rhs),rhsMax =  -9.92094184582015E-11  1.71321392925543E-02
 cg2d: Sum(rhs),rhsMax =  -9.85935777464420E-11  1.72518644168940E-02
 cg2d: Sum(rhs),rhsMax =  -9.80209247103403E-11  1.73680896162307E-02
 cg2d: Sum(rhs),rhsMax =  -9.74521574548248E-11  1.74807644419741E-02
 cg2d: Sum(rhs),rhsMax =  -9.69343494361397E-11  1.75898398027011E-02
 cg2d: Sum(rhs),rhsMax =  -9.64331947628239E-11  1.76952679767922E-02
 cg2d: Sum(rhs),rhsMax =  -9.59332613348352E-11  1.77970026249070E-02
 cg2d: Sum(rhs),rhsMax =  -9.54477608061666E-11  1.78949988052559E-02
 cg2d: Sum(rhs),rhsMax =  -9.50119982690012E-11  1.79892129943289E-02
 cg2d: Sum(rhs),rhsMax =  -9.46125400247411E-11  1.80796031151517E-02
 cg2d: Sum(rhs),rhsMax =  -9.42180777840917E-11  1.81661285744106E-02
(PID.TID 0000.0001)      cg2d_init_res =   2.32429386233149E-02
(PID.TID 0000.0001)      cg2d_iters(min,last) =      -1      37
(PID.TID 0000.0001)      cg2d_last_res =   4.35040342255194E-14
(PID.TID 0000.0001) // =======================================================
(PID.TID 0000.0001) // Begin MONITOR dynamic field statistics
(PID.TID 0000.0001) // =======================================================
(PID.TID 0000.0001) %MON time_tsnumber                =                  7200
(PID.TID 0000.0001) %MON time_secondsf                =   1.0800000000000E+05
(PID.TID 0000.0001) %MON dynstat_eta_max              =   3.1639182562551E-03
(PID.TID 0000.0001) %MON dynstat_eta_min              =  -2.3298789808800E-03
(PID.TID 0000.0001) %MON dynstat_eta_mean             =   3.7760863668146E-15
(PID.TID 0000.0001) %MON dynstat_eta_sd               =   1.3330519117340E-03
(PID.TID 0000.0001) %MON dynstat_eta_del2             =   3.6440819408924E-06
(PID.TID 0000.0001) %MON dynstat_uvel_max             =   4.5845714185311E-01
(PID.TID 0000.0001) %MON dynstat_uvel_min             =  -4.5504808693819E-01
(PID.TID 0000.0001) %MON dynstat_uvel_mean            =   1.1318566931101E-01
(PID.TID 0000.0001) %MON dynstat_uvel_sd              =   4.4711847749040E-02
(PID.TID 0000.0001) %MON dynstat_uvel_del2            =   1.0790739253629E-04
(PID.TID 0000.0001) %MON dynstat_vvel_max             =   0.0000000000000E+00
(PID.TID 0000.0001) %MON dynstat_vvel_min             =   0.0000000000000E+00
(PID.TID 0000.0001) %MON dynstat_vvel_mean            =   0.0000000000000E+00
(PID.TID 0000.0001) %MON dynstat_vvel_sd              =   0.0000000000000E+00
(PID.TID 0000.0001) %MON dynstat_vvel_del2            =   0.0000000000000E+00
(PID.TID 0000.0001) %MON dynstat_wvel_max             =   3.5030385697844E-03
(PID.TID 0000.0001) %MON dynstat_wvel_min             =  -4.8972203788521E-03
(PID.TID 0000.0001) %MON dynstat_wvel_mean            =   4.7956438152651E-21
(PID.TID 0000.0001) %MON dynstat_wvel_sd              =   2.8643144700772E-04
(PID.TID 0000.0001) %MON dynstat_wvel_del2            =   5.8374100375362E-06
(PID.TID 0000.0001) %MON dynstat_theta_max            =   1.5000000000022E+01
(PID.TID 0000.0001) %MON dynstat_theta_min            =   9.9999999999875E+00
(PID.TID 0000.0001) %MON dynstat_theta_mean           =   1.4023627658418E+01
(PID.TID 0000.0001) %MON dynstat_theta_sd             =   1.8957115904397E+00
(PID.TID 0000.0001) %MON dynstat_theta_del2           =   3.2081345298906E-04
(PID.TID 0000.0001) %MON dynstat_salt_max             =   3.5000000000000E+01
(PID.TID 0000.0001) %MON dynstat_salt_min             =   3.5000000000000E+01
(PID.TID 0000.0001) %MON dynstat_salt_mean            =   3.5000000000000E+01
(PID.TID 0000.0001) %MON dynstat_salt_sd              =   3.0553337637684E-13
(PID.TID 0000.0001) %MON dynstat_salt_del2            =   0.0000000000000E+00
(PID.TID 0000.0001) %MON dynstat_sst_max              =   1.5000000000000E+01
(PID.TID 0000.0001) %MON dynstat_sst_min              =   1.4999999999998E+01
(PID.TID 0000.0001) %MON dynstat_sst_mean             =   1.5000000000000E+01
(PID.TID 0000.0001) %MON dynstat_sst_sd               =   4.1940669968709E-13
(PID.TID 0000.0001) %MON dynstat_sst_del2             =   1.0399651031127E-14
(PID.TID 0000.0001) %MON dynstat_sss_max              =   3.5000000000000E+01
(PID.TID 0000.0001) %MON dynstat_sss_min              =   3.5000000000000E+01
(PID.TID 0000.0001) %MON dynstat_sss_mean             =   3.5000000000000E+01
(PID.TID 0000.0001) %MON dynstat_sss_sd               =   2.8421709430404E-14
(PID.TID 0000.0001) %MON dynstat_sss_del2             =   0.0000000000000E+00
(PID.TID 0000.0001) %MON forcing_qnet_max             =   0.0000000000000E+00
(PID.TID 0000.0001) %MON forcing_qnet_min             =   0.0000000000000E+00
(PID.TID 0000.0001) %MON forcing_qnet_mean            =   0.0000000000000E+00
(PID.TID 0000.0001) %MON forcing_qnet_sd              =   0.0000000000000E+00
(PID.TID 0000.0001) %MON forcing_qnet_del2            =   0.0000000000000E+00
(PID.TID 0000.0001) %MON forcing_qsw_max              =   0.0000000000000E+00
(PID.TID 0000.0001) %MON forcing_qsw_min              =   0.0000000000000E+00
(PID.TID 0000.0001) %MON forcing_qsw_mean             =   0.0000000000000E+00
(PID.TID 0000.0001) %MON forcing_qsw_sd               =   0.0000000000000E+00
(PID.TID 0000.0001) %MON forcing_qsw_del2             =   0.0000000000000E+00
(PID.TID 0000.0001) %MON forcing_empmr_max            =   0.0000000000000E+00
(PID.TID 0000.0001) %MON forcing_empmr_min            =   0.0000000000000E+00
(PID.TID 0000.0001) %MON forcing_empmr_mean           =   0.0000000000000E+00
(PID.TID 0000.0001) %MON forcing_empmr_sd             =   0.0000000000000E+00
(PID.TID 0000.0001) %MON forcing_empmr_del2           =   0.0000000000000E+00
(PID.TID 0000.0001) %MON forcing_fu_max               =   0.0000000000000E+00
(PID.TID 0000.0001) %MON forcing_fu_min               =   0.0000000000000E+00
(PID.TID 0000.0001) %MON forcing_fu_mean              =   0.0000000000000E+00
(PID.TID 0000.0001) %MON forcing_fu_sd                =   0.0000000000000E+00
(PID.TID 0000.0001) %MON forcing_fu_del2              =   0.0000000000000E+00
(PID.TID 0000.0001) %MON forcing_fv_max               =   0.0000000000000E+00
(PID.TID 0000.0001) %MON forcing_fv_min               =   0.0000000000000E+00
(PID.TID 0000.0001) %MON forcing_fv_mean              =   0.0000000000000E+00
(PID.TID 0000.0001) %MON forcing_fv_sd                =   0.0000000000000E+00
(PID.TID 0000.0001) %MON forcing_fv_del2              =   0.0000000000000E+00
(PID.TID 0000.0001) %MON advcfl_uvel_max              =   3.4384285638984E-02
(PID.TID 0000.0001) %MON advcfl_vvel_max              =   0.0000000000000E+00
(PID.TID 0000.0001) %MON advcfl_wvel_max              =   2.2438396916284E-02
(PID.TID 0000.0001) %MON advcfl_W_hf_max              =   3.4384285638984E-02
(PID.TID 0000.0001) %MON pe_b_mean                    =   4.4043054501635E-08
(PID.TID 0000.0001) %MON ke_max                       =   5.3939116410867E-02
(PID.TID 0000.0001) %MON ke_mean                      =   7.4161238289515E-03
(PID.TID 0000.0001) %MON ke_vol                       =   9.6656965507697E+10
(PID.TID 0000.0001) %MON vort_r_min                   =   0.0000000000000E+00
(PID.TID 0000.0001) %MON vort_r_max                   =   0.0000000000000E+00
(PID.TID 0000.0001) %MON vort_a_mean                  =   0.0000000000000E+00
(PID.TID 0000.0001) %MON vort_a_sd                    =   0.0000000000000E+00
(PID.TID 0000.0001) %MON vort_p_mean                  =   0.0000000000000E+00
(PID.TID 0000.0001) %MON vort_p_sd                    =   0.0000000000000E+00
(PID.TID 0000.0001) %MON surfExpan_theta_mean         =  -1.2281689117686E-19
(PID.TID 0000.0001) %MON surfExpan_salt_mean          =  -1.3518296053251E-19
(PID.TID 0000.0001) // =======================================================
(PID.TID 0000.0001) // End MONITOR dynamic field statistics
(PID.TID 0000.0001) // =======================================================
(PID.TID 0000.0001) // =======================================================
(PID.TID 0000.0001) // Begin OBCS MONITOR field statistics
(PID.TID 0000.0001) // =======================================================
(PID.TID 0000.0001) %MON obc_E_uVel_max               =   1.1205712828732E-01
(PID.TID 0000.0001) %MON obc_E_uVel_min               =   1.1205712828732E-01
(PID.TID 0000.0001) %MON obc_E_uVel_mean              =   1.1205712828732E-01
(PID.TID 0000.0001) %MON obc_E_uVel_sd                =   0.0000000000000E+00
(PID.TID 0000.0001) %MON obc_E_uVel_Int               =   1.1205712828732E+05
(PID.TID 0000.0001) %MON obc_W_uVel_max               =   1.1205712828732E-01
(PID.TID 0000.0001) %MON obc_W_uVel_min               =   1.1205712828732E-01
(PID.TID 0000.0001) %MON obc_W_uVel_mean              =   1.1205712828732E-01
(PID.TID 0000.0001) %MON obc_W_uVel_sd                =   0.0000000000000E+00
(PID.TID 0000.0001) %MON obc_W_uVel_Int               =   1.1205712828732E+05
(PID.TID 0000.0001) // =======================================================
(PID.TID 0000.0001) // End OBCS MONITOR field statistics
(PID.TID 0000.0001) // =======================================================
(PID.TID 0000.0001) %CHECKPOINT      7200 0000007200
(PID.TID 0000.0001)   Seconds in section "ALL                    [THE_MODEL_MAIN]":
(PID.TID 0000.0001)           User time:   305.75000000000000
(PID.TID 0000.0001)         System time:  0.35999999999999999
(PID.TID 0000.0001)     Wall clock time:   306.88110685348511
(PID.TID 0000.0001)          No. starts:           1
(PID.TID 0000.0001)           No. stops:           1
(PID.TID 0000.0001)   Seconds in section "INITIALISE_FIXED       [THE_MODEL_MAIN]":
(PID.TID 0000.0001)           User time:   8.0000000000000002E-002
(PID.TID 0000.0001)         System time:   0.0000000000000000
(PID.TID 0000.0001)     Wall clock time:  0.12075805664062500
(PID.TID 0000.0001)          No. starts:           1
(PID.TID 0000.0001)           No. stops:           1
(PID.TID 0000.0001)   Seconds in section "THE_MAIN_LOOP          [THE_MODEL_MAIN]":
(PID.TID 0000.0001)           User time:   305.67000000000002
(PID.TID 0000.0001)         System time:  0.35999999999999999
(PID.TID 0000.0001)     Wall clock time:   306.76030206680298
(PID.TID 0000.0001)          No. starts:           1
(PID.TID 0000.0001)           No. stops:           1
(PID.TID 0000.0001)   Seconds in section "INITIALISE_VARIA    [THE_MAIN_LOOP]":
(PID.TID 0000.0001)           User time:   2.9999999999999999E-002
(PID.TID 0000.0001)         System time:   1.0000000000000000E-002
(PID.TID 0000.0001)     Wall clock time:   5.3024053573608398E-002
(PID.TID 0000.0001)          No. starts:           1
(PID.TID 0000.0001)           No. stops:           1
(PID.TID 0000.0001)   Seconds in section "MAIN LOOP           [THE_MAIN_LOOP]":
(PID.TID 0000.0001)           User time:   305.63999999999999
(PID.TID 0000.0001)         System time:  0.34999999999999998
(PID.TID 0000.0001)     Wall clock time:   306.70721888542175
(PID.TID 0000.0001)          No. starts:           1
(PID.TID 0000.0001)           No. stops:           1
(PID.TID 0000.0001)   Seconds in section "MAIN_DO_LOOP        [THE_MAIN_LOOP]":
(PID.TID 0000.0001)           User time:   305.57000000001227
(PID.TID 0000.0001)         System time:  0.35000000000000037
(PID.TID 0000.0001)     Wall clock time:   306.64328289031982
(PID.TID 0000.0001)          No. starts:        7200
(PID.TID 0000.0001)           No. stops:        7200
(PID.TID 0000.0001)   Seconds in section "FORWARD_STEP        [MAIN_DO_LOOP]":
(PID.TID 0000.0001)           User time:   305.40000000001197
(PID.TID 0000.0001)         System time:  0.35000000000000037
(PID.TID 0000.0001)     Wall clock time:   306.51310276985168
(PID.TID 0000.0001)          No. starts:        7200
(PID.TID 0000.0001)           No. stops:        7200
(PID.TID 0000.0001)   Seconds in section "LOAD_FIELDS_DRIVER  [FORWARD_STEP]":
(PID.TID 0000.0001)           User time:  0.20999999999986585
(PID.TID 0000.0001)         System time:   0.0000000000000000
(PID.TID 0000.0001)     Wall clock time:  0.19593739509582520
(PID.TID 0000.0001)          No. starts:        7200
(PID.TID 0000.0001)           No. stops:        7200
(PID.TID 0000.0001)   Seconds in section "EXTERNAL_FLDS_LOAD [LOAD_FLDS_DRIVER]":
(PID.TID 0000.0001)           User time:   4.9999999999954525E-002
(PID.TID 0000.0001)         System time:   0.0000000000000000
(PID.TID 0000.0001)     Wall clock time:   6.5217018127441406E-002
(PID.TID 0000.0001)          No. starts:        7200
(PID.TID 0000.0001)           No. stops:        7200
(PID.TID 0000.0001)   Seconds in section "DO_ATMOSPHERIC_PHYS [FORWARD_STEP]":
(PID.TID 0000.0001)           User time:   8.9999999999974989E-002
(PID.TID 0000.0001)         System time:   0.0000000000000000
(PID.TID 0000.0001)     Wall clock time:   6.4963579177856445E-002
(PID.TID 0000.0001)          No. starts:        7200
(PID.TID 0000.0001)           No. stops:        7200
(PID.TID 0000.0001)   Seconds in section "DO_OCEANIC_PHYS     [FORWARD_STEP]":
(PID.TID 0000.0001)           User time:   128.37000000000262
(PID.TID 0000.0001)         System time:  0.11000000000000010
(PID.TID 0000.0001)     Wall clock time:   129.00024294853210
(PID.TID 0000.0001)          No. starts:        7200
(PID.TID 0000.0001)           No. stops:        7200
(PID.TID 0000.0001)   Seconds in section "DYNAMICS            [FORWARD_STEP]":
(PID.TID 0000.0001)           User time:   84.270000000000948
(PID.TID 0000.0001)         System time:   5.0000000000000044E-002
(PID.TID 0000.0001)     Wall clock time:   84.376073122024536
(PID.TID 0000.0001)          No. starts:        7200
(PID.TID 0000.0001)           No. stops:        7200
(PID.TID 0000.0001)   Seconds in section "SOLVE_FOR_PRESSURE  [FORWARD_STEP]":
(PID.TID 0000.0001)           User time:   3.0700000000001637
(PID.TID 0000.0001)         System time:   0.0000000000000000
(PID.TID 0000.0001)     Wall clock time:   3.1708817481994629
(PID.TID 0000.0001)          No. starts:        7200
(PID.TID 0000.0001)           No. stops:        7200
(PID.TID 0000.0001)   Seconds in section "MOM_CORRECTION_STEP [FORWARD_STEP]":
(PID.TID 0000.0001)           User time:   3.2900000000001342
(PID.TID 0000.0001)         System time:   2.0000000000000018E-002
(PID.TID 0000.0001)     Wall clock time:   2.9656565189361572
(PID.TID 0000.0001)          No. starts:        7200
(PID.TID 0000.0001)           No. stops:        7200
(PID.TID 0000.0001)   Seconds in section "INTEGR_CONTINUITY   [FORWARD_STEP]":
(PID.TID 0000.0001)           User time:   1.5800000000000978
(PID.TID 0000.0001)         System time:   0.0000000000000000
(PID.TID 0000.0001)     Wall clock time:   1.4689159393310547
(PID.TID 0000.0001)          No. starts:        7200
(PID.TID 0000.0001)           No. stops:        7200
(PID.TID 0000.0001)   Seconds in section "BLOCKING_EXCHANGES  [FORWARD_STEP]":
(PID.TID 0000.0001)           User time:   7.8199999999955594
(PID.TID 0000.0001)         System time:   1.0000000000000009E-002
(PID.TID 0000.0001)     Wall clock time:   7.7443072795867920
(PID.TID 0000.0001)          No. starts:       14400
(PID.TID 0000.0001)           No. stops:       14400
(PID.TID 0000.0001)   Seconds in section "THERMODYNAMICS      [FORWARD_STEP]":
(PID.TID 0000.0001)           User time:   75.140000000001578
(PID.TID 0000.0001)         System time:  0.10000000000000003
(PID.TID 0000.0001)     Wall clock time:   75.209970474243164
(PID.TID 0000.0001)          No. starts:        7200
(PID.TID 0000.0001)           No. stops:        7200
(PID.TID 0000.0001)   Seconds in section "TRC_CORRECTION_STEP [FORWARD_STEP]":
(PID.TID 0000.0001)           User time:   6.9999999999936335E-002
(PID.TID 0000.0001)         System time:   0.0000000000000000
(PID.TID 0000.0001)     Wall clock time:   6.5424919128417969E-002
(PID.TID 0000.0001)          No. starts:        7200
(PID.TID 0000.0001)           No. stops:        7200
(PID.TID 0000.0001)   Seconds in section "MONITOR             [FORWARD_STEP]":
(PID.TID 0000.0001)           User time:   7.9999999999984084E-002
(PID.TID 0000.0001)         System time:   0.0000000000000000
(PID.TID 0000.0001)     Wall clock time:  0.11248397827148438
(PID.TID 0000.0001)          No. starts:        7200
(PID.TID 0000.0001)           No. stops:        7200
(PID.TID 0000.0001)   Seconds in section "DO_THE_MODEL_IO     [FORWARD_STEP]":
(PID.TID 0000.0001)           User time:  0.26999999999992497
(PID.TID 0000.0001)         System time:   5.9999999999999998E-002
(PID.TID 0000.0001)     Wall clock time:  0.94959020614624023
(PID.TID 0000.0001)          No. starts:        7200
(PID.TID 0000.0001)           No. stops:        7200
(PID.TID 0000.0001)   Seconds in section "DO_WRITE_PICKUP     [FORWARD_STEP]":
(PID.TID 0000.0001)           User time:  0.12999999999993861
(PID.TID 0000.0001)         System time:   0.0000000000000000
(PID.TID 0000.0001)     Wall clock time:  0.19501352310180664
(PID.TID 0000.0001)          No. starts:        7200
(PID.TID 0000.0001)           No. stops:        7200
(PID.TID 0000.0001) // ======================================================
(PID.TID 0000.0001) // Tile <-> Tile communication statistics
(PID.TID 0000.0001) // ======================================================
(PID.TID 0000.0001) // o Tile number: 000001
(PID.TID 0000.0001) //         No. X exchanges =              0
(PID.TID 0000.0001) //            Max. X spins =              0
(PID.TID 0000.0001) //            Min. X spins =     1000000000
(PID.TID 0000.0001) //          Total. X spins =              0
(PID.TID 0000.0001) //            Avg. X spins =       0.00E+00
(PID.TID 0000.0001) //         No. Y exchanges =              0
(PID.TID 0000.0001) //            Max. Y spins =              0
(PID.TID 0000.0001) //            Min. Y spins =     1000000000
(PID.TID 0000.0001) //          Total. Y spins =              0
(PID.TID 0000.0001) //            Avg. Y spins =       0.00E+00
(PID.TID 0000.0001) // o Thread number: 000001
(PID.TID 0000.0001) //            No. barriers =        1724088
(PID.TID 0000.0001) //      Max. barrier spins =              1
(PID.TID 0000.0001) //      Min. barrier spins =              1
(PID.TID 0000.0001) //     Total barrier spins =        1724088
(PID.TID 0000.0001) //      Avg. barrier spins =       1.00E+00
PROGRAM MAIN: Execution ended Normally
