(PID.TID 0000.0001) 
(PID.TID 0000.0001) // ======================================================
(PID.TID 0000.0001) //                      MITgcm UV
(PID.TID 0000.0001) //                      =========
(PID.TID 0000.0001) // ======================================================
(PID.TID 0000.0001) // execution environment starting up...
(PID.TID 0000.0001) 
(PID.TID 0000.0001) // MITgcmUV version:  checkpoint65d
(PID.TID 0000.0001) // Build user:        hugke729
(PID.TID 0000.0001) // Build host:        hugke729
(PID.TID 0000.0001) // Build date:        Mon Apr 10 14:21:54 PDT 2017
(PID.TID 0000.0001) 
(PID.TID 0000.0001) // =======================================================
(PID.TID 0000.0001) // Execution Environment parameter file "eedata"
(PID.TID 0000.0001) // =======================================================
(PID.TID 0000.0001) ># Example "eedata" file
(PID.TID 0000.0001) ># Lines beginning "#" are comments
(PID.TID 0000.0001) ># nTx - No. threads per process in X
(PID.TID 0000.0001) ># nTy - No. threads per process in Y
(PID.TID 0000.0001) > &EEPARMS
(PID.TID 0000.0001) > /
(PID.TID 0000.0001) ># Note: Some systems use & as the
(PID.TID 0000.0001) ># namelist terminator. Other systems
(PID.TID 0000.0001) ># use a / character (as shown here).
(PID.TID 0000.0001) 
(PID.TID 0000.0001) // =======================================================
(PID.TID 0000.0001) // Computational Grid Specification ( see files "SIZE.h" )
(PID.TID 0000.0001) //                                  ( and "eedata"       )
(PID.TID 0000.0001) // =======================================================
(PID.TID 0000.0001)      nPx =    1 ; /* No. processes in X */
(PID.TID 0000.0001)      nPy =    1 ; /* No. processes in Y */
(PID.TID 0000.0001)      nSx =    1 ; /* No. tiles in X per process */
(PID.TID 0000.0001)      nSy =    1 ; /* No. tiles in Y per process */
(PID.TID 0000.0001)      sNx =  200 ; /* Tile size in X */
(PID.TID 0000.0001)      sNy =    1 ; /* Tile size in Y */
(PID.TID 0000.0001)      OLx =    2 ; /* Tile overlap distance in X */
(PID.TID 0000.0001)      OLy =    2 ; /* Tile overlap distance in Y */
(PID.TID 0000.0001)      nTx =    1 ; /* No. threads in X per process */
(PID.TID 0000.0001)      nTy =    1 ; /* No. threads in Y per process */
(PID.TID 0000.0001)       Nr =  100 ; /* No. levels in the vertical   */
(PID.TID 0000.0001)       Nx =  200 ; /* Total domain size in X ( = nPx*nSx*sNx ) */
(PID.TID 0000.0001)       Ny =    1 ; /* Total domain size in Y ( = nPy*nSy*sNy ) */
(PID.TID 0000.0001)   nTiles =    1 ; /* Total no. tiles per process ( = nSx*nSy ) */
(PID.TID 0000.0001)   nProcs =    1 ; /* Total no. processes ( = nPx*nPy ) */
(PID.TID 0000.0001) nThreads =    1 ; /* Total no. threads per process ( = nTx*nTy ) */
(PID.TID 0000.0001) usingMPI =    F ; /* Flag used to control whether MPI is in use */
(PID.TID 0000.0001)                   /*  note: To execute a program with MPI calls */
(PID.TID 0000.0001)                   /*  it must be launched appropriately e.g     */
(PID.TID 0000.0001)                   /*  "mpirun -np 64 ......"                    */
(PID.TID 0000.0001) useCoupler=    F ;/* Flag used to control communications with   */
(PID.TID 0000.0001)                   /*  other model components, through a coupler */
(PID.TID 0000.0001) debugMode =    F ; /* print debug msg. (sequence of S/R calls)  */
(PID.TID 0000.0001) printMapIncludesZeros=    F ; /* print zeros in Std.Output maps */
(PID.TID 0000.0001) maxLengthPrt1D=   65 /* maxLength of 1D array printed to StdOut */
(PID.TID 0000.0001) 
(PID.TID 0000.0001) // ======================================================
(PID.TID 0000.0001) // Mapping of tiles to threads
(PID.TID 0000.0001) // ======================================================
(PID.TID 0000.0001) // -o- Thread   1, tiles (   1:   1,   1:   1)
(PID.TID 0000.0001) 
(PID.TID 0000.0001) // ======================================================
(PID.TID 0000.0001) // Tile <-> Tile connectvity table
(PID.TID 0000.0001) // ======================================================
(PID.TID 0000.0001) // Tile number: 000001 (process no. = 000000)
(PID.TID 0000.0001) //        WEST: Tile = 000001, Process = 000000, Comm = put
(PID.TID 0000.0001) //                bi = 000001, bj = 000001
(PID.TID 0000.0001) //        EAST: Tile = 000001, Process = 000000, Comm = put
(PID.TID 0000.0001) //                bi = 000001, bj = 000001
(PID.TID 0000.0001) //       SOUTH: Tile = 000001, Process = 000000, Comm = put
(PID.TID 0000.0001) //                bi = 000001, bj = 000001
(PID.TID 0000.0001) //       NORTH: Tile = 000001, Process = 000000, Comm = put
(PID.TID 0000.0001) //                bi = 000001, bj = 000001
(PID.TID 0000.0001) 
(PID.TID 0000.0001)  INI_PARMS: opening model parameter file "data"
(PID.TID 0000.0001)  OPEN_COPY_DATA_FILE: opening file data
(PID.TID 0000.0001) // =======================================================
(PID.TID 0000.0001) // Parameter file "data"
(PID.TID 0000.0001) // =======================================================
(PID.TID 0000.0001) ># ====================
(PID.TID 0000.0001) ># | Model parameters |
(PID.TID 0000.0001) ># ====================
(PID.TID 0000.0001) >#
(PID.TID 0000.0001) ># See src/ini_parms.F for possible parameters.
(PID.TID 0000.0001) >#
(PID.TID 0000.0001) ># Continuous equation parameters
(PID.TID 0000.0001) > &PARM01
(PID.TID 0000.0001) > tRefFile='Tref.bin'
(PID.TID 0000.0001) > sRef= 25*35.,
(PID.TID 0000.0001) > viscAz=1.E-5,
(PID.TID 0000.0001) > viscAh=1.E-4,
(PID.TID 0000.0001) > no_slip_sides=.FALSE.,
(PID.TID 0000.0001) > no_slip_bottom=.FALSE.,
(PID.TID 0000.0001) > viscA4=0.E12,
(PID.TID 0000.0001) > diffKhT=1.E-4,
(PID.TID 0000.0001) > diffKzT=1.E-5,
(PID.TID 0000.0001) > diffKhS=1.E3,
(PID.TID 0000.0001) > diffKzS=1.E-5,
(PID.TID 0000.0001) > f0=0.E-4,
(PID.TID 0000.0001) > beta=0.0E-11,
(PID.TID 0000.0001) > tAlpha=2.E-4,
(PID.TID 0000.0001) > sBeta =0.E-4,
(PID.TID 0000.0001) > gravity=9.81,
(PID.TID 0000.0001) > gBaro=9.81,
(PID.TID 0000.0001) > rigidLid=.FALSE.,
(PID.TID 0000.0001) > implicitFreeSurface=.TRUE.,
(PID.TID 0000.0001) > eosType='LINEAR',
(PID.TID 0000.0001) > nonHydrostatic=.FALSE.,
(PID.TID 0000.0001) > readBinaryPrec=64,
(PID.TID 0000.0001) > useSingleCpuIO=.TRUE.
(PID.TID 0000.0001) > writeBinaryPrec=64,
(PID.TID 0000.0001) > writeStatePrec=64,
(PID.TID 0000.0001) > saltStepping=.FALSE.,
(PID.TID 0000.0001) ># minimum cell fraction.  This reduces steppiness..
(PID.TID 0000.0001) >  hFacMin=0.1,
(PID.TID 0000.0001) >  exactConserv=.FALSE.,
(PID.TID 0000.0001) >  implicitDiffusion=.TRUE.
(PID.TID 0000.0001) >  implicitViscosity=.TRUE.
(PID.TID 0000.0001) ># Superbee on:
(PID.TID 0000.0001) > tempAdvScheme=77,
(PID.TID 0000.0001) > staggerTimeStep=.TRUE.,
(PID.TID 0000.0001) >/
(PID.TID 0000.0001) >
(PID.TID 0000.0001) ># Elliptic solver parameters
(PID.TID 0000.0001) > &PARM02
(PID.TID 0000.0001) > cg2dMaxIters=1000,
(PID.TID 0000.0001) > cg2dTargetResidual=1.E-13,
(PID.TID 0000.0001) > cg3dMaxIters=400,
(PID.TID 0000.0001) > cg3dTargetResidual=1.E-13,
(PID.TID 0000.0001) >/
(PID.TID 0000.0001) >
(PID.TID 0000.0001) ># Time stepping parameters
(PID.TID 0000.0001) > &PARM03
(PID.TID 0000.0001) > niter0=0,
(PID.TID 0000.0001) ># times are in s
(PID.TID 0000.0001) > startTime=0,
(PID.TID 0000.0001) > endTime=108000,
(PID.TID 0000.0001) > deltaT=15,
(PID.TID 0000.0001) > abEps=0.1,
(PID.TID 0000.0001) ># once per tide checkpoint...
(PID.TID 0000.0001) > pChkptFreq=21600,
(PID.TID 0000.0001) > chkptFreq=0.0,
(PID.TID 0000.0001) > dumpFreq=7200,
(PID.TID 0000.0001) > monitorFreq=7200,
(PID.TID 0000.0001) ># Forcing for boundary condition files
(PID.TID 0000.0001) > periodicExternalForcing=.FALSE.,
(PID.TID 0000.0001) >/
(PID.TID 0000.0001) >
(PID.TID 0000.0001) ># Gridding parameters
(PID.TID 0000.0001) > &PARM04
(PID.TID 0000.0001) > usingCartesianGrid=.TRUE.,
(PID.TID 0000.0001) > usingSphericalPolarGrid=.FALSE.,
(PID.TID 0000.0001) > delXfile='delXvar.bin',
(PID.TID 0000.0001) > delY=5.e3,
(PID.TID 0000.0001) > delRfile = 'delZvar.bin',
(PID.TID 0000.0001) >/
(PID.TID 0000.0001) >
(PID.TID 0000.0001) ># Input datasets
(PID.TID 0000.0001) > &PARM05
(PID.TID 0000.0001) > bathyFile='topo.bin',
(PID.TID 0000.0001) > hydrogThetaFile='T0.bin',
(PID.TID 0000.0001) > checkIniTemp=.FALSE.,
(PID.TID 0000.0001) > uVelInitFile='U0.bin',
(PID.TID 0000.0001) > /
(PID.TID 0000.0001) 
(PID.TID 0000.0001)  INI_PARMS ; starts to read PARM01
(PID.TID 0000.0001)  INI_PARMS ; read PARM01 : OK
(PID.TID 0000.0001)  INI_PARMS ; starts to read PARM02
(PID.TID 0000.0001)  INI_PARMS ; read PARM02 : OK
(PID.TID 0000.0001)  INI_PARMS ; starts to read PARM03
(PID.TID 0000.0001)  INI_PARMS ; read PARM03 : OK
(PID.TID 0000.0001)  INI_PARMS ; starts to read PARM04
(PID.TID 0000.0001)  INI_PARMS ; read PARM04 : OK
(PID.TID 0000.0001)  INI_PARMS ; starts to read PARM05
(PID.TID 0000.0001)  INI_PARMS ; read PARM05 : OK
(PID.TID 0000.0001)  INI_PARMS: finished reading file "data"
(PID.TID 0000.0001)  PACKAGES_BOOT: opening data.pkg
(PID.TID 0000.0001)  OPEN_COPY_DATA_FILE: opening file data.pkg
(PID.TID 0000.0001) // =======================================================
(PID.TID 0000.0001) // Parameter file "data.pkg"
(PID.TID 0000.0001) // =======================================================
(PID.TID 0000.0001) ># Packages
(PID.TID 0000.0001) > &PACKAGES
(PID.TID 0000.0001) > useOBCS=.TRUE.,
(PID.TID 0000.0001) > useKL10=.TRUE.,
(PID.TID 0000.0001) > useDIAGNOSTICS=.FALSE.,
(PID.TID 0000.0001) > useMNC=.FALSE.,
(PID.TID 0000.0001) > /
(PID.TID 0000.0001) 
(PID.TID 0000.0001)  PACKAGES_BOOT: finished reading data.pkg
(PID.TID 0000.0001)  PACKAGES_BOOT: On/Off package Summary
 --------  pkgs with a standard "usePKG" On/Off switch in "data.pkg":  --------
 pkg/obcs                 compiled   and   used ( useOBCS                  = T )
 pkg/kl10                 compiled   and   used ( useKL10                  = T )
 -------- pkgs without standard "usePKG" On/Off switch in "data.pkg":  --------
 pkg/generic_advdiff      compiled   and   used ( useGAD                   = T )
 pkg/mom_common           compiled   and   used ( momStepping              = T )
 pkg/mom_vecinv           compiled but not used ( +vectorInvariantMomentum = F )
 pkg/mom_fluxform         compiled   and   used ( & not vectorInvariantMom = T )
 pkg/monitor              compiled   and   used ( monitorFreq > 0.         = T )
 pkg/debug                compiled but not used ( debugMode                = F )
 pkg/rw                   compiled   and   used
 pkg/mdsio                compiled   and   used
(PID.TID 0000.0001)  PACKAGES_BOOT: End of package Summary
(PID.TID 0000.0001) 
(PID.TID 0000.0001)  OBCS_READPARMS: opening data.obcs
(PID.TID 0000.0001)  OPEN_COPY_DATA_FILE: opening file data.obcs
(PID.TID 0000.0001) // =======================================================
(PID.TID 0000.0001) // Parameter file "data.obcs"
(PID.TID 0000.0001) // =======================================================
(PID.TID 0000.0001) ># Open-boundaries
(PID.TID 0000.0001) > &OBCS_PARM01
(PID.TID 0000.0001) > OB_Iwest=1*1,
(PID.TID 0000.0001) > OB_Ieast=1*-1,
(PID.TID 0000.0001) > OB_Jnorth=100*0,
(PID.TID 0000.0001) > OB_Jsouth=100*0,
(PID.TID 0000.0001) > useOBCSsponge=.TRUE.,
(PID.TID 0000.0001) > OBEuFile='U_in.bin',
(PID.TID 0000.0001) > OBWuFile='U_in.bin',
(PID.TID 0000.0001) > OBEtFile='TE.bin',
(PID.TID 0000.0001) > OBWtFile='TW.bin',
(PID.TID 0000.0001) > useOBCSprescribe=.TRUE.,
(PID.TID 0000.0001) > /
(PID.TID 0000.0001) >
(PID.TID 0000.0001) ># Orlanski parameters
(PID.TID 0000.0001) > &OBCS_PARM02
(PID.TID 0000.0001) >/
(PID.TID 0000.0001) >
(PID.TID 0000.0001) ># Sponge layer parameters
(PID.TID 0000.0001) > &OBCS_PARM03
(PID.TID 0000.0001) > Urelaxobcsinner=1000.,
(PID.TID 0000.0001) > Urelaxobcsbound=100.,
(PID.TID 0000.0001) > Vrelaxobcsinner=1000.0,
(PID.TID 0000.0001) > Vrelaxobcsbound=100.0,
(PID.TID 0000.0001) > spongeThickness=10,
(PID.TID 0000.0001) > /
(PID.TID 0000.0001) 
(PID.TID 0000.0001)  OBCS_READPARMS: finished reading data.obcs
(PID.TID 0000.0001)  OB_indexUnset = /* unset OB index value (i.e. no OB) */
(PID.TID 0000.0001)                       0
(PID.TID 0000.0001)     ;
(PID.TID 0000.0001)  Northern OB global indices : OB_Jnorth =
(PID.TID 0000.0001)   200 @        0                            /* I =  1:200 */
(PID.TID 0000.0001)  Southern OB global indices : OB_Jsouth =
(PID.TID 0000.0001)   200 @        0                            /* I =  1:200 */
(PID.TID 0000.0001)  Eastern  OB global indices : OB_Ieast =
(PID.TID 0000.0001)                     200                     /* J =  1 */
(PID.TID 0000.0001)  Western  OB global indices : OB_Iwest =
(PID.TID 0000.0001)                       1                     /* J =  1 */
(PID.TID 0000.0001) 
(PID.TID 0000.0001)  KL10_READPARMS: opening data.kl10
(PID.TID 0000.0001)  OPEN_COPY_DATA_FILE: opening file data.kl10
(PID.TID 0000.0001) // =======================================================
(PID.TID 0000.0001) // Parameter file "data.kl10"
(PID.TID 0000.0001) // =======================================================
(PID.TID 0000.0001) ># =====================================================================
(PID.TID 0000.0001) ># | Parameters for Klymak and Legg (2010) vertical mixing scheme      |
(PID.TID 0000.0001) ># =====================================================================
(PID.TID 0000.0001) > &KL10_PARM01
(PID.TID 0000.0001) > KLwriteState=.TRUE.,
(PID.TID 0000.0001) >/
(PID.TID 0000.0001) 
(PID.TID 0000.0001)  KL10_READPARMS: finished reading data.kl10
(PID.TID 0000.0001) SET_PARMS: done
(PID.TID 0000.0001)  MDS_READVEC_LOC: open file: delXvar.bin
(PID.TID 0000.0001) S/R LOAD_GRID_SPACING: delX loaded from file: delXvar.bin
(PID.TID 0000.0001)  MDS_READVEC_LOC: open file: delZvar.bin
(PID.TID 0000.0001) S/R LOAD_GRID_SPACING: delR loaded from file: delZvar.bin
(PID.TID 0000.0001) Enter INI_VERTICAL_GRID: setInterFDr=    T ; setCenterDr=    F
(PID.TID 0000.0001) %MON XC_max                       =   9.9471849328752E+04
(PID.TID 0000.0001) %MON XC_min                       =   6.3164731900833E+02
(PID.TID 0000.0001) %MON XC_mean                      =   5.2906107272275E+04
(PID.TID 0000.0001) %MON XC_sd                        =   2.2139310392762E+04
(PID.TID 0000.0001) %MON XG_max                       =   9.8943698657505E+04
(PID.TID 0000.0001) %MON XG_min                       =   0.0000000000000E+00
(PID.TID 0000.0001) %MON XG_mean                      =   5.2656107272275E+04
(PID.TID 0000.0001) %MON XG_sd                        =   2.2172561685063E+04
(PID.TID 0000.0001) %MON DXC_max                      =   1.2503953509116E+03
(PID.TID 0000.0001) %MON DXC_min                      =   2.0000000000000E+02
(PID.TID 0000.0001) %MON DXC_mean                     =   5.0000000000000E+02
(PID.TID 0000.0001) %MON DXC_sd                       =   2.8531736750525E+02
(PID.TID 0000.0001) %MON DXF_max                      =   1.2632946380167E+03
(PID.TID 0000.0001) %MON DXF_min                      =   2.0000000000000E+02
(PID.TID 0000.0001) %MON DXF_mean                     =   5.0000000000000E+02
(PID.TID 0000.0001) %MON DXF_sd                       =   2.8547066202794E+02
(PID.TID 0000.0001) %MON DXG_max                      =   1.2632946380167E+03
(PID.TID 0000.0001) %MON DXG_min                      =   2.0000000000000E+02
(PID.TID 0000.0001) %MON DXG_mean                     =   5.0000000000000E+02
(PID.TID 0000.0001) %MON DXG_sd                       =   2.8547066202794E+02
(PID.TID 0000.0001) %MON DXV_max                      =   1.2503953509116E+03
(PID.TID 0000.0001) %MON DXV_min                      =   2.0000000000000E+02
(PID.TID 0000.0001) %MON DXV_mean                     =   5.0000000000000E+02
(PID.TID 0000.0001) %MON DXV_sd                       =   2.8531736750525E+02
(PID.TID 0000.0001) %MON YC_max                       =   2.5000000000000E+03
(PID.TID 0000.0001) %MON YC_min                       =   2.5000000000000E+03
(PID.TID 0000.0001) %MON YC_mean                      =   2.5000000000000E+03
(PID.TID 0000.0001) %MON YC_sd                        =   0.0000000000000E+00
(PID.TID 0000.0001) %MON YG_max                       =   0.0000000000000E+00
(PID.TID 0000.0001) %MON YG_min                       =   0.0000000000000E+00
(PID.TID 0000.0001) %MON YG_mean                      =   0.0000000000000E+00
(PID.TID 0000.0001) %MON YG_sd                        =   0.0000000000000E+00
(PID.TID 0000.0001) %MON DYC_max                      =   5.0000000000000E+03
(PID.TID 0000.0001) %MON DYC_min                      =   5.0000000000000E+03
(PID.TID 0000.0001) %MON DYC_mean                     =   5.0000000000000E+03
(PID.TID 0000.0001) %MON DYC_sd                       =   0.0000000000000E+00
(PID.TID 0000.0001) %MON DYF_max                      =   5.0000000000000E+03
(PID.TID 0000.0001) %MON DYF_min                      =   5.0000000000000E+03
(PID.TID 0000.0001) %MON DYF_mean                     =   5.0000000000000E+03
(PID.TID 0000.0001) %MON DYF_sd                       =   0.0000000000000E+00
(PID.TID 0000.0001) %MON DYG_max                      =   5.0000000000000E+03
(PID.TID 0000.0001) %MON DYG_min                      =   5.0000000000000E+03
(PID.TID 0000.0001) %MON DYG_mean                     =   5.0000000000000E+03
(PID.TID 0000.0001) %MON DYG_sd                       =   0.0000000000000E+00
(PID.TID 0000.0001) %MON DYU_max                      =   5.0000000000000E+03
(PID.TID 0000.0001) %MON DYU_min                      =   5.0000000000000E+03
(PID.TID 0000.0001) %MON DYU_mean                     =   5.0000000000000E+03
(PID.TID 0000.0001) %MON DYU_sd                       =   0.0000000000000E+00
(PID.TID 0000.0001) %MON RA_max                       =   6.3164731900833E+06
(PID.TID 0000.0001) %MON RA_min                       =   1.0000000000000E+06
(PID.TID 0000.0001) %MON RA_mean                      =   2.5000000000000E+06
(PID.TID 0000.0001) %MON RA_sd                        =   1.4273533101397E+06
(PID.TID 0000.0001) %MON RAW_max                      =   6.2519767545581E+06
(PID.TID 0000.0001) %MON RAW_min                      =   1.0000000000000E+06
(PID.TID 0000.0001) %MON RAW_mean                     =   2.5000000000000E+06
(PID.TID 0000.0001) %MON RAW_sd                       =   1.4265868375263E+06
(PID.TID 0000.0001) %MON RAS_max                      =   6.3164731900833E+06
(PID.TID 0000.0001) %MON RAS_min                      =   1.0000000000000E+06
(PID.TID 0000.0001) %MON RAS_mean                     =   2.5000000000000E+06
(PID.TID 0000.0001) %MON RAS_sd                       =   1.4273533101397E+06
(PID.TID 0000.0001) %MON RAZ_max                      =   6.2519767545581E+06
(PID.TID 0000.0001) %MON RAZ_min                      =   1.0000000000000E+06
(PID.TID 0000.0001) %MON RAZ_mean                     =   2.5000000000000E+06
(PID.TID 0000.0001) %MON RAZ_sd                       =   1.4265868375263E+06
(PID.TID 0000.0001) %MON AngleCS_max                  =   1.0000000000000E+00
(PID.TID 0000.0001) %MON AngleCS_min                  =   1.0000000000000E+00
(PID.TID 0000.0001) %MON AngleCS_mean                 =   1.0000000000000E+00
(PID.TID 0000.0001) %MON AngleCS_sd                   =   0.0000000000000E+00
(PID.TID 0000.0001) %MON AngleSN_max                  =   0.0000000000000E+00
(PID.TID 0000.0001) %MON AngleSN_min                  =   0.0000000000000E+00
(PID.TID 0000.0001) %MON AngleSN_mean                 =   0.0000000000000E+00
(PID.TID 0000.0001) %MON AngleSN_sd                   =   0.0000000000000E+00
(PID.TID 0000.0001)  MDS_READVEC_LOC: open file: Tref.bin
(PID.TID 0000.0001) S/R LOAD_REF_FILES: tRef loaded from file: Tref.bin
(PID.TID 0000.0001)  MDS_READ_FIELD: opening global file: topo.bin
(PID.TID 0000.0001) // =======================================================
(PID.TID 0000.0001) // Field Model R_low (ini_masks_etc)
(PID.TID 0000.0001) // CMIN =         -1.999999999999999E+02
(PID.TID 0000.0001) // CMAX =         -1.200999375260335E+02
(PID.TID 0000.0001) // CINT =          2.959261573109865E+00
(PID.TID 0000.0001) // SYMBOLS (CMIN->CMAX): -abcdefghijklmnopqrstuvwxyz+
(PID.TID 0000.0001) //                  0.0: .
(PID.TID 0000.0001) // RANGE I (Lo:Hi:Step):(    -1:   202:     1)
(PID.TID 0000.0001) // RANGE J (Lo:Hi:Step):(     3:    -1:    -1)
(PID.TID 0000.0001) // RANGE K (Lo:Hi:Step):(   1:   1:   1)
(PID.TID 0000.0001) // =======================================================
(PID.TID 0000.0001) K =   1
(PID.TID 0000.0001) //                I=8       I=18      I=28      I=38      I=48      I=58      I=68      I=78      I=88      I=98      I=108     I=118     I=128     I=138     I=148     I=158     I=168     I=178     I=188     I=198
(PID.TID 0000.0001) // |--J--|101234567|901234567|901234567|901234567|901234567|901234567|901234567|901234567|901234567|901234567|901234567|901234567|901234567|901234567|901234567|901234567|901234567|901234567|901234567|901234567|9012
(PID.TID 0000.0001) //      3 --------------------------------------------------------------------------aaaabbccdefghiklnpqstvwxyz++++zyxwvtsqpnlkihgfedccbbaaaa--------------------------------------------------------------------------
(PID.TID 0000.0001) //      2 --------------------------------------------------------------------------aaaabbccdefghiklnpqstvwxyz++++zyxwvtsqpnlkihgfedccbbaaaa--------------------------------------------------------------------------
(PID.TID 0000.0001) //      1 --------------------------------------------------------------------------aaaabbccdefghiklnpqstvwxyz++++zyxwvtsqpnlkihgfedccbbaaaa--------------------------------------------------------------------------
(PID.TID 0000.0001) //      0 --------------------------------------------------------------------------aaaabbccdefghiklnpqstvwxyz++++zyxwvtsqpnlkihgfedccbbaaaa--------------------------------------------------------------------------
(PID.TID 0000.0001) //     -1 --------------------------------------------------------------------------aaaabbccdefghiklnpqstvwxyz++++zyxwvtsqpnlkihgfedccbbaaaa--------------------------------------------------------------------------
(PID.TID 0000.0001) // =======================================================
(PID.TID 0000.0001) // END OF FIELD                                          =
(PID.TID 0000.0001) // =======================================================
(PID.TID 0000.0001) 
(PID.TID 0000.0001) // =======================================================
(PID.TID 0000.0001) // Field Model Ro_surf (ini_masks_etc)
(PID.TID 0000.0001) // CMIN =         -2.531308496145357E-14
(PID.TID 0000.0001) // CMAX =          3.153033389935445E-14
(PID.TID 0000.0001) // CINT =          2.105311809659556E-15
(PID.TID 0000.0001) // SYMBOLS (CMIN->CMAX): -abcdefghijklmnopqrstuvwxyz+
(PID.TID 0000.0001) //                  0.0: .
(PID.TID 0000.0001) // RANGE I (Lo:Hi:Step):(    -1:   202:     1)
(PID.TID 0000.0001) // RANGE J (Lo:Hi:Step):(     3:    -1:    -1)
(PID.TID 0000.0001) // RANGE K (Lo:Hi:Step):(   1:   1:   1)
(PID.TID 0000.0001) // =======================================================
(PID.TID 0000.0001) K =   1
(PID.TID 0000.0001) //                I=8       I=18      I=28      I=38      I=48      I=58      I=68      I=78      I=88      I=98      I=108     I=118     I=128     I=138     I=148     I=158     I=168     I=178     I=188     I=198
(PID.TID 0000.0001) // |--J--|101234567|901234567|901234567|901234567|901234567|901234567|901234567|901234567|901234567|901234567|901234567|901234567|901234567|901234567|901234567|901234567|901234567|901234567|901234567|901234567|9012
(PID.TID 0000.0001) //      3 nnnnnnnnnnnnnnnnnnnnnnnnnnnnnnnnnnnnnnnnnnnnnnnnnnnnnnnnnnnnnnnnnnnnnnnnnnnnnnnnnn----n++----n-nnn++++++++nnn-n----++n----nnnnnnnnnnnnnnnnnnnnnnnnnnnnnnnnnnnnnnnnnnnnnnnnnnnnnnnnnnnnnnnnnnnnnnnnnnnnnnnnnn
(PID.TID 0000.0001) //      2 nnnnnnnnnnnnnnnnnnnnnnnnnnnnnnnnnnnnnnnnnnnnnnnnnnnnnnnnnnnnnnnnnnnnnnnnnnnnnnnnnn----n++----n-nnn++++++++nnn-n----++n----nnnnnnnnnnnnnnnnnnnnnnnnnnnnnnnnnnnnnnnnnnnnnnnnnnnnnnnnnnnnnnnnnnnnnnnnnnnnnnnnnn
(PID.TID 0000.0001) //      1 nnnnnnnnnnnnnnnnnnnnnnnnnnnnnnnnnnnnnnnnnnnnnnnnnnnnnnnnnnnnnnnnnnnnnnnnnnnnnnnnnn----n++----n-nnn++++++++nnn-n----++n----nnnnnnnnnnnnnnnnnnnnnnnnnnnnnnnnnnnnnnnnnnnnnnnnnnnnnnnnnnnnnnnnnnnnnnnnnnnnnnnnnn
(PID.TID 0000.0001) //      0 nnnnnnnnnnnnnnnnnnnnnnnnnnnnnnnnnnnnnnnnnnnnnnnnnnnnnnnnnnnnnnnnnnnnnnnnnnnnnnnnnn----n++----n-nnn++++++++nnn-n----++n----nnnnnnnnnnnnnnnnnnnnnnnnnnnnnnnnnnnnnnnnnnnnnnnnnnnnnnnnnnnnnnnnnnnnnnnnnnnnnnnnnn
(PID.TID 0000.0001) //     -1 nnnnnnnnnnnnnnnnnnnnnnnnnnnnnnnnnnnnnnnnnnnnnnnnnnnnnnnnnnnnnnnnnnnnnnnnnnnnnnnnnn----n++----n-nnn++++++++nnn-n----++n----nnnnnnnnnnnnnnnnnnnnnnnnnnnnnnnnnnnnnnnnnnnnnnnnnnnnnnnnnnnnnnnnnnnnnnnnnnnnnnnnnn
(PID.TID 0000.0001) // =======================================================
(PID.TID 0000.0001) // END OF FIELD                                          =
(PID.TID 0000.0001) // =======================================================
(PID.TID 0000.0001) 
(PID.TID 0000.0001) // =======================================================
(PID.TID 0000.0001) // Field hFacC at iteration          0
(PID.TID 0000.0001) // CMIN =          1.000000000000000E+00
(PID.TID 0000.0001) // CMAX =          1.000000000000000E+00
(PID.TID 0000.0001) // CINT =          0.000000000000000E+00
(PID.TID 0000.0001) // SYMBOLS (CMIN->CMAX): -abcdefghijklmnopqrstuvwxyz+
(PID.TID 0000.0001) //                  0.0: .
(PID.TID 0000.0001) // RANGE I (Lo:Hi:Step):(    -1:   202:     1)
(PID.TID 0000.0001) // RANGE J (Lo:Hi:Step):(     3:    -1:    -1)
(PID.TID 0000.0001) // RANGE K (Lo:Hi:Step):(   1:   1:   1)
(PID.TID 0000.0001) // =======================================================
(PID.TID 0000.0001) // =======================================================
(PID.TID 0000.0001) // END OF FIELD                                          =
(PID.TID 0000.0001) // =======================================================
(PID.TID 0000.0001) 
(PID.TID 0000.0001) // =======================================================
(PID.TID 0000.0001) // Field hFacW at iteration          0
(PID.TID 0000.0001) // CMIN =          1.000000000000000E+00
(PID.TID 0000.0001) // CMAX =          1.000000000000000E+00
(PID.TID 0000.0001) // CINT =          0.000000000000000E+00
(PID.TID 0000.0001) // SYMBOLS (CMIN->CMAX): -abcdefghijklmnopqrstuvwxyz+
(PID.TID 0000.0001) //                  0.0: .
(PID.TID 0000.0001) // RANGE I (Lo:Hi:Step):(    -1:   202:     1)
(PID.TID 0000.0001) // RANGE J (Lo:Hi:Step):(     3:    -1:    -1)
(PID.TID 0000.0001) // RANGE K (Lo:Hi:Step):(   1:   1:   1)
(PID.TID 0000.0001) // =======================================================
(PID.TID 0000.0001) // =======================================================
(PID.TID 0000.0001) // END OF FIELD                                          =
(PID.TID 0000.0001) // =======================================================
(PID.TID 0000.0001) 
(PID.TID 0000.0001) // =======================================================
(PID.TID 0000.0001) // Field hFacS at iteration          0
(PID.TID 0000.0001) // CMIN =          1.000000000000000E+00
(PID.TID 0000.0001) // CMAX =          1.000000000000000E+00
(PID.TID 0000.0001) // CINT =          0.000000000000000E+00
(PID.TID 0000.0001) // SYMBOLS (CMIN->CMAX): -abcdefghijklmnopqrstuvwxyz+
(PID.TID 0000.0001) //                  0.0: .
(PID.TID 0000.0001) // RANGE I (Lo:Hi:Step):(    -1:   202:     1)
(PID.TID 0000.0001) // RANGE J (Lo:Hi:Step):(     3:    -1:    -1)
(PID.TID 0000.0001) // RANGE K (Lo:Hi:Step):(   1:   1:   1)
(PID.TID 0000.0001) // =======================================================
(PID.TID 0000.0001) // =======================================================
(PID.TID 0000.0001) // END OF FIELD                                          =
(PID.TID 0000.0001) // =======================================================
(PID.TID 0000.0001) 
(PID.TID 0000.0001) GAD_INIT_FIXED: GAD_OlMinSize=  2  0  1
(PID.TID 0000.0001) 
(PID.TID 0000.0001) // ===================================
(PID.TID 0000.0001) // GAD parameters :
(PID.TID 0000.0001) // ===================================
(PID.TID 0000.0001) tempAdvScheme =   /* Temp. Horiz.Advection scheme selector */
(PID.TID 0000.0001)                      77
(PID.TID 0000.0001)     ;
(PID.TID 0000.0001) tempVertAdvScheme =   /* Temp. Vert. Advection scheme selector */
(PID.TID 0000.0001)                      77
(PID.TID 0000.0001)     ;
(PID.TID 0000.0001) tempMultiDimAdvec =   /* use Muti-Dim Advec method for Temp */
(PID.TID 0000.0001)                   T
(PID.TID 0000.0001)     ;
(PID.TID 0000.0001) tempSOM_Advection = /* use 2nd Order Moment Advection for Temp */
(PID.TID 0000.0001)                   F
(PID.TID 0000.0001)     ;
(PID.TID 0000.0001) AdamsBashforthGt = /* apply Adams-Bashforth extrapolation on Gt */
(PID.TID 0000.0001)                   F
(PID.TID 0000.0001)     ;
(PID.TID 0000.0001) AdamsBashforth_T = /* apply Adams-Bashforth extrapolation on Temp */
(PID.TID 0000.0001)                   F
(PID.TID 0000.0001)     ;
(PID.TID 0000.0001) saltAdvScheme =   /* Salt. Horiz.advection scheme selector */
(PID.TID 0000.0001)                       2
(PID.TID 0000.0001)     ;
(PID.TID 0000.0001) saltVertAdvScheme =   /* Salt. Vert. Advection scheme selector */
(PID.TID 0000.0001)                       2
(PID.TID 0000.0001)     ;
(PID.TID 0000.0001) saltMultiDimAdvec =   /* use Muti-Dim Advec method for Salt */
(PID.TID 0000.0001)                   F
(PID.TID 0000.0001)     ;
(PID.TID 0000.0001) saltSOM_Advection = /* use 2nd Order Moment Advection for Salt */
(PID.TID 0000.0001)                   F
(PID.TID 0000.0001)     ;
(PID.TID 0000.0001) AdamsBashforthGs = /* apply Adams-Bashforth extrapolation on Gs */
(PID.TID 0000.0001)                   F
(PID.TID 0000.0001)     ;
(PID.TID 0000.0001) AdamsBashforth_S = /* apply Adams-Bashforth extrapolation on Salt */
(PID.TID 0000.0001)                   F
(PID.TID 0000.0001)     ;
(PID.TID 0000.0001) // ===================================
(PID.TID 0000.0001) %MON fCori_max                    =   0.0000000000000E+00
(PID.TID 0000.0001) %MON fCori_min                    =   0.0000000000000E+00
(PID.TID 0000.0001) %MON fCori_mean                   =   0.0000000000000E+00
(PID.TID 0000.0001) %MON fCori_sd                     =   0.0000000000000E+00
(PID.TID 0000.0001) %MON fCoriG_max                   =   0.0000000000000E+00
(PID.TID 0000.0001) %MON fCoriG_min                   =   0.0000000000000E+00
(PID.TID 0000.0001) %MON fCoriG_mean                  =   0.0000000000000E+00
(PID.TID 0000.0001) %MON fCoriG_sd                    =   0.0000000000000E+00
(PID.TID 0000.0001) %MON fCoriCos_max                 =   0.0000000000000E+00
(PID.TID 0000.0001) %MON fCoriCos_min                 =   0.0000000000000E+00
(PID.TID 0000.0001) %MON fCoriCos_mean                =   0.0000000000000E+00
(PID.TID 0000.0001) %MON fCoriCos_sd                  =   0.0000000000000E+00
(PID.TID 0000.0001) INI_CG2D: CG2D normalisation factor =  2.1704893486251107E-04
(PID.TID 0000.0001) 
(PID.TID 0000.0001) // =======================================================
(PID.TID 0000.0001) // Model configuration
(PID.TID 0000.0001) // =======================================================
(PID.TID 0000.0001) //
(PID.TID 0000.0001) // "Physical" paramters ( PARM01 in namelist )
(PID.TID 0000.0001) //
(PID.TID 0000.0001) buoyancyRelation = /* Type of relation to get Buoyancy */
(PID.TID 0000.0001)               'OCEANIC'
(PID.TID 0000.0001)     ;
(PID.TID 0000.0001) fluidIsAir   =  /* fluid major constituent is Air */
(PID.TID 0000.0001)                   F
(PID.TID 0000.0001)     ;
(PID.TID 0000.0001) fluidIsWater =  /* fluid major constituent is Water */
(PID.TID 0000.0001)                   T
(PID.TID 0000.0001)     ;
(PID.TID 0000.0001) usingPCoords =  /* use p (or p*) vertical coordinate */
(PID.TID 0000.0001)                   F
(PID.TID 0000.0001)     ;
(PID.TID 0000.0001) usingZCoords =  /* use z (or z*) vertical coordinate */
(PID.TID 0000.0001)                   T
(PID.TID 0000.0001)     ;
(PID.TID 0000.0001) tRef =   /* Reference temperature profile ( oC or K ) */
(PID.TID 0000.0001)    46 @  1.500000000000000E+01,             /* K =  1: 46 */
(PID.TID 0000.0001)                 1.499933084687693E+01,      /* K = 47 */
(PID.TID 0000.0001)                 1.497717153877677E+01,      /* K = 48 */
(PID.TID 0000.0001)                 1.470721590167325E+01,      /* K = 49 */
(PID.TID 0000.0001)                 1.349735867339025E+01,      /* K = 50 */
(PID.TID 0000.0001)                 1.150264132660976E+01,      /* K = 51 */
(PID.TID 0000.0001)                 1.029278409832675E+01,      /* K = 52 */
(PID.TID 0000.0001)                 1.002282846122323E+01,      /* K = 53 */
(PID.TID 0000.0001)                 1.000066915312308E+01,      /* K = 54 */
(PID.TID 0000.0001)    46 @  1.000000000000000E+01              /* K = 55:100 */
(PID.TID 0000.0001)     ;
(PID.TID 0000.0001) sRef =   /* Reference salinity profile ( psu ) */
(PID.TID 0000.0001)   100 @  3.500000000000000E+01              /* K =  1:100 */
(PID.TID 0000.0001)     ;
(PID.TID 0000.0001) useStrainTensionVisc= /* Use StrainTension Form of Viscous Operator */
(PID.TID 0000.0001)                   F
(PID.TID 0000.0001)     ;
(PID.TID 0000.0001) useVariableVisc = /* Use variable horizontal viscosity */
(PID.TID 0000.0001)                   F
(PID.TID 0000.0001)     ;
(PID.TID 0000.0001) useHarmonicVisc = /* Use harmonic horizontal viscosity */
(PID.TID 0000.0001)                   T
(PID.TID 0000.0001)     ;
(PID.TID 0000.0001) useBiharmonicVisc= /* Use biharmonic horiz.  viscosity */
(PID.TID 0000.0001)                   F
(PID.TID 0000.0001)     ;
(PID.TID 0000.0001) useSmag3D = /* Use isotropic 3-D Smagorinsky viscosity */
(PID.TID 0000.0001)                   F
(PID.TID 0000.0001)     ;
(PID.TID 0000.0001) viscAh  =   /* Lateral harmonic viscosity ( m^2/s ) */
(PID.TID 0000.0001)                 1.000000000000000E-04
(PID.TID 0000.0001)     ;
(PID.TID 0000.0001) viscA4  =   /* Lateral biharmonic viscosity ( m^4/s ) */
(PID.TID 0000.0001)                 0.000000000000000E+00
(PID.TID 0000.0001)     ;
(PID.TID 0000.0001) no_slip_sides =  /* Viscous BCs: No-slip sides */
(PID.TID 0000.0001)                   F
(PID.TID 0000.0001)     ;
(PID.TID 0000.0001) sideDragFactor = /* side-drag scaling factor (non-dim) */
(PID.TID 0000.0001)                 2.000000000000000E+00
(PID.TID 0000.0001)     ;
(PID.TID 0000.0001) viscArNr = /* vertical profile of vertical viscosity ( m^2/s )*/
(PID.TID 0000.0001)   100 @  1.000000000000000E-05              /* K =  1:100 */
(PID.TID 0000.0001)     ;
(PID.TID 0000.0001) no_slip_bottom =  /* Viscous BCs: No-slip bottom */
(PID.TID 0000.0001)                   F
(PID.TID 0000.0001)     ;
(PID.TID 0000.0001) bottomDragLinear = /* linear bottom-drag coefficient ( m/s ) */
(PID.TID 0000.0001)                 0.000000000000000E+00
(PID.TID 0000.0001)     ;
(PID.TID 0000.0001) bottomDragQuadratic = /* quadratic bottom-drag coefficient (-) */
(PID.TID 0000.0001)                 0.000000000000000E+00
(PID.TID 0000.0001)     ;
(PID.TID 0000.0001) diffKhT =   /* Laplacian diffusion of heat laterally ( m^2/s ) */
(PID.TID 0000.0001)                 1.000000000000000E-04
(PID.TID 0000.0001)     ;
(PID.TID 0000.0001) diffK4T =   /* Biharmonic diffusion of heat laterally ( m^4/s ) */
(PID.TID 0000.0001)                 0.000000000000000E+00
(PID.TID 0000.0001)     ;
(PID.TID 0000.0001) diffKhS =   /* Laplacian diffusion of salt laterally ( m^2/s ) */
(PID.TID 0000.0001)                 1.000000000000000E+03
(PID.TID 0000.0001)     ;
(PID.TID 0000.0001) diffK4S =   /* Biharmonic diffusion of salt laterally ( m^4/s ) */
(PID.TID 0000.0001)                 0.000000000000000E+00
(PID.TID 0000.0001)     ;
(PID.TID 0000.0001) diffKrNrT = /* vertical profile of vertical diffusion of Temp ( m^2/s )*/
(PID.TID 0000.0001)   100 @  1.000000000000000E-05              /* K =  1:100 */
(PID.TID 0000.0001)     ;
(PID.TID 0000.0001) diffKrNrS = /* vertical profile of vertical diffusion of Salt ( m^2/s )*/
(PID.TID 0000.0001)   100 @  1.000000000000000E-05              /* K =  1:100 */
(PID.TID 0000.0001)     ;
(PID.TID 0000.0001) diffKrBL79surf = /* Surface diffusion for Bryan and Lewis 79 ( m^2/s ) */
(PID.TID 0000.0001)                 0.000000000000000E+00
(PID.TID 0000.0001)     ;
(PID.TID 0000.0001) diffKrBL79deep = /* Deep diffusion for Bryan and Lewis 1979 ( m^2/s ) */
(PID.TID 0000.0001)                 0.000000000000000E+00
(PID.TID 0000.0001)     ;
(PID.TID 0000.0001) diffKrBL79scl = /* Depth scale for Bryan and Lewis 1979 ( m ) */
(PID.TID 0000.0001)                 2.000000000000000E+02
(PID.TID 0000.0001)     ;
(PID.TID 0000.0001) diffKrBL79Ho = /* Turning depth for Bryan and Lewis 1979 ( m ) */
(PID.TID 0000.0001)                -2.000000000000000E+03
(PID.TID 0000.0001)     ;
(PID.TID 0000.0001) ivdc_kappa = /* Implicit Vertical Diffusivity for Convection ( m^2/s) */
(PID.TID 0000.0001)                 0.000000000000000E+00
(PID.TID 0000.0001)     ;
(PID.TID 0000.0001) hMixCriteria=  /* Criteria for mixed-layer diagnostic */
(PID.TID 0000.0001)                -8.000000000000000E-01
(PID.TID 0000.0001)     ;
(PID.TID 0000.0001) dRhoSmall =  /* Parameter for mixed-layer diagnostic */
(PID.TID 0000.0001)                 1.000000000000000E-06
(PID.TID 0000.0001)     ;
(PID.TID 0000.0001) hMixSmooth=  /* Smoothing parameter for mixed-layer diagnostic */
(PID.TID 0000.0001)                 0.000000000000000E+00
(PID.TID 0000.0001)     ;
(PID.TID 0000.0001) eosType =  /* Type of Equation of State */
(PID.TID 0000.0001)               'LINEAR'
(PID.TID 0000.0001)     ;
(PID.TID 0000.0001) tAlpha = /* Linear EOS thermal expansion coefficient ( 1/oC ) */
(PID.TID 0000.0001)                 2.000000000000000E-04
(PID.TID 0000.0001)     ;
(PID.TID 0000.0001) sBeta  = /* Linear EOS haline contraction coefficient ( 1/psu ) */
(PID.TID 0000.0001)                 0.000000000000000E+00
(PID.TID 0000.0001)     ;
(PID.TID 0000.0001) rhoNil    = /* Reference density for Linear EOS ( kg/m^3 ) */
(PID.TID 0000.0001)                 9.998000000000000E+02
(PID.TID 0000.0001)     ;
(PID.TID 0000.0001) HeatCapacity_Cp =  /* Specific heat capacity ( J/kg/K ) */
(PID.TID 0000.0001)                 3.994000000000000E+03
(PID.TID 0000.0001)     ;
(PID.TID 0000.0001) celsius2K = /* 0 degree Celsius converted to Kelvin ( K ) */
(PID.TID 0000.0001)                 2.731500000000000E+02
(PID.TID 0000.0001)     ;
(PID.TID 0000.0001) rhoConst  = /* Reference density (Boussinesq)  ( kg/m^3 ) */
(PID.TID 0000.0001)                 9.998000000000000E+02
(PID.TID 0000.0001)     ;
(PID.TID 0000.0001) rhoFacC = /* normalized Reference density @ cell-Center (-) */
(PID.TID 0000.0001)   100 @  1.000000000000000E+00              /* K =  1:100 */
(PID.TID 0000.0001)     ;
(PID.TID 0000.0001) rhoFacF = /* normalized Reference density @ W-Interface (-) */
(PID.TID 0000.0001)   101 @  1.000000000000000E+00              /* K =  1:101 */
(PID.TID 0000.0001)     ;
(PID.TID 0000.0001) rhoConstFresh = /* Fresh-water reference density ( kg/m^3 ) */
(PID.TID 0000.0001)                 9.998000000000000E+02
(PID.TID 0000.0001)     ;
(PID.TID 0000.0001) gravity =   /* Gravitational acceleration ( m/s^2 ) */
(PID.TID 0000.0001)                 9.810000000000000E+00
(PID.TID 0000.0001)     ;
(PID.TID 0000.0001) gBaro =   /* Barotropic gravity ( m/s^2 ) */
(PID.TID 0000.0001)                 9.810000000000000E+00
(PID.TID 0000.0001)     ;
(PID.TID 0000.0001) rotationPeriod =   /* Rotation Period ( s ) */
(PID.TID 0000.0001)                 8.616400000000000E+04
(PID.TID 0000.0001)     ;
(PID.TID 0000.0001) omega =   /* Angular velocity ( rad/s ) */
(PID.TID 0000.0001)                 7.292123516990375E-05
(PID.TID 0000.0001)     ;
(PID.TID 0000.0001) f0 =   /* Reference coriolis parameter ( 1/s ) */
(PID.TID 0000.0001)                 0.000000000000000E+00
(PID.TID 0000.0001)     ;
(PID.TID 0000.0001) beta =   /* Beta ( 1/(m.s) ) */
(PID.TID 0000.0001)                 0.000000000000000E+00
(PID.TID 0000.0001)     ;
(PID.TID 0000.0001) fPrime =   /* Second coriolis parameter ( 1/s ) */
(PID.TID 0000.0001)                 0.000000000000000E+00
(PID.TID 0000.0001)     ;
(PID.TID 0000.0001) rigidLid =   /* Rigid lid on/off flag */
(PID.TID 0000.0001)                   F
(PID.TID 0000.0001)     ;
(PID.TID 0000.0001) implicitFreeSurface =   /* Implicit free surface on/off flag */
(PID.TID 0000.0001)                   T
(PID.TID 0000.0001)     ;
(PID.TID 0000.0001) freeSurfFac =   /* Implicit free surface factor */
(PID.TID 0000.0001)                 1.000000000000000E+00
(PID.TID 0000.0001)     ;
(PID.TID 0000.0001) implicSurfPress =  /* Surface Pressure implicit factor (0-1)*/
(PID.TID 0000.0001)                 1.000000000000000E+00
(PID.TID 0000.0001)     ;
(PID.TID 0000.0001) implicDiv2Dflow =  /* Barot. Flow Div. implicit factor (0-1)*/
(PID.TID 0000.0001)                 1.000000000000000E+00
(PID.TID 0000.0001)     ;
(PID.TID 0000.0001) uniformLin_PhiSurf = /* use uniform Bo_surf on/off flag*/
(PID.TID 0000.0001)                   T
(PID.TID 0000.0001)     ;
(PID.TID 0000.0001) uniformFreeSurfLev = /* free-surface level-index is uniform */
(PID.TID 0000.0001)                   T
(PID.TID 0000.0001)     ;
(PID.TID 0000.0001) hFacMin =   /* minimum partial cell factor (hFac) */
(PID.TID 0000.0001)                 1.000000000000000E-01
(PID.TID 0000.0001)     ;
(PID.TID 0000.0001) hFacMinDr = /* minimum partial cell thickness ( m) */
(PID.TID 0000.0001)                 0.000000000000000E+00
(PID.TID 0000.0001)     ;
(PID.TID 0000.0001) exactConserv =  /* Exact Volume Conservation on/off flag*/
(PID.TID 0000.0001)                   F
(PID.TID 0000.0001)     ;
(PID.TID 0000.0001) linFSConserveTr = /* Tracer correction for Lin Free Surface on/off flag*/
(PID.TID 0000.0001)                   F
(PID.TID 0000.0001)     ;
(PID.TID 0000.0001) nonlinFreeSurf = /* Non-linear Free Surf. options (-1,0,1,2,3)*/
(PID.TID 0000.0001)                       0
(PID.TID 0000.0001)      -1,0= Off ; 1,2,3= On, 2=+rescale gU,gV, 3=+update cg2d solv.
(PID.TID 0000.0001)     ;
(PID.TID 0000.0001) hFacInf =   /* lower threshold for hFac (nonlinFreeSurf only)*/
(PID.TID 0000.0001)                 2.000000000000000E-01
(PID.TID 0000.0001)     ;
(PID.TID 0000.0001) hFacSup =   /* upper threshold for hFac (nonlinFreeSurf only)*/
(PID.TID 0000.0001)                 2.000000000000000E+00
(PID.TID 0000.0001)     ;
(PID.TID 0000.0001) select_rStar = /* r* Vertical coord. options (=0 r coord.; >0 uses r*)*/
(PID.TID 0000.0001)                       0
(PID.TID 0000.0001)     ;
(PID.TID 0000.0001) useRealFreshWaterFlux = /* Real Fresh Water Flux on/off flag*/
(PID.TID 0000.0001)                   F
(PID.TID 0000.0001)     ;
(PID.TID 0000.0001) temp_EvPrRn = /* Temp. of Evap/Prec/R (UNSET=use local T)(oC)*/
(PID.TID 0000.0001)                 1.234567000000000E+05
(PID.TID 0000.0001)     ;
(PID.TID 0000.0001) salt_EvPrRn = /* Salin. of Evap/Prec/R (UNSET=use local S)(psu)*/
(PID.TID 0000.0001)                 0.000000000000000E+00
(PID.TID 0000.0001)     ;
(PID.TID 0000.0001) selectAddFluid = /* option for mass source/sink of fluid (=0: off) */
(PID.TID 0000.0001)                       0
(PID.TID 0000.0001)     ;
(PID.TID 0000.0001) temp_addMass = /* Temp. of addMass array (UNSET=use local T)(oC)*/
(PID.TID 0000.0001)                 1.234567000000000E+05
(PID.TID 0000.0001)     ;
(PID.TID 0000.0001) salt_addMass = /* Salin. of addMass array (UNSET=use local S)(psu)*/
(PID.TID 0000.0001)                 0.000000000000000E+00
(PID.TID 0000.0001)     ;
(PID.TID 0000.0001) convertFW2Salt = /* convert F.W. Flux to Salt Flux (-1=use local S)(psu)*/
(PID.TID 0000.0001)                 3.500000000000000E+01
(PID.TID 0000.0001)     ;
(PID.TID 0000.0001) use3Dsolver = /* use 3-D pressure solver on/off flag */
(PID.TID 0000.0001)                   F
(PID.TID 0000.0001)     ;
(PID.TID 0000.0001) nonHydrostatic =  /* Non-Hydrostatic on/off flag */
(PID.TID 0000.0001)                   F
(PID.TID 0000.0001)     ;
(PID.TID 0000.0001) nh_Am2 = /* Non-Hydrostatic terms scaling factor */
(PID.TID 0000.0001)                 1.000000000000000E+00
(PID.TID 0000.0001)     ;
(PID.TID 0000.0001) implicitNHPress = /* Non-Hyd Pressure implicit factor (0-1)*/
(PID.TID 0000.0001)                 1.000000000000000E+00
(PID.TID 0000.0001)     ;
(PID.TID 0000.0001) selectNHfreeSurf = /* Non-Hyd (free-)Surface option */
(PID.TID 0000.0001)                       0
(PID.TID 0000.0001)     ;
(PID.TID 0000.0001) quasiHydrostatic = /* Quasi-Hydrostatic on/off flag */
(PID.TID 0000.0001)                   F
(PID.TID 0000.0001)     ;
(PID.TID 0000.0001) calc_wVelocity = /* vertical velocity calculation on/off flag */
(PID.TID 0000.0001)                   T
(PID.TID 0000.0001)     ;
(PID.TID 0000.0001) momStepping =  /* Momentum equation on/off flag */
(PID.TID 0000.0001)                   T
(PID.TID 0000.0001)     ;
(PID.TID 0000.0001) vectorInvariantMomentum= /* Vector-Invariant Momentum on/off */
(PID.TID 0000.0001)                   F
(PID.TID 0000.0001)     ;
(PID.TID 0000.0001) momAdvection =  /* Momentum advection on/off flag */
(PID.TID 0000.0001)                   T
(PID.TID 0000.0001)     ;
(PID.TID 0000.0001) momViscosity =  /* Momentum viscosity on/off flag */
(PID.TID 0000.0001)                   T
(PID.TID 0000.0001)     ;
(PID.TID 0000.0001) momImplVertAdv= /* Momentum implicit vert. advection on/off*/
(PID.TID 0000.0001)                   F
(PID.TID 0000.0001)     ;
(PID.TID 0000.0001) implicitViscosity = /* Implicit viscosity on/off flag */
(PID.TID 0000.0001)                   T
(PID.TID 0000.0001)     ;
(PID.TID 0000.0001) metricTerms =  /* metric-Terms on/off flag */
(PID.TID 0000.0001)                   F
(PID.TID 0000.0001)     ;
(PID.TID 0000.0001) useNHMTerms = /* Non-Hydrostatic Metric-Terms on/off */
(PID.TID 0000.0001)                   F
(PID.TID 0000.0001)     ;
(PID.TID 0000.0001) selectCoriMap = /* Coriolis Map options (0,1,2,3)*/
(PID.TID 0000.0001)                       1
(PID.TID 0000.0001)     0= f-Plane ; 1= Beta-Plane ; 2= Spherical ; 3= read from file
(PID.TID 0000.0001)     ;
(PID.TID 0000.0001) use3dCoriolis = /* 3-D Coriolis on/off flag */
(PID.TID 0000.0001)                   F
(PID.TID 0000.0001)     ;
(PID.TID 0000.0001) useCoriolis =  /* Coriolis on/off flag */
(PID.TID 0000.0001)                   T
(PID.TID 0000.0001)     ;
(PID.TID 0000.0001) useCDscheme =  /* CD scheme on/off flag */
(PID.TID 0000.0001)                   F
(PID.TID 0000.0001)     ;
(PID.TID 0000.0001) useEnergyConservingCoriolis= /* Flx-Form Coriolis scheme flag */
(PID.TID 0000.0001)                   F
(PID.TID 0000.0001)     ;
(PID.TID 0000.0001) useJamartWetPoints= /* Coriolis WetPoints method flag */
(PID.TID 0000.0001)                   F
(PID.TID 0000.0001)     ;
(PID.TID 0000.0001) useJamartMomAdv= /* V.I Non-linear terms Jamart flag */
(PID.TID 0000.0001)                   F
(PID.TID 0000.0001)     ;
(PID.TID 0000.0001) useAbsVorticity= /* V.I Works with f+zeta in Coriolis */
(PID.TID 0000.0001)                   F
(PID.TID 0000.0001)     ;
(PID.TID 0000.0001) selectVortScheme= /* V.I Scheme selector for Vorticity-Term */
(PID.TID 0000.0001)               123456789
(PID.TID 0000.0001)    = 0 : enstrophy (Shallow-Water Eq.) conserving scheme by Sadourny, JAS 75
(PID.TID 0000.0001)    = 1 : same as 0 with modified hFac
(PID.TID 0000.0001)    = 2 : energy conserving scheme (used by Sadourny in JAS 75 paper)
(PID.TID 0000.0001)    = 3 : energy (general) and enstrophy (2D, nonDiv.) conserving scheme
(PID.TID 0000.0001)          from Sadourny (Burridge & Haseler, ECMWF Rep.4, 1977)
(PID.TID 0000.0001)     ;
(PID.TID 0000.0001) upwindVorticity= /* V.I Upwind bias vorticity flag */
(PID.TID 0000.0001)                   F
(PID.TID 0000.0001)     ;
(PID.TID 0000.0001) highOrderVorticity= /* V.I High order vort. advect. flag */
(PID.TID 0000.0001)                   F
(PID.TID 0000.0001)     ;
(PID.TID 0000.0001) upwindShear= /* V.I Upwind vertical Shear advection flag */
(PID.TID 0000.0001)                   F
(PID.TID 0000.0001)     ;
(PID.TID 0000.0001) selectKEscheme= /* V.I Kinetic Energy scheme selector */
(PID.TID 0000.0001)                       0
(PID.TID 0000.0001)     ;
(PID.TID 0000.0001) momForcing =  /* Momentum forcing on/off flag */
(PID.TID 0000.0001)                   T
(PID.TID 0000.0001)     ;
(PID.TID 0000.0001) momPressureForcing =  /* Momentum pressure term on/off flag */
(PID.TID 0000.0001)                   T
(PID.TID 0000.0001)     ;
(PID.TID 0000.0001) implicitIntGravWave= /* Implicit Internal Gravity Wave flag */
(PID.TID 0000.0001)                   F
(PID.TID 0000.0001)     ;
(PID.TID 0000.0001) staggerTimeStep =    /* Stagger time stepping on/off flag */
(PID.TID 0000.0001)                   T
(PID.TID 0000.0001)     ;
(PID.TID 0000.0001) doResetHFactors = /* reset thickness factors @ each time-step */
(PID.TID 0000.0001)                   F
(PID.TID 0000.0001)     ;
(PID.TID 0000.0001) multiDimAdvection =  /* enable/disable Multi-Dim Advection */
(PID.TID 0000.0001)                   T
(PID.TID 0000.0001)     ;
(PID.TID 0000.0001) useMultiDimAdvec =   /* Multi-Dim Advection is/is-not used */
(PID.TID 0000.0001)                   T
(PID.TID 0000.0001)     ;
(PID.TID 0000.0001) implicitDiffusion = /* Implicit Diffusion on/off flag */
(PID.TID 0000.0001)                   T
(PID.TID 0000.0001)     ;
(PID.TID 0000.0001) tempStepping =  /* Temperature equation on/off flag */
(PID.TID 0000.0001)                   T
(PID.TID 0000.0001)     ;
(PID.TID 0000.0001) tempAdvection = /* Temperature advection on/off flag */
(PID.TID 0000.0001)                   T
(PID.TID 0000.0001)     ;
(PID.TID 0000.0001) tempImplVertAdv = /* Temp. implicit vert. advection on/off */
(PID.TID 0000.0001)                   F
(PID.TID 0000.0001)     ;
(PID.TID 0000.0001) tempForcing  =  /* Temperature forcing on/off flag */
(PID.TID 0000.0001)                   T
(PID.TID 0000.0001)     ;
(PID.TID 0000.0001) doThetaClimRelax = /* apply SST relaxation on/off flag */
(PID.TID 0000.0001)                   F
(PID.TID 0000.0001)     ;
(PID.TID 0000.0001) tempIsActiveTr = /* Temp. is a dynamically Active Tracer */
(PID.TID 0000.0001)                   T
(PID.TID 0000.0001)     ;
(PID.TID 0000.0001) saltStepping =  /* Salinity equation on/off flag */
(PID.TID 0000.0001)                   F
(PID.TID 0000.0001)     ;
(PID.TID 0000.0001) saltAdvection = /* Salinity advection on/off flag */
(PID.TID 0000.0001)                   F
(PID.TID 0000.0001)     ;
(PID.TID 0000.0001) saltImplVertAdv = /* Sali. implicit vert. advection on/off */
(PID.TID 0000.0001)                   F
(PID.TID 0000.0001)     ;
(PID.TID 0000.0001) saltForcing  =  /* Salinity forcing on/off flag */
(PID.TID 0000.0001)                   F
(PID.TID 0000.0001)     ;
(PID.TID 0000.0001) doSaltClimRelax = /* apply SSS relaxation on/off flag */
(PID.TID 0000.0001)                   F
(PID.TID 0000.0001)     ;
(PID.TID 0000.0001) saltIsActiveTr = /* Salt  is a dynamically Active Tracer */
(PID.TID 0000.0001)                   F
(PID.TID 0000.0001)     ;
(PID.TID 0000.0001)  readBinaryPrec = /* Precision used for reading binary files */
(PID.TID 0000.0001)                      64
(PID.TID 0000.0001)     ;
(PID.TID 0000.0001) writeBinaryPrec = /* Precision used for writing binary files */
(PID.TID 0000.0001)                      64
(PID.TID 0000.0001)     ;
(PID.TID 0000.0001)  globalFiles = /* write "global" (=not per tile) files */
(PID.TID 0000.0001)                   F
(PID.TID 0000.0001)     ;
(PID.TID 0000.0001)  useSingleCpuIO = /* only master MPI process does I/O */
(PID.TID 0000.0001)                   T
(PID.TID 0000.0001)     ;
(PID.TID 0000.0001)  useSingleCpuInput = /* only master process reads input */
(PID.TID 0000.0001)                   T
(PID.TID 0000.0001)     ;
(PID.TID 0000.0001) /* debLev[*]  : level of debug & auxiliary message printing */
(PID.TID 0000.0001) debLevZero =  0 ; /* level of disabled aux. msg printing */
(PID.TID 0000.0001)    debLevA =  1 ; /* level of minimum  aux. msg printing */
(PID.TID 0000.0001)    debLevB =  2 ; /* level of low aux. print (report read-file opening)*/
(PID.TID 0000.0001)    debLevC =  3 ; /* level of moderate debug prt (most pkgs debug msg) */
(PID.TID 0000.0001)    debLevD =  4 ; /* level of enhanced debug prt (add DEBUG_STATS prt) */
(PID.TID 0000.0001)    debLevE =  5 ; /* level of extensive debug printing */
(PID.TID 0000.0001) debugLevel =  /* select debug printing level */
(PID.TID 0000.0001)                       2
(PID.TID 0000.0001)     ;
(PID.TID 0000.0001) //
(PID.TID 0000.0001) // Elliptic solver(s) paramters ( PARM02 in namelist )
(PID.TID 0000.0001) //
(PID.TID 0000.0001) cg2dMaxIters =   /* Upper limit on 2d con. grad iterations  */
(PID.TID 0000.0001)                    1000
(PID.TID 0000.0001)     ;
(PID.TID 0000.0001) cg2dChkResFreq =   /* 2d con. grad convergence test frequency */
(PID.TID 0000.0001)                       1
(PID.TID 0000.0001)     ;
(PID.TID 0000.0001) cg2dUseMinResSol= /* use cg2d last-iter(=0) / min-resid.(=1) solution */
(PID.TID 0000.0001)                       0
(PID.TID 0000.0001)     ;
(PID.TID 0000.0001) cg2dTargetResidual =   /* 2d con. grad target residual  */
(PID.TID 0000.0001)                 1.000000000000000E-13
(PID.TID 0000.0001)     ;
(PID.TID 0000.0001) cg2dTargetResWunit =   /* CG2d target residual [W units] */
(PID.TID 0000.0001)                -1.000000000000000E+00
(PID.TID 0000.0001)     ;
(PID.TID 0000.0001) cg2dPreCondFreq =   /* Freq. for updating cg2d preconditioner */
(PID.TID 0000.0001)                       1
(PID.TID 0000.0001)     ;
(PID.TID 0000.0001) useSRCGSolver =  /* use single reduction CG solver(s) */
(PID.TID 0000.0001)                   F
(PID.TID 0000.0001)     ;
(PID.TID 0000.0001) printResidualFreq = /* Freq. for printing CG residual */
(PID.TID 0000.0001)                       0
(PID.TID 0000.0001)     ;
(PID.TID 0000.0001) //
(PID.TID 0000.0001) // Time stepping paramters ( PARM03 in namelist )
(PID.TID 0000.0001) //
(PID.TID 0000.0001) deltaTMom =   /* Momentum equation timestep ( s ) */
(PID.TID 0000.0001)                 1.500000000000000E+01
(PID.TID 0000.0001)     ;
(PID.TID 0000.0001) deltaTFreeSurf = /* FreeSurface equation timestep ( s ) */
(PID.TID 0000.0001)                 1.500000000000000E+01
(PID.TID 0000.0001)     ;
(PID.TID 0000.0001) dTtracerLev =  /* Tracer equation timestep ( s ) */
(PID.TID 0000.0001)   100 @  1.500000000000000E+01              /* K =  1:100 */
(PID.TID 0000.0001)     ;
(PID.TID 0000.0001) deltaTClock  =   /* Model clock timestep ( s ) */
(PID.TID 0000.0001)                 1.500000000000000E+01
(PID.TID 0000.0001)     ;
(PID.TID 0000.0001) cAdjFreq =   /* Convective adjustment interval ( s ) */
(PID.TID 0000.0001)                 0.000000000000000E+00
(PID.TID 0000.0001)     ;
(PID.TID 0000.0001) momForcingOutAB = /* =1: take Momentum Forcing out of Adams-Bash. stepping */
(PID.TID 0000.0001)                       0
(PID.TID 0000.0001)     ;
(PID.TID 0000.0001) tracForcingOutAB = /* =1: take T,S,pTr Forcing out of Adams-Bash. stepping */
(PID.TID 0000.0001)                       0
(PID.TID 0000.0001)     ;
(PID.TID 0000.0001) momDissip_In_AB = /* put Dissipation Tendency in Adams-Bash. stepping */
(PID.TID 0000.0001)                   T
(PID.TID 0000.0001)     ;
(PID.TID 0000.0001) doAB_onGtGs = /* apply AB on Tendencies (rather than on T,S)*/
(PID.TID 0000.0001)                   T
(PID.TID 0000.0001)     ;
(PID.TID 0000.0001) abEps =   /* Adams-Bashforth-2 stabilizing weight */
(PID.TID 0000.0001)                 1.000000000000000E-01
(PID.TID 0000.0001)     ;
(PID.TID 0000.0001) pickupStrictlyMatch= /* stop if pickup do not strictly match */
(PID.TID 0000.0001)                   T
(PID.TID 0000.0001)     ;
(PID.TID 0000.0001) nIter0   =   /* Run starting timestep number */
(PID.TID 0000.0001)                       0
(PID.TID 0000.0001)     ;
(PID.TID 0000.0001) nTimeSteps = /* Number of timesteps */
(PID.TID 0000.0001)                    7200
(PID.TID 0000.0001)     ;
(PID.TID 0000.0001) nEndIter =   /* Run ending timestep number */
(PID.TID 0000.0001)                    7200
(PID.TID 0000.0001)     ;
(PID.TID 0000.0001) baseTime =   /* Model base time ( s ) */
(PID.TID 0000.0001)                 0.000000000000000E+00
(PID.TID 0000.0001)     ;
(PID.TID 0000.0001) startTime =  /* Run start time ( s ) */
(PID.TID 0000.0001)                 0.000000000000000E+00
(PID.TID 0000.0001)     ;
(PID.TID 0000.0001) endTime  =   /* Integration ending time ( s ) */
(PID.TID 0000.0001)                 1.080000000000000E+05
(PID.TID 0000.0001)     ;
(PID.TID 0000.0001) pChkPtFreq = /* Permanent restart/pickup file interval ( s ) */
(PID.TID 0000.0001)                 2.160000000000000E+04
(PID.TID 0000.0001)     ;
(PID.TID 0000.0001) chkPtFreq  = /* Rolling restart/pickup file interval ( s ) */
(PID.TID 0000.0001)                 0.000000000000000E+00
(PID.TID 0000.0001)     ;
(PID.TID 0000.0001) pickup_write_mdsio =   /* Model IO flag. */
(PID.TID 0000.0001)                   T
(PID.TID 0000.0001)     ;
(PID.TID 0000.0001) pickup_read_mdsio =   /* Model IO flag. */
(PID.TID 0000.0001)                   T
(PID.TID 0000.0001)     ;
(PID.TID 0000.0001) pickup_write_immed =   /* Model IO flag. */
(PID.TID 0000.0001)                   F
(PID.TID 0000.0001)     ;
(PID.TID 0000.0001) writePickupAtEnd =   /* Model IO flag. */
(PID.TID 0000.0001)                   T
(PID.TID 0000.0001)     ;
(PID.TID 0000.0001) dumpFreq =   /* Model state write out interval ( s ). */
(PID.TID 0000.0001)                 7.200000000000000E+03
(PID.TID 0000.0001)     ;
(PID.TID 0000.0001) dumpInitAndLast= /* write out Initial & Last iter. model state */
(PID.TID 0000.0001)                   T
(PID.TID 0000.0001)     ;
(PID.TID 0000.0001) snapshot_mdsio =   /* Model IO flag. */
(PID.TID 0000.0001)                   T
(PID.TID 0000.0001)     ;
(PID.TID 0000.0001) monitorFreq =   /* Monitor output interval ( s ). */
(PID.TID 0000.0001)                 7.200000000000000E+03
(PID.TID 0000.0001)     ;
(PID.TID 0000.0001) monitorSelect = /* select group of variables to monitor */
(PID.TID 0000.0001)                       3
(PID.TID 0000.0001)     ;
(PID.TID 0000.0001) monitor_stdio =   /* Model IO flag. */
(PID.TID 0000.0001)                   T
(PID.TID 0000.0001)     ;
(PID.TID 0000.0001) externForcingPeriod =   /* forcing period (s) */
(PID.TID 0000.0001)                 0.000000000000000E+00
(PID.TID 0000.0001)     ;
(PID.TID 0000.0001) externForcingCycle =   /* period of the cyle (s). */
(PID.TID 0000.0001)                 0.000000000000000E+00
(PID.TID 0000.0001)     ;
(PID.TID 0000.0001) tauThetaClimRelax =   /* relaxation time scale (s) */
(PID.TID 0000.0001)                 0.000000000000000E+00
(PID.TID 0000.0001)     ;
(PID.TID 0000.0001) tauSaltClimRelax =   /* relaxation time scale (s) */
(PID.TID 0000.0001)                 0.000000000000000E+00
(PID.TID 0000.0001)     ;
(PID.TID 0000.0001) latBandClimRelax =   /* max. Lat. where relaxation */
(PID.TID 0000.0001)                 1.500000000000000E+04
(PID.TID 0000.0001)     ;
(PID.TID 0000.0001) //
(PID.TID 0000.0001) // Gridding paramters ( PARM04 in namelist )
(PID.TID 0000.0001) //
(PID.TID 0000.0001) usingCartesianGrid = /* Cartesian coordinates flag ( True/False ) */
(PID.TID 0000.0001)                   T
(PID.TID 0000.0001)     ;
(PID.TID 0000.0001) usingCylindricalGrid = /* Cylindrical coordinates flag ( True/False ) */
(PID.TID 0000.0001)                   F
(PID.TID 0000.0001)     ;
(PID.TID 0000.0001) usingSphericalPolarGrid = /* Spherical coordinates flag ( True/False ) */
(PID.TID 0000.0001)                   F
(PID.TID 0000.0001)     ;
(PID.TID 0000.0001) usingCurvilinearGrid = /* Curvilinear coordinates flag ( True/False ) */
(PID.TID 0000.0001)                   F
(PID.TID 0000.0001)     ;
(PID.TID 0000.0001) selectSigmaCoord = /* Hybrid-Sigma Vert. Coordinate option */
(PID.TID 0000.0001)                       0
(PID.TID 0000.0001)     ;
(PID.TID 0000.0001) Ro_SeaLevel = /* r(1) ( units of r ==  m ) */
(PID.TID 0000.0001)                 0.000000000000000E+00
(PID.TID 0000.0001)     ;
(PID.TID 0000.0001) rSigmaBnd = /* r/sigma transition ( units of r ==  m ) */
(PID.TID 0000.0001)                 1.234567000000000E+05
(PID.TID 0000.0001)     ;
(PID.TID 0000.0001) rkSign =   /* index orientation relative to vertical coordinate */
(PID.TID 0000.0001)                -1.000000000000000E+00
(PID.TID 0000.0001)     ;
(PID.TID 0000.0001) gravitySign = /* gravity orientation relative to vertical coordinate */
(PID.TID 0000.0001)                -1.000000000000000E+00
(PID.TID 0000.0001)     ;
(PID.TID 0000.0001) mass2rUnit = /* convert mass per unit area [kg/m2] to r-units [m] */
(PID.TID 0000.0001)                 1.000200040008002E-03
(PID.TID 0000.0001)     ;
(PID.TID 0000.0001) rUnit2mass = /* convert r-units [m] to mass per unit area [kg/m2] */
(PID.TID 0000.0001)                 9.998000000000000E+02
(PID.TID 0000.0001)     ;
(PID.TID 0000.0001) drC =   /* C spacing ( units of r ) */
(PID.TID 0000.0001)                 1.778230853257070E+00,      /* K =  1 */
(PID.TID 0000.0001)                 3.510074164864204E+00,      /* K =  2 */
(PID.TID 0000.0001)                 3.418509162930531E+00,      /* K =  3 */
(PID.TID 0000.0001)                 3.329332757130535E+00,      /* K =  4 */
(PID.TID 0000.0001)                 3.242482637723929E+00,      /* K =  5 */
(PID.TID 0000.0001)                 3.157898120403742E+00,      /* K =  6 */
(PID.TID 0000.0001)                 3.075520103894710E+00,      /* K =  7 */
(PID.TID 0000.0001)                 2.995291028657758E+00,      /* K =  8 */
(PID.TID 0000.0001)                 2.917154836671749E+00,      /* K =  9 */
(PID.TID 0000.0001)                 2.841056932264362E+00,      /* K = 10 */
(PID.TID 0000.0001)                 2.766944143964766E+00,      /* K = 11 */
(PID.TID 0000.0001)                 2.694764687351404E+00,      /* K = 12 */
(PID.TID 0000.0001)                 2.624468128868950E+00,      /* K = 13 */
(PID.TID 0000.0001)                 2.556005350589150E+00,      /* K = 14 */
(PID.TID 0000.0001)                 2.489328515890922E+00,      /* K = 15 */
(PID.TID 0000.0001)                 2.424391036035729E+00,      /* K = 16 */
(PID.TID 0000.0001)                 2.361147537614897E+00,      /* K = 17 */
(PID.TID 0000.0001)                 2.299553830846095E+00,      /* K = 18 */
(PID.TID 0000.0001)                 2.239566878696850E+00,      /* K = 19 */
(PID.TID 0000.0001)                 2.181144766813524E+00,      /* K = 20 */
(PID.TID 0000.0001)                 2.124246674234723E+00,      /* K = 21 */
(PID.TID 0000.0001)                 2.068832844868692E+00,      /* K = 22 */
(PID.TID 0000.0001)                 2.014864559714757E+00,      /* K = 23 */
(PID.TID 0000.0001)                 1.962304109809418E+00,      /* K = 24 */
(PID.TID 0000.0001)                 1.911114769878161E+00,      /* K = 25 */
(PID.TID 0000.0001)                 1.861260772674619E+00,      /* K = 26 */
(PID.TID 0000.0001)                 1.812707283989113E+00,      /* K = 27 */
(PID.TID 0000.0001)                 1.765420378309139E+00,      /* K = 28 */
(PID.TID 0000.0001)                 1.719367015114782E+00,      /* K = 29 */
(PID.TID 0000.0001)                 1.674515015792491E+00,      /* K = 30 */
(PID.TID 0000.0001)                 1.630833041151099E+00,      /* K = 31 */
(PID.TID 0000.0001)                 1.588290569524356E+00,      /* K = 32 */
(PID.TID 0000.0001)                 1.546857875444697E+00,      /* K = 33 */
(PID.TID 0000.0001)                 1.506506008873327E+00,      /* K = 34 */
(PID.TID 0000.0001)                 1.467206774972122E+00,      /* K = 35 */
(PID.TID 0000.0001)                 1.428932714403200E+00,      /* K = 36 */
(PID.TID 0000.0001)                 1.391657084142413E+00,      /* K = 37 */
(PID.TID 0000.0001)                 1.355353838793339E+00,      /* K = 38 */
(PID.TID 0000.0001)                 1.319997612388726E+00,      /* K = 39 */
(PID.TID 0000.0001)                 1.285563700666666E+00,      /* K = 40 */
(PID.TID 0000.0001)                 1.252028043809125E+00,      /* K = 41 */
(PID.TID 0000.0001)                 1.219367209630760E+00,      /* K = 42 */
(PID.TID 0000.0001)                 1.187558377206269E+00,      /* K = 43 */
(PID.TID 0000.0001)                 1.156579320924862E+00,      /* K = 44 */
(PID.TID 0000.0001)                 1.126408394960672E+00,      /* K = 45 */
(PID.TID 0000.0001)                 1.097024518148294E+00,      /* K = 46 */
(PID.TID 0000.0001)                 1.068407159252853E+00,      /* K = 47 */
(PID.TID 0000.0001)                 1.040536322624328E+00,      /* K = 48 */
(PID.TID 0000.0001)                 1.013392534226109E+00,      /* K = 49 */
(PID.TID 0000.0001)     3 @  1.000000000000000E+00,             /* K = 50: 52 */
(PID.TID 0000.0001)                 1.013392534226109E+00,      /* K = 53 */
(PID.TID 0000.0001)                 1.040536322624328E+00,      /* K = 54 */
(PID.TID 0000.0001)                 1.068407159252853E+00,      /* K = 55 */
(PID.TID 0000.0001)                 1.097024518148294E+00,      /* K = 56 */
(PID.TID 0000.0001)                 1.126408394960672E+00,      /* K = 57 */
(PID.TID 0000.0001)                 1.156579320924862E+00,      /* K = 58 */
(PID.TID 0000.0001)                 1.187558377206269E+00,      /* K = 59 */
(PID.TID 0000.0001)                 1.219367209630760E+00,      /* K = 60 */
(PID.TID 0000.0001)                 1.252028043809125E+00,      /* K = 61 */
(PID.TID 0000.0001)                 1.285563700666666E+00,      /* K = 62 */
(PID.TID 0000.0001)                 1.319997612388726E+00,      /* K = 63 */
(PID.TID 0000.0001)                 1.355353838793339E+00,      /* K = 64 */
(PID.TID 0000.0001)                 1.391657084142413E+00,      /* K = 65 */
(PID.TID 0000.0001)                 1.428932714403200E+00,      /* K = 66 */
(PID.TID 0000.0001)                 1.467206774972122E+00,      /* K = 67 */
(PID.TID 0000.0001)                 1.506506008873327E+00,      /* K = 68 */
(PID.TID 0000.0001)                 1.546857875444697E+00,      /* K = 69 */
(PID.TID 0000.0001)                 1.588290569524356E+00,      /* K = 70 */
(PID.TID 0000.0001)                 1.630833041151099E+00,      /* K = 71 */
(PID.TID 0000.0001)                 1.674515015792491E+00,      /* K = 72 */
(PID.TID 0000.0001)                 1.719367015114782E+00,      /* K = 73 */
(PID.TID 0000.0001)                 1.765420378309139E+00,      /* K = 74 */
(PID.TID 0000.0001)                 1.812707283989113E+00,      /* K = 75 */
(PID.TID 0000.0001)                 1.861260772674619E+00,      /* K = 76 */
(PID.TID 0000.0001)                 1.911114769878161E+00,      /* K = 77 */
(PID.TID 0000.0001)                 1.962304109809418E+00,      /* K = 78 */
(PID.TID 0000.0001)                 2.014864559714757E+00,      /* K = 79 */
(PID.TID 0000.0001)                 2.068832844868692E+00,      /* K = 80 */
(PID.TID 0000.0001)                 2.124246674234723E+00,      /* K = 81 */
(PID.TID 0000.0001)                 2.181144766813524E+00,      /* K = 82 */
(PID.TID 0000.0001)                 2.239566878696850E+00,      /* K = 83 */
(PID.TID 0000.0001)                 2.299553830846095E+00,      /* K = 84 */
(PID.TID 0000.0001)                 2.361147537614897E+00,      /* K = 85 */
(PID.TID 0000.0001)                 2.424391036035729E+00,      /* K = 86 */
(PID.TID 0000.0001)                 2.489328515890922E+00,      /* K = 87 */
(PID.TID 0000.0001)                 2.556005350589150E+00,      /* K = 88 */
(PID.TID 0000.0001)                 2.624468128868950E+00,      /* K = 89 */
(PID.TID 0000.0001)                 2.694764687351404E+00,      /* K = 90 */
(PID.TID 0000.0001)                 2.766944143964766E+00,      /* K = 91 */
(PID.TID 0000.0001)                 2.841056932264362E+00,      /* K = 92 */
(PID.TID 0000.0001)                 2.917154836671749E+00,      /* K = 93 */
(PID.TID 0000.0001)                 2.995291028657758E+00,      /* K = 94 */
(PID.TID 0000.0001)                 3.075520103894710E+00,      /* K = 95 */
(PID.TID 0000.0001)                 3.157898120403742E+00,      /* K = 96 */
(PID.TID 0000.0001)                 3.242482637723929E+00,      /* K = 97 */
(PID.TID 0000.0001)                 3.329332757130535E+00,      /* K = 98 */
(PID.TID 0000.0001)                 3.418509162930531E+00,      /* K = 99 */
(PID.TID 0000.0001)                 3.510074164864204E+00,      /* K =100 */
(PID.TID 0000.0001)                 1.778230853257070E+00       /* K =101 */
(PID.TID 0000.0001)     ;
(PID.TID 0000.0001) drF =   /* W spacing ( units of r ) */
(PID.TID 0000.0001)                 3.556461706514141E+00,      /* K =  1 */
(PID.TID 0000.0001)                 3.463686623214269E+00,      /* K =  2 */
(PID.TID 0000.0001)                 3.373331702646793E+00,      /* K =  3 */
(PID.TID 0000.0001)                 3.285333811614276E+00,      /* K =  4 */
(PID.TID 0000.0001)                 3.199631463833581E+00,      /* K =  5 */
(PID.TID 0000.0001)                 3.116164776973904E+00,      /* K =  6 */
(PID.TID 0000.0001)                 3.034875430815516E+00,      /* K =  7 */
(PID.TID 0000.0001)                 2.955706626500000E+00,      /* K =  8 */
(PID.TID 0000.0001)                 2.878603046843497E+00,      /* K =  9 */
(PID.TID 0000.0001)                 2.803510817685228E+00,      /* K = 10 */
(PID.TID 0000.0001)                 2.730377470244305E+00,      /* K = 11 */
(PID.TID 0000.0001)                 2.659151904458503E+00,      /* K = 12 */
(PID.TID 0000.0001)                 2.589784353279397E+00,      /* K = 13 */
(PID.TID 0000.0001)                 2.522226347898904E+00,      /* K = 14 */
(PID.TID 0000.0001)                 2.456430683882939E+00,      /* K = 15 */
(PID.TID 0000.0001)                 2.392351388188520E+00,      /* K = 16 */
(PID.TID 0000.0001)                 2.329943687041276E+00,      /* K = 17 */
(PID.TID 0000.0001)                 2.269163974650914E+00,      /* K = 18 */
(PID.TID 0000.0001)                 2.209969782742786E+00,      /* K = 19 */
(PID.TID 0000.0001)                 2.152319750884263E+00,      /* K = 20 */
(PID.TID 0000.0001)                 2.096173597585184E+00,      /* K = 21 */
(PID.TID 0000.0001)                 2.041492092152199E+00,      /* K = 22 */
(PID.TID 0000.0001)                 1.988237027277316E+00,      /* K = 23 */
(PID.TID 0000.0001)                 1.936371192341520E+00,      /* K = 24 */
(PID.TID 0000.0001)                 1.885858347414803E+00,      /* K = 25 */
(PID.TID 0000.0001)                 1.836663197934435E+00,      /* K = 26 */
(PID.TID 0000.0001)                 1.788751370043790E+00,      /* K = 27 */
(PID.TID 0000.0001)                 1.742089386574488E+00,      /* K = 28 */
(PID.TID 0000.0001)                 1.696644643655076E+00,      /* K = 29 */
(PID.TID 0000.0001)                 1.652385387929906E+00,      /* K = 30 */
(PID.TID 0000.0001)                 1.609280694372291E+00,      /* K = 31 */
(PID.TID 0000.0001)                 1.567300444676421E+00,      /* K = 32 */
(PID.TID 0000.0001)                 1.526415306212973E+00,      /* K = 33 */
(PID.TID 0000.0001)                 1.486596711533682E+00,      /* K = 34 */
(PID.TID 0000.0001)                 1.447816838410562E+00,      /* K = 35 */
(PID.TID 0000.0001)                 1.410048590395838E+00,      /* K = 36 */
(PID.TID 0000.0001)                 1.373265577888988E+00,      /* K = 37 */
(PID.TID 0000.0001)                 1.337442099697690E+00,      /* K = 38 */
(PID.TID 0000.0001)                 1.302553125079761E+00,      /* K = 39 */
(PID.TID 0000.0001)                 1.268574276253570E+00,      /* K = 40 */
(PID.TID 0000.0001)                 1.235481811364681E+00,      /* K = 41 */
(PID.TID 0000.0001)                 1.203252607896838E+00,      /* K = 42 */
(PID.TID 0000.0001)                 1.171864146515700E+00,      /* K = 43 */
(PID.TID 0000.0001)                 1.141294495334024E+00,      /* K = 44 */
(PID.TID 0000.0001)                 1.111522294587321E+00,      /* K = 45 */
(PID.TID 0000.0001)                 1.082526741709268E+00,      /* K = 46 */
(PID.TID 0000.0001)                 1.054287576796438E+00,      /* K = 47 */
(PID.TID 0000.0001)                 1.026785068452217E+00,      /* K = 48 */
(PID.TID 0000.0001)     4 @  1.000000000000000E+00,             /* K = 49: 52 */
(PID.TID 0000.0001)                 1.026785068452217E+00,      /* K = 53 */
(PID.TID 0000.0001)                 1.054287576796438E+00,      /* K = 54 */
(PID.TID 0000.0001)                 1.082526741709268E+00,      /* K = 55 */
(PID.TID 0000.0001)                 1.111522294587321E+00,      /* K = 56 */
(PID.TID 0000.0001)                 1.141294495334024E+00,      /* K = 57 */
(PID.TID 0000.0001)                 1.171864146515700E+00,      /* K = 58 */
(PID.TID 0000.0001)                 1.203252607896838E+00,      /* K = 59 */
(PID.TID 0000.0001)                 1.235481811364681E+00,      /* K = 60 */
(PID.TID 0000.0001)                 1.268574276253570E+00,      /* K = 61 */
(PID.TID 0000.0001)                 1.302553125079761E+00,      /* K = 62 */
(PID.TID 0000.0001)                 1.337442099697690E+00,      /* K = 63 */
(PID.TID 0000.0001)                 1.373265577888988E+00,      /* K = 64 */
(PID.TID 0000.0001)                 1.410048590395838E+00,      /* K = 65 */
(PID.TID 0000.0001)                 1.447816838410562E+00,      /* K = 66 */
(PID.TID 0000.0001)                 1.486596711533682E+00,      /* K = 67 */
(PID.TID 0000.0001)                 1.526415306212973E+00,      /* K = 68 */
(PID.TID 0000.0001)                 1.567300444676421E+00,      /* K = 69 */
(PID.TID 0000.0001)                 1.609280694372291E+00,      /* K = 70 */
(PID.TID 0000.0001)                 1.652385387929906E+00,      /* K = 71 */
(PID.TID 0000.0001)                 1.696644643655076E+00,      /* K = 72 */
(PID.TID 0000.0001)                 1.742089386574488E+00,      /* K = 73 */
(PID.TID 0000.0001)                 1.788751370043790E+00,      /* K = 74 */
(PID.TID 0000.0001)                 1.836663197934435E+00,      /* K = 75 */
(PID.TID 0000.0001)                 1.885858347414803E+00,      /* K = 76 */
(PID.TID 0000.0001)                 1.936371192341520E+00,      /* K = 77 */
(PID.TID 0000.0001)                 1.988237027277316E+00,      /* K = 78 */
(PID.TID 0000.0001)                 2.041492092152199E+00,      /* K = 79 */
(PID.TID 0000.0001)                 2.096173597585184E+00,      /* K = 80 */
(PID.TID 0000.0001)                 2.152319750884263E+00,      /* K = 81 */
(PID.TID 0000.0001)                 2.209969782742786E+00,      /* K = 82 */
(PID.TID 0000.0001)                 2.269163974650914E+00,      /* K = 83 */
(PID.TID 0000.0001)                 2.329943687041276E+00,      /* K = 84 */
(PID.TID 0000.0001)                 2.392351388188520E+00,      /* K = 85 */
(PID.TID 0000.0001)                 2.456430683882939E+00,      /* K = 86 */
(PID.TID 0000.0001)                 2.522226347898904E+00,      /* K = 87 */
(PID.TID 0000.0001)                 2.589784353279397E+00,      /* K = 88 */
(PID.TID 0000.0001)                 2.659151904458503E+00,      /* K = 89 */
(PID.TID 0000.0001)                 2.730377470244305E+00,      /* K = 90 */
(PID.TID 0000.0001)                 2.803510817685228E+00,      /* K = 91 */
(PID.TID 0000.0001)                 2.878603046843497E+00,      /* K = 92 */
(PID.TID 0000.0001)                 2.955706626500000E+00,      /* K = 93 */
(PID.TID 0000.0001)                 3.034875430815516E+00,      /* K = 94 */
(PID.TID 0000.0001)                 3.116164776973904E+00,      /* K = 95 */
(PID.TID 0000.0001)                 3.199631463833581E+00,      /* K = 96 */
(PID.TID 0000.0001)                 3.285333811614276E+00,      /* K = 97 */
(PID.TID 0000.0001)                 3.373331702646793E+00,      /* K = 98 */
(PID.TID 0000.0001)                 3.463686623214269E+00,      /* K = 99 */
(PID.TID 0000.0001)                 3.556461706514141E+00       /* K =100 */
(PID.TID 0000.0001)     ;
(PID.TID 0000.0001) delX = /* U spacing ( m - cartesian, degrees - spherical ) */
(PID.TID 0000.0001)                 1.263294638016668E+03,      /* I =  1 */
(PID.TID 0000.0001)                 1.237496063806571E+03,      /* I =  2 */
(PID.TID 0000.0001)                 1.212224339320398E+03,      /* I =  3 */
(PID.TID 0000.0001)      . . .
(PID.TID 0000.0001)                 4.790113490274632E+02,      /* I = 48 */
(PID.TID 0000.0001)                 4.692291418815790E+02,      /* I = 49 */
(PID.TID 0000.0001)                 4.596467036489769E+02,      /* I = 50 */
(PID.TID 0000.0001)                 4.502599547167311E+02,      /* I = 51 */
(PID.TID 0000.0001)                 4.410648987843862E+02,      /* I = 52 */
(PID.TID 0000.0001)                 4.320576211625778E+02,      /* I = 53 */
(PID.TID 0000.0001)      . . .
(PID.TID 0000.0001)                 2.000000000000000E+02,      /* I = 98 */
(PID.TID 0000.0001)                 2.000000000000000E+02,      /* I = 99 */
(PID.TID 0000.0001)                 2.000000000000000E+02,      /* I =100 */
(PID.TID 0000.0001)                 2.000000000000000E+02,      /* I =101 */
(PID.TID 0000.0001)                 2.000000000000000E+02,      /* I =102 */
(PID.TID 0000.0001)                 2.000000000000000E+02,      /* I =103 */
(PID.TID 0000.0001)      . . .
(PID.TID 0000.0001)                 3.612641354876311E+02,      /* I =148 */
(PID.TID 0000.0001)                 3.687955530665730E+02,      /* I =149 */
(PID.TID 0000.0001)                 3.764839811128614E+02,      /* I =150 */
(PID.TID 0000.0001)                 3.843326928863569E+02,      /* I =151 */
(PID.TID 0000.0001)                 3.923450298858749E+02,      /* I =152 */
(PID.TID 0000.0001)                 4.005244032717896E+02,      /* I =153 */
(PID.TID 0000.0001)      . . .
(PID.TID 0000.0001)                 1.013599012055986E+03,      /* I =198 */
(PID.TID 0000.0001)                 1.034729915092050E+03,      /* I =199 */
(PID.TID 0000.0001)                 1.056301342495056E+03       /* I =200 */
(PID.TID 0000.0001)     ;
(PID.TID 0000.0001) delY = /* V spacing ( m - cartesian, degrees - spherical ) */
(PID.TID 0000.0001)                 5.000000000000000E+03       /* J =  1 */
(PID.TID 0000.0001)     ;
(PID.TID 0000.0001) xgOrigin = /* X-axis origin of West  edge (cartesian: m, lat-lon: deg) */
(PID.TID 0000.0001)                 0.000000000000000E+00
(PID.TID 0000.0001)     ;
(PID.TID 0000.0001) ygOrigin = /* Y-axis origin of South edge (cartesian: m, lat-lon: deg) */
(PID.TID 0000.0001)                 0.000000000000000E+00
(PID.TID 0000.0001)     ;
(PID.TID 0000.0001) rSphere =  /* Radius ( ignored - cartesian, m - spherical ) */
(PID.TID 0000.0001)                 6.370000000000000E+06
(PID.TID 0000.0001)     ;
(PID.TID 0000.0001) deepAtmosphere = /* Deep/Shallow Atmosphere flag (True/False) */
(PID.TID 0000.0001)                   F
(PID.TID 0000.0001)     ;
(PID.TID 0000.0001) xC =  /* xC(:,1,:,1) : P-point X coord ( deg. or m if cartesian) */
(PID.TID 0000.0001)                 6.316473190083342E+02,      /* I =  1 */
(PID.TID 0000.0001)                 1.882042669919954E+03,      /* I =  2 */
(PID.TID 0000.0001)                 3.106902871483439E+03,      /* I =  3 */
(PID.TID 0000.0001)      . . .
(PID.TID 0000.0001)                 3.864398747251778E+04,      /* I = 48 */
(PID.TID 0000.0001)                 3.911810771797229E+04,      /* I = 49 */
(PID.TID 0000.0001)                 3.958254564073758E+04,      /* I = 50 */
(PID.TID 0000.0001)                 4.003749896992043E+04,      /* I = 51 */
(PID.TID 0000.0001)                 4.048316139667099E+04,      /* I = 52 */
(PID.TID 0000.0001)                 4.091972265664447E+04,      /* I = 53 */
(PID.TID 0000.0001)      . . .
(PID.TID 0000.0001)                 5.369999999999999E+04,      /* I = 98 */
(PID.TID 0000.0001)                 5.389999999999999E+04,      /* I = 99 */
(PID.TID 0000.0001)                 5.409999999999999E+04,      /* I =100 */
(PID.TID 0000.0001)                 5.429999999999999E+04,      /* I =101 */
(PID.TID 0000.0001)                 5.449999999999999E+04,      /* I =102 */
(PID.TID 0000.0001)                 5.469999999999999E+04,      /* I =103 */
(PID.TID 0000.0001)      . . .
(PID.TID 0000.0001)                 6.578505387737689E+04,      /* I =148 */
(PID.TID 0000.0001)                 6.615008372165399E+04,      /* I =149 */
(PID.TID 0000.0001)                 6.652272348874371E+04,      /* I =150 */
(PID.TID 0000.0001)                 6.690313182574332E+04,      /* I =151 */
(PID.TID 0000.0001)                 6.729147068712943E+04,      /* I =152 */
(PID.TID 0000.0001)                 6.768790540370827E+04,      /* I =153 */
(PID.TID 0000.0001)      . . .
(PID.TID 0000.0001)                 9.740216923638493E+04,      /* I =198 */
(PID.TID 0000.0001)                 9.842633369995895E+04,      /* I =199 */
(PID.TID 0000.0001)                 9.947184932875249E+04       /* I =200 */
(PID.TID 0000.0001)     ;
(PID.TID 0000.0001) yC =  /* yC(1,:,1,:) : P-point Y coord ( deg. or m if cartesian) */
(PID.TID 0000.0001)                 2.500000000000000E+03       /* J =  1 */
(PID.TID 0000.0001)     ;
(PID.TID 0000.0001) rcoord = /* P-point R coordinate (  units of r ) */
(PID.TID 0000.0001)                -1.778230853257070E+00,      /* K =  1 */
(PID.TID 0000.0001)                -5.288305018121275E+00,      /* K =  2 */
(PID.TID 0000.0001)                -8.706814181051806E+00,      /* K =  3 */
(PID.TID 0000.0001)                -1.203614693818234E+01,      /* K =  4 */
(PID.TID 0000.0001)                -1.527862957590627E+01,      /* K =  5 */
(PID.TID 0000.0001)                -1.843652769631001E+01,      /* K =  6 */
(PID.TID 0000.0001)                -2.151204780020472E+01,      /* K =  7 */
(PID.TID 0000.0001)                -2.450733882886248E+01,      /* K =  8 */
(PID.TID 0000.0001)                -2.742449366553423E+01,      /* K =  9 */
(PID.TID 0000.0001)                -3.026555059779859E+01,      /* K = 10 */
(PID.TID 0000.0001)                -3.303249474176336E+01,      /* K = 11 */
(PID.TID 0000.0001)                -3.572725942911476E+01,      /* K = 12 */
(PID.TID 0000.0001)                -3.835172755798371E+01,      /* K = 13 */
(PID.TID 0000.0001)                -4.090773290857286E+01,      /* K = 14 */
(PID.TID 0000.0001)                -4.339706142446379E+01,      /* K = 15 */
(PID.TID 0000.0001)                -4.582145246049951E+01,      /* K = 16 */
(PID.TID 0000.0001)                -4.818259999811441E+01,      /* K = 17 */
(PID.TID 0000.0001)                -5.048215382896051E+01,      /* K = 18 */
(PID.TID 0000.0001)                -5.272172070765735E+01,      /* K = 19 */
(PID.TID 0000.0001)                -5.490286547447088E+01,      /* K = 20 */
(PID.TID 0000.0001)                -5.702711214870560E+01,      /* K = 21 */
(PID.TID 0000.0001)                -5.909594499357430E+01,      /* K = 22 */
(PID.TID 0000.0001)                -6.111080955328906E+01,      /* K = 23 */
(PID.TID 0000.0001)                -6.307311366309848E+01,      /* K = 24 */
(PID.TID 0000.0001)                -6.498422843297664E+01,      /* K = 25 */
(PID.TID 0000.0001)                -6.684548920565126E+01,      /* K = 26 */
(PID.TID 0000.0001)                -6.865819648964037E+01,      /* K = 27 */
(PID.TID 0000.0001)                -7.042361686794952E+01,      /* K = 28 */
(PID.TID 0000.0001)                -7.214298388306430E+01,      /* K = 29 */
(PID.TID 0000.0001)                -7.381749889885680E+01,      /* K = 30 */
(PID.TID 0000.0001)                -7.544833194000789E+01,      /* K = 31 */
(PID.TID 0000.0001)                -7.703662250953225E+01,      /* K = 32 */
(PID.TID 0000.0001)                -7.858348038497695E+01,      /* K = 33 */
(PID.TID 0000.0001)                -8.008998639385028E+01,      /* K = 34 */
(PID.TID 0000.0001)                -8.155719316882241E+01,      /* K = 35 */
(PID.TID 0000.0001)                -8.298612588322561E+01,      /* K = 36 */
(PID.TID 0000.0001)                -8.437778296736802E+01,      /* K = 37 */
(PID.TID 0000.0001)                -8.573313680616135E+01,      /* K = 38 */
(PID.TID 0000.0001)                -8.705313441855009E+01,      /* K = 39 */
(PID.TID 0000.0001)                -8.833869811921676E+01,      /* K = 40 */
(PID.TID 0000.0001)                -8.959072616302588E+01,      /* K = 41 */
(PID.TID 0000.0001)                -9.081009337265664E+01,      /* K = 42 */
(PID.TID 0000.0001)                -9.199765174986291E+01,      /* K = 43 */
(PID.TID 0000.0001)                -9.315423107078777E+01,      /* K = 44 */
(PID.TID 0000.0001)                -9.428063946574845E+01,      /* K = 45 */
(PID.TID 0000.0001)                -9.537766398389674E+01,      /* K = 46 */
(PID.TID 0000.0001)                -9.644607114314960E+01,      /* K = 47 */
(PID.TID 0000.0001)                -9.748660746577393E+01,      /* K = 48 */
(PID.TID 0000.0001)                -9.850000000000004E+01,      /* K = 49 */
(PID.TID 0000.0001)                -9.950000000000004E+01,      /* K = 50 */
(PID.TID 0000.0001)                -1.005000000000000E+02,      /* K = 51 */
(PID.TID 0000.0001)                -1.015000000000000E+02,      /* K = 52 */
(PID.TID 0000.0001)                -1.025133925342262E+02,      /* K = 53 */
(PID.TID 0000.0001)                -1.035539288568505E+02,      /* K = 54 */
(PID.TID 0000.0001)                -1.046223360161033E+02,      /* K = 55 */
(PID.TID 0000.0001)                -1.057193605342516E+02,      /* K = 56 */
(PID.TID 0000.0001)                -1.068457689292123E+02,      /* K = 57 */
(PID.TID 0000.0001)                -1.080023482501372E+02,      /* K = 58 */
(PID.TID 0000.0001)                -1.091899066273434E+02,      /* K = 59 */
(PID.TID 0000.0001)                -1.104092738369742E+02,      /* K = 60 */
(PID.TID 0000.0001)                -1.116613018807833E+02,      /* K = 61 */
(PID.TID 0000.0001)                -1.129468655814500E+02,      /* K = 62 */
(PID.TID 0000.0001)                -1.142668631938387E+02,      /* K = 63 */
(PID.TID 0000.0001)                -1.156222170326321E+02,      /* K = 64 */
(PID.TID 0000.0001)                -1.170138741167745E+02,      /* K = 65 */
(PID.TID 0000.0001)                -1.184428068311777E+02,      /* K = 66 */
(PID.TID 0000.0001)                -1.199100136061498E+02,      /* K = 67 */
(PID.TID 0000.0001)                -1.214165196150231E+02,      /* K = 68 */
(PID.TID 0000.0001)                -1.229633774904678E+02,      /* K = 69 */
(PID.TID 0000.0001)                -1.245516680599922E+02,      /* K = 70 */
(PID.TID 0000.0001)                -1.261825011011433E+02,      /* K = 71 */
(PID.TID 0000.0001)                -1.278570161169358E+02,      /* K = 72 */
(PID.TID 0000.0001)                -1.295763831320506E+02,      /* K = 73 */
(PID.TID 0000.0001)                -1.313418035103597E+02,      /* K = 74 */
(PID.TID 0000.0001)                -1.331545107943488E+02,      /* K = 75 */
(PID.TID 0000.0001)                -1.350157715670234E+02,      /* K = 76 */
(PID.TID 0000.0001)                -1.369268863369016E+02,      /* K = 77 */
(PID.TID 0000.0001)                -1.388891904467110E+02,      /* K = 78 */
(PID.TID 0000.0001)                -1.409040550064258E+02,      /* K = 79 */
(PID.TID 0000.0001)                -1.429728878512945E+02,      /* K = 80 */
(PID.TID 0000.0001)                -1.450971345255292E+02,      /* K = 81 */
(PID.TID 0000.0001)                -1.472782792923427E+02,      /* K = 82 */
(PID.TID 0000.0001)                -1.495178461710396E+02,      /* K = 83 */
(PID.TID 0000.0001)                -1.518174000018857E+02,      /* K = 84 */
(PID.TID 0000.0001)                -1.541785475395006E+02,      /* K = 85 */
(PID.TID 0000.0001)                -1.566029385755363E+02,      /* K = 86 */
(PID.TID 0000.0001)                -1.590922670914272E+02,      /* K = 87 */
(PID.TID 0000.0001)                -1.616482724420163E+02,      /* K = 88 */
(PID.TID 0000.0001)                -1.642727405708853E+02,      /* K = 89 */
(PID.TID 0000.0001)                -1.669675052582367E+02,      /* K = 90 */
(PID.TID 0000.0001)                -1.697344494022015E+02,      /* K = 91 */
(PID.TID 0000.0001)                -1.725755063344658E+02,      /* K = 92 */
(PID.TID 0000.0001)                -1.754926611711376E+02,      /* K = 93 */
(PID.TID 0000.0001)                -1.784879521997954E+02,      /* K = 94 */
(PID.TID 0000.0001)                -1.815634723036901E+02,      /* K = 95 */
(PID.TID 0000.0001)                -1.847213704240938E+02,      /* K = 96 */
(PID.TID 0000.0001)                -1.879638530618177E+02,      /* K = 97 */
(PID.TID 0000.0001)                -1.912931858189483E+02,      /* K = 98 */
(PID.TID 0000.0001)                -1.947116949818788E+02,      /* K = 99 */
(PID.TID 0000.0001)                -1.982217691467430E+02       /* K =100 */
(PID.TID 0000.0001)     ;
(PID.TID 0000.0001) rF =   /* W-Interf. R coordinate (  units of r ) */
(PID.TID 0000.0001)                 0.000000000000000E+00,      /* K =  1 */
(PID.TID 0000.0001)                -3.556461706514141E+00,      /* K =  2 */
(PID.TID 0000.0001)                -7.020148329728409E+00,      /* K =  3 */
(PID.TID 0000.0001)                -1.039348003237520E+01,      /* K =  4 */
(PID.TID 0000.0001)                -1.367881384398948E+01,      /* K =  5 */
(PID.TID 0000.0001)                -1.687844530782306E+01,      /* K =  6 */
(PID.TID 0000.0001)                -1.999461008479696E+01,      /* K =  7 */
(PID.TID 0000.0001)                -2.302948551561248E+01,      /* K =  8 */
(PID.TID 0000.0001)                -2.598519214211248E+01,      /* K =  9 */
(PID.TID 0000.0001)                -2.886379518895598E+01,      /* K = 10 */
(PID.TID 0000.0001)                -3.166730600664120E+01,      /* K = 11 */
(PID.TID 0000.0001)                -3.439768347688551E+01,      /* K = 12 */
(PID.TID 0000.0001)                -3.705683538134402E+01,      /* K = 13 */
(PID.TID 0000.0001)                -3.964661973462341E+01,      /* K = 14 */
(PID.TID 0000.0001)                -4.216884608252232E+01,      /* K = 15 */
(PID.TID 0000.0001)                -4.462527676640526E+01,      /* K = 16 */
(PID.TID 0000.0001)                -4.701762815459379E+01,      /* K = 17 */
(PID.TID 0000.0001)                -4.934757184163506E+01,      /* K = 18 */
(PID.TID 0000.0001)                -5.161673581628597E+01,      /* K = 19 */
(PID.TID 0000.0001)                -5.382670559902876E+01,      /* K = 20 */
(PID.TID 0000.0001)                -5.597902534991302E+01,      /* K = 21 */
(PID.TID 0000.0001)                -5.807519894749821E+01,      /* K = 22 */
(PID.TID 0000.0001)                -6.011669103965041E+01,      /* K = 23 */
(PID.TID 0000.0001)                -6.210492806692772E+01,      /* K = 24 */
(PID.TID 0000.0001)                -6.404129925926924E+01,      /* K = 25 */
(PID.TID 0000.0001)                -6.592715760668403E+01,      /* K = 26 */
(PID.TID 0000.0001)                -6.776382080461848E+01,      /* K = 27 */
(PID.TID 0000.0001)                -6.955257217466226E+01,      /* K = 28 */
(PID.TID 0000.0001)                -7.129466156123675E+01,      /* K = 29 */
(PID.TID 0000.0001)                -7.299130620489183E+01,      /* K = 30 */
(PID.TID 0000.0001)                -7.464369159282174E+01,      /* K = 31 */
(PID.TID 0000.0001)                -7.625297228719403E+01,      /* K = 32 */
(PID.TID 0000.0001)                -7.782027273187045E+01,      /* K = 33 */
(PID.TID 0000.0001)                -7.934668803808341E+01,      /* K = 34 */
(PID.TID 0000.0001)                -8.083328474961709E+01,      /* K = 35 */
(PID.TID 0000.0001)                -8.228110158802765E+01,      /* K = 36 */
(PID.TID 0000.0001)                -8.369115017842348E+01,      /* K = 37 */
(PID.TID 0000.0001)                -8.506441575631247E+01,      /* K = 38 */
(PID.TID 0000.0001)                -8.640185785601017E+01,      /* K = 39 */
(PID.TID 0000.0001)                -8.770441098108992E+01,      /* K = 40 */
(PID.TID 0000.0001)                -8.897298525734350E+01,      /* K = 41 */
(PID.TID 0000.0001)                -9.020846706870817E+01,      /* K = 42 */
(PID.TID 0000.0001)                -9.141171967660502E+01,      /* K = 43 */
(PID.TID 0000.0001)                -9.258358382312072E+01,      /* K = 44 */
(PID.TID 0000.0001)                -9.372487831845474E+01,      /* K = 45 */
(PID.TID 0000.0001)                -9.483640061304206E+01,      /* K = 46 */
(PID.TID 0000.0001)                -9.591892735475133E+01,      /* K = 47 */
(PID.TID 0000.0001)                -9.697321493154777E+01,      /* K = 48 */
(PID.TID 0000.0001)                -9.799999999999999E+01,      /* K = 49 */
(PID.TID 0000.0001)                -9.899999999999999E+01,      /* K = 50 */
(PID.TID 0000.0001)                -9.999999999999999E+01,      /* K = 51 */
(PID.TID 0000.0001)                -1.010000000000000E+02,      /* K = 52 */
(PID.TID 0000.0001)                -1.020000000000000E+02,      /* K = 53 */
(PID.TID 0000.0001)                -1.030267850684522E+02,      /* K = 54 */
(PID.TID 0000.0001)                -1.040810726452486E+02,      /* K = 55 */
(PID.TID 0000.0001)                -1.051635993869579E+02,      /* K = 56 */
(PID.TID 0000.0001)                -1.062751216815452E+02,      /* K = 57 */
(PID.TID 0000.0001)                -1.074164161768793E+02,      /* K = 58 */
(PID.TID 0000.0001)                -1.085882803233950E+02,      /* K = 59 */
(PID.TID 0000.0001)                -1.097915329312918E+02,      /* K = 60 */
(PID.TID 0000.0001)                -1.110270147426565E+02,      /* K = 61 */
(PID.TID 0000.0001)                -1.122955890189101E+02,      /* K = 62 */
(PID.TID 0000.0001)                -1.135981421439898E+02,      /* K = 63 */
(PID.TID 0000.0001)                -1.149355842436875E+02,      /* K = 64 */
(PID.TID 0000.0001)                -1.163088498215765E+02,      /* K = 65 */
(PID.TID 0000.0001)                -1.177188984119723E+02,      /* K = 66 */
(PID.TID 0000.0001)                -1.191667152503829E+02,      /* K = 67 */
(PID.TID 0000.0001)                -1.206533119619166E+02,      /* K = 68 */
(PID.TID 0000.0001)                -1.221797272681295E+02,      /* K = 69 */
(PID.TID 0000.0001)                -1.237470277128059E+02,      /* K = 70 */
(PID.TID 0000.0001)                -1.253563084071782E+02,      /* K = 71 */
(PID.TID 0000.0001)                -1.270086937951081E+02,      /* K = 72 */
(PID.TID 0000.0001)                -1.287053384387632E+02,      /* K = 73 */
(PID.TID 0000.0001)                -1.304474278253377E+02,      /* K = 74 */
(PID.TID 0000.0001)                -1.322361791953815E+02,      /* K = 75 */
(PID.TID 0000.0001)                -1.340728423933159E+02,      /* K = 76 */
(PID.TID 0000.0001)                -1.359587007407307E+02,      /* K = 77 */
(PID.TID 0000.0001)                -1.378950719330722E+02,      /* K = 78 */
(PID.TID 0000.0001)                -1.398833089603496E+02,      /* K = 79 */
(PID.TID 0000.0001)                -1.419248010525017E+02,      /* K = 80 */
(PID.TID 0000.0001)                -1.440209746500869E+02,      /* K = 81 */
(PID.TID 0000.0001)                -1.461732944009712E+02,      /* K = 82 */
(PID.TID 0000.0001)                -1.483832641837140E+02,      /* K = 83 */
(PID.TID 0000.0001)                -1.506524281583649E+02,      /* K = 84 */
(PID.TID 0000.0001)                -1.529823718454062E+02,      /* K = 85 */
(PID.TID 0000.0001)                -1.553747232335947E+02,      /* K = 86 */
(PID.TID 0000.0001)                -1.578311539174776E+02,      /* K = 87 */
(PID.TID 0000.0001)                -1.603533802653765E+02,      /* K = 88 */
(PID.TID 0000.0001)                -1.629431646186559E+02,      /* K = 89 */
(PID.TID 0000.0001)                -1.656023165231144E+02,      /* K = 90 */
(PID.TID 0000.0001)                -1.683326939933587E+02,      /* K = 91 */
(PID.TID 0000.0001)                -1.711362048110439E+02,      /* K = 92 */
(PID.TID 0000.0001)                -1.740148078578874E+02,      /* K = 93 */
(PID.TID 0000.0001)                -1.769705144843874E+02,      /* K = 94 */
(PID.TID 0000.0001)                -1.800053899152029E+02,      /* K = 95 */
(PID.TID 0000.0001)                -1.831215546921768E+02,      /* K = 96 */
(PID.TID 0000.0001)                -1.863211861560104E+02,      /* K = 97 */
(PID.TID 0000.0001)                -1.896065199676247E+02,      /* K = 98 */
(PID.TID 0000.0001)                -1.929798516702715E+02,      /* K = 99 */
(PID.TID 0000.0001)                -1.964435382934857E+02,      /* K =100 */
(PID.TID 0000.0001)                -1.999999999999999E+02       /* K =101 */
(PID.TID 0000.0001)     ;
(PID.TID 0000.0001) deepFacC = /* deep-model grid factor @ cell-Center (-) */
(PID.TID 0000.0001)   100 @  1.000000000000000E+00              /* K =  1:100 */
(PID.TID 0000.0001)     ;
(PID.TID 0000.0001) deepFacF = /* deep-model grid factor @ W-Interface (-) */
(PID.TID 0000.0001)   101 @  1.000000000000000E+00              /* K =  1:101 */
(PID.TID 0000.0001)     ;
(PID.TID 0000.0001) rVel2wUnit = /* convert units: rVel -> wSpeed (=1 if z-coord)*/
(PID.TID 0000.0001)   101 @  1.000000000000000E+00              /* K =  1:101 */
(PID.TID 0000.0001)     ;
(PID.TID 0000.0001) wUnit2rVel = /* convert units: wSpeed -> rVel (=1 if z-coord)*/
(PID.TID 0000.0001)   101 @  1.000000000000000E+00              /* K =  1:101 */
(PID.TID 0000.0001)     ;
(PID.TID 0000.0001) dBdrRef = /* Vertical grad. of reference buoyancy [(m/s/r)^2] */
(PID.TID 0000.0001)    46 @  0.000000000000000E+00,             /* K =  1: 46 */
(PID.TID 0000.0001)                 1.228818448192056E-06,      /* K = 47 */
(PID.TID 0000.0001)                 4.178283981750208E-05,      /* K = 48 */
(PID.TID 0000.0001)                 5.226533076855416E-04,      /* K = 49 */
(PID.TID 0000.0001)                 2.373739881891255E-03,      /* K = 50 */
(PID.TID 0000.0001)                 3.913635434383322E-03,      /* K = 51 */
(PID.TID 0000.0001)                 2.373739881891255E-03,      /* K = 52 */
(PID.TID 0000.0001)                 5.226533076855416E-04,      /* K = 53 */
(PID.TID 0000.0001)                 4.178283981750208E-05,      /* K = 54 */
(PID.TID 0000.0001)                 1.228818448192056E-06,      /* K = 55 */
(PID.TID 0000.0001)    45 @  0.000000000000000E+00              /* K = 56:100 */
(PID.TID 0000.0001)     ;
(PID.TID 0000.0001) rotateGrid = /* use rotated grid ( True/False ) */
(PID.TID 0000.0001)                   F
(PID.TID 0000.0001)     ;
(PID.TID 0000.0001) phiEuler = /* Euler angle, rotation about original z-coordinate [rad] */
(PID.TID 0000.0001)                 0.000000000000000E+00
(PID.TID 0000.0001)     ;
(PID.TID 0000.0001) thetaEuler = /* Euler angle, rotation about new x-coordinate [rad] */
(PID.TID 0000.0001)                 0.000000000000000E+00
(PID.TID 0000.0001)     ;
(PID.TID 0000.0001) psiEuler = /* Euler angle, rotation about new z-coordinate [rad] */
(PID.TID 0000.0001)                 0.000000000000000E+00
(PID.TID 0000.0001)     ;
(PID.TID 0000.0001) dxF =  /* dxF(:,1,:,1) ( units: m ) */
(PID.TID 0000.0001)                 1.263294638016668E+03,      /* I =  1 */
(PID.TID 0000.0001)                 1.237496063806571E+03,      /* I =  2 */
(PID.TID 0000.0001)                 1.212224339320398E+03,      /* I =  3 */
(PID.TID 0000.0001)      . . .
(PID.TID 0000.0001)                 4.790113490274632E+02,      /* I = 48 */
(PID.TID 0000.0001)                 4.692291418815790E+02,      /* I = 49 */
(PID.TID 0000.0001)                 4.596467036489769E+02,      /* I = 50 */
(PID.TID 0000.0001)                 4.502599547167311E+02,      /* I = 51 */
(PID.TID 0000.0001)                 4.410648987843862E+02,      /* I = 52 */
(PID.TID 0000.0001)                 4.320576211625778E+02,      /* I = 53 */
(PID.TID 0000.0001)      . . .
(PID.TID 0000.0001)                 2.000000000000000E+02,      /* I = 98 */
(PID.TID 0000.0001)                 2.000000000000000E+02,      /* I = 99 */
(PID.TID 0000.0001)                 2.000000000000000E+02,      /* I =100 */
(PID.TID 0000.0001)                 2.000000000000000E+02,      /* I =101 */
(PID.TID 0000.0001)                 2.000000000000000E+02,      /* I =102 */
(PID.TID 0000.0001)                 2.000000000000000E+02,      /* I =103 */
(PID.TID 0000.0001)      . . .
(PID.TID 0000.0001)                 3.612641354876311E+02,      /* I =148 */
(PID.TID 0000.0001)                 3.687955530665730E+02,      /* I =149 */
(PID.TID 0000.0001)                 3.764839811128614E+02,      /* I =150 */
(PID.TID 0000.0001)                 3.843326928863569E+02,      /* I =151 */
(PID.TID 0000.0001)                 3.923450298858749E+02,      /* I =152 */
(PID.TID 0000.0001)                 4.005244032717896E+02,      /* I =153 */
(PID.TID 0000.0001)      . . .
(PID.TID 0000.0001)                 1.013599012055986E+03,      /* I =198 */
(PID.TID 0000.0001)                 1.034729915092050E+03,      /* I =199 */
(PID.TID 0000.0001)                 1.056301342495056E+03       /* I =200 */
(PID.TID 0000.0001)     ;
(PID.TID 0000.0001) dxF =  /* dxF(1,:,1,:) ( units: m ) */
(PID.TID 0000.0001)                 1.263294638016668E+03       /* J =  1 */
(PID.TID 0000.0001)     ;
(PID.TID 0000.0001) dyF =  /* dyF(:,1,:,1) ( units: m ) */
(PID.TID 0000.0001)   200 @  5.000000000000000E+03              /* I =  1:200 */
(PID.TID 0000.0001)     ;
(PID.TID 0000.0001) dyF =  /* dyF(1,:,1,:) ( units: m ) */
(PID.TID 0000.0001)                 5.000000000000000E+03       /* J =  1 */
(PID.TID 0000.0001)     ;
(PID.TID 0000.0001) dxG =  /* dxG(:,1,:,1) ( units: m ) */
(PID.TID 0000.0001)                 1.263294638016668E+03,      /* I =  1 */
(PID.TID 0000.0001)                 1.237496063806571E+03,      /* I =  2 */
(PID.TID 0000.0001)                 1.212224339320398E+03,      /* I =  3 */
(PID.TID 0000.0001)      . . .
(PID.TID 0000.0001)                 4.790113490274632E+02,      /* I = 48 */
(PID.TID 0000.0001)                 4.692291418815790E+02,      /* I = 49 */
(PID.TID 0000.0001)                 4.596467036489769E+02,      /* I = 50 */
(PID.TID 0000.0001)                 4.502599547167311E+02,      /* I = 51 */
(PID.TID 0000.0001)                 4.410648987843862E+02,      /* I = 52 */
(PID.TID 0000.0001)                 4.320576211625778E+02,      /* I = 53 */
(PID.TID 0000.0001)      . . .
(PID.TID 0000.0001)                 2.000000000000000E+02,      /* I = 98 */
(PID.TID 0000.0001)                 2.000000000000000E+02,      /* I = 99 */
(PID.TID 0000.0001)                 2.000000000000000E+02,      /* I =100 */
(PID.TID 0000.0001)                 2.000000000000000E+02,      /* I =101 */
(PID.TID 0000.0001)                 2.000000000000000E+02,      /* I =102 */
(PID.TID 0000.0001)                 2.000000000000000E+02,      /* I =103 */
(PID.TID 0000.0001)      . . .
(PID.TID 0000.0001)                 3.612641354876311E+02,      /* I =148 */
(PID.TID 0000.0001)                 3.687955530665730E+02,      /* I =149 */
(PID.TID 0000.0001)                 3.764839811128614E+02,      /* I =150 */
(PID.TID 0000.0001)                 3.843326928863569E+02,      /* I =151 */
(PID.TID 0000.0001)                 3.923450298858749E+02,      /* I =152 */
(PID.TID 0000.0001)                 4.005244032717896E+02,      /* I =153 */
(PID.TID 0000.0001)      . . .
(PID.TID 0000.0001)                 1.013599012055986E+03,      /* I =198 */
(PID.TID 0000.0001)                 1.034729915092050E+03,      /* I =199 */
(PID.TID 0000.0001)                 1.056301342495056E+03       /* I =200 */
(PID.TID 0000.0001)     ;
(PID.TID 0000.0001) dxG =  /* dxG(1,:,1,:) ( units: m ) */
(PID.TID 0000.0001)                 1.263294638016668E+03       /* J =  1 */
(PID.TID 0000.0001)     ;
(PID.TID 0000.0001) dyG =  /* dyG(:,1,:,1) ( units: m ) */
(PID.TID 0000.0001)   200 @  5.000000000000000E+03              /* I =  1:200 */
(PID.TID 0000.0001)     ;
(PID.TID 0000.0001) dyG =  /* dyG(1,:,1,:) ( units: m ) */
(PID.TID 0000.0001)                 5.000000000000000E+03       /* J =  1 */
(PID.TID 0000.0001)     ;
(PID.TID 0000.0001) dxC =  /* dxC(:,1,:,1) ( units: m ) */
(PID.TID 0000.0001)                 1.159797990255862E+03,      /* I =  1 */
(PID.TID 0000.0001)                 1.250395350911620E+03,      /* I =  2 */
(PID.TID 0000.0001)                 1.224860201563485E+03,      /* I =  3 */
(PID.TID 0000.0001)      . . .
(PID.TID 0000.0001)                 4.840044193881684E+02,      /* I = 48 */
(PID.TID 0000.0001)                 4.741202454545211E+02,      /* I = 49 */
(PID.TID 0000.0001)                 4.644379227652780E+02,      /* I = 50 */
(PID.TID 0000.0001)                 4.549533291828540E+02,      /* I = 51 */
(PID.TID 0000.0001)                 4.456624267505587E+02,      /* I = 52 */
(PID.TID 0000.0001)                 4.365612599734820E+02,      /* I = 53 */
(PID.TID 0000.0001)      . . .
(PID.TID 0000.0001)                 2.000000000000000E+02,      /* I = 98 */
(PID.TID 0000.0001)                 2.000000000000000E+02,      /* I = 99 */
(PID.TID 0000.0001)                 2.000000000000000E+02,      /* I =100 */
(PID.TID 0000.0001)                 2.000000000000000E+02,      /* I =101 */
(PID.TID 0000.0001)                 2.000000000000000E+02,      /* I =102 */
(PID.TID 0000.0001)                 2.000000000000000E+02,      /* I =103 */
(PID.TID 0000.0001)      . . .
(PID.TID 0000.0001)                 3.575753287246037E+02,      /* I =148 */
(PID.TID 0000.0001)                 3.650298442771020E+02,      /* I =149 */
(PID.TID 0000.0001)                 3.726397670897172E+02,      /* I =150 */
(PID.TID 0000.0001)                 3.804083369996092E+02,      /* I =151 */
(PID.TID 0000.0001)                 3.883388613861159E+02,      /* I =152 */
(PID.TID 0000.0001)                 3.964347165788323E+02,      /* I =153 */
(PID.TID 0000.0001)      . . .
(PID.TID 0000.0001)                 1.003249324601893E+03,      /* I =198 */
(PID.TID 0000.0001)                 1.024164463574018E+03,      /* I =199 */
(PID.TID 0000.0001)                 1.045515628793553E+03       /* I =200 */
(PID.TID 0000.0001)     ;
(PID.TID 0000.0001) dxC =  /* dxC(1,:,1,:) ( units: m ) */
(PID.TID 0000.0001)                 1.159797990255862E+03       /* J =  1 */
(PID.TID 0000.0001)     ;
(PID.TID 0000.0001) dyC =  /* dyC(:,1,:,1) ( units: m ) */
(PID.TID 0000.0001)   200 @  5.000000000000000E+03              /* I =  1:200 */
(PID.TID 0000.0001)     ;
(PID.TID 0000.0001) dyC =  /* dyC(1,:,1,:) ( units: m ) */
(PID.TID 0000.0001)                 5.000000000000000E+03       /* J =  1 */
(PID.TID 0000.0001)     ;
(PID.TID 0000.0001) dxV =  /* dxV(:,1,:,1) ( units: m ) */
(PID.TID 0000.0001)                 1.159797990255862E+03,      /* I =  1 */
(PID.TID 0000.0001)                 1.250395350911620E+03,      /* I =  2 */
(PID.TID 0000.0001)                 1.224860201563485E+03,      /* I =  3 */
(PID.TID 0000.0001)      . . .
(PID.TID 0000.0001)                 4.840044193881684E+02,      /* I = 48 */
(PID.TID 0000.0001)                 4.741202454545211E+02,      /* I = 49 */
(PID.TID 0000.0001)                 4.644379227652780E+02,      /* I = 50 */
(PID.TID 0000.0001)                 4.549533291828540E+02,      /* I = 51 */
(PID.TID 0000.0001)                 4.456624267505587E+02,      /* I = 52 */
(PID.TID 0000.0001)                 4.365612599734820E+02,      /* I = 53 */
(PID.TID 0000.0001)      . . .
(PID.TID 0000.0001)                 2.000000000000000E+02,      /* I = 98 */
(PID.TID 0000.0001)                 2.000000000000000E+02,      /* I = 99 */
(PID.TID 0000.0001)                 2.000000000000000E+02,      /* I =100 */
(PID.TID 0000.0001)                 2.000000000000000E+02,      /* I =101 */
(PID.TID 0000.0001)                 2.000000000000000E+02,      /* I =102 */
(PID.TID 0000.0001)                 2.000000000000000E+02,      /* I =103 */
(PID.TID 0000.0001)      . . .
(PID.TID 0000.0001)                 3.575753287246037E+02,      /* I =148 */
(PID.TID 0000.0001)                 3.650298442771020E+02,      /* I =149 */
(PID.TID 0000.0001)                 3.726397670897172E+02,      /* I =150 */
(PID.TID 0000.0001)                 3.804083369996092E+02,      /* I =151 */
(PID.TID 0000.0001)                 3.883388613861159E+02,      /* I =152 */
(PID.TID 0000.0001)                 3.964347165788323E+02,      /* I =153 */
(PID.TID 0000.0001)      . . .
(PID.TID 0000.0001)                 1.003249324601893E+03,      /* I =198 */
(PID.TID 0000.0001)                 1.024164463574018E+03,      /* I =199 */
(PID.TID 0000.0001)                 1.045515628793553E+03       /* I =200 */
(PID.TID 0000.0001)     ;
(PID.TID 0000.0001) dxV =  /* dxV(1,:,1,:) ( units: m ) */
(PID.TID 0000.0001)                 1.159797990255862E+03       /* J =  1 */
(PID.TID 0000.0001)     ;
(PID.TID 0000.0001) dyU =  /* dyU(:,1,:,1) ( units: m ) */
(PID.TID 0000.0001)   200 @  5.000000000000000E+03              /* I =  1:200 */
(PID.TID 0000.0001)     ;
(PID.TID 0000.0001) dyU =  /* dyU(1,:,1,:) ( units: m ) */
(PID.TID 0000.0001)                 5.000000000000000E+03       /* J =  1 */
(PID.TID 0000.0001)     ;
(PID.TID 0000.0001) rA  =  /* rA (:,1,:,1) ( units: m^2 ) */
(PID.TID 0000.0001)                 6.316473190083342E+06,      /* I =  1 */
(PID.TID 0000.0001)                 6.187480319032855E+06,      /* I =  2 */
(PID.TID 0000.0001)                 6.061121696601991E+06,      /* I =  3 */
(PID.TID 0000.0001)      . . .
(PID.TID 0000.0001)                 2.395056745137316E+06,      /* I = 48 */
(PID.TID 0000.0001)                 2.346145709407895E+06,      /* I = 49 */
(PID.TID 0000.0001)                 2.298233518244884E+06,      /* I = 50 */
(PID.TID 0000.0001)                 2.251299773583656E+06,      /* I = 51 */
(PID.TID 0000.0001)                 2.205324493921931E+06,      /* I = 52 */
(PID.TID 0000.0001)                 2.160288105812889E+06,      /* I = 53 */
(PID.TID 0000.0001)      . . .
(PID.TID 0000.0001)                 1.000000000000000E+06,      /* I = 98 */
(PID.TID 0000.0001)                 1.000000000000000E+06,      /* I = 99 */
(PID.TID 0000.0001)                 1.000000000000000E+06,      /* I =100 */
(PID.TID 0000.0001)                 1.000000000000000E+06,      /* I =101 */
(PID.TID 0000.0001)                 1.000000000000000E+06,      /* I =102 */
(PID.TID 0000.0001)                 1.000000000000000E+06,      /* I =103 */
(PID.TID 0000.0001)      . . .
(PID.TID 0000.0001)                 1.806320677438155E+06,      /* I =148 */
(PID.TID 0000.0001)                 1.843977765332865E+06,      /* I =149 */
(PID.TID 0000.0001)                 1.882419905564307E+06,      /* I =150 */
(PID.TID 0000.0001)                 1.921663464431785E+06,      /* I =151 */
(PID.TID 0000.0001)                 1.961725149429375E+06,      /* I =152 */
(PID.TID 0000.0001)                 2.002622016358948E+06,      /* I =153 */
(PID.TID 0000.0001)      . . .
(PID.TID 0000.0001)                 5.067995060279928E+06,      /* I =198 */
(PID.TID 0000.0001)                 5.173649575460250E+06,      /* I =199 */
(PID.TID 0000.0001)                 5.281506712475282E+06       /* I =200 */
(PID.TID 0000.0001)     ;
(PID.TID 0000.0001) rA  =  /* rA (1,:,1,:) ( units: m^2 ) */
(PID.TID 0000.0001)                 6.316473190083342E+06       /* J =  1 */
(PID.TID 0000.0001)     ;
(PID.TID 0000.0001) rAw =  /* rAw(:,1,:,1) ( units: m^2 ) */
(PID.TID 0000.0001)                 5.798989951279311E+06,      /* I =  1 */
(PID.TID 0000.0001)                 6.251976754558099E+06,      /* I =  2 */
(PID.TID 0000.0001)                 6.124301007817423E+06,      /* I =  3 */
(PID.TID 0000.0001)      . . .
(PID.TID 0000.0001)                 2.420022096940842E+06,      /* I = 48 */
(PID.TID 0000.0001)                 2.370601227272606E+06,      /* I = 49 */
(PID.TID 0000.0001)                 2.322189613826390E+06,      /* I = 50 */
(PID.TID 0000.0001)                 2.274766645914270E+06,      /* I = 51 */
(PID.TID 0000.0001)                 2.228312133752794E+06,      /* I = 52 */
(PID.TID 0000.0001)                 2.182806299867410E+06,      /* I = 53 */
(PID.TID 0000.0001)      . . .
(PID.TID 0000.0001)                 1.000000000000000E+06,      /* I = 98 */
(PID.TID 0000.0001)                 1.000000000000000E+06,      /* I = 99 */
(PID.TID 0000.0001)                 1.000000000000000E+06,      /* I =100 */
(PID.TID 0000.0001)                 1.000000000000000E+06,      /* I =101 */
(PID.TID 0000.0001)                 1.000000000000000E+06,      /* I =102 */
(PID.TID 0000.0001)                 1.000000000000000E+06,      /* I =103 */
(PID.TID 0000.0001)      . . .
(PID.TID 0000.0001)                 1.787876643623018E+06,      /* I =148 */
(PID.TID 0000.0001)                 1.825149221385510E+06,      /* I =149 */
(PID.TID 0000.0001)                 1.863198835448586E+06,      /* I =150 */
(PID.TID 0000.0001)                 1.902041684998046E+06,      /* I =151 */
(PID.TID 0000.0001)                 1.941694306930580E+06,      /* I =152 */
(PID.TID 0000.0001)                 1.982173582894161E+06,      /* I =153 */
(PID.TID 0000.0001)      . . .
(PID.TID 0000.0001)                 5.016246623009465E+06,      /* I =198 */
(PID.TID 0000.0001)                 5.120822317870088E+06,      /* I =199 */
(PID.TID 0000.0001)                 5.227578143967765E+06       /* I =200 */
(PID.TID 0000.0001)     ;
(PID.TID 0000.0001) rAw =  /* rAw(1,:,1,:) ( units: m^2 ) */
(PID.TID 0000.0001)                 5.798989951279311E+06       /* J =  1 */
(PID.TID 0000.0001)     ;
(PID.TID 0000.0001) rAs =  /* rAs(:,1,:,1) ( units: m^2 ) */
(PID.TID 0000.0001)                 6.316473190083342E+06,      /* I =  1 */
(PID.TID 0000.0001)                 6.187480319032855E+06,      /* I =  2 */
(PID.TID 0000.0001)                 6.061121696601991E+06,      /* I =  3 */
(PID.TID 0000.0001)      . . .
(PID.TID 0000.0001)                 2.395056745137316E+06,      /* I = 48 */
(PID.TID 0000.0001)                 2.346145709407895E+06,      /* I = 49 */
(PID.TID 0000.0001)                 2.298233518244884E+06,      /* I = 50 */
(PID.TID 0000.0001)                 2.251299773583656E+06,      /* I = 51 */
(PID.TID 0000.0001)                 2.205324493921931E+06,      /* I = 52 */
(PID.TID 0000.0001)                 2.160288105812889E+06,      /* I = 53 */
(PID.TID 0000.0001)      . . .
(PID.TID 0000.0001)                 1.000000000000000E+06,      /* I = 98 */
(PID.TID 0000.0001)                 1.000000000000000E+06,      /* I = 99 */
(PID.TID 0000.0001)                 1.000000000000000E+06,      /* I =100 */
(PID.TID 0000.0001)                 1.000000000000000E+06,      /* I =101 */
(PID.TID 0000.0001)                 1.000000000000000E+06,      /* I =102 */
(PID.TID 0000.0001)                 1.000000000000000E+06,      /* I =103 */
(PID.TID 0000.0001)      . . .
(PID.TID 0000.0001)                 1.806320677438155E+06,      /* I =148 */
(PID.TID 0000.0001)                 1.843977765332865E+06,      /* I =149 */
(PID.TID 0000.0001)                 1.882419905564307E+06,      /* I =150 */
(PID.TID 0000.0001)                 1.921663464431785E+06,      /* I =151 */
(PID.TID 0000.0001)                 1.961725149429375E+06,      /* I =152 */
(PID.TID 0000.0001)                 2.002622016358948E+06,      /* I =153 */
(PID.TID 0000.0001)      . . .
(PID.TID 0000.0001)                 5.067995060279928E+06,      /* I =198 */
(PID.TID 0000.0001)                 5.173649575460250E+06,      /* I =199 */
(PID.TID 0000.0001)                 5.281506712475282E+06       /* I =200 */
(PID.TID 0000.0001)     ;
(PID.TID 0000.0001) rAs =  /* rAs(1,:,1,:) ( units: m^2 ) */
(PID.TID 0000.0001)                 6.316473190083342E+06       /* J =  1 */
(PID.TID 0000.0001)     ;
(PID.TID 0000.0001) globalArea = /* Integrated horizontal Area (m^2) */
(PID.TID 0000.0001)                 4.884020200974414E+08
(PID.TID 0000.0001)     ;
(PID.TID 0000.0001) // =======================================================
(PID.TID 0000.0001) // End of Model config. summary
(PID.TID 0000.0001) // =======================================================
(PID.TID 0000.0001) 
(PID.TID 0000.0001) == Packages configuration : Check & print summary ==
(PID.TID 0000.0001) 
(PID.TID 0000.0001) OBCS_CHECK: #define ALLOW_OBCS
(PID.TID 0000.0001) OBCS_CHECK: start summary:
(PID.TID 0000.0001) useOBCSprescribe = /* prescribe OB values */
(PID.TID 0000.0001)                   T
(PID.TID 0000.0001)     ;
(PID.TID 0000.0001) useOBCSbalance = /* balance the flow through OB */
(PID.TID 0000.0001)                   F
(PID.TID 0000.0001)     ;
(PID.TID 0000.0001) OBCS_uvApplyFac = /* Factor to apply to U,V 2nd column/row */
(PID.TID 0000.0001)                 1.000000000000000E+00
(PID.TID 0000.0001)     ;
(PID.TID 0000.0001) OBCS_u1_adv_T = /* Temp uses upwind adv-scheme @ OB */
(PID.TID 0000.0001)                       0
(PID.TID 0000.0001)     ;
(PID.TID 0000.0001) OBCS_u1_adv_S = /* Salt uses upwind adv-scheme @ OB */
(PID.TID 0000.0001)                       0
(PID.TID 0000.0001)     ;
(PID.TID 0000.0001) OBCS_monitorFreq = /* monitor output frequency [s] */
(PID.TID 0000.0001)                 7.200000000000000E+03
(PID.TID 0000.0001)     ;
(PID.TID 0000.0001) OBCS_monSelect = /* select group of variables to monitor */
(PID.TID 0000.0001)                       0
(PID.TID 0000.0001)     ;
(PID.TID 0000.0001) useOBCStides = /* apply tidal forcing through OB */
(PID.TID 0000.0001)                   F
(PID.TID 0000.0001)     ;
(PID.TID 0000.0001) tidalPeriod = /* (s) */
(PID.TID 0000.0001)    10 @  0.000000000000000E+00              /* I =  1: 10 */
(PID.TID 0000.0001)     ;
(PID.TID 0000.0001) OB_indexNone = /* null value for OB index (i.e. no OB) */
(PID.TID 0000.0001)                     -99
(PID.TID 0000.0001)     ;
(PID.TID 0000.0001) ======== Tile bi=   1 , bj=   1 ========
(PID.TID 0000.0001)  OB_Jn = /* Northern OB local indices */
(PID.TID 0000.0001)   204 @      -99                            /* I = -1:202 */
(PID.TID 0000.0001)  OB_Js = /* Southern OB local indices */
(PID.TID 0000.0001)   204 @      -99                            /* I = -1:202 */
(PID.TID 0000.0001)  OB_Ie = /* Eastern OB local indices */
(PID.TID 0000.0001)     5 @      200                            /* J = -1:  3 */
(PID.TID 0000.0001)  OB_Iw = /* Western OB local indices */
(PID.TID 0000.0001)     5 @        1                            /* J = -1:  3 */
(PID.TID 0000.0001) OBCS_CHECK: end summary.
(PID.TID 0000.0001) OBCS_CHECK: set-up OK
(PID.TID 0000.0001) OBCS_CHECK: check Inside Mask and OB locations: OK
(PID.TID 0000.0001) KL10_CHECK: #define ALLOW_KL10
(PID.TID 0000.0001) GAD_CHECK: #define ALLOW_GENERIC_ADVDIFF
(PID.TID 0000.0001) // =======================================================
(PID.TID 0000.0001) // Check Model config. (CONFIG_CHECK):
(PID.TID 0000.0001) // CONFIG_CHECK : Normal End
(PID.TID 0000.0001) // =======================================================
(PID.TID 0000.0001) 
(PID.TID 0000.0001)  MDS_READ_FIELD: opening global file: U0.bin
(PID.TID 0000.0001)  MDS_READ_FIELD: opening global file: T0.bin
(PID.TID 0000.0001) Start initial hydrostatic pressure computation
(PID.TID 0000.0001) Pressure is predetermined for buoyancyRelation OCEANIC
(PID.TID 0000.0001) 
(PID.TID 0000.0001)  OBCS_FIELDS_LOAD: Reading initial data:         0  0.000000000000E+00
(PID.TID 0000.0001)  MDS_READ_SEC_YZ: opening global file: U_in.bin
(PID.TID 0000.0001)  MDS_READ_SEC_YZ: opening global file: TE.bin
(PID.TID 0000.0001)  MDS_READ_SEC_YZ: opening global file: U_in.bin
(PID.TID 0000.0001)  MDS_READ_SEC_YZ: opening global file: TW.bin
(PID.TID 0000.0001) // =======================================================
(PID.TID 0000.0001) // Model current state
(PID.TID 0000.0001) // =======================================================
(PID.TID 0000.0001) 
(PID.TID 0000.0001) // =======================================================
(PID.TID 0000.0001) // Begin MONITOR dynamic field statistics
(PID.TID 0000.0001) // =======================================================
(PID.TID 0000.0001) %MON time_tsnumber                =                     0
(PID.TID 0000.0001) %MON time_secondsf                =   0.0000000000000E+00
(PID.TID 0000.0001) %MON dynstat_eta_max              =   0.0000000000000E+00
(PID.TID 0000.0001) %MON dynstat_eta_min              =   0.0000000000000E+00
(PID.TID 0000.0001) %MON dynstat_eta_mean             =   0.0000000000000E+00
(PID.TID 0000.0001) %MON dynstat_eta_sd               =   0.0000000000000E+00
(PID.TID 0000.0001) %MON dynstat_eta_del2             =   0.0000000000000E+00
(PID.TID 0000.0001) %MON dynstat_uvel_max             =   2.8014282071829E-01
(PID.TID 0000.0001) %MON dynstat_uvel_min             =   2.8014282071829E-01
(PID.TID 0000.0001) %MON dynstat_uvel_mean            =   2.8014282071829E-01
(PID.TID 0000.0001) %MON dynstat_uvel_sd              =   1.4432899320127E-15
(PID.TID 0000.0001) %MON dynstat_uvel_del2            =   0.0000000000000E+00
(PID.TID 0000.0001) %MON dynstat_vvel_max             =   0.0000000000000E+00
(PID.TID 0000.0001) %MON dynstat_vvel_min             =   0.0000000000000E+00
(PID.TID 0000.0001) %MON dynstat_vvel_mean            =   0.0000000000000E+00
(PID.TID 0000.0001) %MON dynstat_vvel_sd              =   0.0000000000000E+00
(PID.TID 0000.0001) %MON dynstat_vvel_del2            =   0.0000000000000E+00
(PID.TID 0000.0001) %MON dynstat_wvel_max             =   6.7909466777508E-03
(PID.TID 0000.0001) %MON dynstat_wvel_min             =  -6.7909466777508E-03
(PID.TID 0000.0001) %MON dynstat_wvel_mean            =   6.2474430614490E-21
(PID.TID 0000.0001) %MON dynstat_wvel_sd              =   1.3285247267285E-03
(PID.TID 0000.0001) %MON dynstat_wvel_del2            =   1.5340537195260E-06
(PID.TID 0000.0001) %MON dynstat_theta_max            =   1.5000000000000E+01
(PID.TID 0000.0001) %MON dynstat_theta_min            =   1.0000000000000E+01
(PID.TID 0000.0001) %MON dynstat_theta_mean           =   1.2553509093028E+01
(PID.TID 0000.0001) %MON dynstat_theta_sd             =   2.4855893860686E+00
(PID.TID 0000.0001) %MON dynstat_theta_del2           =   0.0000000000000E+00
(PID.TID 0000.0001) %MON dynstat_salt_max             =   3.5000000000000E+01
(PID.TID 0000.0001) %MON dynstat_salt_min             =   3.5000000000000E+01
(PID.TID 0000.0001) %MON dynstat_salt_mean            =   3.5000000000000E+01
(PID.TID 0000.0001) %MON dynstat_salt_sd              =   3.1974423109205E-13
(PID.TID 0000.0001) %MON dynstat_salt_del2            =   0.0000000000000E+00
(PID.TID 0000.0001) %MON dynstat_sst_max              =   1.5000000000000E+01
(PID.TID 0000.0001) %MON dynstat_sst_min              =   1.5000000000000E+01
(PID.TID 0000.0001) %MON dynstat_sst_mean             =   1.5000000000000E+01
(PID.TID 0000.0001) %MON dynstat_sst_sd               =   5.3290705182008E-15
(PID.TID 0000.0001) %MON dynstat_sst_del2             =   0.0000000000000E+00
(PID.TID 0000.0001) %MON dynstat_sss_max              =   3.5000000000000E+01
(PID.TID 0000.0001) %MON dynstat_sss_min              =   3.5000000000000E+01
(PID.TID 0000.0001) %MON dynstat_sss_mean             =   3.5000000000000E+01
(PID.TID 0000.0001) %MON dynstat_sss_sd               =   5.6843418860808E-14
(PID.TID 0000.0001) %MON dynstat_sss_del2             =   0.0000000000000E+00
(PID.TID 0000.0001) %MON forcing_qnet_max             =   0.0000000000000E+00
(PID.TID 0000.0001) %MON forcing_qnet_min             =   0.0000000000000E+00
(PID.TID 0000.0001) %MON forcing_qnet_mean            =   0.0000000000000E+00
(PID.TID 0000.0001) %MON forcing_qnet_sd              =   0.0000000000000E+00
(PID.TID 0000.0001) %MON forcing_qnet_del2            =   0.0000000000000E+00
(PID.TID 0000.0001) %MON forcing_qsw_max              =   0.0000000000000E+00
(PID.TID 0000.0001) %MON forcing_qsw_min              =   0.0000000000000E+00
(PID.TID 0000.0001) %MON forcing_qsw_mean             =   0.0000000000000E+00
(PID.TID 0000.0001) %MON forcing_qsw_sd               =   0.0000000000000E+00
(PID.TID 0000.0001) %MON forcing_qsw_del2             =   0.0000000000000E+00
(PID.TID 0000.0001) %MON forcing_empmr_max            =   0.0000000000000E+00
(PID.TID 0000.0001) %MON forcing_empmr_min            =   0.0000000000000E+00
(PID.TID 0000.0001) %MON forcing_empmr_mean           =   0.0000000000000E+00
(PID.TID 0000.0001) %MON forcing_empmr_sd             =   0.0000000000000E+00
(PID.TID 0000.0001) %MON forcing_empmr_del2           =   0.0000000000000E+00
(PID.TID 0000.0001) %MON forcing_fu_max               =   0.0000000000000E+00
(PID.TID 0000.0001) %MON forcing_fu_min               =   0.0000000000000E+00
(PID.TID 0000.0001) %MON forcing_fu_mean              =   0.0000000000000E+00
(PID.TID 0000.0001) %MON forcing_fu_sd                =   0.0000000000000E+00
(PID.TID 0000.0001) %MON forcing_fu_del2              =   0.0000000000000E+00
(PID.TID 0000.0001) %MON forcing_fv_max               =   0.0000000000000E+00
(PID.TID 0000.0001) %MON forcing_fv_min               =   0.0000000000000E+00
(PID.TID 0000.0001) %MON forcing_fv_mean              =   0.0000000000000E+00
(PID.TID 0000.0001) %MON forcing_fv_sd                =   0.0000000000000E+00
(PID.TID 0000.0001) %MON forcing_fv_del2              =   0.0000000000000E+00
(PID.TID 0000.0001) %MON advcfl_uvel_max              =   2.1010711553872E-02
(PID.TID 0000.0001) %MON advcfl_vvel_max              =   0.0000000000000E+00
(PID.TID 0000.0001) %MON advcfl_wvel_max              =   1.0186420016626E-01
(PID.TID 0000.0001) %MON advcfl_W_hf_max              =   1.0186420016626E-01
(PID.TID 0000.0001) %MON pe_b_mean                    =   0.0000000000000E+00
(PID.TID 0000.0001) %MON ke_max                       =   3.9513026872916E-02
(PID.TID 0000.0001) %MON ke_mean                      =   3.9210184658856E-02
(PID.TID 0000.0001) %MON ke_vol                       =   9.5633499295324E+10
(PID.TID 0000.0001) %MON vort_r_min                   =   0.0000000000000E+00
(PID.TID 0000.0001) %MON vort_r_max                   =   0.0000000000000E+00
(PID.TID 0000.0001) %MON vort_a_mean                  =   0.0000000000000E+00
(PID.TID 0000.0001) %MON vort_a_sd                    =   0.0000000000000E+00
(PID.TID 0000.0001) %MON vort_p_mean                  =   0.0000000000000E+00
(PID.TID 0000.0001) %MON vort_p_sd                    =   0.0000000000000E+00
(PID.TID 0000.0001) %MON surfExpan_theta_mean         =   4.8389863526773E-19
(PID.TID 0000.0001) %MON surfExpan_salt_mean          =   1.4674012054325E-18
(PID.TID 0000.0001) // =======================================================
(PID.TID 0000.0001) // End MONITOR dynamic field statistics
(PID.TID 0000.0001) // =======================================================
(PID.TID 0000.0001) // =======================================================
(PID.TID 0000.0001) // Begin OBCS MONITOR field statistics
(PID.TID 0000.0001) // =======================================================
(PID.TID 0000.0001) %MON obc_E_uVel_max               =   2.8014282071829E-01
(PID.TID 0000.0001) %MON obc_E_uVel_min               =   2.8014282071829E-01
(PID.TID 0000.0001) %MON obc_E_uVel_mean              =   2.8014282071829E-01
(PID.TID 0000.0001) %MON obc_E_uVel_sd                =   3.7252902984619E-09
(PID.TID 0000.0001) %MON obc_E_uVel_Int               =   2.8014282071829E+05
(PID.TID 0000.0001) %MON obc_W_uVel_max               =   2.8014282071829E-01
(PID.TID 0000.0001) %MON obc_W_uVel_min               =   2.8014282071829E-01
(PID.TID 0000.0001) %MON obc_W_uVel_mean              =   2.8014282071829E-01
(PID.TID 0000.0001) %MON obc_W_uVel_sd                =   3.7252902984619E-09
(PID.TID 0000.0001) %MON obc_W_uVel_Int               =   2.8014282071829E+05
(PID.TID 0000.0001) // =======================================================
(PID.TID 0000.0001) // End OBCS MONITOR field statistics
(PID.TID 0000.0001) // =======================================================
(PID.TID 0000.0001) SOLVE_FOR_PRESSURE: putPmEinXvector =    F
 cg2d: Sum(rhs),rhsMax =   2.60165317668523E-15  9.82954523426898E-02
 cg2d: Sum(rhs),rhsMax =   3.92627119931631E-14  1.71083130085927E-01
 cg2d: Sum(rhs),rhsMax =   6.12178222049361E-14  2.19226593105938E-01
 cg2d: Sum(rhs),rhsMax =   5.24302984318592E-14  2.49495298958068E-01
 cg2d: Sum(rhs),rhsMax =   1.78970462733164E-13  2.67357959344604E-01
 cg2d: Sum(rhs),rhsMax =   4.49377742774306E-14  2.79450807843669E-01
 cg2d: Sum(rhs),rhsMax =   4.20923737870213E-14  2.88652265075144E-01
 cg2d: Sum(rhs),rhsMax =   1.40965792650805E-13  2.96736266116891E-01
 cg2d: Sum(rhs),rhsMax =   1.76730579861473E-13  3.04981280240265E-01
 cg2d: Sum(rhs),rhsMax =   2.29453208335334E-13  3.12837961951655E-01
 cg2d: Sum(rhs),rhsMax =   2.93836460206662E-13  3.20533853457951E-01
 cg2d: Sum(rhs),rhsMax =   3.37870329544459E-13  3.28127379848862E-01
 cg2d: Sum(rhs),rhsMax =   2.10352099351359E-13  3.35682084976002E-01
 cg2d: Sum(rhs),rhsMax =   1.04506194327352E-13  3.43211119430663E-01
 cg2d: Sum(rhs),rhsMax =   4.96914253772408E-14  3.50672663223130E-01
 cg2d: Sum(rhs),rhsMax =  -4.74729297272306E-14  3.57963712163739E-01
 cg2d: Sum(rhs),rhsMax =  -9.25648116901596E-14  3.64914335501489E-01
 cg2d: Sum(rhs),rhsMax =  -1.47506389247973E-13  3.71695644732883E-01
 cg2d: Sum(rhs),rhsMax =  -5.90507708858071E-14  3.78939837237979E-01
 cg2d: Sum(rhs),rhsMax =  -1.47248195407676E-13  3.85340610741759E-01
 cg2d: Sum(rhs),rhsMax =  -2.51935206142829E-13  3.92372551905436E-01
 cg2d: Sum(rhs),rhsMax =  -1.72585546539580E-13  3.98587165628861E-01
 cg2d: Sum(rhs),rhsMax =  -6.77449718843022E-14  4.05506430851115E-01
 cg2d: Sum(rhs),rhsMax =   1.48282524313315E-14  4.11388034871028E-01
 cg2d: Sum(rhs),rhsMax =   1.28062544821279E-13  4.18134599627602E-01
 cg2d: Sum(rhs),rhsMax =   2.54849208519851E-13  4.24486173908745E-01
 cg2d: Sum(rhs),rhsMax =   3.02155738479009E-13  4.30192477820713E-01
 cg2d: Sum(rhs),rhsMax =   3.08184220618901E-13  4.36399916994904E-01
 cg2d: Sum(rhs),rhsMax =   3.60806150513887E-13  4.42797785356768E-01
 cg2d: Sum(rhs),rhsMax =   3.82434010268206E-13  4.48808361623994E-01
 cg2d: Sum(rhs),rhsMax =   4.42540901385118E-13  4.54526120490223E-01
 cg2d: Sum(rhs),rhsMax =   5.89736389605168E-13  4.60035548524475E-01
 cg2d: Sum(rhs),rhsMax =   6.90506395009498E-13  4.65410697789787E-01
 cg2d: Sum(rhs),rhsMax =   8.02448900513383E-13  4.71271073186855E-01
 cg2d: Sum(rhs),rhsMax =   8.87051716802478E-13  4.77129465005152E-01
 cg2d: Sum(rhs),rhsMax =   9.70752016098142E-13  4.82844288645734E-01
 cg2d: Sum(rhs),rhsMax =   1.04672759175528E-12  4.88436465822541E-01
 cg2d: Sum(rhs),rhsMax =   1.10987109259997E-12  4.93915322319144E-01
 cg2d: Sum(rhs),rhsMax =   1.14751307414562E-12  4.99278319913288E-01
 cg2d: Sum(rhs),rhsMax =   1.22775400956954E-12  5.04510795575750E-01
 cg2d: Sum(rhs),rhsMax =   1.26742453337991E-12  5.09585710584098E-01
 cg2d: Sum(rhs),rhsMax =   1.30832844558171E-12  5.14554364212360E-01
 cg2d: Sum(rhs),rhsMax =   1.38270297989074E-12  5.20232372820847E-01
 cg2d: Sum(rhs),rhsMax =   1.43913006511731E-12  5.25848342606915E-01
 cg2d: Sum(rhs),rhsMax =   1.54017076869906E-12  5.31334748380864E-01
 cg2d: Sum(rhs),rhsMax =   1.62932861647036E-12  5.36610214969790E-01
 cg2d: Sum(rhs),rhsMax =   1.72392655706233E-12  5.41579345635114E-01
 cg2d: Sum(rhs),rhsMax =   1.82900916634310E-12  5.46132774390249E-01
 cg2d: Sum(rhs),rhsMax =   1.90472637662253E-12  5.50147557480454E-01
 cg2d: Sum(rhs),rhsMax =   1.95096716559817E-12  5.56040628121732E-01
 cg2d: Sum(rhs),rhsMax =   1.97836191873080E-12  5.61548855717157E-01
 cg2d: Sum(rhs),rhsMax =   1.92945659449606E-12  5.66405829538714E-01
 cg2d: Sum(rhs),rhsMax =   1.96359595250328E-12  5.70444116697259E-01
 cg2d: Sum(rhs),rhsMax =   1.98463467881993E-12  5.75051998617237E-01
 cg2d: Sum(rhs),rhsMax =   1.97331040396875E-12  5.80889233658441E-01
 cg2d: Sum(rhs),rhsMax =   2.01227923213310E-12  5.85729814102747E-01
 cg2d: Sum(rhs),rhsMax =   1.94722016289006E-12  5.91508949844155E-01
 cg2d: Sum(rhs),rhsMax =   1.95765625932154E-12  6.11205875471499E-01
 cg2d: Sum(rhs),rhsMax =   1.96254124062989E-12  6.38627436554587E-01
 cg2d: Sum(rhs),rhsMax =   1.90558679946662E-12  6.76957795192200E-01
 cg2d: Sum(rhs),rhsMax =   1.77635683940025E-12  7.33336993094645E-01
 cg2d: Sum(rhs),rhsMax =   1.60427227058335E-12  8.06853972036756E-01
 cg2d: Sum(rhs),rhsMax =   1.50490730987940E-12  8.81481109918418E-01
 cg2d: Sum(rhs),rhsMax =   1.42463818519900E-12  9.50589236489219E-01
 cg2d: Sum(rhs),rhsMax =   1.32127642160640E-12  1.01217904653093E+00
 cg2d: Sum(rhs),rhsMax =   1.25066623724024E-12  1.06445971577229E+00
 cg2d: Sum(rhs),rhsMax =   1.21436194433500E-12  1.10594155354357E+00
 cg2d: Sum(rhs),rhsMax =   1.17494902696080E-12  1.13551073271643E+00
 cg2d: Sum(rhs),rhsMax =   1.26743060491208E-12  1.15248078160281E+00
 cg2d: Sum(rhs),rhsMax =   1.27431398766475E-12  1.15661758360224E+00
 cg2d: Sum(rhs),rhsMax =   1.29729560427450E-12  1.14813693648046E+00
 cg2d: Sum(rhs),rhsMax =   1.38034028651646E-12  1.12767601949569E+00
 cg2d: Sum(rhs),rhsMax =   1.51101353651484E-12  1.09624216180003E+00
 cg2d: Sum(rhs),rhsMax =   1.68953739887456E-12  1.05514390885329E+00
 cg2d: Sum(rhs),rhsMax =   1.89182003396127E-12  1.00591040715890E+00
 cg2d: Sum(rhs),rhsMax =   1.95543581327229E-12  1.02802130132255E+00
 cg2d: Sum(rhs),rhsMax =   1.90947258005281E-12  1.09392266219678E+00
 cg2d: Sum(rhs),rhsMax =   1.82021064887294E-12  1.15194314898492E+00
 cg2d: Sum(rhs),rhsMax =   1.73361325295218E-12  1.20065793484320E+00
 cg2d: Sum(rhs),rhsMax =   1.65212288294470E-12  1.23890270998522E+00
 cg2d: Sum(rhs),rhsMax =   1.60083057920701E-12  1.26582299514442E+00
 cg2d: Sum(rhs),rhsMax =   1.74471548319843E-12  1.28090728852559E+00
 cg2d: Sum(rhs),rhsMax =   1.59927626697254E-12  1.28400228273157E+00
 cg2d: Sum(rhs),rhsMax =   1.43574041544525E-12  1.27530971126820E+00
 cg2d: Sum(rhs),rhsMax =   1.36729516597711E-12  1.25536569295117E+00
 cg2d: Sum(rhs),rhsMax =   1.30279120824639E-12  1.22500461939974E+00
 cg2d: Sum(rhs),rhsMax =   1.25743859769045E-12  1.18531057869385E+00
 cg2d: Sum(rhs),rhsMax =   1.21269660979806E-12  1.13755995320544E+00
 cg2d: Sum(rhs),rhsMax =   1.19018683797378E-12  1.08315916260775E+00
 cg2d: Sum(rhs),rhsMax =   1.19676490939469E-12  1.02358152767264E+00
 cg2d: Sum(rhs),rhsMax =   1.22329923968323E-12  9.60306881831829E-01
 cg2d: Sum(rhs),rhsMax =   1.23567822640780E-12  8.94766993367283E-01
 cg2d: Sum(rhs),rhsMax =   1.23032140031398E-12  8.28299182448341E-01
 cg2d: Sum(rhs),rhsMax =   1.21680443498917E-12  7.62109801467655E-01
 cg2d: Sum(rhs),rhsMax =   1.26945676193202E-12  6.97248206518197E-01
 cg2d: Sum(rhs),rhsMax =   1.29199428933191E-12  6.34591224960962E-01
 cg2d: Sum(rhs),rhsMax =   1.34445232724545E-12  5.74837468524631E-01
 cg2d: Sum(rhs),rhsMax =   1.34955935315872E-12  5.18510307940170E-01
 cg2d: Sum(rhs),rhsMax =   1.34842137455848E-12  4.93277069840706E-01
 cg2d: Sum(rhs),rhsMax =   1.28932975407281E-12  4.80428852433869E-01
 cg2d: Sum(rhs),rhsMax =   1.18476062294093E-12  4.69949183860493E-01
 cg2d: Sum(rhs),rhsMax =   1.21573584532797E-12  4.61202745235133E-01
 cg2d: Sum(rhs),rhsMax =   1.20579934925757E-12  4.51798725757019E-01
 cg2d: Sum(rhs),rhsMax =   1.14332154854679E-12  4.44028850710859E-01
 cg2d: Sum(rhs),rhsMax =   1.13774267784805E-12  4.36132014371739E-01
 cg2d: Sum(rhs),rhsMax =   1.15259191080241E-12  4.27771640496101E-01
 cg2d: Sum(rhs),rhsMax =   1.14490361635688E-12  4.20524477240480E-01
 cg2d: Sum(rhs),rhsMax =   1.12959641640487E-12  4.13195328277932E-01
 cg2d: Sum(rhs),rhsMax =   1.10301351385900E-12  4.05434348519599E-01
 cg2d: Sum(rhs),rhsMax =   1.09181413909809E-12  3.98240379482632E-01
 cg2d: Sum(rhs),rhsMax =   1.07498038248721E-12  3.91296489640179E-01
 cg2d: Sum(rhs),rhsMax =   1.02607505825247E-12  3.84007417065724E-01
 cg2d: Sum(rhs),rhsMax =   1.01045560807478E-12  3.76583549371581E-01
 cg2d: Sum(rhs),rhsMax =   9.85794779140292E-13  3.69975596620070E-01
 cg2d: Sum(rhs),rhsMax =   1.02064190432571E-12  3.63102181460435E-01
 cg2d: Sum(rhs),rhsMax =   9.24302301363866E-13  3.56041831061017E-01
 cg2d: Sum(rhs),rhsMax =   8.50472470226293E-13  3.48972292839852E-01
 cg2d: Sum(rhs),rhsMax =   7.50934037174744E-13  3.42465256999442E-01
 cg2d: Sum(rhs),rhsMax =   6.43887720919167E-13  3.35812824864070E-01
 cg2d: Sum(rhs),rhsMax =   5.98444904742479E-13  3.29065342033182E-01
 cg2d: Sum(rhs),rhsMax =   6.34145513878082E-13  3.22263617757758E-01
 cg2d: Sum(rhs),rhsMax =   6.51811937757429E-13  3.15579194345922E-01
 cg2d: Sum(rhs),rhsMax =   5.05345765233756E-13  3.09168961017725E-01
 cg2d: Sum(rhs),rhsMax =   5.06233943653456E-13  3.02696810179610E-01
 cg2d: Sum(rhs),rhsMax =   5.41074129944974E-13  2.96179557744219E-01
 cg2d: Sum(rhs),rhsMax =   5.71785674363667E-13  2.89624449438654E-01
 cg2d: Sum(rhs),rhsMax =   6.22800422345193E-13  2.83028487475131E-01
 cg2d: Sum(rhs),rhsMax =   6.29434004917329E-13  2.76377468985456E-01
 cg2d: Sum(rhs),rhsMax =   6.72781275135037E-13  2.69778718129101E-01
 cg2d: Sum(rhs),rhsMax =   7.60599916382887E-13  2.63131218894719E-01
 cg2d: Sum(rhs),rhsMax =   8.61290205822485E-13  2.56295200662643E-01
 cg2d: Sum(rhs),rhsMax =   9.70168390068693E-13  2.49210893672354E-01
 cg2d: Sum(rhs),rhsMax =   1.08719977465199E-12  2.41802772197991E-01
 cg2d: Sum(rhs),rhsMax =   1.20918552948268E-12  2.33980491713851E-01
 cg2d: Sum(rhs),rhsMax =   1.30953581312099E-12  2.25769296711504E-01
 cg2d: Sum(rhs),rhsMax =   1.47634682257092E-12  2.17123773310714E-01
 cg2d: Sum(rhs),rhsMax =   1.64925018086848E-12  2.07756681662134E-01
 cg2d: Sum(rhs),rhsMax =   1.80733206178729E-12  1.97612792458882E-01
 cg2d: Sum(rhs),rhsMax =   1.98610572432756E-12  1.86917605349627E-01
 cg2d: Sum(rhs),rhsMax =   2.19062268325132E-12  1.75221554146225E-01
 cg2d: Sum(rhs),rhsMax =   2.40553410524313E-12  1.62880498067993E-01
 cg2d: Sum(rhs),rhsMax =   2.67694200140056E-12  1.49528276994622E-01
 cg2d: Sum(rhs),rhsMax =   2.98960856071062E-12  1.35579703144600E-01
 cg2d: Sum(rhs),rhsMax =   3.43094996857474E-12  1.20775460027614E-01
 cg2d: Sum(rhs),rhsMax =   3.99441590914762E-12  1.05261752308798E-01
 cg2d: Sum(rhs),rhsMax =   4.78619921473467E-12  8.92727749662749E-02
 cg2d: Sum(rhs),rhsMax =   5.95357096955240E-12  7.27693772606265E-02
 cg2d: Sum(rhs),rhsMax =   7.91899879004632E-12  5.59026472706023E-02
 cg2d: Sum(rhs),rhsMax =   1.15383813614756E-11  3.88829931323444E-02
 cg2d: Sum(rhs),rhsMax =   1.84801063340956E-11  2.44393017256110E-02
 cg2d: Sum(rhs),rhsMax =   1.85080839543161E-11  2.45489290526275E-02
 cg2d: Sum(rhs),rhsMax =   1.84142701087353E-11  2.48019765570332E-02
 cg2d: Sum(rhs),rhsMax =   1.59912083574909E-11  2.87581353171375E-02
 cg2d: Sum(rhs),rhsMax =   1.03413944074759E-11  4.47225329925303E-02
 cg2d: Sum(rhs),rhsMax =   7.74025288308167E-12  6.00969437679695E-02
 cg2d: Sum(rhs),rhsMax =   6.32105479070333E-12  7.47703116651114E-02
 cg2d: Sum(rhs),rhsMax =   5.38813438311081E-12  8.86383615524823E-02
 cg2d: Sum(rhs),rhsMax =   4.78400652426103E-12  1.01766592187836E-01
 cg2d: Sum(rhs),rhsMax =   4.30577795640374E-12  1.14015598690889E-01
 cg2d: Sum(rhs),rhsMax =   3.95344867953895E-12  1.25286332433311E-01
 cg2d: Sum(rhs),rhsMax =   3.68149954965702E-12  1.35869386532012E-01
 cg2d: Sum(rhs),rhsMax =   3.47558093416467E-12  1.45421717342597E-01
 cg2d: Sum(rhs),rhsMax =   3.30169225293275E-12  1.54376338991959E-01
 cg2d: Sum(rhs),rhsMax =   3.18589599146435E-12  1.62465906583906E-01
 cg2d: Sum(rhs),rhsMax =   3.07401326615775E-12  1.69865680175070E-01
 cg2d: Sum(rhs),rhsMax =   2.99743563303423E-12  1.76784574627977E-01
 cg2d: Sum(rhs),rhsMax =   2.93345903124020E-12  1.83108724591333E-01
 cg2d: Sum(rhs),rhsMax =   2.88302715034661E-12  1.88929055975233E-01
 cg2d: Sum(rhs),rhsMax =   2.83872925166406E-12  1.94324976681146E-01
 cg2d: Sum(rhs),rhsMax =   2.78560507993575E-12  1.99548321048517E-01
 cg2d: Sum(rhs),rhsMax =   2.76051403957922E-12  2.04472446497432E-01
 cg2d: Sum(rhs),rhsMax =   2.81877299279643E-12  2.09142963907586E-01
 cg2d: Sum(rhs),rhsMax =   2.67885713611804E-12  2.13598115488880E-01
 cg2d: Sum(rhs),rhsMax =   2.66625610478854E-12  2.17866921033763E-01
 cg2d: Sum(rhs),rhsMax =   2.67644240103948E-12  2.21970447898846E-01
 cg2d: Sum(rhs),rhsMax =   2.68746136455889E-12  2.25984687047020E-01
 cg2d: Sum(rhs),rhsMax =   2.66403565873929E-12  2.30035643089692E-01
 cg2d: Sum(rhs),rhsMax =   2.58340571157589E-12  2.33981103386930E-01
 cg2d: Sum(rhs),rhsMax =   2.44373965507805E-12  2.37823845454036E-01
 cg2d: Sum(rhs),rhsMax =   2.39747111052679E-12  2.41562521242234E-01
 cg2d: Sum(rhs),rhsMax =   2.37881936371309E-12  2.45192355109986E-01
 cg2d: Sum(rhs),rhsMax =   2.29202767876302E-12  2.48904774594199E-01
 cg2d: Sum(rhs),rhsMax =   2.14378514939995E-12  2.52703957555548E-01
 cg2d: Sum(rhs),rhsMax =   2.01885730355400E-12  2.56420382225162E-01
 cg2d: Sum(rhs),rhsMax =   1.90625293328139E-12  2.60048007997024E-01
 cg2d: Sum(rhs),rhsMax =   1.82409642945913E-12  2.63584013635092E-01
 cg2d: Sum(rhs),rhsMax =   1.70297109747253E-12  2.67499055525384E-01
 cg2d: Sum(rhs),rhsMax =   1.59786073261614E-12  2.71432048997896E-01
 cg2d: Sum(rhs),rhsMax =   1.54584678391245E-12  2.75357070006559E-01
 cg2d: Sum(rhs),rhsMax =   1.48006606970341E-12  2.79315178250567E-01
 cg2d: Sum(rhs),rhsMax =   1.42416634041354E-12  2.83688214945444E-01
 cg2d: Sum(rhs),rhsMax =   1.35980116056089E-12  2.88489798538425E-01
 cg2d: Sum(rhs),rhsMax =   1.29793398251365E-12  2.93610889228543E-01
 cg2d: Sum(rhs),rhsMax =   1.21848364731392E-12  2.99225806116103E-01
 cg2d: Sum(rhs),rhsMax =   1.17961890255813E-12  3.05573622790023E-01
 cg2d: Sum(rhs),rhsMax =   1.09481521071153E-12  3.12966256972823E-01
 cg2d: Sum(rhs),rhsMax =   1.02238356669559E-12  3.22091226174102E-01
 cg2d: Sum(rhs),rhsMax =   9.60502510860550E-13  3.32136924452870E-01
 cg2d: Sum(rhs),rhsMax =   8.88997209180786E-13  3.43994124925417E-01
 cg2d: Sum(rhs),rhsMax =   8.18650702782975E-13  3.57627923377226E-01
 cg2d: Sum(rhs),rhsMax =   6.96359636620514E-13  3.73455925942709E-01
 cg2d: Sum(rhs),rhsMax =   5.55361312493119E-13  3.92158377205574E-01
 cg2d: Sum(rhs),rhsMax =   4.27241575451376E-13  4.13951855175003E-01
 cg2d: Sum(rhs),rhsMax =   3.18522985764957E-13  4.38795813672757E-01
 cg2d: Sum(rhs),rhsMax =   2.03448369262560E-13  4.67208119262255E-01
 cg2d: Sum(rhs),rhsMax =   1.25233157177718E-13  4.95615684249879E-01
 cg2d: Sum(rhs),rhsMax =   4.37427871702312E-14  5.23412784832937E-01
 cg2d: Sum(rhs),rhsMax =  -1.79301018476963E-14  5.50343293438345E-01
 cg2d: Sum(rhs),rhsMax =  -8.18234369148740E-14  5.76151065787932E-01
 cg2d: Sum(rhs),rhsMax =  -1.15074616502397E-13  6.00584281870382E-01
 cg2d: Sum(rhs),rhsMax =  -1.56819002228303E-13  6.23399856238399E-01
 cg2d: Sum(rhs),rhsMax =  -2.63122856836162E-13  6.44367807366131E-01
 cg2d: Sum(rhs),rhsMax =  -3.13860049061532E-13  6.63275473679921E-01
 cg2d: Sum(rhs),rhsMax =  -3.69593244897715E-13  6.79931465384274E-01
 cg2d: Sum(rhs),rhsMax =  -4.31432667369336E-13  6.94169246514183E-01
 cg2d: Sum(rhs),rhsMax =  -4.93494134445882E-13  7.05850250584106E-01
 cg2d: Sum(rhs),rhsMax =  -5.49227330282065E-13  7.14866445496566E-01
 cg2d: Sum(rhs),rhsMax =  -6.11954931173386E-13  7.21142278302469E-01
 cg2d: Sum(rhs),rhsMax =  -6.89781565199610E-13  7.24635949170344E-01
 cg2d: Sum(rhs),rhsMax =  -7.69606600670159E-13  7.25339980944197E-01
 cg2d: Sum(rhs),rhsMax =  -8.21898105130003E-13  7.23281073222738E-01
 cg2d: Sum(rhs),rhsMax =  -8.96727136989739E-13  7.18519253974577E-01
 cg2d: Sum(rhs),rhsMax =  -9.27369292469393E-13  7.11146353918105E-01
 cg2d: Sum(rhs),rhsMax =  -1.05082609280771E-12  7.01283851222242E-01
 cg2d: Sum(rhs),rhsMax =  -1.15607523554218E-12  6.89080152459842E-01
 cg2d: Sum(rhs),rhsMax =  -1.25011112572793E-12  6.74707390366559E-01
 cg2d: Sum(rhs),rhsMax =  -1.35103039866635E-12  6.58357833713818E-01
 cg2d: Sum(rhs),rhsMax =  -1.39233069518241E-12  6.62819219409234E-01
 cg2d: Sum(rhs),rhsMax =  -1.42386102908176E-12  6.69179991178542E-01
 cg2d: Sum(rhs),rhsMax =  -1.44484424424718E-12  6.73116573678869E-01
 cg2d: Sum(rhs),rhsMax =  -1.46838097236923E-12  6.74616913253560E-01
 cg2d: Sum(rhs),rhsMax =  -1.53166368477287E-12  6.73693714080373E-01
 cg2d: Sum(rhs),rhsMax =  -1.56030743880820E-12  6.70384023099759E-01
 cg2d: Sum(rhs),rhsMax =  -1.60693680584245E-12  6.64748398377781E-01
 cg2d: Sum(rhs),rhsMax =  -1.58617563528196E-12  6.56869677664143E-01
 cg2d: Sum(rhs),rhsMax =  -1.68898228736225E-12  6.46851383520241E-01
 cg2d: Sum(rhs),rhsMax =  -1.79345427397948E-12  6.34815807187669E-01
 cg2d: Sum(rhs),rhsMax =  -1.92512672470002E-12  6.20901818990365E-01
 cg2d: Sum(rhs),rhsMax =  -2.04536387826693E-12  6.05262458483545E-01
 cg2d: Sum(rhs),rhsMax =  -2.18469686785738E-12  5.88062360615953E-01
 cg2d: Sum(rhs),rhsMax =  -2.30027108472086E-12  5.69475085330543E-01
 cg2d: Sum(rhs),rhsMax =  -2.43871589589162E-12  5.49680407137978E-01
 cg2d: Sum(rhs),rhsMax =  -2.65032440438517E-12  5.28861618846326E-01
 cg2d: Sum(rhs),rhsMax =  -2.81441536742477E-12  5.07202901913560E-01
 cg2d: Sum(rhs),rhsMax =  -2.82895928904736E-12  4.84886823516766E-01
 cg2d: Sum(rhs),rhsMax =  -2.89290813526577E-12  4.62092006893502E-01
 cg2d: Sum(rhs),rhsMax =  -2.96951352396491E-12  4.38991012181288E-01
 cg2d: Sum(rhs),rhsMax =  -3.04389846661479E-12  4.15748454192476E-01
 cg2d: Sum(rhs),rhsMax =  -3.15270032302806E-12  3.92519379741111E-01
 cg2d: Sum(rhs),rhsMax =  -3.30124816372290E-12  3.69447919514876E-01
 cg2d: Sum(rhs),rhsMax =  -3.47233353181764E-12  3.46666222864449E-01
 cg2d: Sum(rhs),rhsMax =  -3.65041330496751E-12  3.24293674939843E-01
 cg2d: Sum(rhs),rhsMax =  -3.86490839332509E-12  3.02436388862154E-01
 cg2d: Sum(rhs),rhsMax =  -4.07918143707775E-12  2.81186959924435E-01
 cg2d: Sum(rhs),rhsMax =  -4.36062297382023E-12  2.60624462845883E-01
 cg2d: Sum(rhs),rhsMax =  -4.60009808023187E-12  2.40814668901888E-01
 cg2d: Sum(rhs),rhsMax =  -4.82647255495294E-12  2.23157186427754E-01
 cg2d: Sum(rhs),rhsMax =  -4.91440221850326E-12  2.16607052355865E-01
 cg2d: Sum(rhs),rhsMax =  -4.98168173379554E-12  2.10738827257177E-01
 cg2d: Sum(rhs),rhsMax =  -4.95692376034640E-12  2.05297338798575E-01
 cg2d: Sum(rhs),rhsMax =  -5.02220487419436E-12  2.00178072325570E-01
 cg2d: Sum(rhs),rhsMax =  -5.04163377712530E-12  1.95306160435387E-01
 cg2d: Sum(rhs),rhsMax =  -5.11346520681855E-12  1.90640774891551E-01
 cg2d: Sum(rhs),rhsMax =  -5.11335418451608E-12  1.86158106699115E-01
 cg2d: Sum(rhs),rhsMax =  -5.11379827372593E-12  1.81792915455396E-01
 cg2d: Sum(rhs),rhsMax =  -5.13067366370024E-12  1.77518733750773E-01
 cg2d: Sum(rhs),rhsMax =  -5.15382181376367E-12  1.73315726533735E-01
 cg2d: Sum(rhs),rhsMax =  -5.21999110603133E-12  1.69168628933589E-01
 cg2d: Sum(rhs),rhsMax =  -5.25934851225429E-12  1.65065138264018E-01
 cg2d: Sum(rhs),rhsMax =  -5.24336130069969E-12  1.60994657847961E-01
 cg2d: Sum(rhs),rhsMax =  -5.27755616985814E-12  1.56947313658924E-01
 cg2d: Sum(rhs),rhsMax =  -5.40545386229496E-12  1.52913181752919E-01
 cg2d: Sum(rhs),rhsMax =  -5.43415312748152E-12  1.48881711607946E-01
 cg2d: Sum(rhs),rhsMax =  -5.52191625757814E-12  1.44841307679196E-01
 cg2d: Sum(rhs),rhsMax =  -5.63230018180150E-12  1.40779054876193E-01
 cg2d: Sum(rhs),rhsMax =  -5.71728775433655E-12  1.36974415509637E-01
 cg2d: Sum(rhs),rhsMax =  -5.81436288005222E-12  1.33593599012607E-01
 cg2d: Sum(rhs),rhsMax =  -5.87281612229873E-12  1.30095690192393E-01
 cg2d: Sum(rhs),rhsMax =  -6.03216782080196E-12  1.26399652041454E-01
 cg2d: Sum(rhs),rhsMax =  -6.26795143565673E-12  1.22454406005413E-01
 cg2d: Sum(rhs),rhsMax =  -6.41295523629015E-12  1.18341717915517E-01
 cg2d: Sum(rhs),rhsMax =  -6.60864418744467E-12  1.13928127478803E-01
 cg2d: Sum(rhs),rhsMax =  -6.88248763536237E-12  1.09305377229565E-01
 cg2d: Sum(rhs),rhsMax =  -7.14188430617213E-12  1.04404619620819E-01
 cg2d: Sum(rhs),rhsMax =  -7.52557738348258E-12  9.92168416523328E-02
 cg2d: Sum(rhs),rhsMax =  -7.90245646697940E-12  9.37963956455402E-02
 cg2d: Sum(rhs),rhsMax =  -8.40003067104078E-12  8.81265560021932E-02
 cg2d: Sum(rhs),rhsMax =  -8.98714436203818E-12  8.22071763245503E-02
 cg2d: Sum(rhs),rhsMax =  -9.71520086601174E-12  7.60588554025690E-02
 cg2d: Sum(rhs),rhsMax =  -1.06474828953651E-11  6.97017023024800E-02
 cg2d: Sum(rhs),rhsMax =  -1.17664211707336E-11  6.31942250485971E-02
 cg2d: Sum(rhs),rhsMax =  -1.31696320515573E-11  5.65490746510791E-02
 cg2d: Sum(rhs),rhsMax =  -1.49216194955670E-11  4.98383508401873E-02
 cg2d: Sum(rhs),rhsMax =  -1.72569736278660E-11  4.31376546634445E-02
 cg2d: Sum(rhs),rhsMax =  -2.02889927081173E-11  3.66156673706823E-02
 cg2d: Sum(rhs),rhsMax =  -2.42668107830468E-11  3.05203526367337E-02
 cg2d: Sum(rhs),rhsMax =  -2.93521873473424E-11  2.51689849098844E-02
 cg2d: Sum(rhs),rhsMax =  -3.06995540100274E-11  2.40832837149601E-02
 cg2d: Sum(rhs),rhsMax =  -3.00427460686592E-11  2.46713641875541E-02
 cg2d: Sum(rhs),rhsMax =  -2.95066193700677E-11  2.52385230567631E-02
 cg2d: Sum(rhs),rhsMax =  -2.90509838407615E-11  2.57930343522133E-02
 cg2d: Sum(rhs),rhsMax =  -2.85589329962477E-11  2.63432433084517E-02
 cg2d: Sum(rhs),rhsMax =  -2.47567522038139E-11  3.05784930797323E-02
 cg2d: Sum(rhs),rhsMax =  -2.03506100859840E-11  3.73853355214737E-02
 cg2d: Sum(rhs),rhsMax =  -1.73291381244667E-11  4.41989832206580E-02
 cg2d: Sum(rhs),rhsMax =  -1.52112766826917E-11  5.09730745281098E-02
 cg2d: Sum(rhs),rhsMax =  -1.36303190956255E-11  5.76472319762522E-02
 cg2d: Sum(rhs),rhsMax =  -1.24201759987841E-11  6.42097852515336E-02
 cg2d: Sum(rhs),rhsMax =  -1.14214193658313E-11  7.06408522186433E-02
 cg2d: Sum(rhs),rhsMax =  -1.06368802654799E-11  7.69190124985145E-02
 cg2d: Sum(rhs),rhsMax =  -1.00786046175472E-11  8.30359217906716E-02
 cg2d: Sum(rhs),rhsMax =  -9.50262091237164E-12  8.89896373205825E-02
 cg2d: Sum(rhs),rhsMax =  -9.06125174893191E-12  9.48231355128132E-02
 cg2d: Sum(rhs),rhsMax =  -8.71042127315036E-12  1.00513989835151E-01
 cg2d: Sum(rhs),rhsMax =  -8.37763192151897E-12  1.06063915059048E-01
 cg2d: Sum(rhs),rhsMax =  -8.05067124076686E-12  1.11483981269714E-01
 cg2d: Sum(rhs),rhsMax =  -7.82202080884531E-12  1.16785919708304E-01
 cg2d: Sum(rhs),rhsMax =  -7.56444906713227E-12  1.21981040171718E-01
 cg2d: Sum(rhs),rhsMax =  -7.40690841993796E-12  1.27116124953631E-01
 cg2d: Sum(rhs),rhsMax =  -7.20956627731084E-12  1.32167846185315E-01
 cg2d: Sum(rhs),rhsMax =  -7.07411906830657E-12  1.37140251763147E-01
 cg2d: Sum(rhs),rhsMax =  -6.87622181416714E-12  1.42037510381434E-01
 cg2d: Sum(rhs),rhsMax =  -6.59866605801085E-12  1.46861039370580E-01
 cg2d: Sum(rhs),rhsMax =  -6.41048325533689E-12  1.51609571997985E-01
 cg2d: Sum(rhs),rhsMax =  -6.23012752498653E-12  1.56279369228443E-01
 cg2d: Sum(rhs),rhsMax =  -6.09312600374778E-12  1.60902534971156E-01
 cg2d: Sum(rhs),rhsMax =  -5.95845595086075E-12  1.65480453200114E-01
 cg2d: Sum(rhs),rhsMax =  -5.89595039457436E-12  1.69972471294131E-01
 cg2d: Sum(rhs),rhsMax =  -5.77932146583748E-12  1.74369907096167E-01
 cg2d: Sum(rhs),rhsMax =  -5.67346170043947E-12  1.78663228337723E-01
 cg2d: Sum(rhs),rhsMax =  -5.60884672040629E-12  1.82887513105107E-01
 cg2d: Sum(rhs),rhsMax =  -5.52524692665202E-12  1.87083050318200E-01
 cg2d: Sum(rhs),rhsMax =  -5.45030687248982E-12  1.91163735966957E-01
 cg2d: Sum(rhs),rhsMax =  -5.44086997678050E-12  1.95120061192648E-01
 cg2d: Sum(rhs),rhsMax =  -5.37392352839561E-12  1.98976712207038E-01
 cg2d: Sum(rhs),rhsMax =  -5.38857847232066E-12  2.02845265846802E-01
 cg2d: Sum(rhs),rhsMax =  -5.40667510762205E-12  2.06585829594190E-01
 cg2d: Sum(rhs),rhsMax =  -5.47850653731530E-12  2.10192363089525E-01
 cg2d: Sum(rhs),rhsMax =  -5.45874456747697E-12  2.13755564122490E-01
 cg2d: Sum(rhs),rhsMax =  -5.30475663396146E-12  2.17319014732640E-01
 cg2d: Sum(rhs),rhsMax =  -5.14899234360655E-12  2.20766740285501E-01
 cg2d: Sum(rhs),rhsMax =  -5.03308505983568E-12  2.24106661986834E-01
 cg2d: Sum(rhs),rhsMax =  -4.97735186399950E-12  2.27535763894138E-01
 cg2d: Sum(rhs),rhsMax =  -4.84412510104448E-12  2.36099210714081E-01
 cg2d: Sum(rhs),rhsMax =  -4.61986005007020E-12  2.49766683563892E-01
 cg2d: Sum(rhs),rhsMax =  -4.43667325100705E-12  2.63720740490773E-01
 cg2d: Sum(rhs),rhsMax =  -4.29922764055846E-12  2.77908233932082E-01
 cg2d: Sum(rhs),rhsMax =  -4.16644496681329E-12  2.92271522572096E-01
 cg2d: Sum(rhs),rhsMax =  -4.03344024846319E-12  3.06748843556904E-01
 cg2d: Sum(rhs),rhsMax =  -3.88711285381760E-12  3.21274753735524E-01
 cg2d: Sum(rhs),rhsMax =  -3.70858899145787E-12  3.35780636225915E-01
 cg2d: Sum(rhs),rhsMax =  -3.53983509171485E-12  3.50195267153885E-01
 cg2d: Sum(rhs),rhsMax =  -3.36708438908317E-12  3.64445436142948E-01
 cg2d: Sum(rhs),rhsMax =  -3.20599102821006E-12  3.78456612945602E-01
 cg2d: Sum(rhs),rhsMax =  -3.06643599401468E-12  3.92153651609779E-01
 cg2d: Sum(rhs),rhsMax =  -2.89746004966673E-12  4.05461522390842E-01
 cg2d: Sum(rhs),rhsMax =  -2.75157674423099E-12  4.18306061189466E-01
 cg2d: Sum(rhs),rhsMax =  -2.62856403310252E-12  4.30614725562641E-01
 cg2d: Sum(rhs),rhsMax =  -2.51232368242427E-12  4.42317345993687E-01
 cg2d: Sum(rhs),rhsMax =  -2.43105535702171E-12  4.53346860964869E-01
 cg2d: Sum(rhs),rhsMax =  -2.32480701356508E-12  4.63640024468801E-01
 cg2d: Sum(rhs),rhsMax =  -2.24220642053297E-12  4.73138074932692E-01
 cg2d: Sum(rhs),rhsMax =  -2.17981188654903E-12  4.81787355077321E-01
 cg2d: Sum(rhs),rhsMax =  -2.12196926696606E-12  4.89539873008349E-01
 cg2d: Sum(rhs),rhsMax =  -2.07167616395054E-12  4.96353795851283E-01
 cg2d: Sum(rhs),rhsMax =  -2.06545891501264E-12  5.02193868349628E-01
 cg2d: Sum(rhs),rhsMax =  -2.00039984576961E-12  5.07031749978614E-01
 cg2d: Sum(rhs),rhsMax =  -1.89603888145484E-12  5.22289253886222E-01
 cg2d: Sum(rhs),rhsMax =  -1.67921232474555E-12  5.40120123459904E-01
 cg2d: Sum(rhs),rhsMax =  -1.66677782686975E-12  5.57192497249887E-01
 cg2d: Sum(rhs),rhsMax =  -1.72273306731086E-12  5.73416283016578E-01
 cg2d: Sum(rhs),rhsMax =  -1.78634884662188E-12  5.88705590579212E-01
 cg2d: Sum(rhs),rhsMax =  -1.79700698765828E-12  6.02979522832763E-01
 cg2d: Sum(rhs),rhsMax =  -1.80855330711438E-12  6.16162922309121E-01
 cg2d: Sum(rhs),rhsMax =  -1.79012360490560E-12  6.28187063451923E-01
 cg2d: Sum(rhs),rhsMax =  -1.80300219199125E-12  6.38990281204121E-01
 cg2d: Sum(rhs),rhsMax =  -1.76292314080229E-12  6.48518527265114E-01
 cg2d: Sum(rhs),rhsMax =  -1.74904535299447E-12  6.56725845885751E-01
 cg2d: Sum(rhs),rhsMax =  -1.74038561340240E-12  6.63574764336759E-01
 cg2d: Sum(rhs),rhsMax =  -1.75237602206835E-12  6.69036593147700E-01
 cg2d: Sum(rhs),rhsMax =  -1.76858527822787E-12  6.73091631756953E-01
 cg2d: Sum(rhs),rhsMax =  -1.81454851144736E-12  6.75729277344250E-01
 cg2d: Sum(rhs),rhsMax =  -1.86450854755549E-12  6.76948036007352E-01
 cg2d: Sum(rhs),rhsMax =  -1.92768023765666E-12  6.76755437246090E-01
 cg2d: Sum(rhs),rhsMax =  -2.01438865587988E-12  6.75167854175947E-01
 cg2d: Sum(rhs),rhsMax =  -2.10620410001638E-12  6.72210233206660E-01
 cg2d: Sum(rhs),rhsMax =  -2.15305551165557E-12  6.67915738087086E-01
 cg2d: Sum(rhs),rhsMax =  -2.21545004563950E-12  6.62325314502392E-01
 cg2d: Sum(rhs),rhsMax =  -2.28506102928350E-12  6.55487183393783E-01
 cg2d: Sum(rhs),rhsMax =  -2.36222152949495E-12  6.47456268183895E-01
 cg2d: Sum(rhs),rhsMax =  -2.44571030094676E-12  6.38293564882184E-01
 cg2d: Sum(rhs),rhsMax =  -2.51554332919568E-12  6.28065467487775E-01
 cg2d: Sum(rhs),rhsMax =  -2.63900012953400E-12  6.16843056253338E-01
 cg2d: Sum(rhs),rhsMax =  -2.75746092626150E-12  6.04701362194173E-01
 cg2d: Sum(rhs),rhsMax =  -2.83861822936160E-12  5.91718616802185E-01
 cg2d: Sum(rhs),rhsMax =  -2.98461255709981E-12  5.77975496027334E-01
 cg2d: Sum(rhs),rhsMax =  -3.12905257260354E-12  5.63554365195264E-01
 cg2d: Sum(rhs),rhsMax =  -3.31623617455534E-12  5.48538537201995E-01
 cg2d: Sum(rhs),rhsMax =  -3.47044615267578E-12  5.33011548517473E-01
 cg2d: Sum(rhs),rhsMax =  -3.63498120492523E-12  5.17056466557090E-01
 cg2d: Sum(rhs),rhsMax =  -3.86252141382215E-12  5.00755235037672E-01
 cg2d: Sum(rhs),rhsMax =  -4.05286915139413E-12  4.84188062771327E-01
 cg2d: Sum(rhs),rhsMax =  -4.29467572615749E-12  4.67432861290177E-01
 cg2d: Sum(rhs),rhsMax =  -4.55480098082717E-12  4.50564735220953E-01
 cg2d: Sum(rhs),rhsMax =  -4.83513229454502E-12  4.33655528684749E-01
 cg2d: Sum(rhs),rhsMax =  -5.12084818993230E-12  4.16773429801767E-01
 cg2d: Sum(rhs),rhsMax =  -5.42188516305941E-12  3.99982635258172E-01
 cg2d: Sum(rhs),rhsMax =  -5.77110581545526E-12  3.83343074603558E-01
 cg2d: Sum(rhs),rhsMax =  -6.12637718333531E-12  3.66910194345140E-01
 cg2d: Sum(rhs),rhsMax =  -6.51967368980877E-12  3.50734800949107E-01
 cg2d: Sum(rhs),rhsMax =  -6.93256563266686E-12  3.34862960740275E-01
 cg2d: Sum(rhs),rhsMax =  -7.36122274247464E-12  3.19335953095807E-01
 cg2d: Sum(rhs),rhsMax =  -7.80042697101635E-12  3.04190273556557E-01
 cg2d: Sum(rhs),rhsMax =  -8.33488833507090E-12  2.89457685636666E-01
 cg2d: Sum(rhs),rhsMax =  -8.83704220910886E-12  2.75165314207804E-01
 cg2d: Sum(rhs),rhsMax =  -9.35851396377529E-12  2.61335775118007E-01
 cg2d: Sum(rhs),rhsMax =  -1.00259800461799E-11  2.47987340103866E-01
 cg2d: Sum(rhs),rhsMax =  -1.07291953099775E-11  2.35134129917423E-01
 cg2d: Sum(rhs),rhsMax =  -1.12956310971413E-11  2.25129081704261E-01
 cg2d: Sum(rhs),rhsMax =  -1.15187304139397E-11  2.20136121239368E-01
 cg2d: Sum(rhs),rhsMax =  -1.17429954649140E-11  2.15270167962684E-01
 cg2d: Sum(rhs),rhsMax =  -1.21062049274201E-11  2.10458432309558E-01
 cg2d: Sum(rhs),rhsMax =  -1.22158394511018E-11  2.05736804140989E-01
 cg2d: Sum(rhs),rhsMax =  -1.23754895220429E-11  2.01070308538923E-01
 cg2d: Sum(rhs),rhsMax =  -1.26975097103355E-11  1.96311348064348E-01
 cg2d: Sum(rhs),rhsMax =  -1.29649069258164E-11  1.91587363690313E-01
 cg2d: Sum(rhs),rhsMax =  -1.32787669748780E-11  1.86765486292673E-01
 cg2d: Sum(rhs),rhsMax =  -1.36302080733230E-11  1.81848700065589E-01
 cg2d: Sum(rhs),rhsMax =  -1.39513400831959E-11  1.76858369614645E-01
 cg2d: Sum(rhs),rhsMax =  -1.43431377885861E-11  1.71713625625355E-01
 cg2d: Sum(rhs),rhsMax =  -1.47051260057651E-11  1.66464796777447E-01
 cg2d: Sum(rhs),rhsMax =  -1.51790802149776E-11  1.61062052304490E-01
 cg2d: Sum(rhs),rhsMax =  -1.56234469805838E-11  1.55482240906004E-01
 cg2d: Sum(rhs),rhsMax =  -1.61703428425142E-11  1.49798359181460E-01
 cg2d: Sum(rhs),rhsMax =  -1.68353664342646E-11  1.43889923758226E-01
 cg2d: Sum(rhs),rhsMax =  -1.75133796354032E-11  1.37857519752666E-01
 cg2d: Sum(rhs),rhsMax =  -1.83155712818461E-11  1.31665302545908E-01
 cg2d: Sum(rhs),rhsMax =  -1.91753835032671E-11  1.25276921784127E-01
 cg2d: Sum(rhs),rhsMax =  -2.01682004430381E-11  1.18738844399535E-01
 cg2d: Sum(rhs),rhsMax =  -2.12707629287934E-11  1.12084845814807E-01
 cg2d: Sum(rhs),rhsMax =  -2.26019203353189E-11  1.05268794756302E-01
 cg2d: Sum(rhs),rhsMax =  -2.41029418646121E-11  9.83090685305235E-02
 cg2d: Sum(rhs),rhsMax =  -2.59329224761018E-11  9.12240667277339E-02
 cg2d: Sum(rhs),rhsMax =  -2.80305778588286E-11  8.40591500665282E-02
 cg2d: Sum(rhs),rhsMax =  -3.06089598112180E-11  7.68031702679267E-02
 cg2d: Sum(rhs),rhsMax =  -3.37340155809329E-11  6.94664042103565E-02
 cg2d: Sum(rhs),rhsMax =  -3.77508024840267E-11  6.20684522620480E-02
 cg2d: Sum(rhs),rhsMax =  -4.28277413533351E-11  5.46287975603498E-02
 cg2d: Sum(rhs),rhsMax =  -4.42814673817793E-11  5.27648273634855E-02
 cg2d: Sum(rhs),rhsMax =  -4.42488268248553E-11  5.27295615226986E-02
 cg2d: Sum(rhs),rhsMax =  -4.41948699858585E-11  5.27657649131247E-02
 cg2d: Sum(rhs),rhsMax =  -4.40656400257922E-11  5.28657717563527E-02
 cg2d: Sum(rhs),rhsMax =  -4.38729053087172E-11  5.30213619402447E-02
 cg2d: Sum(rhs),rhsMax =  -4.36393143843361E-11  5.32237216859204E-02
 cg2d: Sum(rhs),rhsMax =  -4.33925118059619E-11  5.34634071790274E-02
 cg2d: Sum(rhs),rhsMax =  -4.31219504548608E-11  5.37303117009780E-02
 cg2d: Sum(rhs),rhsMax =  -4.28905799765289E-11  5.40136365000835E-02
 cg2d: Sum(rhs),rhsMax =  -4.25925961167195E-11  5.43018669266786E-02
 cg2d: Sum(rhs),rhsMax =  -4.23269197469267E-11  5.45827537669579E-02
 cg2d: Sum(rhs),rhsMax =  -4.21005452722056E-11  5.48433002682632E-02
 cg2d: Sum(rhs),rhsMax =  -4.18824974701693E-11  5.50697555198797E-02
 cg2d: Sum(rhs),rhsMax =  -4.17110790351671E-11  5.52476148943691E-02
 cg2d: Sum(rhs),rhsMax =  -4.15831813427303E-11  5.53616281396419E-02
 cg2d: Sum(rhs),rhsMax =  -4.13320488945601E-11  5.56673889138216E-02
 cg2d: Sum(rhs),rhsMax =  -3.74694719695867E-11  6.13233247066534E-02
 cg2d: Sum(rhs),rhsMax =  -3.43916006784184E-11  6.67635794530430E-02
 cg2d: Sum(rhs),rhsMax =  -3.18473025728849E-11  7.19940113158390E-02
 cg2d: Sum(rhs),rhsMax =  -2.96557223222749E-11  7.70903690535647E-02
 cg2d: Sum(rhs),rhsMax =  -2.78392864316857E-11  8.19595225762870E-02
 cg2d: Sum(rhs),rhsMax =  -2.62517785287741E-11  8.66394144593666E-02
 cg2d: Sum(rhs),rhsMax =  -2.48252529644333E-11  9.11878067751226E-02
 cg2d: Sum(rhs),rhsMax =  -2.36703989742182E-11  9.55028007807713E-02
 cg2d: Sum(rhs),rhsMax =  -2.25890972593845E-11  9.97557883371927E-02
 cg2d: Sum(rhs),rhsMax =  -2.16681672604579E-11  1.03787400555821E-01
 cg2d: Sum(rhs),rhsMax =  -2.08126849088330E-11  1.07782946941609E-01
 cg2d: Sum(rhs),rhsMax =  -2.00683913931243E-11  1.11597694986099E-01
 cg2d: Sum(rhs),rhsMax =  -1.92439397750377E-11  1.15411376693446E-01
 cg2d: Sum(rhs),rhsMax =  -1.88121740407610E-11  1.19140731943845E-01
 cg2d: Sum(rhs),rhsMax =  -1.82622805766641E-11  1.22809512077333E-01
 cg2d: Sum(rhs),rhsMax =  -1.77614589702557E-11  1.26575019888195E-01
(PID.TID 0000.0001)      cg2d_init_res =   3.08571186475100E-01
(PID.TID 0000.0001)      cg2d_iters(min,last) =      -1      38
(PID.TID 0000.0001)      cg2d_last_res =   4.49145754518251E-14
(PID.TID 0000.0001) // =======================================================
(PID.TID 0000.0001) // Begin MONITOR dynamic field statistics
(PID.TID 0000.0001) // =======================================================
(PID.TID 0000.0001) %MON time_tsnumber                =                   480
(PID.TID 0000.0001) %MON time_secondsf                =   7.2000000000000E+03
(PID.TID 0000.0001) %MON dynstat_eta_max              =   4.0396436899894E-02
(PID.TID 0000.0001) %MON dynstat_eta_min              =  -3.2593647901461E-02
(PID.TID 0000.0001) %MON dynstat_eta_mean             =   4.7784447867615E-15
(PID.TID 0000.0001) %MON dynstat_eta_sd               =   2.4213923498816E-02
(PID.TID 0000.0001) %MON dynstat_eta_del2             =   9.4175170253100E-06
(PID.TID 0000.0001) %MON dynstat_uvel_max             =   1.2502711327012E+00
(PID.TID 0000.0001) %MON dynstat_uvel_min             =  -3.5451191760369E-01
(PID.TID 0000.0001) %MON dynstat_uvel_mean            =   2.9419124001463E-01
(PID.TID 0000.0001) %MON dynstat_uvel_sd              =   4.7204728255726E-02
(PID.TID 0000.0001) %MON dynstat_uvel_del2            =   4.0289433285699E-04
(PID.TID 0000.0001) %MON dynstat_vvel_max             =   0.0000000000000E+00
(PID.TID 0000.0001) %MON dynstat_vvel_min             =   0.0000000000000E+00
(PID.TID 0000.0001) %MON dynstat_vvel_mean            =   0.0000000000000E+00
(PID.TID 0000.0001) %MON dynstat_vvel_sd              =   0.0000000000000E+00
(PID.TID 0000.0001) %MON dynstat_vvel_del2            =   0.0000000000000E+00
(PID.TID 0000.0001) %MON dynstat_wvel_max             =   1.8538592998590E-02
(PID.TID 0000.0001) %MON dynstat_wvel_min             =  -2.5812847870421E-02
(PID.TID 0000.0001) %MON dynstat_wvel_mean            =  -3.0531402514003E-20
(PID.TID 0000.0001) %MON dynstat_wvel_sd              =   1.3090171573698E-03
(PID.TID 0000.0001) %MON dynstat_wvel_del2            =   2.4400629496389E-05
(PID.TID 0000.0001) %MON dynstat_theta_max            =   1.5000000000002E+01
(PID.TID 0000.0001) %MON dynstat_theta_min            =   9.9999999999991E+00
(PID.TID 0000.0001) %MON dynstat_theta_mean           =   1.2553503859852E+01
(PID.TID 0000.0001) %MON dynstat_theta_sd             =   2.4825276957811E+00
(PID.TID 0000.0001) %MON dynstat_theta_del2           =   1.0589758037969E-03
(PID.TID 0000.0001) %MON dynstat_salt_max             =   3.5000000000000E+01
(PID.TID 0000.0001) %MON dynstat_salt_min             =   3.5000000000000E+01
(PID.TID 0000.0001) %MON dynstat_salt_mean            =   3.5000000000000E+01
(PID.TID 0000.0001) %MON dynstat_salt_sd              =   3.1974423109205E-13
(PID.TID 0000.0001) %MON dynstat_salt_del2            =   0.0000000000000E+00
(PID.TID 0000.0001) %MON dynstat_sst_max              =   1.5000000000000E+01
(PID.TID 0000.0001) %MON dynstat_sst_min              =   1.5000000000000E+01
(PID.TID 0000.0001) %MON dynstat_sst_mean             =   1.5000000000000E+01
(PID.TID 0000.0001) %MON dynstat_sst_sd               =   2.9579017303764E-14
(PID.TID 0000.0001) %MON dynstat_sst_del2             =   1.3228626903470E-15
(PID.TID 0000.0001) %MON dynstat_sss_max              =   3.5000000000000E+01
(PID.TID 0000.0001) %MON dynstat_sss_min              =   3.5000000000000E+01
(PID.TID 0000.0001) %MON dynstat_sss_mean             =   3.5000000000000E+01
(PID.TID 0000.0001) %MON dynstat_sss_sd               =   5.6843418860808E-14
(PID.TID 0000.0001) %MON dynstat_sss_del2             =   0.0000000000000E+00
(PID.TID 0000.0001) %MON forcing_qnet_max             =   0.0000000000000E+00
(PID.TID 0000.0001) %MON forcing_qnet_min             =   0.0000000000000E+00
(PID.TID 0000.0001) %MON forcing_qnet_mean            =   0.0000000000000E+00
(PID.TID 0000.0001) %MON forcing_qnet_sd              =   0.0000000000000E+00
(PID.TID 0000.0001) %MON forcing_qnet_del2            =   0.0000000000000E+00
(PID.TID 0000.0001) %MON forcing_qsw_max              =   0.0000000000000E+00
(PID.TID 0000.0001) %MON forcing_qsw_min              =   0.0000000000000E+00
(PID.TID 0000.0001) %MON forcing_qsw_mean             =   0.0000000000000E+00
(PID.TID 0000.0001) %MON forcing_qsw_sd               =   0.0000000000000E+00
(PID.TID 0000.0001) %MON forcing_qsw_del2             =   0.0000000000000E+00
(PID.TID 0000.0001) %MON forcing_empmr_max            =   0.0000000000000E+00
(PID.TID 0000.0001) %MON forcing_empmr_min            =   0.0000000000000E+00
(PID.TID 0000.0001) %MON forcing_empmr_mean           =   0.0000000000000E+00
(PID.TID 0000.0001) %MON forcing_empmr_sd             =   0.0000000000000E+00
(PID.TID 0000.0001) %MON forcing_empmr_del2           =   0.0000000000000E+00
(PID.TID 0000.0001) %MON forcing_fu_max               =   0.0000000000000E+00
(PID.TID 0000.0001) %MON forcing_fu_min               =   0.0000000000000E+00
(PID.TID 0000.0001) %MON forcing_fu_mean              =   0.0000000000000E+00
(PID.TID 0000.0001) %MON forcing_fu_sd                =   0.0000000000000E+00
(PID.TID 0000.0001) %MON forcing_fu_del2              =   0.0000000000000E+00
(PID.TID 0000.0001) %MON forcing_fv_max               =   0.0000000000000E+00
(PID.TID 0000.0001) %MON forcing_fv_min               =   0.0000000000000E+00
(PID.TID 0000.0001) %MON forcing_fv_mean              =   0.0000000000000E+00
(PID.TID 0000.0001) %MON forcing_fv_sd                =   0.0000000000000E+00
(PID.TID 0000.0001) %MON forcing_fv_del2              =   0.0000000000000E+00
(PID.TID 0000.0001) %MON advcfl_uvel_max              =   9.3770334952592E-02
(PID.TID 0000.0001) %MON advcfl_vvel_max              =   0.0000000000000E+00
(PID.TID 0000.0001) %MON advcfl_wvel_max              =   2.2584955753875E-01
(PID.TID 0000.0001) %MON advcfl_W_hf_max              =   2.2887425546804E-01
(PID.TID 0000.0001) %MON pe_b_mean                    =   1.4687123543644E-05
(PID.TID 0000.0001) %MON ke_max                       =   7.0584968025335E-01
(PID.TID 0000.0001) %MON ke_mean                      =   4.4416458509976E-02
(PID.TID 0000.0001) %MON ke_vol                       =   9.5633499295324E+10
(PID.TID 0000.0001) %MON vort_r_min                   =   0.0000000000000E+00
(PID.TID 0000.0001) %MON vort_r_max                   =   0.0000000000000E+00
(PID.TID 0000.0001) %MON vort_a_mean                  =   0.0000000000000E+00
(PID.TID 0000.0001) %MON vort_a_sd                    =   0.0000000000000E+00
(PID.TID 0000.0001) %MON vort_p_mean                  =   0.0000000000000E+00
(PID.TID 0000.0001) %MON vort_p_sd                    =   0.0000000000000E+00
(PID.TID 0000.0001) %MON surfExpan_theta_mean         =  -5.8193267555965E-19
(PID.TID 0000.0001) %MON surfExpan_salt_mean          =  -1.5754081392751E-18
(PID.TID 0000.0001) // =======================================================
(PID.TID 0000.0001) // End MONITOR dynamic field statistics
(PID.TID 0000.0001) // =======================================================
(PID.TID 0000.0001) // =======================================================
(PID.TID 0000.0001) // Begin OBCS MONITOR field statistics
(PID.TID 0000.0001) // =======================================================
(PID.TID 0000.0001) %MON obc_E_uVel_max               =   2.8014282071829E-01
(PID.TID 0000.0001) %MON obc_E_uVel_min               =   2.8014282071829E-01
(PID.TID 0000.0001) %MON obc_E_uVel_mean              =   2.8014282071829E-01
(PID.TID 0000.0001) %MON obc_E_uVel_sd                =   3.7252902984619E-09
(PID.TID 0000.0001) %MON obc_E_uVel_Int               =   2.8014282071829E+05
(PID.TID 0000.0001) %MON obc_W_uVel_max               =   2.8014282071829E-01
(PID.TID 0000.0001) %MON obc_W_uVel_min               =   2.8014282071829E-01
(PID.TID 0000.0001) %MON obc_W_uVel_mean              =   2.8014282071829E-01
(PID.TID 0000.0001) %MON obc_W_uVel_sd                =   3.7252902984619E-09
(PID.TID 0000.0001) %MON obc_W_uVel_Int               =   2.8014282071829E+05
(PID.TID 0000.0001) // =======================================================
(PID.TID 0000.0001) // End OBCS MONITOR field statistics
(PID.TID 0000.0001) // =======================================================
 cg2d: Sum(rhs),rhsMax =  -1.72788450214512E-11  1.30379265636152E-01
 cg2d: Sum(rhs),rhsMax =  -1.67837410636196E-11  1.34281976854197E-01
 cg2d: Sum(rhs),rhsMax =  -1.63510177619841E-11  1.38357345642284E-01
 cg2d: Sum(rhs),rhsMax =  -1.59034452273943E-11  1.42686945367674E-01
 cg2d: Sum(rhs),rhsMax =  -1.53739659891627E-11  1.47365507257799E-01
 cg2d: Sum(rhs),rhsMax =  -1.48673955091549E-11  1.52551744379525E-01
 cg2d: Sum(rhs),rhsMax =  -1.43009146191808E-11  1.58634456991009E-01
 cg2d: Sum(rhs),rhsMax =  -1.37305722347492E-11  1.65337186510620E-01
 cg2d: Sum(rhs),rhsMax =  -1.31921695789572E-11  1.72610940247612E-01
 cg2d: Sum(rhs),rhsMax =  -1.26417765144993E-11  1.80520677446473E-01
 cg2d: Sum(rhs),rhsMax =  -1.21238852290873E-11  1.89109336839845E-01
 cg2d: Sum(rhs),rhsMax =  -1.15764065000690E-11  1.98489687755313E-01
 cg2d: Sum(rhs),rhsMax =  -1.10261799690647E-11  2.09474581936318E-01
 cg2d: Sum(rhs),rhsMax =  -1.05253028515051E-11  2.20603496245472E-01
 cg2d: Sum(rhs),rhsMax =  -1.00776609279762E-11  2.31792481480725E-01
 cg2d: Sum(rhs),rhsMax =  -9.66682289771370E-12  2.43007383294533E-01
 cg2d: Sum(rhs),rhsMax =  -9.29478716216181E-12  2.54212709396519E-01
 cg2d: Sum(rhs),rhsMax =  -8.93252138922662E-12  2.65371839734765E-01
 cg2d: Sum(rhs),rhsMax =  -8.63725757582756E-12  2.76447252120595E-01
 cg2d: Sum(rhs),rhsMax =  -8.33666469191030E-12  2.87400761374894E-01
 cg2d: Sum(rhs),rhsMax =  -8.13360490070636E-12  2.98193769852944E-01
 cg2d: Sum(rhs),rhsMax =  -7.87347964603669E-12  3.08787526969040E-01
 cg2d: Sum(rhs),rhsMax =  -7.66708918575887E-12  3.19143395258347E-01
 cg2d: Sum(rhs),rhsMax =  -7.48756612267698E-12  3.29223120393341E-01
 cg2d: Sum(rhs),rhsMax =  -7.30426830131137E-12  3.38989102486080E-01
 cg2d: Sum(rhs),rhsMax =  -7.15982828580763E-12  3.48404665834001E-01
 cg2d: Sum(rhs),rhsMax =  -6.99962310335422E-12  3.57434324477759E-01
 cg2d: Sum(rhs),rhsMax =  -6.94044821614170E-12  3.66044040847790E-01
 cg2d: Sum(rhs),rhsMax =  -6.87849777136762E-12  3.74201474516257E-01
 cg2d: Sum(rhs),rhsMax =  -6.82165435250681E-12  3.81876218345184E-01
 cg2d: Sum(rhs),rhsMax =  -6.80244749418080E-12  3.89040019428971E-01
 cg2d: Sum(rhs),rhsMax =  -6.75826061780072E-12  3.95666982314381E-01
 cg2d: Sum(rhs),rhsMax =  -6.72251143640779E-12  4.01733752202666E-01
 cg2d: Sum(rhs),rhsMax =  -6.67410571253413E-12  4.07219676100826E-01
 cg2d: Sum(rhs),rhsMax =  -6.65412169809088E-12  4.12106939920415E-01
 cg2d: Sum(rhs),rhsMax =  -6.65856259018938E-12  4.16380679925321E-01
 cg2d: Sum(rhs),rhsMax =  -6.63591404048702E-12  4.20029067315226E-01
 cg2d: Sum(rhs),rhsMax =  -6.62514487714816E-12  4.23043365096393E-01
 cg2d: Sum(rhs),rhsMax =  -6.62714327859248E-12  4.25417956752076E-01
 cg2d: Sum(rhs),rhsMax =  -6.62314647570383E-12  4.27150346630098E-01
 cg2d: Sum(rhs),rhsMax =  -6.66389166070758E-12  4.28241132387868E-01
 cg2d: Sum(rhs),rhsMax =  -6.70952182701967E-12  4.28693950207385E-01
 cg2d: Sum(rhs),rhsMax =  -6.72939481916046E-12  4.28515393987877E-01
 cg2d: Sum(rhs),rhsMax =  -6.81721346040831E-12  4.27714909792604E-01
 cg2d: Sum(rhs),rhsMax =  -6.88837875628678E-12  4.26304667743755E-01
 cg2d: Sum(rhs),rhsMax =  -6.98940905152767E-12  4.24405388435328E-01
 cg2d: Sum(rhs),rhsMax =  -6.94910795573378E-12  4.28991322426543E-01
 cg2d: Sum(rhs),rhsMax =  -6.91513513118025E-12  4.32811323697779E-01
 cg2d: Sum(rhs),rhsMax =  -6.88271661886120E-12  4.35855598039768E-01
 cg2d: Sum(rhs),rhsMax =  -6.83031409209889E-12  4.38118053189952E-01
 cg2d: Sum(rhs),rhsMax =  -6.82598422230285E-12  4.39596300113357E-01
 cg2d: Sum(rhs),rhsMax =  -6.84041712162298E-12  4.40291626410148E-01
 cg2d: Sum(rhs),rhsMax =  -6.87838674906516E-12  4.40208942483692E-01
 cg2d: Sum(rhs),rhsMax =  -6.92679247293881E-12  4.39356701311129E-01
 cg2d: Sum(rhs),rhsMax =  -7.04025726605551E-12  4.37746793038071E-01
 cg2d: Sum(rhs),rhsMax =  -7.15127956851802E-12  4.35394415760047E-01
 cg2d: Sum(rhs),rhsMax =  -7.29816207467593E-12  4.32317924140702E-01
 cg2d: Sum(rhs),rhsMax =  -7.40707495339166E-12  4.28538657264643E-01
 cg2d: Sum(rhs),rhsMax =  -7.58670903877601E-12  4.24080747381710E-01
 cg2d: Sum(rhs),rhsMax =  -7.79021291918980E-12  4.18970912163962E-01
 cg2d: Sum(rhs),rhsMax =  -8.03035415941622E-12  4.13238232742551E-01
 cg2d: Sum(rhs),rhsMax =  -8.08009215091943E-12  4.06913918011780E-01
 cg2d: Sum(rhs),rhsMax =  -8.18034529004308E-12  4.00031058411247E-01
 cg2d: Sum(rhs),rhsMax =  -8.27637958167315E-12  3.92624370209365E-01
 cg2d: Sum(rhs),rhsMax =  -8.33066948757732E-12  3.84729934474421E-01
 cg2d: Sum(rhs),rhsMax =  -8.47455439156874E-12  3.76384930369958E-01
 cg2d: Sum(rhs),rhsMax =  -8.62687699054732E-12  3.67627368559525E-01
 cg2d: Sum(rhs),rhsMax =  -8.79485373417310E-12  3.58495828587640E-01
 cg2d: Sum(rhs),rhsMax =  -8.97004692745895E-12  3.49029199377506E-01
 cg2d: Sum(rhs),rhsMax =  -9.16211551071910E-12  3.39266429435802E-01
 cg2d: Sum(rhs),rhsMax =  -9.40247879555045E-12  3.29246287334273E-01
 cg2d: Sum(rhs),rhsMax =  -9.63373825157987E-12  3.19007134666949E-01
 cg2d: Sum(rhs),rhsMax =  -9.87365744720137E-12  3.08586713807085E-01
 cg2d: Sum(rhs),rhsMax =  -1.01525454709872E-11  2.98021952922629E-01
 cg2d: Sum(rhs),rhsMax =  -1.04435349257415E-11  2.87348788370327E-01
 cg2d: Sum(rhs),rhsMax =  -1.07700515172837E-11  2.76602005384661E-01
 cg2d: Sum(rhs),rhsMax =  -1.11101128297264E-11  2.65815096662465E-01
 cg2d: Sum(rhs),rhsMax =  -1.14668274875385E-11  2.55020137610255E-01
 cg2d: Sum(rhs),rhsMax =  -1.18541843008302E-11  2.44247679379118E-01
 cg2d: Sum(rhs),rhsMax =  -1.22728494034163E-11  2.33526655991661E-01
 cg2d: Sum(rhs),rhsMax =  -1.27164945240565E-11  2.22884305724475E-01
 cg2d: Sum(rhs),rhsMax =  -1.32535094010677E-11  2.12346106355524E-01
 cg2d: Sum(rhs),rhsMax =  -1.37916345011035E-11  2.01935722571366E-01
 cg2d: Sum(rhs),rhsMax =  -1.44138034841035E-11  1.91674965627549E-01
 cg2d: Sum(rhs),rhsMax =  -1.50298662404680E-11  1.81583766174908E-01
 cg2d: Sum(rhs),rhsMax =  -1.58437707398207E-11  1.71680156931456E-01
 cg2d: Sum(rhs),rhsMax =  -1.67236224868361E-11  1.61980268611470E-01
 cg2d: Sum(rhs),rhsMax =  -1.77513559407316E-11  1.52498340178691E-01
 cg2d: Sum(rhs),rhsMax =  -1.88310478321796E-11  1.43246742730634E-01
 cg2d: Sum(rhs),rhsMax =  -1.99966709857335E-11  1.34236016610624E-01
 cg2d: Sum(rhs),rhsMax =  -2.13873363463790E-11  1.25474918269760E-01
 cg2d: Sum(rhs),rhsMax =  -2.28944641023077E-11  1.16970479366227E-01
 cg2d: Sum(rhs),rhsMax =  -2.46028752926009E-11  1.08728076091659E-01
 cg2d: Sum(rhs),rhsMax =  -2.57623922195194E-11  1.03869527869227E-01
 cg2d: Sum(rhs),rhsMax =  -2.67872390935509E-11  1.00002405041803E-01
 cg2d: Sum(rhs),rhsMax =  -2.75042211228538E-11  9.71310520343683E-02
 cg2d: Sum(rhs),rhsMax =  -2.82531775752659E-11  9.44748727392325E-02
 cg2d: Sum(rhs),rhsMax =  -2.90307777817134E-11  9.17212806473920E-02
 cg2d: Sum(rhs),rhsMax =  -2.98634450501822E-11  8.88909361204306E-02
 cg2d: Sum(rhs),rhsMax =  -3.07697201051838E-11  8.59919851702636E-02
 cg2d: Sum(rhs),rhsMax =  -3.18244319785776E-11  8.29897022680882E-02
 cg2d: Sum(rhs),rhsMax =  -3.29554161737633E-11  7.98857080830110E-02
 cg2d: Sum(rhs),rhsMax =  -3.42360584326684E-11  7.66814717424117E-02
 cg2d: Sum(rhs),rhsMax =  -3.56298324177828E-11  7.33783212439516E-02
 cg2d: Sum(rhs),rhsMax =  -3.73062136738156E-11  6.99774598370158E-02
 cg2d: Sum(rhs),rhsMax =  -3.91515708741963E-11  6.64799875293376E-02
 cg2d: Sum(rhs),rhsMax =  -4.13135636812001E-11  6.28869268647420E-02
 cg2d: Sum(rhs),rhsMax =  -4.38247771405997E-11  5.91992521789641E-02
 cg2d: Sum(rhs),rhsMax =  -4.66983673952370E-11  5.54337493385466E-02
 cg2d: Sum(rhs),rhsMax =  -5.01021446552841E-11  5.16122331731406E-02
 cg2d: Sum(rhs),rhsMax =  -5.42263733915860E-11  4.77055738339449E-02
 cg2d: Sum(rhs),rhsMax =  -5.91294842949841E-11  4.37710099711023E-02
 cg2d: Sum(rhs),rhsMax =  -6.50273168645299E-11  3.97767781126436E-02
 cg2d: Sum(rhs),rhsMax =  -7.22845672207484E-11  3.57922043300155E-02
 cg2d: Sum(rhs),rhsMax =  -8.13413225664306E-11  3.18039530669425E-02
 cg2d: Sum(rhs),rhsMax =  -8.60276294645246E-11  3.00967745757645E-02
 cg2d: Sum(rhs),rhsMax =  -8.41350322744461E-11  3.08100519662173E-02
 cg2d: Sum(rhs),rhsMax =  -8.26069213033520E-11  3.14125762058879E-02
 cg2d: Sum(rhs),rhsMax =  -8.17027556720973E-11  3.18099315996122E-02
 cg2d: Sum(rhs),rhsMax =  -8.08549893704935E-11  3.21955689779772E-02
 cg2d: Sum(rhs),rhsMax =  -8.03571653662516E-11  3.24372124007984E-02
 cg2d: Sum(rhs),rhsMax =  -7.89075471629985E-11  3.31039439273700E-02
 cg2d: Sum(rhs),rhsMax =  -7.25260962397556E-11  3.60676240169852E-02
 cg2d: Sum(rhs),rhsMax =  -6.71906974503145E-11  3.90234183263031E-02
 cg2d: Sum(rhs),rhsMax =  -6.25970386636254E-11  4.19833221463770E-02
 cg2d: Sum(rhs),rhsMax =  -5.85775872252725E-11  4.49591874748297E-02
 cg2d: Sum(rhs),rhsMax =  -5.50220979889104E-11  4.79626951631259E-02
 cg2d: Sum(rhs),rhsMax =  -5.18493026291367E-11  5.10053249415746E-02
 cg2d: Sum(rhs),rhsMax =  -4.89688289917467E-11  5.40983229089803E-02
 cg2d: Sum(rhs),rhsMax =  -4.63636906644638E-11  5.72526664446900E-02
 cg2d: Sum(rhs),rhsMax =  -4.39823732989453E-11  6.04790268339830E-02
 cg2d: Sum(rhs),rhsMax =  -4.18389767276039E-11  6.37877298597091E-02
 cg2d: Sum(rhs),rhsMax =  -3.98125976630581E-11  6.71887145612647E-02
 cg2d: Sum(rhs),rhsMax =  -3.78672648793099E-11  7.06914904846559E-02
 cg2d: Sum(rhs),rhsMax =  -3.60973473334525E-11  7.43050939122707E-02
 cg2d: Sum(rhs),rhsMax =  -3.44480000080694E-11  7.80380436521896E-02
 cg2d: Sum(rhs),rhsMax =  -3.27612381667564E-11  8.22558382787964E-02
 cg2d: Sum(rhs),rhsMax =  -3.11739523084498E-11  8.66873963854837E-02
 cg2d: Sum(rhs),rhsMax =  -2.97259994397336E-11  9.10580885457758E-02
 cg2d: Sum(rhs),rhsMax =  -2.84212653411942E-11  9.53899956354273E-02
 cg2d: Sum(rhs),rhsMax =  -2.73001621309277E-11  9.96827210250810E-02
 cg2d: Sum(rhs),rhsMax =  -2.62905253123336E-11  1.03889944111901E-01
 cg2d: Sum(rhs),rhsMax =  -2.53664866889380E-11  1.08097694969494E-01
 cg2d: Sum(rhs),rhsMax =  -2.44034792373782E-11  1.13016273539750E-01
 cg2d: Sum(rhs),rhsMax =  -2.34339214699730E-11  1.18100956505133E-01
 cg2d: Sum(rhs),rhsMax =  -2.25122143149292E-11  1.23353022496187E-01
 cg2d: Sum(rhs),rhsMax =  -2.16577866751777E-11  1.28772876853814E-01
 cg2d: Sum(rhs),rhsMax =  -2.07722727907367E-11  1.34360031118176E-01
 cg2d: Sum(rhs),rhsMax =  -1.99769090158952E-11  1.40113082047429E-01
 cg2d: Sum(rhs),rhsMax =  -1.91642257618696E-11  1.46029689768354E-01
 cg2d: Sum(rhs),rhsMax =  -1.84190440677412E-11  1.52106555103039E-01
 cg2d: Sum(rhs),rhsMax =  -1.76960668341053E-11  1.58339396506959E-01
 cg2d: Sum(rhs),rhsMax =  -1.70317093761696E-11  1.64722927438081E-01
 cg2d: Sum(rhs),rhsMax =  -1.64015467873924E-11  1.71250835389394E-01
 cg2d: Sum(rhs),rhsMax =  -1.57833746072811E-11  1.77915764110831E-01
 cg2d: Sum(rhs),rhsMax =  -1.52456935964551E-11  1.84709300621527E-01
 cg2d: Sum(rhs),rhsMax =  -1.47554191087806E-11  1.91621968614579E-01
 cg2d: Sum(rhs),rhsMax =  -1.43469680580210E-11  1.98643229763165E-01
 cg2d: Sum(rhs),rhsMax =  -1.39233069518241E-11  2.05761494219709E-01
 cg2d: Sum(rhs),rhsMax =  -1.35489397479205E-11  2.12964141444653E-01
 cg2d: Sum(rhs),rhsMax =  -1.31250565971186E-11  2.20237551760478E-01
 cg2d: Sum(rhs),rhsMax =  -1.28594912496283E-11  2.27567149123279E-01
 cg2d: Sum(rhs),rhsMax =  -1.25326415911786E-11  2.34937454996475E-01
 cg2d: Sum(rhs),rhsMax =  -1.22156729176481E-11  2.42332152874104E-01
 cg2d: Sum(rhs),rhsMax =  -1.19708687407183E-11  2.49734162703051E-01
 cg2d: Sum(rhs),rhsMax =  -1.17128529097954E-11  2.57125724212297E-01
 cg2d: Sum(rhs),rhsMax =  -1.14828146990931E-11  2.64488487978497E-01
 cg2d: Sum(rhs),rhsMax =  -1.13002940338447E-11  2.71803612938065E-01
 cg2d: Sum(rhs),rhsMax =  -1.10480513626499E-11  2.79051869012777E-01
 cg2d: Sum(rhs),rhsMax =  -1.07434061646927E-11  2.86213743545149E-01
 cg2d: Sum(rhs),rhsMax =  -1.05098152403116E-11  2.93269550334420E-01
 cg2d: Sum(rhs),rhsMax =  -1.03286268426928E-11  3.00199540209437E-01
 cg2d: Sum(rhs),rhsMax =  -1.01147978881500E-11  3.06984012250833E-01
 cg2d: Sum(rhs),rhsMax =  -9.84812231763499E-12  3.13603424956987E-01
 cg2d: Sum(rhs),rhsMax =  -9.59077262052688E-12  3.20038506803568E-01
 cg2d: Sum(rhs),rhsMax =  -9.47952827345944E-12  3.26270365774458E-01
 cg2d: Sum(rhs),rhsMax =  -9.38582545018107E-12  3.32280597523655E-01
 cg2d: Sum(rhs),rhsMax =  -9.23261467278280E-12  3.40259244133017E-01
 cg2d: Sum(rhs),rhsMax =  -8.97992791237812E-12  3.52184776011904E-01
 cg2d: Sum(rhs),rhsMax =  -8.76676509165009E-12  3.63992617542970E-01
 cg2d: Sum(rhs),rhsMax =  -8.53883630469454E-12  3.75648865851005E-01
 cg2d: Sum(rhs),rhsMax =  -8.36009039772989E-12  3.87119511019130E-01
 cg2d: Sum(rhs),rhsMax =  -8.19466716706074E-12  3.98370610665040E-01
 cg2d: Sum(rhs),rhsMax =  -8.05389088753827E-12  4.09368467479880E-01
 cg2d: Sum(rhs),rhsMax =  -7.87081511077758E-12  4.20079808202978E-01
 cg2d: Sum(rhs),rhsMax =  -7.73670016940287E-12  4.30471962380781E-01
 cg2d: Sum(rhs),rhsMax =  -7.60180807191091E-12  4.40513039672111E-01
 cg2d: Sum(rhs),rhsMax =  -7.54774021061166E-12  4.50172104324097E-01
 cg2d: Sum(rhs),rhsMax =  -7.50211004429957E-12  4.59419345173127E-01
 cg2d: Sum(rhs),rhsMax =  -7.45625783338255E-12  4.68226239602112E-01
 cg2d: Sum(rhs),rhsMax =  -7.41851025054530E-12  4.76565711071837E-01
 cg2d: Sum(rhs),rhsMax =  -7.36632976838791E-12  4.84412278463036E-01
 cg2d: Sum(rhs),rhsMax =  -7.32935934166790E-12  4.91742196105789E-01
 cg2d: Sum(rhs),rhsMax =  -7.25719484506726E-12  4.98533583441672E-01
 cg2d: Sum(rhs),rhsMax =  -7.22744086800731E-12  5.04766543358433E-01
 cg2d: Sum(rhs),rhsMax =  -7.21300796868718E-12  5.10423268373192E-01
 cg2d: Sum(rhs),rhsMax =  -7.13373804472894E-12  5.15488133592198E-01
 cg2d: Sum(rhs),rhsMax =  -7.08144654026910E-12  5.19947775562512E-01
 cg2d: Sum(rhs),rhsMax =  -7.01916302858763E-12  5.23791156284632E-01
 cg2d: Sum(rhs),rhsMax =  -7.00450808466258E-12  5.27009611764134E-01
 cg2d: Sum(rhs),rhsMax =  -6.92002011248860E-12  5.29596884592872E-01
 cg2d: Sum(rhs),rhsMax =  -6.92701451754374E-12  5.31549140227597E-01
 cg2d: Sum(rhs),rhsMax =  -6.91857682255659E-12  5.32864966838650E-01
 cg2d: Sum(rhs),rhsMax =  -6.95044022336333E-12  5.33545358780736E-01
 cg2d: Sum(rhs),rhsMax =  -7.04447611354908E-12  5.33593684063100E-01
 cg2d: Sum(rhs),rhsMax =  -7.10453917918130E-12  5.33015636204737E-01
 cg2d: Sum(rhs),rhsMax =  -7.15794090666577E-12  5.31819171529151E-01
 cg2d: Sum(rhs),rhsMax =  -7.20623560823697E-12  5.30014432412849E-01
 cg2d: Sum(rhs),rhsMax =  -7.28950233508385E-12  5.27613656874710E-01
 cg2d: Sum(rhs),rhsMax =  -7.37510053028245E-12  5.24631076514410E-01
 cg2d: Sum(rhs),rhsMax =  -7.50688400330546E-12  5.21082804402459E-01
 cg2d: Sum(rhs),rhsMax =  -7.61002372229314E-12  5.16986713716032E-01
 cg2d: Sum(rhs),rhsMax =  -7.75290942556239E-12  5.12362307452903E-01
 cg2d: Sum(rhs),rhsMax =  -7.89934784251045E-12  5.07230582041307E-01
 cg2d: Sum(rhs),rhsMax =  -8.01803068384288E-12  5.01613884611224E-01
 cg2d: Sum(rhs),rhsMax =  -8.21009926710303E-12  4.95535766038066E-01
 cg2d: Sum(rhs),rhsMax =  -8.39117664241940E-12  4.89020831342130E-01
 cg2d: Sum(rhs),rhsMax =  -8.57858228897612E-12  4.82094586767351E-01
 cg2d: Sum(rhs),rhsMax =  -8.73945360524431E-12  4.74783283929816E-01
 cg2d: Sum(rhs),rhsMax =  -8.91409168701784E-12  4.67113765277920E-01
 cg2d: Sum(rhs),rhsMax =  -9.11248854151836E-12  4.59113311128203E-01
 cg2d: Sum(rhs),rhsMax =  -9.30855392766716E-12  4.50809487590173E-01
 cg2d: Sum(rhs),rhsMax =  -9.51616563327207E-12  4.42229998565129E-01
 cg2d: Sum(rhs),rhsMax =  -9.77007363900384E-12  4.33402542550401E-01
 cg2d: Sum(rhs),rhsMax =  -9.99511584609536E-12  4.24354675208402E-01
 cg2d: Sum(rhs),rhsMax =  -1.02702291115975E-11  4.15113678604213E-01
 cg2d: Sum(rhs),rhsMax =  -1.05087050172870E-11  4.05706437283457E-01
 cg2d: Sum(rhs),rhsMax =  -1.08795195075118E-11  3.96159322064296E-01
 cg2d: Sum(rhs),rhsMax =  -1.12484466185947E-11  3.86498082646075E-01
 cg2d: Sum(rhs),rhsMax =  -1.16443521491760E-11  3.76747749311586E-01
 cg2d: Sum(rhs),rhsMax =  -1.19655396702001E-11  3.66932543327439E-01
 cg2d: Sum(rhs),rhsMax =  -1.23234755733392E-11  3.57075796555239E-01
 cg2d: Sum(rhs),rhsMax =  -1.26876287254163E-11  3.47199880276433E-01
 cg2d: Sum(rhs),rhsMax =  -1.30720989588440E-11  3.37326142976186E-01
 cg2d: Sum(rhs),rhsMax =  -1.35665922940120E-11  3.27474856247976E-01
 cg2d: Sum(rhs),rhsMax =  -1.38450362285880E-11  3.17665170553365E-01
 cg2d: Sum(rhs),rhsMax =  -1.41822109611667E-11  3.07915078551010E-01
 cg2d: Sum(rhs),rhsMax =  -1.46153089630729E-11  2.98241385591222E-01
 cg2d: Sum(rhs),rhsMax =  -1.50375267793379E-11  2.88659687137740E-01
 cg2d: Sum(rhs),rhsMax =  -1.55030432935632E-11  2.79184352046186E-01
 cg2d: Sum(rhs),rhsMax =  -1.60114144165391E-11  2.69828513596905E-01
 cg2d: Sum(rhs),rhsMax =  -1.65382152417237E-11  2.60604065668462E-01
 cg2d: Sum(rhs),rhsMax =  -1.71375136304164E-11  2.51521663668393E-01
 cg2d: Sum(rhs),rhsMax =  -1.77765580033906E-11  2.42590729986824E-01
 cg2d: Sum(rhs),rhsMax =  -1.84433579519805E-11  2.33819463801189E-01
 cg2d: Sum(rhs),rhsMax =  -1.91281435135693E-11  2.25214855047875E-01
 cg2d: Sum(rhs),rhsMax =  -1.97801774959316E-11  2.16782702455495E-01
 cg2d: Sum(rhs),rhsMax =  -2.05686578880204E-11  2.08527635750847E-01
 cg2d: Sum(rhs),rhsMax =  -2.13835615880953E-11  2.00453141411219E-01
 cg2d: Sum(rhs),rhsMax =  -2.21915819054175E-11  1.92561592912527E-01
 cg2d: Sum(rhs),rhsMax =  -2.30767627229511E-11  1.84854285193345E-01
 cg2d: Sum(rhs),rhsMax =  -2.40569786313927E-11  1.77331473272267E-01
 cg2d: Sum(rhs),rhsMax =  -2.49845699684670E-11  1.69992415046520E-01
 cg2d: Sum(rhs),rhsMax =  -2.60773624916055E-11  1.62835418073961E-01
 cg2d: Sum(rhs),rhsMax =  -2.71505040672082E-11  1.55857890068510E-01
 cg2d: Sum(rhs),rhsMax =  -2.83690848590368E-11  1.49056392806844E-01
 cg2d: Sum(rhs),rhsMax =  -2.95187208010361E-11  1.42426698353212E-01
 cg2d: Sum(rhs),rhsMax =  -3.08563175011045E-11  1.35963847131544E-01
 cg2d: Sum(rhs),rhsMax =  -3.23014948122591E-11  1.29662207203717E-01
 cg2d: Sum(rhs),rhsMax =  -3.38783445741342E-11  1.23515534070443E-01
 cg2d: Sum(rhs),rhsMax =  -3.55825369169338E-11  1.17517029106228E-01
 cg2d: Sum(rhs),rhsMax =  -3.73915343132580E-11  1.11659396563993E-01
 cg2d: Sum(rhs),rhsMax =  -3.93400867437776E-11  1.05934898784166E-01
 cg2d: Sum(rhs),rhsMax =  -4.14763778877614E-11  1.00335408576692E-01
 cg2d: Sum(rhs),rhsMax =  -4.25958157634909E-11  9.75841633025478E-02
 cg2d: Sum(rhs),rhsMax =  -4.34257074743982E-11  9.55744334294436E-02
 cg2d: Sum(rhs),rhsMax =  -4.42682557277863E-11  9.36212624846316E-02
 cg2d: Sum(rhs),rhsMax =  -4.51469972517771E-11  9.17173998993058E-02
 cg2d: Sum(rhs),rhsMax =  -4.59436932942481E-11  8.98552556007767E-02
 cg2d: Sum(rhs),rhsMax =  -4.68729499658593E-11  8.80268864047028E-02
 cg2d: Sum(rhs),rhsMax =  -4.77975437007672E-11  8.62239853693857E-02
 cg2d: Sum(rhs),rhsMax =  -4.87467843868217E-11  8.44378759630939E-02
 cg2d: Sum(rhs),rhsMax =  -4.97096808160791E-11  8.26595124134194E-02
 cg2d: Sum(rhs),rhsMax =  -5.07279773742653E-11  8.08794874028513E-02
 cg2d: Sum(rhs),rhsMax =  -5.18074472211083E-11  7.90880469538011E-02
 cg2d: Sum(rhs),rhsMax =  -5.29430943529974E-11  7.72751126837547E-02
 cg2d: Sum(rhs),rhsMax =  -5.41664491038318E-11  7.54303109945610E-02
 cg2d: Sum(rhs),rhsMax =  -5.54563062138413E-11  7.35430084706447E-02
 cg2d: Sum(rhs),rhsMax =  -5.68882718710029E-11  7.16023527571504E-02
 cg2d: Sum(rhs),rhsMax =  -5.84492454436258E-11  6.95973182693257E-02
 cg2d: Sum(rhs),rhsMax =  -6.01367844410561E-11  6.75167562323904E-02
 cg2d: Sum(rhs),rhsMax =  -6.20166140663514E-11  6.53494487531136E-02
 cg2d: Sum(rhs),rhsMax =  -6.41531272549400E-11  6.30841667551179E-02
 cg2d: Sum(rhs),rhsMax =  -6.65600907723274E-11  6.07097316693038E-02
 cg2d: Sum(rhs),rhsMax =  -6.93910484628191E-11  5.82150807523367E-02
 cg2d: Sum(rhs),rhsMax =  -7.26267934680891E-11  5.55893357578079E-02
 cg2d: Sum(rhs),rhsMax =  -7.63913376999881E-11  5.28218744232369E-02
 cg2d: Sum(rhs),rhsMax =  -8.08271227725754E-11  4.99024039571492E-02
 cg2d: Sum(rhs),rhsMax =  -8.61146709496552E-11  4.68210353172843E-02
 cg2d: Sum(rhs),rhsMax =  -9.25247656269335E-11  4.35683567564213E-02
 cg2d: Sum(rhs),rhsMax =  -8.41428038356185E-11  4.78764195917371E-02
 cg2d: Sum(rhs),rhsMax =  -7.67269581203323E-11  5.24889339328532E-02
 cg2d: Sum(rhs),rhsMax =  -7.04045710619994E-11  5.71231811145964E-02
 cg2d: Sum(rhs),rhsMax =  -6.49515441430992E-11  6.18330319290015E-02
 cg2d: Sum(rhs),rhsMax =  -6.00573479836441E-11  6.67352300873722E-02
 cg2d: Sum(rhs),rhsMax =  -5.58340040868188E-11  7.17519732703368E-02
 cg2d: Sum(rhs),rhsMax =  -5.21274412523809E-11  7.67746519402621E-02
 cg2d: Sum(rhs),rhsMax =  -4.87123952286339E-11  8.19439384833008E-02
 cg2d: Sum(rhs),rhsMax =  -4.56940041360099E-11  8.71884430233989E-02
 cg2d: Sum(rhs),rhsMax =  -4.29473114244103E-11  9.25481815490290E-02
 cg2d: Sum(rhs),rhsMax =  -4.04768232820096E-11  9.80870160918724E-02
 cg2d: Sum(rhs),rhsMax =  -3.83357789957017E-11  1.03777382769862E-01
 cg2d: Sum(rhs),rhsMax =  -3.62859187141851E-11  1.09650122094593E-01
 cg2d: Sum(rhs),rhsMax =  -3.44090866910562E-11  1.15798602575337E-01
 cg2d: Sum(rhs),rhsMax =  -3.25380555832311E-11  1.22466239611779E-01
 cg2d: Sum(rhs),rhsMax =  -3.08703618223660E-11  1.29191012132333E-01
 cg2d: Sum(rhs),rhsMax =  -2.93509105908640E-11  1.35965702027277E-01
 cg2d: Sum(rhs),rhsMax =  -2.79986034357194E-11  1.42782392452915E-01
 cg2d: Sum(rhs),rhsMax =  -2.67576516499446E-11  1.49632485051353E-01
 cg2d: Sum(rhs),rhsMax =  -2.55547805139145E-11  1.56506723486068E-01
 cg2d: Sum(rhs),rhsMax =  -2.44762543566424E-11  1.63395223516763E-01
 cg2d: Sum(rhs),rhsMax =  -2.34917085784048E-11  1.70287509655947E-01
 cg2d: Sum(rhs),rhsMax =  -2.25567342582167E-11  1.77172558245596E-01
 cg2d: Sum(rhs),rhsMax =  -2.17288409487537E-11  1.84038846578695E-01
 cg2d: Sum(rhs),rhsMax =  -2.09703365783298E-11  1.90874407485557E-01
 cg2d: Sum(rhs),rhsMax =  -2.02824423922721E-11  1.97666888627403E-01
 cg2d: Sum(rhs),rhsMax =  -1.96151983544723E-11  2.04403615608362E-01
 cg2d: Sum(rhs),rhsMax =  -1.90647497788632E-11  2.11071657936468E-01
 cg2d: Sum(rhs),rhsMax =  -1.85229609428461E-11  2.17657896849164E-01
 cg2d: Sum(rhs),rhsMax =  -1.79888326456989E-11  2.24149094067074E-01
 cg2d: Sum(rhs),rhsMax =  -1.75465197926883E-11  2.30531960641108E-01
 cg2d: Sum(rhs),rhsMax =  -1.70924385756166E-11  2.36793225197368E-01
 cg2d: Sum(rhs),rhsMax =  -1.67024172270658E-11  2.42919701045810E-01
 cg2d: Sum(rhs),rhsMax =  -1.63291602461868E-11  2.48898351784241E-01
 cg2d: Sum(rhs),rhsMax =  -1.59993129855707E-11  2.54716355182230E-01
 cg2d: Sum(rhs),rhsMax =  -1.56996637912243E-11  2.60361165251487E-01
 cg2d: Sum(rhs),rhsMax =  -1.54284363063084E-11  2.65820572497958E-01
 cg2d: Sum(rhs),rhsMax =  -1.51791912372801E-11  2.71082762378188E-01
 cg2d: Sum(rhs),rhsMax =  -1.49836809626436E-11  2.76136371967806E-01
 cg2d: Sum(rhs),rhsMax =  -1.47892809110317E-11  2.80970544793955E-01
 cg2d: Sum(rhs),rhsMax =  -1.46108680709744E-11  2.85574983688000E-01
 cg2d: Sum(rhs),rhsMax =  -1.44454448403053E-11  2.89940001405366E-01
 cg2d: Sum(rhs),rhsMax =  -1.42845735240371E-11  2.94056568652338E-01
 cg2d: Sum(rhs),rhsMax =  -1.41259226538182E-11  2.97916359019027E-01
 cg2d: Sum(rhs),rhsMax =  -1.39900313556041E-11  3.01511790244224E-01
 cg2d: Sum(rhs),rhsMax =  -1.38473676969397E-11  3.04836061182985E-01
 cg2d: Sum(rhs),rhsMax =  -1.37557742974082E-11  3.07883183834516E-01
 cg2d: Sum(rhs),rhsMax =  -1.36529676453279E-11  3.10648009819420E-01
 cg2d: Sum(rhs),rhsMax =  -1.35557121083707E-11  3.13126250783831E-01
 cg2d: Sum(rhs),rhsMax =  -1.35046418492379E-11  3.15314492305621E-01
 cg2d: Sum(rhs),rhsMax =  -1.34698918685672E-11  3.17210200952645E-01
 cg2d: Sum(rhs),rhsMax =  -1.34601219059505E-11  3.18811724456289E-01
 cg2d: Sum(rhs),rhsMax =  -1.34211530777861E-11  3.20118285049468E-01
 cg2d: Sum(rhs),rhsMax =  -1.33669741941844E-11  3.21406197095584E-01
 cg2d: Sum(rhs),rhsMax =  -1.32280852938038E-11  3.25308567192378E-01
 cg2d: Sum(rhs),rhsMax =  -1.31357147381550E-11  3.28825228517634E-01
 cg2d: Sum(rhs),rhsMax =  -1.30209176774088E-11  3.31948386474535E-01
 cg2d: Sum(rhs),rhsMax =  -1.29140032001374E-11  3.34671388242474E-01
 cg2d: Sum(rhs),rhsMax =  -1.28084209904955E-11  3.36988761295995E-01
 cg2d: Sum(rhs),rhsMax =  -1.27603483335292E-11  3.38896248848050E-01
 cg2d: Sum(rhs),rhsMax =  -1.26841870340400E-11  3.40390840579654E-01
 cg2d: Sum(rhs),rhsMax =  -1.26638699526893E-11  3.41470796842981E-01
 cg2d: Sum(rhs),rhsMax =  -1.26806343203612E-11  3.42135664566435E-01
 cg2d: Sum(rhs),rhsMax =  -1.27166055463590E-11  3.42386283257797E-01
 cg2d: Sum(rhs),rhsMax =  -1.27784449688306E-11  3.42224779849007E-01
 cg2d: Sum(rhs),rhsMax =  -1.28859145576143E-11  3.41654552163241E-01
 cg2d: Sum(rhs),rhsMax =  -1.29365407275372E-11  3.40680241052026E-01
 cg2d: Sum(rhs),rhsMax =  -1.30536692566352E-11  3.39307691871724E-01
 cg2d: Sum(rhs),rhsMax =  -1.31726851648750E-11  3.37543907127672E-01
 cg2d: Sum(rhs),rhsMax =  -1.34035005316946E-11  3.35396991613660E-01
 cg2d: Sum(rhs),rhsMax =  -1.34136035612187E-11  3.32876092796067E-01
 cg2d: Sum(rhs),rhsMax =  -1.34703359577770E-11  3.29991337625301E-01
 cg2d: Sum(rhs),rhsMax =  -1.35670363832219E-11  3.26753767993058E-01
 cg2d: Sum(rhs),rhsMax =  -1.36225475344531E-11  3.23175276210706E-01
 cg2d: Sum(rhs),rhsMax =  -1.37283517886999E-11  3.19268539242266E-01
 cg2d: Sum(rhs),rhsMax =  -1.38098421587074E-11  3.15046953218798E-01
 cg2d: Sum(rhs),rhsMax =  -1.39602773785441E-11  3.10524568474578E-01
 cg2d: Sum(rhs),rhsMax =  -1.41029410372084E-11  3.05716021580997E-01
 cg2d: Sum(rhs),rhsMax =  -1.42980072226351E-11  3.00636466628802E-01
 cg2d: Sum(rhs),rhsMax =  -1.45370382398369E-11  2.95301503911685E-01
 cg2d: Sum(rhs),rhsMax =  -1.47767353908534E-11  2.89727105125713E-01
 cg2d: Sum(rhs),rhsMax =  -1.50378598462453E-11  2.83929534488991E-01
 cg2d: Sum(rhs),rhsMax =  -1.53050905282726E-11  2.77925267479463E-01
 cg2d: Sum(rhs),rhsMax =  -1.56213930679883E-11  2.71730907809441E-01
 cg2d: Sum(rhs),rhsMax =  -1.59477986372281E-11  2.65363103844362E-01
 cg2d: Sum(rhs),rhsMax =  -1.62950763993308E-11  2.58838465938730E-01
 cg2d: Sum(rhs),rhsMax =  -1.66697766701418E-11  2.52173486504378E-01
 cg2d: Sum(rhs),rhsMax =  -1.70803371446482E-11  2.45384464487759E-01
 cg2d: Sum(rhs),rhsMax =  -1.74910086414570E-11  2.38487434602526E-01
 cg2d: Sum(rhs),rhsMax =  -1.79780634823601E-11  2.31498103797318E-01
 cg2d: Sum(rhs),rhsMax =  -1.84814386017251E-11  2.24431794639511E-01
 cg2d: Sum(rhs),rhsMax =  -1.90365501140377E-11  2.17303395029147E-01
 cg2d: Sum(rhs),rhsMax =  -1.96217486703176E-11  2.10127313597171E-01
 cg2d: Sum(rhs),rhsMax =  -2.02716732289332E-11  2.02917441245419E-01
 cg2d: Sum(rhs),rhsMax =  -2.09668948869535E-11  1.95687116802894E-01
 cg2d: Sum(rhs),rhsMax =  -2.17282858372414E-11  1.88449096452542E-01
 cg2d: Sum(rhs),rhsMax =  -2.25330865077922E-11  1.81215526453120E-01
 cg2d: Sum(rhs),rhsMax =  -2.34380292951641E-11  1.73997917454025E-01
 cg2d: Sum(rhs),rhsMax =  -2.44668729720843E-11  1.66807120545651E-01
 cg2d: Sum(rhs),rhsMax =  -2.55997445464118E-11  1.59653306189885E-01
 cg2d: Sum(rhs),rhsMax =  -2.67987854130070E-11  1.52545945987709E-01
 cg2d: Sum(rhs),rhsMax =  -2.79617440313018E-11  1.45805671278658E-01
 cg2d: Sum(rhs),rhsMax =  -2.89495094563108E-11  1.40808705533014E-01
 cg2d: Sum(rhs),rhsMax =  -2.99245073165366E-11  1.35873450871019E-01
 cg2d: Sum(rhs),rhsMax =  -3.10499403965991E-11  1.31003531028542E-01
 cg2d: Sum(rhs),rhsMax =  -3.21325188679111E-11  1.26202164626305E-01
 cg2d: Sum(rhs),rhsMax =  -3.33468808122461E-11  1.21472157687019E-01
 cg2d: Sum(rhs),rhsMax =  -3.46312978294350E-11  1.16815897703524E-01
 cg2d: Sum(rhs),rhsMax =  -3.59799967597496E-11  1.12235349023582E-01
 cg2d: Sum(rhs),rhsMax =  -3.74680286796547E-11  1.07732049452154E-01
 cg2d: Sum(rhs),rhsMax =  -3.89753784801883E-11  1.03307107751949E-01
 cg2d: Sum(rhs),rhsMax =  -4.06629174776185E-11  9.89612016600748E-02
 cg2d: Sum(rhs),rhsMax =  -4.24047463809529E-11  9.46945760158997E-02
 cg2d: Sum(rhs),rhsMax =  -4.42996750393831E-11  9.05070406478615E-02
 cg2d: Sum(rhs),rhsMax =  -4.63289406837930E-11  8.63979678051688E-02
 cg2d: Sum(rhs),rhsMax =  -4.85514961567901E-11  8.23662890764975E-02
 cg2d: Sum(rhs),rhsMax =  -5.09293718309323E-11  7.84104915132862E-02
 cg2d: Sum(rhs),rhsMax =  -5.35917976662859E-11  7.45286133344816E-02
 cg2d: Sum(rhs),rhsMax =  -5.61988233727106E-11  7.07182398668961E-02
 cg2d: Sum(rhs),rhsMax =  -5.93516347180412E-11  6.69765002169197E-02
 cg2d: Sum(rhs),rhsMax =  -6.27616847381773E-11  6.33000652554095E-02
 cg2d: Sum(rhs),rhsMax =  -6.65302257729650E-11  5.96851472046504E-02
 cg2d: Sum(rhs),rhsMax =  -7.07058300797314E-11  5.61275016690477E-02
 cg2d: Sum(rhs),rhsMax =  -7.54903917155048E-11  5.26224328118241E-02
 cg2d: Sum(rhs),rhsMax =  -8.08939581986579E-11  4.91648021473944E-02
 cg2d: Sum(rhs),rhsMax =  -8.70305910671831E-11  4.57490412576282E-02
 cg2d: Sum(rhs),rhsMax =  -9.40592187470557E-11  4.23691685768183E-02
 cg2d: Sum(rhs),rhsMax =  -1.02254760214748E-10  3.90188102298064E-02
 cg2d: Sum(rhs),rhsMax =  -1.11896936161315E-10  3.56912247597360E-02
 cg2d: Sum(rhs),rhsMax =  -1.23487331471495E-10  3.23793314466563E-02
 cg2d: Sum(rhs),rhsMax =  -1.37682865108957E-10  2.90757418062441E-02
 cg2d: Sum(rhs),rhsMax =  -1.55378709898457E-10  2.57727937767474E-02
 cg2d: Sum(rhs),rhsMax =  -1.39376843399930E-10  2.87409012106178E-02
 cg2d: Sum(rhs),rhsMax =  -1.21587850898663E-10  3.29536022849095E-02
 cg2d: Sum(rhs),rhsMax =  -1.07753250766507E-10  3.71912379681515E-02
 cg2d: Sum(rhs),rhsMax =  -9.68448654603549E-11  4.14409735667635E-02
 cg2d: Sum(rhs),rhsMax =  -8.78679351501432E-11  4.57266812508135E-02
 cg2d: Sum(rhs),rhsMax =  -8.04760702521889E-11  4.99952535766225E-02
 cg2d: Sum(rhs),rhsMax =  -7.42440553480606E-11  5.42520079044596E-02
 cg2d: Sum(rhs),rhsMax =  -6.89555079702586E-11  5.85021616134418E-02
 cg2d: Sum(rhs),rhsMax =  -6.43891606699754E-11  6.27508053072708E-02
 cg2d: Sum(rhs),rhsMax =  -6.03919136921149E-11  6.70028778306240E-02
 cg2d: Sum(rhs),rhsMax =  -5.67681457397384E-11  7.12631437511826E-02
 cg2d: Sum(rhs),rhsMax =  -5.37059285932173E-11  7.55361734112751E-02
 cg2d: Sum(rhs),rhsMax =  -5.09119413294457E-11  7.98263253085130E-02
 cg2d: Sum(rhs),rhsMax =  -4.83248996374641E-11  8.41377307235388E-02
 cg2d: Sum(rhs),rhsMax =  -4.60573801319697E-11  8.84742802402039E-02
 cg2d: Sum(rhs),rhsMax =  -4.39659419981808E-11  9.28396115087666E-02
 cg2d: Sum(rhs),rhsMax =  -4.20143919654947E-11  9.72370972467238E-02
 cg2d: Sum(rhs),rhsMax =  -4.02154975986946E-11  1.01669832830574E-01
 cg2d: Sum(rhs),rhsMax =  -3.87121446010497E-11  1.06140622644676E-01
 cg2d: Sum(rhs),rhsMax =  -3.71893627004738E-11  1.10651964475052E-01
 cg2d: Sum(rhs),rhsMax =  -3.58446605730478E-11  1.15206031473656E-01
 cg2d: Sum(rhs),rhsMax =  -3.46025430530972E-11  1.19804651519847E-01
 cg2d: Sum(rhs),rhsMax =  -3.33998384505207E-11  1.24449284139051E-01
 cg2d: Sum(rhs),rhsMax =  -3.23243654065664E-11  1.29140995472119E-01
 cg2d: Sum(rhs),rhsMax =  -3.12170289618052E-11  1.33880432091687E-01
 cg2d: Sum(rhs),rhsMax =  -3.02131653029392E-11  1.38667794704369E-01
 cg2d: Sum(rhs),rhsMax =  -2.92827984083033E-11  1.43502812940965E-01
 cg2d: Sum(rhs),rhsMax =  -2.84086087987134E-11  1.48384722528723E-01
 cg2d: Sum(rhs),rhsMax =  -2.75277578509758E-11  1.53312245889360E-01
 cg2d: Sum(rhs),rhsMax =  -2.67172950429995E-11  1.58283577268820E-01
 cg2d: Sum(rhs),rhsMax =  -2.59168242422447E-11  1.63296373323253E-01
 cg2d: Sum(rhs),rhsMax =  -2.51929588301891E-11  1.68347749620206E-01
 cg2d: Sum(rhs),rhsMax =  -2.44915199232310E-11  1.73434283210977E-01
 cg2d: Sum(rhs),rhsMax =  -2.38413733200105E-11  1.78552021195433E-01
 cg2d: Sum(rhs),rhsMax =  -2.32336372363307E-11  1.83696494944748E-01
 cg2d: Sum(rhs),rhsMax =  -2.25992558000598E-11  1.88862739368470E-01
 cg2d: Sum(rhs),rhsMax =  -2.20330420575010E-11  1.94045316565713E-01
 cg2d: Sum(rhs),rhsMax =  -2.14812612142623E-11  1.99238343109299E-01
 cg2d: Sum(rhs),rhsMax =  -2.09277040141842E-11  2.04435520166995E-01
 cg2d: Sum(rhs),rhsMax =  -2.04254391178438E-11  2.09630165752514E-01
 cg2d: Sum(rhs),rhsMax =  -1.99316119164905E-11  2.14815248517880E-01
 cg2d: Sum(rhs),rhsMax =  -1.94084748272871E-11  2.19983422623871E-01
 cg2d: Sum(rhs),rhsMax =  -1.90262250399087E-11  2.25127063359247E-01
 cg2d: Sum(rhs),rhsMax =  -1.86044513128536E-11  2.30238303314129E-01
 cg2d: Sum(rhs),rhsMax =  -1.81923365261127E-11  2.35309069047217E-01
 cg2d: Sum(rhs),rhsMax =  -1.78430603625657E-11  2.40331118267776E-01
 cg2d: Sum(rhs),rhsMax =  -1.73860925656300E-11  2.46629099626419E-01
 cg2d: Sum(rhs),rhsMax =  -1.68565161828838E-11  2.55360594882944E-01
 cg2d: Sum(rhs),rhsMax =  -1.62773128309368E-11  2.64105291246322E-01
 cg2d: Sum(rhs),rhsMax =  -1.57805990497195E-11  2.72848395167658E-01
 cg2d: Sum(rhs),rhsMax =  -1.53218548959444E-11  2.81574664870878E-01
 cg2d: Sum(rhs),rhsMax =  -1.49140699789996E-11  2.90268460084474E-01
 cg2d: Sum(rhs),rhsMax =  -1.45011780361415E-11  2.98913795789328E-01
 cg2d: Sum(rhs),rhsMax =  -1.41565648092978E-11  3.07494399569909E-01
 cg2d: Sum(rhs),rhsMax =  -1.37890809881469E-11  3.15993772092443E-01
 cg2d: Sum(rhs),rhsMax =  -1.34665611994933E-11  3.24395250196552E-01
 cg2d: Sum(rhs),rhsMax =  -1.31699096073135E-11  3.32682072073638E-01
 cg2d: Sum(rhs),rhsMax =  -1.29027899475886E-11  3.40837444021030E-01
(PID.TID 0000.0001)      cg2d_init_res =   7.86054693554358E-02
(PID.TID 0000.0001)      cg2d_iters(min,last) =      -1      37
(PID.TID 0000.0001)      cg2d_last_res =   4.28094674729501E-14
(PID.TID 0000.0001) // =======================================================
(PID.TID 0000.0001) // Begin MONITOR dynamic field statistics
(PID.TID 0000.0001) // =======================================================
(PID.TID 0000.0001) %MON time_tsnumber                =                   960
(PID.TID 0000.0001) %MON time_secondsf                =   1.4400000000000E+04
(PID.TID 0000.0001) %MON dynstat_eta_max              =   5.7916460010253E-02
(PID.TID 0000.0001) %MON dynstat_eta_min              =  -5.8933061245965E-02
(PID.TID 0000.0001) %MON dynstat_eta_mean             =   9.3377123056611E-15
(PID.TID 0000.0001) %MON dynstat_eta_sd               =   4.2573867366186E-02
(PID.TID 0000.0001) %MON dynstat_eta_del2             =   2.2723722982557E-05
(PID.TID 0000.0001) %MON dynstat_uvel_max             =   1.3050538268593E+00
(PID.TID 0000.0001) %MON dynstat_uvel_min             =  -7.9187308243123E-01
(PID.TID 0000.0001) %MON dynstat_uvel_mean            =   2.8198552717707E-01
(PID.TID 0000.0001) %MON dynstat_uvel_sd              =   6.2340448006434E-02
(PID.TID 0000.0001) %MON dynstat_uvel_del2            =   6.7049068230640E-04
(PID.TID 0000.0001) %MON dynstat_vvel_max             =   0.0000000000000E+00
(PID.TID 0000.0001) %MON dynstat_vvel_min             =   0.0000000000000E+00
(PID.TID 0000.0001) %MON dynstat_vvel_mean            =   0.0000000000000E+00
(PID.TID 0000.0001) %MON dynstat_vvel_sd              =   0.0000000000000E+00
(PID.TID 0000.0001) %MON dynstat_vvel_del2            =   0.0000000000000E+00
(PID.TID 0000.0001) %MON dynstat_wvel_max             =   3.5782151940780E-02
(PID.TID 0000.0001) %MON dynstat_wvel_min             =  -3.2638623533385E-02
(PID.TID 0000.0001) %MON dynstat_wvel_mean            =   6.8282788078078E-21
(PID.TID 0000.0001) %MON dynstat_wvel_sd              =   2.2247057838247E-03
(PID.TID 0000.0001) %MON dynstat_wvel_del2            =   6.0935229742586E-05
(PID.TID 0000.0001) %MON dynstat_theta_max            =   1.5000000000003E+01
(PID.TID 0000.0001) %MON dynstat_theta_min            =   9.9999999999981E+00
(PID.TID 0000.0001) %MON dynstat_theta_mean           =   1.2553503281976E+01
(PID.TID 0000.0001) %MON dynstat_theta_sd             =   2.4739413493919E+00
(PID.TID 0000.0001) %MON dynstat_theta_del2           =   1.2539508297633E-03
(PID.TID 0000.0001) %MON dynstat_salt_max             =   3.5000000000000E+01
(PID.TID 0000.0001) %MON dynstat_salt_min             =   3.5000000000000E+01
(PID.TID 0000.0001) %MON dynstat_salt_mean            =   3.5000000000000E+01
(PID.TID 0000.0001) %MON dynstat_salt_sd              =   3.1974423109205E-13
(PID.TID 0000.0001) %MON dynstat_salt_del2            =   0.0000000000000E+00
(PID.TID 0000.0001) %MON dynstat_sst_max              =   1.5000000000000E+01
(PID.TID 0000.0001) %MON dynstat_sst_min              =   1.5000000000000E+01
(PID.TID 0000.0001) %MON dynstat_sst_mean             =   1.5000000000000E+01
(PID.TID 0000.0001) %MON dynstat_sst_sd               =   9.2955291206544E-14
(PID.TID 0000.0001) %MON dynstat_sst_del2             =   2.8946399976121E-15
(PID.TID 0000.0001) %MON dynstat_sss_max              =   3.5000000000000E+01
(PID.TID 0000.0001) %MON dynstat_sss_min              =   3.5000000000000E+01
(PID.TID 0000.0001) %MON dynstat_sss_mean             =   3.5000000000000E+01
(PID.TID 0000.0001) %MON dynstat_sss_sd               =   5.6843418860808E-14
(PID.TID 0000.0001) %MON dynstat_sss_del2             =   0.0000000000000E+00
(PID.TID 0000.0001) %MON forcing_qnet_max             =   0.0000000000000E+00
(PID.TID 0000.0001) %MON forcing_qnet_min             =   0.0000000000000E+00
(PID.TID 0000.0001) %MON forcing_qnet_mean            =   0.0000000000000E+00
(PID.TID 0000.0001) %MON forcing_qnet_sd              =   0.0000000000000E+00
(PID.TID 0000.0001) %MON forcing_qnet_del2            =   0.0000000000000E+00
(PID.TID 0000.0001) %MON forcing_qsw_max              =   0.0000000000000E+00
(PID.TID 0000.0001) %MON forcing_qsw_min              =   0.0000000000000E+00
(PID.TID 0000.0001) %MON forcing_qsw_mean             =   0.0000000000000E+00
(PID.TID 0000.0001) %MON forcing_qsw_sd               =   0.0000000000000E+00
(PID.TID 0000.0001) %MON forcing_qsw_del2             =   0.0000000000000E+00
(PID.TID 0000.0001) %MON forcing_empmr_max            =   0.0000000000000E+00
(PID.TID 0000.0001) %MON forcing_empmr_min            =   0.0000000000000E+00
(PID.TID 0000.0001) %MON forcing_empmr_mean           =   0.0000000000000E+00
(PID.TID 0000.0001) %MON forcing_empmr_sd             =   0.0000000000000E+00
(PID.TID 0000.0001) %MON forcing_empmr_del2           =   0.0000000000000E+00
(PID.TID 0000.0001) %MON forcing_fu_max               =   0.0000000000000E+00
(PID.TID 0000.0001) %MON forcing_fu_min               =   0.0000000000000E+00
(PID.TID 0000.0001) %MON forcing_fu_mean              =   0.0000000000000E+00
(PID.TID 0000.0001) %MON forcing_fu_sd                =   0.0000000000000E+00
(PID.TID 0000.0001) %MON forcing_fu_del2              =   0.0000000000000E+00
(PID.TID 0000.0001) %MON forcing_fv_max               =   0.0000000000000E+00
(PID.TID 0000.0001) %MON forcing_fv_min               =   0.0000000000000E+00
(PID.TID 0000.0001) %MON forcing_fv_mean              =   0.0000000000000E+00
(PID.TID 0000.0001) %MON forcing_fv_sd                =   0.0000000000000E+00
(PID.TID 0000.0001) %MON forcing_fv_del2              =   0.0000000000000E+00
(PID.TID 0000.0001) %MON advcfl_uvel_max              =   9.7879037014448E-02
(PID.TID 0000.0001) %MON advcfl_vvel_max              =   0.0000000000000E+00
(PID.TID 0000.0001) %MON advcfl_wvel_max              =   4.9830610416968E-01
(PID.TID 0000.0001) %MON advcfl_W_hf_max              =   4.9830610416968E-01
(PID.TID 0000.0001) %MON pe_b_mean                    =   4.5403843886599E-05
(PID.TID 0000.0001) %MON ke_max                       =   7.1687146716058E-01
(PID.TID 0000.0001) %MON ke_mean                      =   4.1698941285936E-02
(PID.TID 0000.0001) %MON ke_vol                       =   9.5633499295324E+10
(PID.TID 0000.0001) %MON vort_r_min                   =   0.0000000000000E+00
(PID.TID 0000.0001) %MON vort_r_max                   =   0.0000000000000E+00
(PID.TID 0000.0001) %MON vort_a_mean                  =   0.0000000000000E+00
(PID.TID 0000.0001) %MON vort_a_sd                    =   0.0000000000000E+00
(PID.TID 0000.0001) %MON vort_p_mean                  =   0.0000000000000E+00
(PID.TID 0000.0001) %MON vort_p_sd                    =   0.0000000000000E+00
(PID.TID 0000.0001) %MON surfExpan_theta_mean         =   1.8305274242404E-18
(PID.TID 0000.0001) %MON surfExpan_salt_mean          =   9.6088723388409E-19
(PID.TID 0000.0001) // =======================================================
(PID.TID 0000.0001) // End MONITOR dynamic field statistics
(PID.TID 0000.0001) // =======================================================
(PID.TID 0000.0001) // =======================================================
(PID.TID 0000.0001) // Begin OBCS MONITOR field statistics
(PID.TID 0000.0001) // =======================================================
(PID.TID 0000.0001) %MON obc_E_uVel_max               =   2.8014282071829E-01
(PID.TID 0000.0001) %MON obc_E_uVel_min               =   2.8014282071829E-01
(PID.TID 0000.0001) %MON obc_E_uVel_mean              =   2.8014282071829E-01
(PID.TID 0000.0001) %MON obc_E_uVel_sd                =   3.7252902984619E-09
(PID.TID 0000.0001) %MON obc_E_uVel_Int               =   2.8014282071829E+05
(PID.TID 0000.0001) %MON obc_W_uVel_max               =   2.8014282071829E-01
(PID.TID 0000.0001) %MON obc_W_uVel_min               =   2.8014282071829E-01
(PID.TID 0000.0001) %MON obc_W_uVel_mean              =   2.8014282071829E-01
(PID.TID 0000.0001) %MON obc_W_uVel_sd                =   3.7252902984619E-09
(PID.TID 0000.0001) %MON obc_W_uVel_Int               =   2.8014282071829E+05
(PID.TID 0000.0001) // =======================================================
(PID.TID 0000.0001) // End OBCS MONITOR field statistics
(PID.TID 0000.0001) // =======================================================
 cg2d: Sum(rhs),rhsMax =  -1.26411103806845E-11  3.48844608277130E-01
 cg2d: Sum(rhs),rhsMax =  -1.24207311102964E-11  3.56686911473025E-01
 cg2d: Sum(rhs),rhsMax =  -1.21929133456433E-11  3.64347873273192E-01
 cg2d: Sum(rhs),rhsMax =  -1.20169429962402E-11  3.71811254807264E-01
 cg2d: Sum(rhs),rhsMax =  -1.18203224985791E-11  3.79061126515019E-01
 cg2d: Sum(rhs),rhsMax =  -1.16824327989207E-11  3.86081935036673E-01
 cg2d: Sum(rhs),rhsMax =  -1.15409903855834E-11  3.92858568743865E-01
 cg2d: Sum(rhs),rhsMax =  -1.14157572284057E-11  3.99376421631500E-01
 cg2d: Sum(rhs),rhsMax =  -1.13237197396643E-11  4.05621455120266E-01
 cg2d: Sum(rhs),rhsMax =  -1.12182485523249E-11  4.11580257339687E-01
 cg2d: Sum(rhs),rhsMax =  -1.11259890189785E-11  4.17240099476349E-01
 cg2d: Sum(rhs),rhsMax =  -1.09974251927270E-11  4.22588988749096E-01
 cg2d: Sum(rhs),rhsMax =  -1.09181552687687E-11  4.27615717572863E-01
 cg2d: Sum(rhs),rhsMax =  -1.08753006600182E-11  4.32309908478218E-01
 cg2d: Sum(rhs),rhsMax =  -1.07956976691526E-11  4.36662054375537E-01
 cg2d: Sum(rhs),rhsMax =  -1.07802655691103E-11  4.40663553794287E-01
 cg2d: Sum(rhs),rhsMax =  -1.07499564805380E-11  4.44306740790766E-01
 cg2d: Sum(rhs),rhsMax =  -1.07133191207254E-11  4.47584909300811E-01
 cg2d: Sum(rhs),rhsMax =  -1.06818998091285E-11  4.50492331823346E-01
 cg2d: Sum(rhs),rhsMax =  -1.05891961865723E-11  4.53024272434223E-01
 cg2d: Sum(rhs),rhsMax =  -1.05619957224690E-11  4.55176994266321E-01
 cg2d: Sum(rhs),rhsMax =  -1.04999342553924E-11  4.56947761774478E-01
 cg2d: Sum(rhs),rhsMax =  -1.04344310969395E-11  4.58334838042294E-01
 cg2d: Sum(rhs),rhsMax =  -1.03675956708571E-11  4.59337477797600E-01
 cg2d: Sum(rhs),rhsMax =  -1.03530517492345E-11  4.59955916768960E-01
 cg2d: Sum(rhs),rhsMax =  -1.03740349643999E-11  4.60191357907069E-01
 cg2d: Sum(rhs),rhsMax =  -1.03960173802875E-11  4.60045954933202E-01
 cg2d: Sum(rhs),rhsMax =  -1.04329878070075E-11  4.59522794073262E-01
 cg2d: Sum(rhs),rhsMax =  -1.04799502409492E-11  4.58625874296251E-01
 cg2d: Sum(rhs),rhsMax =  -1.05514486037350E-11  4.57360086501224E-01
 cg2d: Sum(rhs),rhsMax =  -1.06499253860193E-11  4.55731191627918E-01
 cg2d: Sum(rhs),rhsMax =  -1.07391873171991E-11  4.53745797203213E-01
 cg2d: Sum(rhs),rhsMax =  -1.08609787830005E-11  4.51411331926771E-01
 cg2d: Sum(rhs),rhsMax =  -1.10093045790904E-11  4.48736018399101E-01
 cg2d: Sum(rhs),rhsMax =  -1.11632925126059E-11  4.45728843269044E-01
 cg2d: Sum(rhs),rhsMax =  -1.13404841073361E-11  4.42399523144467E-01
 cg2d: Sum(rhs),rhsMax =  -1.15150111668072E-11  4.38758464915764E-01
 cg2d: Sum(rhs),rhsMax =  -1.16874288025315E-11  4.34816722039889E-01
 cg2d: Sum(rhs),rhsMax =  -1.18263177029121E-11  4.30585944451514E-01
 cg2d: Sum(rhs),rhsMax =  -1.19494414363430E-11  4.26078320982822E-01
 cg2d: Sum(rhs),rhsMax =  -1.20599086272932E-11  4.21306515819315E-01
 cg2d: Sum(rhs),rhsMax =  -1.21753718218542E-11  4.16283599329664E-01
 cg2d: Sum(rhs),rhsMax =  -1.22720722472991E-11  4.11022974400555E-01
 cg2d: Sum(rhs),rhsMax =  -1.24223964448333E-11  4.05538298619545E-01
 cg2d: Sum(rhs),rhsMax =  -1.26980648218478E-11  3.99843403505599E-01
 cg2d: Sum(rhs),rhsMax =  -1.28885790928734E-11  3.93952212992451E-01
 cg2d: Sum(rhs),rhsMax =  -1.29595223441470E-11  3.87878663209141E-01
 cg2d: Sum(rhs),rhsMax =  -1.31099575639837E-11  3.81636624703117E-01
 cg2d: Sum(rhs),rhsMax =  -1.32326372082048E-11  3.75239828547778E-01
 cg2d: Sum(rhs),rhsMax =  -1.34144917396384E-11  3.68701797947455E-01
 cg2d: Sum(rhs),rhsMax =  -1.35886857322021E-11  3.62035786520245E-01
 cg2d: Sum(rhs),rhsMax =  -1.38016265083252E-11  3.55254723891483E-01
 cg2d: Sum(rhs),rhsMax =  -1.40313316521201E-11  3.48371168634427E-01
 cg2d: Sum(rhs),rhsMax =  -1.42799105873337E-11  3.41397269181409E-01
 cg2d: Sum(rhs),rhsMax =  -1.45687906183412E-11  3.34344732429094E-01
 cg2d: Sum(rhs),rhsMax =  -1.48865364479889E-11  3.27224799080485E-01
 cg2d: Sum(rhs),rhsMax =  -1.51922918689706E-11  3.20048225601933E-01
 cg2d: Sum(rhs),rhsMax =  -1.55386814526537E-11  3.12825272107816E-01
 cg2d: Sum(rhs),rhsMax =  -1.59090518536686E-11  3.05565694424511E-01
 cg2d: Sum(rhs),rhsMax =  -1.62938551540037E-11  2.98278739616606E-01
 cg2d: Sum(rhs),rhsMax =  -1.67145186580342E-11  2.90973144282789E-01
 cg2d: Sum(rhs),rhsMax =  -1.71798131276546E-11  2.83657135008536E-01
 cg2d: Sum(rhs),rhsMax =  -1.75640613164774E-11  2.76338430152837E-01
 cg2d: Sum(rhs),rhsMax =  -1.80764292423419E-11  2.69024243308378E-01
 cg2d: Sum(rhs),rhsMax =  -1.85311765932283E-11  2.61721288252099E-01
 cg2d: Sum(rhs),rhsMax =  -1.90342186456860E-11  2.54435784747361E-01
 cg2d: Sum(rhs),rhsMax =  -1.95528038204884E-11  2.47173465472873E-01
 cg2d: Sum(rhs),rhsMax =  -2.01089145335231E-11  2.39939584394252E-01
 cg2d: Sum(rhs),rhsMax =  -2.06602512875520E-11  2.32738926943992E-01
 cg2d: Sum(rhs),rhsMax =  -2.12277972977404E-11  2.25575822417010E-01
 cg2d: Sum(rhs),rhsMax =  -2.18730589196525E-11  2.18454158352673E-01
 cg2d: Sum(rhs),rhsMax =  -2.25653939978088E-11  2.11377397122048E-01
 cg2d: Sum(rhs),rhsMax =  -2.32941443911727E-11  2.04348594556608E-01
 cg2d: Sum(rhs),rhsMax =  -2.40876207868723E-11  1.97370420120393E-01
 cg2d: Sum(rhs),rhsMax =  -2.49014142639226E-11  1.90445177963878E-01
 cg2d: Sum(rhs),rhsMax =  -2.58237875527811E-11  1.83574827994935E-01
 cg2d: Sum(rhs),rhsMax =  -2.67555977373490E-11  1.76761006405014E-01
 cg2d: Sum(rhs),rhsMax =  -2.77601275300299E-11  1.70005044664900E-01
 cg2d: Sum(rhs),rhsMax =  -2.88341572840523E-11  1.63307986206731E-01
 cg2d: Sum(rhs),rhsMax =  -3.00061087088466E-11  1.56670600265969E-01
 cg2d: Sum(rhs),rhsMax =  -3.12212478092988E-11  1.50093392568748E-01
 cg2d: Sum(rhs),rhsMax =  -3.25465210337939E-11  1.43576612791523E-01
 cg2d: Sum(rhs),rhsMax =  -3.40308892177177E-11  1.37120259382397E-01
 cg2d: Sum(rhs),rhsMax =  -3.55928619910628E-11  1.30724082316114E-01
 cg2d: Sum(rhs),rhsMax =  -3.68109986936815E-11  1.25943690791892E-01
 cg2d: Sum(rhs),rhsMax =  -3.77318176703056E-11  1.22554669368235E-01
 cg2d: Sum(rhs),rhsMax =  -3.87556653436150E-11  1.19174467174394E-01
 cg2d: Sum(rhs),rhsMax =  -3.98654442790303E-11  1.15799615625333E-01
 cg2d: Sum(rhs),rhsMax =  -4.10276257412079E-11  1.12426403747249E-01
 cg2d: Sum(rhs),rhsMax =  -4.22062385041500E-11  1.09050887629445E-01
 cg2d: Sum(rhs),rhsMax =  -4.35038671753318E-11  1.05668905871671E-01
 cg2d: Sum(rhs),rhsMax =  -4.49069670338531E-11  1.02276101305455E-01
 cg2d: Sum(rhs),rhsMax =  -4.63695748464943E-11  9.88679485884510E-02
 cg2d: Sum(rhs),rhsMax =  -4.79645212436708E-11  9.54397866475898E-02
 cg2d: Sum(rhs),rhsMax =  -4.97080154815421E-11  9.19868544238090E-02
 cg2d: Sum(rhs),rhsMax =  -5.16094944558176E-11  8.85043281443781E-02
 cg2d: Sum(rhs),rhsMax =  -5.36681810103801E-11  8.49873584644349E-02
 cg2d: Sum(rhs),rhsMax =  -5.59401414079730E-11  8.14311056689198E-02
 cg2d: Sum(rhs),rhsMax =  -5.84623460753164E-11  7.78307715178430E-02
 cg2d: Sum(rhs),rhsMax =  -6.12692119261737E-11  7.41816270195983E-02
 cg2d: Sum(rhs),rhsMax =  -6.43809450195931E-11  7.04790355049988E-02
 cg2d: Sum(rhs),rhsMax =  -6.79754030841195E-11  6.67184712179923E-02
 cg2d: Sum(rhs),rhsMax =  -7.20028481282498E-11  6.28955342744225E-02
 cg2d: Sum(rhs),rhsMax =  -7.66435803711829E-11  5.90059627312922E-02
 cg2d: Sum(rhs),rhsMax =  -8.21462897704350E-11  5.50456434652362E-02
 cg2d: Sum(rhs),rhsMax =  -8.86010154133032E-11  5.10106233493213E-02
 cg2d: Sum(rhs),rhsMax =  -9.63549240395878E-11  4.68971220907552E-02
 cg2d: Sum(rhs),rhsMax =  -1.05755626478299E-10  4.27015478637869E-02
 cg2d: Sum(rhs),rhsMax =  -1.14434350884096E-10  3.94455022583944E-02
 cg2d: Sum(rhs),rhsMax =  -1.10266240582746E-10  4.09245124194159E-02
 cg2d: Sum(rhs),rhsMax =  -1.07649555936007E-10  4.19058427105253E-02
 cg2d: Sum(rhs),rhsMax =  -1.05921493798178E-10  4.25739049345071E-02
 cg2d: Sum(rhs),rhsMax =  -1.04841246795218E-10  4.30109396440183E-02
 cg2d: Sum(rhs),rhsMax =  -1.01333497148914E-10  4.44736164393539E-02
 cg2d: Sum(rhs),rhsMax =  -9.11055397789795E-11  4.94236391972484E-02
 cg2d: Sum(rhs),rhsMax =  -8.26199386683157E-11  5.44360624152628E-02
 cg2d: Sum(rhs),rhsMax =  -7.55411393160710E-11  5.94694184339272E-02
 cg2d: Sum(rhs),rhsMax =  -6.94848484306121E-11  6.45446561657089E-02
 cg2d: Sum(rhs),rhsMax =  -6.43062270100359E-11  6.96725348561299E-02
 cg2d: Sum(rhs),rhsMax =  -5.97835947413472E-11  7.48616822994652E-02
 cg2d: Sum(rhs),rhsMax =  -5.57788260024950E-11  8.01293487161083E-02
 cg2d: Sum(rhs),rhsMax =  -5.21866994063203E-11  8.55629389507506E-02
 cg2d: Sum(rhs),rhsMax =  -4.90331109048725E-11  9.10174446810818E-02
 cg2d: Sum(rhs),rhsMax =  -4.62683225066485E-11  9.64623379409945E-02
 cg2d: Sum(rhs),rhsMax =  -4.38320491014110E-11  1.01894955806709E-01
 cg2d: Sum(rhs),rhsMax =  -4.16744416753545E-11  1.07312359850345E-01
 cg2d: Sum(rhs),rhsMax =  -3.96918609091301E-11  1.12711355429919E-01
 cg2d: Sum(rhs),rhsMax =  -3.79071218858940E-11  1.18088510605868E-01
 cg2d: Sum(rhs),rhsMax =  -3.62743168835777E-11  1.23440174253874E-01
 cg2d: Sum(rhs),rhsMax =  -3.48246986803247E-11  1.28762493196752E-01
 cg2d: Sum(rhs),rhsMax =  -3.34886562924908E-11  1.34051428412029E-01
 cg2d: Sum(rhs),rhsMax =  -3.22378790329481E-11  1.39302770567013E-01
 cg2d: Sum(rhs),rhsMax =  -3.11509706918400E-11  1.44512155256354E-01
 cg2d: Sum(rhs),rhsMax =  -3.00827140975457E-11  1.49675078418015E-01
 cg2d: Sum(rhs),rhsMax =  -2.91241475380843E-11  1.54786912329573E-01
 cg2d: Sum(rhs),rhsMax =  -2.82257550665577E-11  1.59842922512459E-01
 cg2d: Sum(rhs),rhsMax =  -2.74366085406541E-11  1.64838285734122E-01
 cg2d: Sum(rhs),rhsMax =  -2.66989763630932E-11  1.69768109112155E-01
 cg2d: Sum(rhs),rhsMax =  -2.60258481432629E-11  1.74627450132480E-01
 cg2d: Sum(rhs),rhsMax =  -2.53292942176131E-11  1.79411337219600E-01
 cg2d: Sum(rhs),rhsMax =  -2.46758169453187E-11  1.84114790364762E-01
 cg2d: Sum(rhs),rhsMax =  -2.41049402660565E-11  1.88732841228271E-01
 cg2d: Sum(rhs),rhsMax =  -2.35429453709912E-11  1.93260552164751E-01
 cg2d: Sum(rhs),rhsMax =  -2.30266916645405E-11  1.97693033626355E-01
 cg2d: Sum(rhs),rhsMax =  -2.25438556711310E-11  2.02025459543855E-01
 cg2d: Sum(rhs),rhsMax =  -2.20934381900406E-11  2.06253080458545E-01
 cg2d: Sum(rhs),rhsMax =  -2.16709983291707E-11  2.10371234368524E-01
 cg2d: Sum(rhs),rhsMax =  -2.12679873712318E-11  2.14375355445668E-01
 cg2d: Sum(rhs),rhsMax =  -2.09114947580247E-11  2.18260980966842E-01
 cg2d: Sum(rhs),rhsMax =  -2.05833128319455E-11  2.22023756943853E-01
 cg2d: Sum(rhs),rhsMax =  -2.02351468914230E-11  2.25659443035863E-01
 cg2d: Sum(rhs),rhsMax =  -1.99313898718856E-11  2.29163917375412E-01
 cg2d: Sum(rhs),rhsMax =  -1.96480609560012E-11  2.32533181941577E-01
 cg2d: Sum(rhs),rhsMax =  -1.93817184523937E-11  2.35763369017017E-01
 cg2d: Sum(rhs),rhsMax =  -1.91331395171801E-11  2.38850749190976E-01
 cg2d: Sum(rhs),rhsMax =  -1.88978832582620E-11  2.41791741237382E-01
 cg2d: Sum(rhs),rhsMax =  -1.87140303253841E-11  2.44582924016772E-01
 cg2d: Sum(rhs),rhsMax =  -1.84900983413172E-11  2.47221050380482E-01
 cg2d: Sum(rhs),rhsMax =  -1.82815984572926E-11  2.49703062885044E-01
 cg2d: Sum(rhs),rhsMax =  -1.81087367323585E-11  2.52026110961454E-01
 cg2d: Sum(rhs),rhsMax =  -1.79983805637107E-11  2.54258408706453E-01
 cg2d: Sum(rhs),rhsMax =  -1.77422521119297E-11  2.57957277596182E-01
 cg2d: Sum(rhs),rhsMax =  -1.74844583256117E-11  2.61425768863224E-01
 cg2d: Sum(rhs),rhsMax =  -1.73061565078569E-11  2.64657684511324E-01
 cg2d: Sum(rhs),rhsMax =  -1.71362923850893E-11  2.67647251842539E-01
 cg2d: Sum(rhs),rhsMax =  -1.69354530399346E-11  2.70389143201250E-01
 cg2d: Sum(rhs),rhsMax =  -1.67929004035727E-11  2.72878499697341E-01
 cg2d: Sum(rhs),rhsMax =  -1.66523461686552E-11  2.75110958636628E-01
 cg2d: Sum(rhs),rhsMax =  -1.65658597950369E-11  2.77082683866766E-01
 cg2d: Sum(rhs),rhsMax =  -1.64817048897703E-11  2.78790398009137E-01
 cg2d: Sum(rhs),rhsMax =  -1.64459557083774E-11  2.80231415258378E-01
 cg2d: Sum(rhs),rhsMax =  -1.64342983666188E-11  2.81403673194186E-01
 cg2d: Sum(rhs),rhsMax =  -1.63998814528554E-11  2.82305761986896E-01
 cg2d: Sum(rhs),rhsMax =  -1.64487312659389E-11  2.82936949331029E-01
 cg2d: Sum(rhs),rhsMax =  -1.65281122121996E-11  2.83297199452264E-01
 cg2d: Sum(rhs),rhsMax =  -1.66004987534052E-11  2.83387184887308E-01
 cg2d: Sum(rhs),rhsMax =  -1.67459379696311E-11  2.83208289800352E-01
 cg2d: Sum(rhs),rhsMax =  -1.68863811822462E-11  2.82762603926068E-01
 cg2d: Sum(rhs),rhsMax =  -1.70412572941814E-11  2.82052907367500E-01
 cg2d: Sum(rhs),rhsMax =  -1.71416214556075E-11  2.81082645766017E-01
 cg2d: Sum(rhs),rhsMax =  -1.71456182584961E-11  2.79855897271045E-01
 cg2d: Sum(rhs),rhsMax =  -1.72050151903136E-11  2.78377331775615E-01
 cg2d: Sum(rhs),rhsMax =  -1.72784009322413E-11  2.76652163792909E-01
 cg2d: Sum(rhs),rhsMax =  -1.73562275662675E-11  2.74686100855812E-01
 cg2d: Sum(rhs),rhsMax =  -1.74614767090020E-11  2.72485289226472E-01
 cg2d: Sum(rhs),rhsMax =  -1.75535141977434E-11  2.70056258142802E-01
 cg2d: Sum(rhs),rhsMax =  -1.76942904772659E-11  2.67405865092735E-01
 cg2d: Sum(rhs),rhsMax =  -1.78075332257777E-11  2.64541243545092E-01
 cg2d: Sum(rhs),rhsMax =  -1.79871673111620E-11  2.61469754541348E-01
 cg2d: Sum(rhs),rhsMax =  -1.81428205792145E-11  2.58198942192973E-01
 cg2d: Sum(rhs),rhsMax =  -1.83353332516845E-11  2.54736495174877E-01
 cg2d: Sum(rhs),rhsMax =  -1.85459425594559E-11  2.51090213774748E-01
 cg2d: Sum(rhs),rhsMax =  -1.87689863651030E-11  2.47267982747207E-01
 cg2d: Sum(rhs),rhsMax =  -1.90255589060939E-11  2.43277750003590E-01
 cg2d: Sum(rhs),rhsMax =  -1.93107752011201E-11  2.39127510400162E-01
 cg2d: Sum(rhs),rhsMax =  -1.96723748402405E-11  2.34825295159988E-01
 cg2d: Sum(rhs),rhsMax =  -2.00210958922753E-11  2.30379165239259E-01
 cg2d: Sum(rhs),rhsMax =  -2.04275485415906E-11  2.25797207622328E-01
 cg2d: Sum(rhs),rhsMax =  -2.08451034211521E-11  2.21087533501988E-01
 cg2d: Sum(rhs),rhsMax =  -2.13666861981210E-11  2.16258276740354E-01
 cg2d: Sum(rhs),rhsMax =  -2.18429718756852E-11  2.11317591587692E-01
 cg2d: Sum(rhs),rhsMax =  -2.23296936496808E-11  2.06917814921581E-01
 cg2d: Sum(rhs),rhsMax =  -2.27248220241449E-11  2.03199917452939E-01
 cg2d: Sum(rhs),rhsMax =  -2.31454855281754E-11  1.99417477649386E-01
 cg2d: Sum(rhs),rhsMax =  -2.35783614854768E-11  1.95575160020847E-01
 cg2d: Sum(rhs),rhsMax =  -2.40031328146983E-11  1.91677528244248E-01
 cg2d: Sum(rhs),rhsMax =  -2.45574671708937E-11  1.87729024404058E-01
 cg2d: Sum(rhs),rhsMax =  -2.50270915103101E-11  1.83733950010564E-01
 cg2d: Sum(rhs),rhsMax =  -2.55067078569482E-11  1.79696448893289E-01
 cg2d: Sum(rhs),rhsMax =  -2.60261812101703E-11  1.75620491919238E-01
 cg2d: Sum(rhs),rhsMax =  -2.66089372757961E-11  1.71509863438585E-01
 cg2d: Sum(rhs),rhsMax =  -2.71774824867066E-11  1.67368149329732E-01
 cg2d: Sum(rhs),rhsMax =  -2.77905476409046E-11  1.63198726531474E-01
 cg2d: Sum(rhs),rhsMax =  -2.84365864189340E-11  1.59004753922868E-01
 cg2d: Sum(rhs),rhsMax =  -2.91203727798006E-11  1.54789164370361E-01
 cg2d: Sum(rhs),rhsMax =  -2.98376878760109E-11  1.50554658313518E-01
 cg2d: Sum(rhs),rhsMax =  -3.06481506839873E-11  1.46303698801602E-01
 cg2d: Sum(rhs),rhsMax =  -3.15576453857602E-11  1.42038507780990E-01
 cg2d: Sum(rhs),rhsMax =  -3.24947846408463E-11  1.37761063789242E-01
 cg2d: Sum(rhs),rhsMax =  -3.35359517933398E-11  1.33473101077351E-01
 cg2d: Sum(rhs),rhsMax =  -3.45964368264617E-11  1.29176110497599E-01
 cg2d: Sum(rhs),rhsMax =  -3.57829321728786E-11  1.24871342164637E-01
 cg2d: Sum(rhs),rhsMax =  -3.70307118302549E-11  1.20559809786473E-01
 cg2d: Sum(rhs),rhsMax =  -3.83468812259480E-11  1.16242296484479E-01
 cg2d: Sum(rhs),rhsMax =  -3.98573396509505E-11  1.11919361938178E-01
 cg2d: Sum(rhs),rhsMax =  -4.14177581120612E-11  1.07591350555501E-01
 cg2d: Sum(rhs),rhsMax =  -4.30929736339181E-11  1.03258400283455E-01
 cg2d: Sum(rhs),rhsMax =  -4.49207337993585E-11  9.89204515968116E-02
 cg2d: Sum(rhs),rhsMax =  -4.70785632700199E-11  9.45772561496187E-02
 cg2d: Sum(rhs),rhsMax =  -4.94017049490481E-11  9.02283845581331E-02
 cg2d: Sum(rhs),rhsMax =  -5.19200238358053E-11  8.58732328119339E-02
 cg2d: Sum(rhs),rhsMax =  -5.47234479952863E-11  8.15110268852153E-02
 cg2d: Sum(rhs),rhsMax =  -5.78972980669334E-11  7.71408252402892E-02
 cg2d: Sum(rhs),rhsMax =  -6.14495676565241E-11  7.27615190193599E-02
 cg2d: Sum(rhs),rhsMax =  -6.54436504987643E-11  6.83718302029735E-02
 cg2d: Sum(rhs),rhsMax =  -7.00492441829681E-11  6.39703076988381E-02
 cg2d: Sum(rhs),rhsMax =  -7.53637152683950E-11  5.95553217105134E-02
 cg2d: Sum(rhs),rhsMax =  -7.66182117750702E-11  5.86029916606615E-02
 cg2d: Sum(rhs),rhsMax =  -7.57293255881919E-11  5.93527219881568E-02
 cg2d: Sum(rhs),rhsMax =  -7.51193707931863E-11  5.98818490631776E-02
 cg2d: Sum(rhs),rhsMax =  -7.48803380412610E-11  6.01216410439418E-02
 cg2d: Sum(rhs),rhsMax =  -7.49706963176777E-11  6.01050173006349E-02
 cg2d: Sum(rhs),rhsMax =  -7.53741791204021E-11  5.98385828565352E-02
 cg2d: Sum(rhs),rhsMax =  -7.61120055869924E-11  5.93243153406898E-02
 cg2d: Sum(rhs),rhsMax =  -7.71972485935635E-11  5.85611072458092E-02
 cg2d: Sum(rhs),rhsMax =  -7.85903564448631E-11  5.75586184349466E-02
 cg2d: Sum(rhs),rhsMax =  -8.03380695302280E-11  5.63714116162407E-02
 cg2d: Sum(rhs),rhsMax =  -8.26331225667332E-11  5.48498080415608E-02
 cg2d: Sum(rhs),rhsMax =  -8.54162296448635E-11  5.31155378590177E-02
 cg2d: Sum(rhs),rhsMax =  -8.88038531599022E-11  5.11679303627546E-02
 cg2d: Sum(rhs),rhsMax =  -8.69484484411487E-11  5.23010314289144E-02
 cg2d: Sum(rhs),rhsMax =  -7.98459076634117E-11  5.70089428709702E-02
 cg2d: Sum(rhs),rhsMax =  -7.38289429591532E-11  6.17062420014900E-02
 cg2d: Sum(rhs),rhsMax =  -6.87077061911623E-11  6.63938873637571E-02
 cg2d: Sum(rhs),rhsMax =  -6.42543795947859E-11  7.10726783171056E-02
 cg2d: Sum(rhs),rhsMax =  -6.03455063696856E-11  7.57432633319646E-02
 cg2d: Sum(rhs),rhsMax =  -5.68904923170521E-11  8.04061500599681E-02
 cg2d: Sum(rhs),rhsMax =  -5.38151745388404E-11  8.50617156384156E-02
 cg2d: Sum(rhs),rhsMax =  -5.10933517716694E-11  8.97102156789526E-02
 cg2d: Sum(rhs),rhsMax =  -4.85727014165604E-11  9.43517909865662E-02
 cg2d: Sum(rhs),rhsMax =  -4.63928895300114E-11  9.89864714588902E-02
 cg2d: Sum(rhs),rhsMax =  -4.44085879180989E-11  1.03614176878877E-01
 cg2d: Sum(rhs),rhsMax =  -4.25652846303137E-11  1.08234714697643E-01
 cg2d: Sum(rhs),rhsMax =  -4.09643430288043E-11  1.12847775270225E-01
 cg2d: Sum(rhs),rhsMax =  -3.94737575959425E-11  1.17452925347035E-01
 cg2d: Sum(rhs),rhsMax =  -3.80727671611680E-11  1.22049600944468E-01
 cg2d: Sum(rhs),rhsMax =  -3.67852415195102E-11  1.26637100513052E-01
 cg2d: Sum(rhs),rhsMax =  -3.55868667867298E-11  1.31214579789094E-01
 cg2d: Sum(rhs),rhsMax =  -3.44846373678820E-11  1.35781049316448E-01
 cg2d: Sum(rhs),rhsMax =  -3.34505756427461E-11  1.40335375353885E-01
 cg2d: Sum(rhs),rhsMax =  -3.24051896427591E-11  1.44876284539743E-01
 cg2d: Sum(rhs),rhsMax =  -3.15032444575536E-11  1.49402372276860E-01
 cg2d: Sum(rhs),rhsMax =  -3.06596970034434E-11  1.53912114383963E-01
 cg2d: Sum(rhs),rhsMax =  -2.98356894745666E-11  1.58403881048842E-01
 cg2d: Sum(rhs),rhsMax =  -2.90869550667594E-11  1.62875951760423E-01
 cg2d: Sum(rhs),rhsMax =  -2.83506551568280E-11  1.67326529819206E-01
 cg2d: Sum(rhs),rhsMax =  -2.76209055627419E-11  1.71753754775949E-01
 cg2d: Sum(rhs),rhsMax =  -2.69948507991558E-11  1.76155711194457E-01
 cg2d: Sum(rhs),rhsMax =  -2.63891131169203E-11  1.80530432444777E-01
 cg2d: Sum(rhs),rhsMax =  -2.57923682411842E-11  1.84875898781325E-01
 cg2d: Sum(rhs),rhsMax =  -2.52318166360510E-11  1.89190029512486E-01
 cg2d: Sum(rhs),rhsMax =  -2.45313769298150E-11  1.95082895455576E-01
 cg2d: Sum(rhs),rhsMax =  -2.37434516492385E-11  2.02275987469414E-01
 cg2d: Sum(rhs),rhsMax =  -2.29511964988660E-11  2.09484283553596E-01
 cg2d: Sum(rhs),rhsMax =  -2.22514229264448E-11  2.16699912395539E-01
 cg2d: Sum(rhs),rhsMax =  -2.15669704317634E-11  2.23914745627275E-01
 cg2d: Sum(rhs),rhsMax =  -2.09094963565803E-11  2.31120425403827E-01
 cg2d: Sum(rhs),rhsMax =  -2.03034256074375E-11  2.38308393687806E-01
 cg2d: Sum(rhs),rhsMax =  -1.97126759360344E-11  2.45469922895490E-01
 cg2d: Sum(rhs),rhsMax =  -1.91724414122518E-11  2.52596147403674E-01
 cg2d: Sum(rhs),rhsMax =  -1.86547444158691E-11  2.59678095275078E-01
 cg2d: Sum(rhs),rhsMax =  -1.81760162476508E-11  2.66706719496469E-01
 cg2d: Sum(rhs),rhsMax =  -1.76957337671979E-11  2.73672927968353E-01
 cg2d: Sum(rhs),rhsMax =  -1.72621916760818E-11  2.80567611513773E-01
 cg2d: Sum(rhs),rhsMax =  -1.68602909411675E-11  2.87381669275255E-01
 cg2d: Sum(rhs),rhsMax =  -1.64378510802976E-11  2.94106031040909E-01
 cg2d: Sum(rhs),rhsMax =  -1.60949031879909E-11  3.00731676257728E-01
 cg2d: Sum(rhs),rhsMax =  -1.57537316525236E-11  3.07249649810086E-01
 cg2d: Sum(rhs),rhsMax =  -1.53934642810327E-11  3.13651074885024E-01
 cg2d: Sum(rhs),rhsMax =  -1.51042511831179E-11  3.19927163525298E-01
 cg2d: Sum(rhs),rhsMax =  -1.48158152413203E-11  3.26069225734654E-01
 cg2d: Sum(rhs),rhsMax =  -1.45607970125639E-11  3.32068678180822E-01
 cg2d: Sum(rhs),rhsMax =  -1.43014489140114E-11  3.37917053621327E-01
 cg2d: Sum(rhs),rhsMax =  -1.40909506285425E-11  3.43606012159804E-01
 cg2d: Sum(rhs),rhsMax =  -1.38532518789702E-11  3.49127355315588E-01
 cg2d: Sum(rhs),rhsMax =  -1.36529676453279E-11  3.54473043662542E-01
 cg2d: Sum(rhs),rhsMax =  -1.34590116829258E-11  3.59635218481447E-01
 cg2d: Sum(rhs),rhsMax =  -1.32913680062074E-11  3.64606227501046E-01
 cg2d: Sum(rhs),rhsMax =  -1.31048505380704E-11  3.69378654409676E-01
 cg2d: Sum(rhs),rhsMax =  -1.29355415268151E-11  3.73945351439456E-01
 cg2d: Sum(rhs),rhsMax =  -1.27815535932996E-11  3.78299473994771E-01
 cg2d: Sum(rhs),rhsMax =  -1.26392230015426E-11  3.82434516048748E-01
 cg2d: Sum(rhs),rhsMax =  -1.25103261083837E-11  3.86344344890454E-01
 cg2d: Sum(rhs),rhsMax =  -1.23732135648424E-11  3.90023233781778E-01
 cg2d: Sum(rhs),rhsMax =  -1.22762910947927E-11  3.93465891183721E-01
 cg2d: Sum(rhs),rhsMax =  -1.21607168779292E-11  3.96667485484163E-01
 cg2d: Sum(rhs),rhsMax =  -1.21114229756358E-11  3.99623664362486E-01
 cg2d: Sum(rhs),rhsMax =  -1.20462528840903E-11  4.02330568368284E-01
 cg2d: Sum(rhs),rhsMax =  -1.20137233494688E-11  4.04784838646709E-01
 cg2d: Sum(rhs),rhsMax =  -1.19361187600475E-11  4.06983619087368E-01
 cg2d: Sum(rhs),rhsMax =  -1.18917098390625E-11  4.08924553687485E-01
 cg2d: Sum(rhs),rhsMax =  -1.18516307878735E-11  4.10605779965352E-01
 cg2d: Sum(rhs),rhsMax =  -1.18334231302697E-11  4.12025919477885E-01
 cg2d: Sum(rhs),rhsMax =  -1.18344223309919E-11  4.13184066673815E-01
 cg2d: Sum(rhs),rhsMax =  -1.18203224985791E-11  4.14079776665823E-01
 cg2d: Sum(rhs),rhsMax =  -1.18361986878313E-11  4.14713053350310E-01
 cg2d: Sum(rhs),rhsMax =  -1.18598464382558E-11  4.15084338333763E-01
 cg2d: Sum(rhs),rhsMax =  -1.19109166973885E-11  4.15194500735833E-01
 cg2d: Sum(rhs),rhsMax =  -1.19145804333698E-11  4.15044828171800E-01
 cg2d: Sum(rhs),rhsMax =  -1.19685372723666E-11  4.14637018503338E-01
 cg2d: Sum(rhs),rhsMax =  -1.20199405984067E-11  4.13973172079687E-01
 cg2d: Sum(rhs),rhsMax =  -1.20586873819661E-11  4.13055783734822E-01
 cg2d: Sum(rhs),rhsMax =  -1.21426202426278E-11  4.11887733837953E-01
 cg2d: Sum(rhs),rhsMax =  -1.22206689212589E-11  4.10472277502827E-01
 cg2d: Sum(rhs),rhsMax =  -1.22600818386331E-11  4.08813032477644E-01
 cg2d: Sum(rhs),rhsMax =  -1.23041576927108E-11  4.06913964418473E-01
 cg2d: Sum(rhs),rhsMax =  -1.24001919843408E-11  4.04779369557515E-01
 cg2d: Sum(rhs),rhsMax =  -1.23673293828119E-11  4.02413855040298E-01
 cg2d: Sum(rhs),rhsMax =  -1.23839827281813E-11  3.99822317291545E-01
 cg2d: Sum(rhs),rhsMax =  -1.23729915202375E-11  3.97009920596398E-01
 cg2d: Sum(rhs),rhsMax =  -1.23733245871449E-11  3.93982074448491E-01
 cg2d: Sum(rhs),rhsMax =  -1.24426025038815E-11  3.90744411919987E-01
 cg2d: Sum(rhs),rhsMax =  -1.25123245098280E-11  3.87302769968182E-01
 cg2d: Sum(rhs),rhsMax =  -1.25714993970405E-11  3.83663172402749E-01
 cg2d: Sum(rhs),rhsMax =  -1.26980648218478E-11  3.79831816353628E-01
 cg2d: Sum(rhs),rhsMax =  -1.27990951170887E-11  3.75815062696637E-01
 cg2d: Sum(rhs),rhsMax =  -1.29529720283017E-11  3.71619429566793E-01
 cg2d: Sum(rhs),rhsMax =  -1.31132882330576E-11  3.67251589073023E-01
 cg2d: Sum(rhs),rhsMax =  -1.32726052370913E-11  3.62718367109452E-01
 cg2d: Sum(rhs),rhsMax =  -1.34390276684826E-11  3.58026745359571E-01
 cg2d: Sum(rhs),rhsMax =  -1.36302080733230E-11  3.53183864280121E-01
 cg2d: Sum(rhs),rhsMax =  -1.38243860803300E-11  3.48197025678817E-01
 cg2d: Sum(rhs),rhsMax =  -1.40268907600216E-11  3.43073693560547E-01
 cg2d: Sum(rhs),rhsMax =  -1.42007516856779E-11  3.37821491489434E-01
 cg2d: Sum(rhs),rhsMax =  -1.44678713454027E-11  3.32448195423245E-01
 cg2d: Sum(rhs),rhsMax =  -1.46462841854600E-11  3.26961720910938E-01
 cg2d: Sum(rhs),rhsMax =  -1.48913104069948E-11  3.21370103674642E-01
 cg2d: Sum(rhs),rhsMax =  -1.51623158473058E-11  3.15681472585389E-01
 cg2d: Sum(rhs),rhsMax =  -1.53812518277618E-11  3.09904015752361E-01
 cg2d: Sum(rhs),rhsMax =  -1.56566981601713E-11  3.04045939081868E-01
 cg2d: Sum(rhs),rhsMax =  -1.59104951436007E-11  2.98115417947037E-01
 cg2d: Sum(rhs),rhsMax =  -1.62116986501815E-11  2.92120543144574E-01
 cg2d: Sum(rhs),rhsMax =  -1.65156777143238E-11  2.86069262679316E-01
 cg2d: Sum(rhs),rhsMax =  -1.68748348627901E-11  2.79969321315148E-01
 cg2d: Sum(rhs),rhsMax =  -1.72006853205176E-11  2.73828200043305E-01
 cg2d: Sum(rhs),rhsMax =  -1.75527370416262E-11  2.67653057665995E-01
 cg2d: Sum(rhs),rhsMax =  -1.79212200634993E-11  2.61450676782331E-01
 cg2d: Sum(rhs),rhsMax =  -1.83169035494757E-11  2.55227417207873E-01
 cg2d: Sum(rhs),rhsMax =  -1.87381221650185E-11  2.48989177933013E-01
 cg2d: Sum(rhs),rhsMax =  -1.91506810409692E-11  2.42741369277371E-01
 cg2d: Sum(rhs),rhsMax =  -1.95982119421956E-11  2.36488896448124E-01
 cg2d: Sum(rhs),rhsMax =  -2.00840455377715E-11  2.30236155231212E-01
 cg2d: Sum(rhs),rhsMax =  -2.05554462340274E-11  2.23987039434153E-01
 cg2d: Sum(rhs),rhsMax =  -2.10893524865696E-11  2.17744959570809E-01
 cg2d: Sum(rhs),rhsMax =  -2.15985007656627E-11  2.11512871505441E-01
 cg2d: Sum(rhs),rhsMax =  -2.21892504370658E-11  2.05293313146565E-01
 cg2d: Sum(rhs),rhsMax =  -2.28456142892242E-11  1.99088446960272E-01
 cg2d: Sum(rhs),rhsMax =  -2.35458319508552E-11  1.92900105927208E-01
 cg2d: Sum(rhs),rhsMax =  -2.42558195751030E-11  1.86729840581857E-01
 cg2d: Sum(rhs),rhsMax =  -2.50185427930205E-11  1.80578964960566E-01
 cg2d: Sum(rhs),rhsMax =  -2.58265631103427E-11  1.74448599473039E-01
 cg2d: Sum(rhs),rhsMax =  -2.67394995034920E-11  1.68339709149833E-01
 cg2d: Sum(rhs),rhsMax =  -2.76667577736589E-11  1.62253136149747E-01
 cg2d: Sum(rhs),rhsMax =  -2.86688450756856E-11  1.56189626139038E-01
 cg2d: Sum(rhs),rhsMax =  -2.97292190865051E-11  1.50149847931116E-01
 cg2d: Sum(rhs),rhsMax =  -3.09006153997871E-11  1.44134406665199E-01
 cg2d: Sum(rhs),rhsMax =  -3.18987058989251E-11  1.39261880326640E-01
 cg2d: Sum(rhs),rhsMax =  -3.27078364392719E-11  1.35349373494895E-01
 cg2d: Sum(rhs),rhsMax =  -3.36157768288103E-11  1.31404436181649E-01
 cg2d: Sum(rhs),rhsMax =  -3.45450335004216E-11  1.27424740152002E-01
 cg2d: Sum(rhs),rhsMax =  -3.56057405781485E-11  1.23408050207887E-01
 cg2d: Sum(rhs),rhsMax =  -3.67212926732918E-11  1.19352277761844E-01
 cg2d: Sum(rhs),rhsMax =  -3.79078990420112E-11  1.15255523032777E-01
 cg2d: Sum(rhs),rhsMax =  -3.92021970441192E-11  1.11116103379827E-01
 cg2d: Sum(rhs),rhsMax =  -4.06705780164884E-11  1.06932566862970E-01
 cg2d: Sum(rhs),rhsMax =  -4.22071266825697E-11  1.02703692487058E-01
 cg2d: Sum(rhs),rhsMax =  -4.39064340440609E-11  9.84284782623745E-02
 cg2d: Sum(rhs),rhsMax =  -4.58051374607749E-11  9.41061205240733E-02
 cg2d: Sum(rhs),rhsMax =  -4.79163375644021E-11  8.97359885632918E-02
 cg2d: Sum(rhs),rhsMax =  -5.03773689430886E-11  8.53175986620513E-02
 cg2d: Sum(rhs),rhsMax =  -5.31041877138705E-11  8.08505911169583E-02
 cg2d: Sum(rhs),rhsMax =  -5.61821700273413E-11  7.63347129033376E-02
 cg2d: Sum(rhs),rhsMax =  -5.97006888369833E-11  7.17698073421603E-02
 cg2d: Sum(rhs),rhsMax =  -6.37161434724476E-11  6.71558110215636E-02
 cg2d: Sum(rhs),rhsMax =  -6.84129419781243E-11  6.24927565416670E-02
 cg2d: Sum(rhs),rhsMax =  -7.38844541103845E-11  5.77807787653324E-02
 cg2d: Sum(rhs),rhsMax =  -8.04345479110680E-11  5.30201217196680E-02
 cg2d: Sum(rhs),rhsMax =  -8.83871864587604E-11  4.82111431725437E-02
 cg2d: Sum(rhs),rhsMax =  -9.81617009898628E-11  4.33543143506961E-02
 cg2d: Sum(rhs),rhsMax =  -1.10554898569148E-10  3.84502130069712E-02
 cg2d: Sum(rhs),rhsMax =  -1.26765709040910E-10  3.34995096418811E-02
 cg2d: Sum(rhs),rhsMax =  -1.48923096077169E-10  2.85029478864816E-02
 cg2d: Sum(rhs),rhsMax =  -1.80894521584207E-10  2.34613212779286E-02
 cg2d: Sum(rhs),rhsMax =  -1.81345716221415E-10  2.33963680886332E-02
 cg2d: Sum(rhs),rhsMax =  -1.76273551311112E-10  2.40657559044418E-02
 cg2d: Sum(rhs),rhsMax =  -1.47155621021966E-10  2.88166815920417E-02
 cg2d: Sum(rhs),rhsMax =  -1.26229429686653E-10  3.35636145458200E-02
 cg2d: Sum(rhs),rhsMax =  -1.10366944749973E-10  3.83446743122502E-02
 cg2d: Sum(rhs),rhsMax =  -9.80026615415852E-11  4.31609511622120E-02
 cg2d: Sum(rhs),rhsMax =  -8.80645556478044E-11  4.79869886497556E-02
 cg2d: Sum(rhs),rhsMax =  -7.98542343360964E-11  5.28744849214826E-02
 cg2d: Sum(rhs),rhsMax =  -7.30165372608838E-11  5.77653409649417E-02
 cg2d: Sum(rhs),rhsMax =  -6.72183975147789E-11  6.27199530881947E-02
 cg2d: Sum(rhs),rhsMax =  -6.22167872776913E-11  6.77122625442406E-02
 cg2d: Sum(rhs),rhsMax =  -5.78491698988159E-11  7.27607668971433E-02
 cg2d: Sum(rhs),rhsMax =  -5.40515410207831E-11  7.78563462675643E-02
 cg2d: Sum(rhs),rhsMax =  -5.05788744220581E-11  8.29078675820898E-02
 cg2d: Sum(rhs),rhsMax =  -4.78108663770627E-11  8.79127717078193E-02
 cg2d: Sum(rhs),rhsMax =  -4.53177495529644E-11  9.28686403316335E-02
 cg2d: Sum(rhs),rhsMax =  -4.30617763669261E-11  9.77732159202182E-02
 cg2d: Sum(rhs),rhsMax =  -4.10962375241297E-11  1.02624415009300E-01
 cg2d: Sum(rhs),rhsMax =  -3.94474453102589E-11  1.07420334252227E-01
 cg2d: Sum(rhs),rhsMax =  -3.79489772939223E-11  1.12159248842340E-01
 cg2d: Sum(rhs),rhsMax =  -3.65780739031152E-11  1.16839603186408E-01
 cg2d: Sum(rhs),rhsMax =  -3.52988749341421E-11  1.21459994042324E-01
 cg2d: Sum(rhs),rhsMax =  -3.40487638084142E-11  1.26019146724816E-01
 cg2d: Sum(rhs),rhsMax =  -3.28909122160326E-11  1.30515885396833E-01
 cg2d: Sum(rhs),rhsMax =  -3.18423065692741E-11  1.34949098861446E-01
 cg2d: Sum(rhs),rhsMax =  -3.08330028175874E-11  1.39317703589414E-01
 cg2d: Sum(rhs),rhsMax =  -2.99744673526448E-11  1.43620606013551E-01
 cg2d: Sum(rhs),rhsMax =  -2.90346635622996E-11  1.47856666119196E-01
 cg2d: Sum(rhs),rhsMax =  -2.82616152702531E-11  1.52024664342315E-01
 cg2d: Sum(rhs),rhsMax =  -2.76099143547981E-11  1.56123273559674E-01
 cg2d: Sum(rhs),rhsMax =  -2.68084443533212E-11  1.60151037574760E-01
 cg2d: Sum(rhs),rhsMax =  -2.62297961128866E-11  1.64106357006278E-01
 cg2d: Sum(rhs),rhsMax =  -2.57068810682881E-11  1.67987482905773E-01
 cg2d: Sum(rhs),rhsMax =  -2.51998422129418E-11  1.71792517882656E-01
 cg2d: Sum(rhs),rhsMax =  -2.47132314612486E-11  1.75519423934866E-01
 cg2d: Sum(rhs),rhsMax =  -2.42316167131662E-11  1.79166035754249E-01
 cg2d: Sum(rhs),rhsMax =  -2.38254971307583E-11  1.82730078002302E-01
 cg2d: Sum(rhs),rhsMax =  -2.34400276966085E-11  1.86209184889174E-01
 cg2d: Sum(rhs),rhsMax =  -2.30554464408783E-11  1.89600920455638E-01
 cg2d: Sum(rhs),rhsMax =  -2.27025065413500E-11  1.92902798157611E-01
 cg2d: Sum(rhs),rhsMax =  -2.23461249504453E-11  1.96112298662553E-01
 cg2d: Sum(rhs),rhsMax =  -2.20574669640428E-11  1.99226885174455E-01
 cg2d: Sum(rhs),rhsMax =  -2.17258433465872E-11  2.02244016037822E-01
 cg2d: Sum(rhs),rhsMax =  -2.14589457314673E-11  2.05358316265735E-01
 cg2d: Sum(rhs),rhsMax =  -2.11092254787104E-11  2.09094473817798E-01
 cg2d: Sum(rhs),rhsMax =  -2.07770467497426E-11  2.12677435353269E-01
 cg2d: Sum(rhs),rhsMax =  -2.05030437072651E-11  2.16101788525692E-01
 cg2d: Sum(rhs),rhsMax =  -2.02415861849659E-11  2.19362288278541E-01
 cg2d: Sum(rhs),rhsMax =  -2.00207628253679E-11  2.22453893459647E-01
 cg2d: Sum(rhs),rhsMax =  -1.97913907484804E-11  2.25371808261191E-01
 cg2d: Sum(rhs),rhsMax =  -1.96584970524327E-11  2.28111527106702E-01
 cg2d: Sum(rhs),rhsMax =  -1.94425586741431E-11  2.30668881232070E-01
 cg2d: Sum(rhs),rhsMax =  -1.93421945127170E-11  2.33040084972649E-01
 cg2d: Sum(rhs),rhsMax =  -1.92076354821324E-11  2.35221779684787E-01
 cg2d: Sum(rhs),rhsMax =  -1.90684135148445E-11  2.37211073289877E-01
 cg2d: Sum(rhs),rhsMax =  -1.89459559152283E-11  2.39005573607384E-01
 cg2d: Sum(rhs),rhsMax =  -1.88132842637856E-11  2.40603413888806E-01
 cg2d: Sum(rhs),rhsMax =  -1.88047355464960E-11  2.42003269372641E-01
 cg2d: Sum(rhs),rhsMax =  -1.86628490439489E-11  2.43204363840908E-01
 cg2d: Sum(rhs),rhsMax =  -1.85551574105602E-11  2.44206465553936E-01
 cg2d: Sum(rhs),rhsMax =  -1.84865456276384E-11  2.45009872257374E-01
 cg2d: Sum(rhs),rhsMax =  -1.84396942159992E-11  2.45615385247837E-01
 cg2d: Sum(rhs),rhsMax =  -1.83897341798911E-11  2.46024272634127E-01
 cg2d: Sum(rhs),rhsMax =  -1.82936998882610E-11  2.46238222548842E-01
 cg2d: Sum(rhs),rhsMax =  -1.82045489793836E-11  2.46259287829763E-01
 cg2d: Sum(rhs),rhsMax =  -1.81731296677867E-11  2.46089823964584E-01
 cg2d: Sum(rhs),rhsMax =  -1.80973014352048E-11  2.45732422543012E-01
(PID.TID 0000.0001)      cg2d_init_res =   2.08136478659121E-02
(PID.TID 0000.0001)      cg2d_iters(min,last) =      -1      36
(PID.TID 0000.0001)      cg2d_last_res =   5.30926378278210E-14
(PID.TID 0000.0001) // =======================================================
(PID.TID 0000.0001) // Begin MONITOR dynamic field statistics
(PID.TID 0000.0001) // =======================================================
(PID.TID 0000.0001) %MON time_tsnumber                =                  1440
(PID.TID 0000.0001) %MON time_secondsf                =   2.1600000000000E+04
(PID.TID 0000.0001) %MON dynstat_eta_max              =   4.9194557886318E-02
(PID.TID 0000.0001) %MON dynstat_eta_min              =  -4.0108497731125E-02
(PID.TID 0000.0001) %MON dynstat_eta_mean             =   9.4237679931268E-15
(PID.TID 0000.0001) %MON dynstat_eta_sd               =   3.0169523166573E-02
(PID.TID 0000.0001) %MON dynstat_eta_del2             =   3.0127321846579E-05
(PID.TID 0000.0001) %MON dynstat_uvel_max             =   1.4456573257729E+00
(PID.TID 0000.0001) %MON dynstat_uvel_min             =  -9.7169427981516E-01
(PID.TID 0000.0001) %MON dynstat_uvel_mean            =   2.8615125950635E-01
(PID.TID 0000.0001) %MON dynstat_uvel_sd              =   7.7236335256519E-02
(PID.TID 0000.0001) %MON dynstat_uvel_del2            =   6.7962909198585E-04
(PID.TID 0000.0001) %MON dynstat_vvel_max             =   0.0000000000000E+00
(PID.TID 0000.0001) %MON dynstat_vvel_min             =   0.0000000000000E+00
(PID.TID 0000.0001) %MON dynstat_vvel_mean            =   0.0000000000000E+00
(PID.TID 0000.0001) %MON dynstat_vvel_sd              =   0.0000000000000E+00
(PID.TID 0000.0001) %MON dynstat_vvel_del2            =   0.0000000000000E+00
(PID.TID 0000.0001) %MON dynstat_wvel_max             =   4.9657866479565E-02
(PID.TID 0000.0001) %MON dynstat_wvel_min             =  -3.8890009825373E-02
(PID.TID 0000.0001) %MON dynstat_wvel_mean            =  -2.6415685880062E-20
(PID.TID 0000.0001) %MON dynstat_wvel_sd              =   2.7314639993386E-03
(PID.TID 0000.0001) %MON dynstat_wvel_del2            =   9.2846807592056E-05
(PID.TID 0000.0001) %MON dynstat_theta_max            =   1.5000000000005E+01
(PID.TID 0000.0001) %MON dynstat_theta_min            =   9.9999999999971E+00
(PID.TID 0000.0001) %MON dynstat_theta_mean           =   1.2553502872114E+01
(PID.TID 0000.0001) %MON dynstat_theta_sd             =   2.4649396924026E+00
(PID.TID 0000.0001) %MON dynstat_theta_del2           =   1.4658817820952E-03
(PID.TID 0000.0001) %MON dynstat_salt_max             =   3.5000000000000E+01
(PID.TID 0000.0001) %MON dynstat_salt_min             =   3.5000000000000E+01
(PID.TID 0000.0001) %MON dynstat_salt_mean            =   3.5000000000000E+01
(PID.TID 0000.0001) %MON dynstat_salt_sd              =   3.1974423109205E-13
(PID.TID 0000.0001) %MON dynstat_salt_del2            =   0.0000000000000E+00
(PID.TID 0000.0001) %MON dynstat_sst_max              =   1.5000000000000E+01
(PID.TID 0000.0001) %MON dynstat_sst_min              =   1.4993297829821E+01
(PID.TID 0000.0001) %MON dynstat_sst_mean             =   1.4999937808881E+01
(PID.TID 0000.0001) %MON dynstat_sst_sd               =   5.5691499533130E-04
(PID.TID 0000.0001) %MON dynstat_sst_del2             =   2.0078821821845E-05
(PID.TID 0000.0001) %MON dynstat_sss_max              =   3.5000000000000E+01
(PID.TID 0000.0001) %MON dynstat_sss_min              =   3.5000000000000E+01
(PID.TID 0000.0001) %MON dynstat_sss_mean             =   3.5000000000000E+01
(PID.TID 0000.0001) %MON dynstat_sss_sd               =   5.6843418860808E-14
(PID.TID 0000.0001) %MON dynstat_sss_del2             =   0.0000000000000E+00
(PID.TID 0000.0001) %MON forcing_qnet_max             =   0.0000000000000E+00
(PID.TID 0000.0001) %MON forcing_qnet_min             =   0.0000000000000E+00
(PID.TID 0000.0001) %MON forcing_qnet_mean            =   0.0000000000000E+00
(PID.TID 0000.0001) %MON forcing_qnet_sd              =   0.0000000000000E+00
(PID.TID 0000.0001) %MON forcing_qnet_del2            =   0.0000000000000E+00
(PID.TID 0000.0001) %MON forcing_qsw_max              =   0.0000000000000E+00
(PID.TID 0000.0001) %MON forcing_qsw_min              =   0.0000000000000E+00
(PID.TID 0000.0001) %MON forcing_qsw_mean             =   0.0000000000000E+00
(PID.TID 0000.0001) %MON forcing_qsw_sd               =   0.0000000000000E+00
(PID.TID 0000.0001) %MON forcing_qsw_del2             =   0.0000000000000E+00
(PID.TID 0000.0001) %MON forcing_empmr_max            =   0.0000000000000E+00
(PID.TID 0000.0001) %MON forcing_empmr_min            =   0.0000000000000E+00
(PID.TID 0000.0001) %MON forcing_empmr_mean           =   0.0000000000000E+00
(PID.TID 0000.0001) %MON forcing_empmr_sd             =   0.0000000000000E+00
(PID.TID 0000.0001) %MON forcing_empmr_del2           =   0.0000000000000E+00
(PID.TID 0000.0001) %MON forcing_fu_max               =   0.0000000000000E+00
(PID.TID 0000.0001) %MON forcing_fu_min               =   0.0000000000000E+00
(PID.TID 0000.0001) %MON forcing_fu_mean              =   0.0000000000000E+00
(PID.TID 0000.0001) %MON forcing_fu_sd                =   0.0000000000000E+00
(PID.TID 0000.0001) %MON forcing_fu_del2              =   0.0000000000000E+00
(PID.TID 0000.0001) %MON forcing_fv_max               =   0.0000000000000E+00
(PID.TID 0000.0001) %MON forcing_fv_min               =   0.0000000000000E+00
(PID.TID 0000.0001) %MON forcing_fv_mean              =   0.0000000000000E+00
(PID.TID 0000.0001) %MON forcing_fv_sd                =   0.0000000000000E+00
(PID.TID 0000.0001) %MON forcing_fv_del2              =   0.0000000000000E+00
(PID.TID 0000.0001) %MON advcfl_uvel_max              =   1.0842429943297E-01
(PID.TID 0000.0001) %MON advcfl_vvel_max              =   0.0000000000000E+00
(PID.TID 0000.0001) %MON advcfl_wvel_max              =   6.0692306929355E-01
(PID.TID 0000.0001) %MON advcfl_W_hf_max              =   6.1505130727168E-01
(PID.TID 0000.0001) %MON pe_b_mean                    =   2.2800444218068E-05
(PID.TID 0000.0001) %MON ke_max                       =   7.9130454768022E-01
(PID.TID 0000.0001) %MON ke_mean                      =   4.3946848346563E-02
(PID.TID 0000.0001) %MON ke_vol                       =   9.5633499295324E+10
(PID.TID 0000.0001) %MON vort_r_min                   =   0.0000000000000E+00
(PID.TID 0000.0001) %MON vort_r_max                   =   0.0000000000000E+00
(PID.TID 0000.0001) %MON vort_a_mean                  =   0.0000000000000E+00
(PID.TID 0000.0001) %MON vort_a_sd                    =   0.0000000000000E+00
(PID.TID 0000.0001) %MON vort_p_mean                  =   0.0000000000000E+00
(PID.TID 0000.0001) %MON vort_p_sd                    =   0.0000000000000E+00
(PID.TID 0000.0001) %MON surfExpan_theta_mean         =  -1.8689218364580E-10
(PID.TID 0000.0001) %MON surfExpan_salt_mean          =  -1.6622324944686E-18
(PID.TID 0000.0001) // =======================================================
(PID.TID 0000.0001) // End MONITOR dynamic field statistics
(PID.TID 0000.0001) // =======================================================
(PID.TID 0000.0001) // =======================================================
(PID.TID 0000.0001) // Begin OBCS MONITOR field statistics
(PID.TID 0000.0001) // =======================================================
(PID.TID 0000.0001) %MON obc_E_uVel_max               =   2.8014282071829E-01
(PID.TID 0000.0001) %MON obc_E_uVel_min               =   2.8014282071829E-01
(PID.TID 0000.0001) %MON obc_E_uVel_mean              =   2.8014282071829E-01
(PID.TID 0000.0001) %MON obc_E_uVel_sd                =   3.7252902984619E-09
(PID.TID 0000.0001) %MON obc_E_uVel_Int               =   2.8014282071829E+05
(PID.TID 0000.0001) %MON obc_W_uVel_max               =   2.8014282071829E-01
(PID.TID 0000.0001) %MON obc_W_uVel_min               =   2.8014282071829E-01
(PID.TID 0000.0001) %MON obc_W_uVel_mean              =   2.8014282071829E-01
(PID.TID 0000.0001) %MON obc_W_uVel_sd                =   3.7252902984619E-09
(PID.TID 0000.0001) %MON obc_W_uVel_Int               =   2.8014282071829E+05
(PID.TID 0000.0001) // =======================================================
(PID.TID 0000.0001) // End OBCS MONITOR field statistics
(PID.TID 0000.0001) // =======================================================
(PID.TID 0000.0001) %CHECKPOINT      1440 0000001440
 cg2d: Sum(rhs),rhsMax =  -1.81294979029190E-11  2.45189843598009E-01
 cg2d: Sum(rhs),rhsMax =  -1.81538117871582E-11  2.44464950469746E-01
 cg2d: Sum(rhs),rhsMax =  -1.82196480125185E-11  2.43560650958115E-01
 cg2d: Sum(rhs),rhsMax =  -1.82907022860945E-11  2.42479848581422E-01
 cg2d: Sum(rhs),rhsMax =  -1.83745241244537E-11  2.41225407334292E-01
 cg2d: Sum(rhs),rhsMax =  -1.84715576168060E-11  2.39800131750241E-01
 cg2d: Sum(rhs),rhsMax =  -1.85861326329473E-11  2.38206763453711E-01
 cg2d: Sum(rhs),rhsMax =  -1.86723969619607E-11  2.36447993916191E-01
 cg2d: Sum(rhs),rhsMax =  -1.88330462336239E-11  2.34526491338625E-01
 cg2d: Sum(rhs),rhsMax =  -1.89868121225345E-11  2.32467725359562E-01
 cg2d: Sum(rhs),rhsMax =  -1.90720772508257E-11  2.31030647004829E-01
 cg2d: Sum(rhs),rhsMax =  -1.91884286238064E-11  2.29468915342814E-01
 cg2d: Sum(rhs),rhsMax =  -1.93265403680698E-11  2.27785518349715E-01
 cg2d: Sum(rhs),rhsMax =  -1.94875227066404E-11  2.25983694384153E-01
 cg2d: Sum(rhs),rhsMax =  -1.96571647848032E-11  2.24066895077114E-01
 cg2d: Sum(rhs),rhsMax =  -1.97777350052775E-11  2.22038739921685E-01
 cg2d: Sum(rhs),rhsMax =  -1.99660288302539E-11  2.19902964184464E-01
 cg2d: Sum(rhs),rhsMax =  -2.01333394400649E-11  2.17663362035327E-01
 cg2d: Sum(rhs),rhsMax =  -2.03185246405724E-11  2.15323727172085E-01
 cg2d: Sum(rhs),rhsMax =  -2.05312433720906E-11  2.12887793492494E-01
 cg2d: Sum(rhs),rhsMax =  -2.07635020288421E-11  2.10359178723571E-01
 cg2d: Sum(rhs),rhsMax =  -2.10003125999947E-11  2.07741332777879E-01
 cg2d: Sum(rhs),rhsMax =  -2.13213890987163E-11  2.05037493905833E-01
 cg2d: Sum(rhs),rhsMax =  -2.15096829236927E-11  2.02250654573808E-01
 cg2d: Sum(rhs),rhsMax =  -2.17944551295091E-11  1.99383538285517E-01
 cg2d: Sum(rhs),rhsMax =  -2.20549134510861E-11  1.96438588018414E-01
 cg2d: Sum(rhs),rhsMax =  -2.23713270131043E-11  1.93417966276847E-01
 cg2d: Sum(rhs),rhsMax =  -2.26136886993800E-11  1.90323565830170E-01
 cg2d: Sum(rhs),rhsMax =  -2.30231389508617E-11  1.87157030096225E-01
 cg2d: Sum(rhs),rhsMax =  -2.33796315640689E-11  1.83919781248866E-01
 cg2d: Sum(rhs),rhsMax =  -2.37670993996630E-11  1.80613053476120E-01
 cg2d: Sum(rhs),rhsMax =  -2.41995312677545E-11  1.77237929036860E-01
 cg2d: Sum(rhs),rhsMax =  -2.45939935084039E-11  1.73795374824208E-01
 cg2d: Sum(rhs),rhsMax =  -2.50311993355012E-11  1.70286277350356E-01
 cg2d: Sum(rhs),rhsMax =  -2.54931631360478E-11  1.66711474337161E-01
 cg2d: Sum(rhs),rhsMax =  -2.59923194079192E-11  1.63071781593992E-01
 cg2d: Sum(rhs),rhsMax =  -2.65119037834438E-11  1.59368014376924E-01
 cg2d: Sum(rhs),rhsMax =  -2.71220823577778E-11  1.55601002949979E-01
 cg2d: Sum(rhs),rhsMax =  -2.76836331636332E-11  1.51771602556888E-01
 cg2d: Sum(rhs),rhsMax =  -2.82835976861406E-11  1.47880698418426E-01
 cg2d: Sum(rhs),rhsMax =  -2.89459567426320E-11  1.43929206666885E-01
 cg2d: Sum(rhs),rhsMax =  -2.96613844597005E-11  1.39918072228186E-01
 cg2d: Sum(rhs),rhsMax =  -3.04198888301244E-11  1.35848264852142E-01
 cg2d: Sum(rhs),rhsMax =  -3.14287484926012E-11  1.31720774709784E-01
 cg2d: Sum(rhs),rhsMax =  -3.24674731544405E-11  1.27536607757200E-01
 cg2d: Sum(rhs),rhsMax =  -3.35467209566787E-11  1.23296781866342E-01
 cg2d: Sum(rhs),rhsMax =  -3.47738504657968E-11  1.19002324111906E-01
 cg2d: Sum(rhs),rhsMax =  -3.61379814961538E-11  1.14654269265968E-01
 cg2d: Sum(rhs),rhsMax =  -3.76312314642746E-11  1.10253659093282E-01
 cg2d: Sum(rhs),rhsMax =  -3.92027521556315E-11  1.05801542047408E-01
 cg2d: Sum(rhs),rhsMax =  -4.09974276749381E-11  1.01298972622125E-01
 cg2d: Sum(rhs),rhsMax =  -4.29779545285669E-11  9.67470094972481E-02
 cg2d: Sum(rhs),rhsMax =  -4.51747528273927E-11  9.21467116047665E-02
 cg2d: Sum(rhs),rhsMax =  -4.76695349860279E-11  8.74991313418932E-02
 cg2d: Sum(rhs),rhsMax =  -5.04107866561299E-11  8.28053043702573E-02
 cg2d: Sum(rhs),rhsMax =  -5.35656519140559E-11  7.80662357534482E-02
 cg2d: Sum(rhs),rhsMax =  -5.71467317911356E-11  7.32828825750507E-02
 cg2d: Sum(rhs),rhsMax =  -6.12953021672524E-11  6.84561336077191E-02
 cg2d: Sum(rhs),rhsMax =  -6.61019572412158E-11  6.35867869942762E-02
 cg2d: Sum(rhs),rhsMax =  -7.16990355975611E-11  5.86755274730406E-02
 cg2d: Sum(rhs),rhsMax =  -7.84081966020977E-11  5.37229046748252E-02
 cg2d: Sum(rhs),rhsMax =  -8.64962823587945E-11  4.87293142359868E-02
 cg2d: Sum(rhs),rhsMax =  -9.45436368082753E-11  4.46316776237658E-02
 cg2d: Sum(rhs),rhsMax =  -9.22449824858340E-11  4.57983145870845E-02
 cg2d: Sum(rhs),rhsMax =  -9.07156988416702E-11  4.66267088743000E-02
 cg2d: Sum(rhs),rhsMax =  -9.04811503499303E-11  4.67964363029658E-02
 cg2d: Sum(rhs),rhsMax =  -9.04089580977541E-11  4.68773095501759E-02
 cg2d: Sum(rhs),rhsMax =  -8.94363472170312E-11  4.74285750114265E-02
 cg2d: Sum(rhs),rhsMax =  -8.87294682172524E-11  4.78633363150670E-02
 cg2d: Sum(rhs),rhsMax =  -8.86416495760045E-11  4.80584155491674E-02
 cg2d: Sum(rhs),rhsMax =  -8.84446960114360E-11  4.82211831891600E-02
 cg2d: Sum(rhs),rhsMax =  -8.80059358721041E-11  4.85149161878615E-02
 cg2d: Sum(rhs),rhsMax =  -8.81029693644564E-11  4.84960892247817E-02
 cg2d: Sum(rhs),rhsMax =  -8.84589068661512E-11  4.83544804825249E-02
 cg2d: Sum(rhs),rhsMax =  -8.32889313073792E-11  5.13838651043502E-02
 cg2d: Sum(rhs),rhsMax =  -7.66484653524913E-11  5.58812288954299E-02
 cg2d: Sum(rhs),rhsMax =  -7.10294045802584E-11  6.03662214926348E-02
 cg2d: Sum(rhs),rhsMax =  -6.62185861699527E-11  6.48395279358369E-02
 cg2d: Sum(rhs),rhsMax =  -6.20028473008460E-11  6.93017179607636E-02
 cg2d: Sum(rhs),rhsMax =  -5.83062487180541E-11  7.37532083851251E-02
 cg2d: Sum(rhs),rhsMax =  -5.50246515018671E-11  7.81942335114686E-02
 cg2d: Sum(rhs),rhsMax =  -5.21461762659214E-11  8.26248258407133E-02
 cg2d: Sum(rhs),rhsMax =  -4.95314900206267E-11  8.70448074277416E-02
 cg2d: Sum(rhs),rhsMax =  -4.72240024862458E-11  9.14537919911152E-02
 cg2d: Sum(rhs),rhsMax =  -4.51814141655404E-11  9.58511969474330E-02
 cg2d: Sum(rhs),rhsMax =  -4.32933688898629E-11  1.00236263715308E-01
 cg2d: Sum(rhs),rhsMax =  -4.15829592981254E-11  1.04608083878998E-01
 cg2d: Sum(rhs),rhsMax =  -4.00169897218916E-11  1.08965628746275E-01
 cg2d: Sum(rhs),rhsMax =  -3.85705911654100E-11  1.13307779696701E-01
 cg2d: Sum(rhs),rhsMax =  -3.72055719566333E-11  1.17633356949641E-01
 cg2d: Sum(rhs),rhsMax =  -3.59944296590697E-11  1.21941144796937E-01
 cg2d: Sum(rhs),rhsMax =  -3.48814310768830E-11  1.26229911873939E-01
 cg2d: Sum(rhs),rhsMax =  -3.37843086839484E-11  1.30498425610937E-01
 cg2d: Sum(rhs),rhsMax =  -3.27711191516755E-11  1.34745460549068E-01
 cg2d: Sum(rhs),rhsMax =  -3.16642267961242E-11  1.39903681343636E-01
 cg2d: Sum(rhs),rhsMax =  -3.03335134788085E-11  1.46219156669757E-01
 cg2d: Sum(rhs),rhsMax =  -2.91404678165463E-11  1.52548593043707E-01
 cg2d: Sum(rhs),rhsMax =  -2.79947176551332E-11  1.58888826014339E-01
 cg2d: Sum(rhs),rhsMax =  -2.70052868955872E-11  1.65236451617283E-01
 cg2d: Sum(rhs),rhsMax =  -2.60577115440697E-11  1.71587812212289E-01
 cg2d: Sum(rhs),rhsMax =  -2.51109133486693E-11  1.77938987428253E-01
 cg2d: Sum(rhs),rhsMax =  -2.42913467118910E-11  1.84285790751973E-01
 cg2d: Sum(rhs),rhsMax =  -2.35295116723933E-11  1.90623771926895E-01
 cg2d: Sum(rhs),rhsMax =  -2.28526086942793E-11  1.96948224979736E-01
 cg2d: Sum(rhs),rhsMax =  -2.22150076112371E-11  2.03254201385699E-01
 cg2d: Sum(rhs),rhsMax =  -2.15931716951445E-11  2.09536527637135E-01
 cg2d: Sum(rhs),rhsMax =  -2.10385042720418E-11  2.15789826307900E-01
 cg2d: Sum(rhs),rhsMax =  -2.04802841352603E-11  2.22008539608816E-01
 cg2d: Sum(rhs),rhsMax =  -1.99934513389621E-11  2.28186954403632E-01
 cg2d: Sum(rhs),rhsMax =  -1.95294891369713E-11  2.34319227675478E-01
 cg2d: Sum(rhs),rhsMax =  -1.91049398523546E-11  2.40399411574659E-01
 cg2d: Sum(rhs),rhsMax =  -1.86647364230907E-11  2.46421477224680E-01
 cg2d: Sum(rhs),rhsMax =  -1.82546200377942E-11  2.52379336658336E-01
 cg2d: Sum(rhs),rhsMax =  -1.78591585964227E-11  2.58266862373541E-01
 cg2d: Sum(rhs),rhsMax =  -1.75036651839378E-11  2.64077904226347E-01
 cg2d: Sum(rhs),rhsMax =  -1.71683778305010E-11  2.69806303525550E-01
 cg2d: Sum(rhs),rhsMax =  -1.68186575777440E-11  2.75445904362610E-01
 cg2d: Sum(rhs),rhsMax =  -1.65415459107976E-11  2.80990562379115E-01
 cg2d: Sum(rhs),rhsMax =  -1.62554414373517E-11  2.86434151338053E-01
 cg2d: Sum(rhs),rhsMax =  -1.59873225769047E-11  2.91770568019472E-01
 cg2d: Sum(rhs),rhsMax =  -1.56914481408421E-11  2.96993736097643E-01
 cg2d: Sum(rhs),rhsMax =  -1.54699586474294E-11  3.02097609765302E-01
 cg2d: Sum(rhs),rhsMax =  -1.52580170720285E-11  3.07076177947190E-01
 cg2d: Sum(rhs),rhsMax =  -1.50004453303154E-11  3.11923469978057E-01
 cg2d: Sum(rhs),rhsMax =  -1.47916123793834E-11  3.16633563598514E-01
 cg2d: Sum(rhs),rhsMax =  -1.46115342047892E-11  3.21200596040954E-01
 cg2d: Sum(rhs),rhsMax =  -1.44647627209338E-11  3.25618778839182E-01
 cg2d: Sum(rhs),rhsMax =  -1.42892364607405E-11  3.29882416790584E-01
 cg2d: Sum(rhs),rhsMax =  -1.41300304790093E-11  3.33985931254500E-01
 cg2d: Sum(rhs),rhsMax =  -1.39774858354258E-11  3.37923887688844E-01
 cg2d: Sum(rhs),rhsMax =  -1.38350442213664E-11  3.41691027052025E-01
 cg2d: Sum(rhs),rhsMax =  -1.37287958779098E-11  3.45282300426486E-01
 cg2d: Sum(rhs),rhsMax =  -1.35915723120661E-11  3.48692905917915E-01
 cg2d: Sum(rhs),rhsMax =  -1.34756650282952E-11  3.51918326716147E-01
 cg2d: Sum(rhs),rhsMax =  -1.34008359964355E-11  3.54954369075664E-01
 cg2d: Sum(rhs),rhsMax =  -1.33325572804210E-11  3.57797198915172E-01
 cg2d: Sum(rhs),rhsMax =  -1.32184263534896E-11  3.60443375668360E-01
 cg2d: Sum(rhs),rhsMax =  -1.31443744777471E-11  3.62889882267862E-01
 cg2d: Sum(rhs),rhsMax =  -1.30907507056577E-11  3.65134150168675E-01
 cg2d: Sum(rhs),rhsMax =  -1.30780941631770E-11  3.67174078563392E-01
 cg2d: Sum(rhs),rhsMax =  -1.30573329926165E-11  3.69008047174196E-01
 cg2d: Sum(rhs),rhsMax =  -1.30463417846727E-11  3.70634922201336E-01
 cg2d: Sum(rhs),rhsMax =  -1.30292443500934E-11  3.72054055482739E-01
 cg2d: Sum(rhs),rhsMax =  -1.30589983271534E-11  3.73265276617830E-01
 cg2d: Sum(rhs),rhsMax =  -1.30254695918097E-11  3.74268878427269E-01
 cg2d: Sum(rhs),rhsMax =  -1.30520039220983E-11  3.75065596243824E-01
 cg2d: Sum(rhs),rhsMax =  -1.31274990877728E-11  3.75656581468887E-01
 cg2d: Sum(rhs),rhsMax =  -1.32587274492835E-11  3.76043369677774E-01
 cg2d: Sum(rhs),rhsMax =  -1.32766020399799E-11  3.76227844383776E-01
 cg2d: Sum(rhs),rhsMax =  -1.32651667428263E-11  3.76212197241248E-01
 cg2d: Sum(rhs),rhsMax =  -1.33023592141512E-11  3.75998885566460E-01
 cg2d: Sum(rhs),rhsMax =  -1.33129063328852E-11  3.75590588204133E-01
 cg2d: Sum(rhs),rhsMax =  -1.33603128560367E-11  3.74990160784765E-01
 cg2d: Sum(rhs),rhsMax =  -1.34380284677604E-11  3.74200591407701E-01
 cg2d: Sum(rhs),rhsMax =  -1.34904309945227E-11  3.73224958748125E-01
 cg2d: Sum(rhs),rhsMax =  -1.35723654537401E-11  3.72066393552129E-01
 cg2d: Sum(rhs),rhsMax =  -1.35709221638081E-11  3.70728044519756E-01
 cg2d: Sum(rhs),rhsMax =  -1.35755851005115E-11  3.69213049704837E-01
 cg2d: Sum(rhs),rhsMax =  -1.35874644868750E-11  3.67524514381872E-01
 cg2d: Sum(rhs),rhsMax =  -1.36067823675035E-11  3.65665495941591E-01
 cg2d: Sum(rhs),rhsMax =  -1.37035938152508E-11  3.63638996288773E-01
 cg2d: Sum(rhs),rhsMax =  -1.37829747615115E-11  3.61447961003907E-01
 cg2d: Sum(rhs),rhsMax =  -1.38254963033546E-11  3.59095285341861E-01
 cg2d: Sum(rhs),rhsMax =  -1.38931088855543E-11  3.56583826019386E-01
 cg2d: Sum(rhs),rhsMax =  -1.39418476763353E-11  3.53916417741907E-01
 cg2d: Sum(rhs),rhsMax =  -1.40177869312197E-11  3.51095893289696E-01
 cg2d: Sum(rhs),rhsMax =  -1.41497924488476E-11  3.48125105955795E-01
 cg2d: Sum(rhs),rhsMax =  -1.42529321678353E-11  3.45006953235816E-01
 cg2d: Sum(rhs),rhsMax =  -1.43824951948091E-11  3.41744400997077E-01
 cg2d: Sum(rhs),rhsMax =  -1.45170542253936E-11  3.38340506363782E-01
 cg2d: Sum(rhs),rhsMax =  -1.46435086278984E-11  3.34798439443276E-01
 cg2d: Sum(rhs),rhsMax =  -1.47868384203775E-11  3.31121503521928E-01
 cg2d: Sum(rhs),rhsMax =  -1.49009693473090E-11  3.27313153351446E-01
 cg2d: Sum(rhs),rhsMax =  -1.50731649384284E-11  3.23377011353062E-01
 cg2d: Sum(rhs),rhsMax =  -1.52322598978571E-11  3.19316881494816E-01
 cg2d: Sum(rhs),rhsMax =  -1.53633772370654E-11  3.15136760221012E-01
 cg2d: Sum(rhs),rhsMax =  -1.55354618058823E-11  3.10840844362021E-01
 cg2d: Sum(rhs),rhsMax =  -1.57496238273325E-11  3.06433535566964E-01
 cg2d: Sum(rhs),rhsMax =  -1.59049440284775E-11  3.01919440567834E-01
 cg2d: Sum(rhs),rhsMax =  -1.60779167757141E-11  2.97303366799325E-01
 cg2d: Sum(rhs),rhsMax =  -1.63222768634341E-11  2.92590313246452E-01
 cg2d: Sum(rhs),rhsMax =  -1.65453206690813E-11  2.87785455426479E-01
 cg2d: Sum(rhs),rhsMax =  -1.67946767604121E-11  2.82894124360821E-01
 cg2d: Sum(rhs),rhsMax =  -1.70500280560759E-11  2.77921779712097E-01
 cg2d: Sum(rhs),rhsMax =  -1.73215886078992E-11  2.72873977634045E-01
 cg2d: Sum(rhs),rhsMax =  -1.76195724677086E-11  2.67756333969254E-01
 cg2d: Sum(rhs),rhsMax =  -1.79155579260737E-11  2.62574484036298E-01
 cg2d: Sum(rhs),rhsMax =  -1.82241999269195E-11  2.57334040418824E-01
 cg2d: Sum(rhs),rhsMax =  -1.85396142882155E-11  2.52040550327822E-01
 cg2d: Sum(rhs),rhsMax =  -1.89122051352797E-11  2.46699453825223E-01
 cg2d: Sum(rhs),rhsMax =  -1.92572624513332E-11  2.41316045378591E-01
 cg2d: Sum(rhs),rhsMax =  -1.96450633538348E-11  2.35895439440881E-01
 cg2d: Sum(rhs),rhsMax =  -2.00401917282989E-11  2.30442541063266E-01
 cg2d: Sum(rhs),rhsMax =  -2.04589678531875E-11  2.24962022481873E-01
 cg2d: Sum(rhs),rhsMax =  -2.09017247954080E-11  2.19458305824946E-01
 cg2d: Sum(rhs),rhsMax =  -2.13635775736520E-11  2.13935552223785E-01
 cg2d: Sum(rhs),rhsMax =  -2.18632889570358E-11  2.08397656975592E-01
 cg2d: Sum(rhs),rhsMax =  -2.23686624778452E-11  2.02848250005138E-01
 cg2d: Sum(rhs),rhsMax =  -2.28946861469126E-11  1.97290700679984E-01
 cg2d: Sum(rhs),rhsMax =  -2.35299557616031E-11  1.91728125958112E-01
 cg2d: Sum(rhs),rhsMax =  -2.41552333690720E-11  1.86163400870176E-01
 cg2d: Sum(rhs),rhsMax =  -2.48813192271768E-11  1.80599170413604E-01
 cg2d: Sum(rhs),rhsMax =  -2.55949705874059E-11  1.75037862009868E-01
 cg2d: Sum(rhs),rhsMax =  -2.63684629686622E-11  1.69481697988995E-01
 cg2d: Sum(rhs),rhsMax =  -2.72211142515744E-11  1.63932707691434E-01
 cg2d: Sum(rhs),rhsMax =  -2.81233925036872E-11  1.58392738977833E-01
 cg2d: Sum(rhs),rhsMax =  -2.90674151415260E-11  1.52863469115761E-01
 cg2d: Sum(rhs),rhsMax =  -3.00912628148353E-11  1.47346415258357E-01
 cg2d: Sum(rhs),rhsMax =  -3.12058157092565E-11  1.41842944360335E-01
 cg2d: Sum(rhs),rhsMax =  -3.23968629700744E-11  1.36354283111999E-01
 cg2d: Sum(rhs),rhsMax =  -3.36599637051904E-11  1.30881528007571E-01
 cg2d: Sum(rhs),rhsMax =  -3.49349438266700E-11  1.25809959196161E-01
 cg2d: Sum(rhs),rhsMax =  -3.60791396758486E-11  1.21612862708894E-01
 cg2d: Sum(rhs),rhsMax =  -3.72983866014920E-11  1.17375117897464E-01
 cg2d: Sum(rhs),rhsMax =  -3.86034537669389E-11  1.13095460039493E-01
 cg2d: Sum(rhs),rhsMax =  -4.00552924162412E-11  1.08772668620218E-01
 cg2d: Sum(rhs),rhsMax =  -4.16187084795183E-11  1.04405640970793E-01
 cg2d: Sum(rhs),rhsMax =  -4.33391100784775E-11  9.99934619438078E-02
 cg2d: Sum(rhs),rhsMax =  -4.52695658736957E-11  9.55354640465169E-02
 cg2d: Sum(rhs),rhsMax =  -4.73825423341623E-11  9.10312747685905E-02
 cg2d: Sum(rhs),rhsMax =  -4.97758501083467E-11  8.64808474671988E-02
 cg2d: Sum(rhs),rhsMax =  -5.24176257954423E-11  8.18844744922827E-02
 cg2d: Sum(rhs),rhsMax =  -5.54547519016069E-11  7.72427832153106E-02
 cg2d: Sum(rhs),rhsMax =  -5.89034376830000E-11  7.25567171125217E-02
 cg2d: Sum(rhs),rhsMax =  -6.28790353118802E-11  6.78275052372505E-02
 cg2d: Sum(rhs),rhsMax =  -6.75794975535382E-11  6.30566241007194E-02
 cg2d: Sum(rhs),rhsMax =  -7.30359106526635E-11  5.82457564271276E-02
 cg2d: Sum(rhs),rhsMax =  -7.95874477432790E-11  5.33967506215623E-02
 cg2d: Sum(rhs),rhsMax =  -8.75233219232996E-11  4.85115842940131E-02
 cg2d: Sum(rhs),rhsMax =  -9.73376934609860E-11  4.35923342235566E-02
 cg2d: Sum(rhs),rhsMax =  -1.09669162640103E-10  3.86411540358488E-02
 cg2d: Sum(rhs),rhsMax =  -1.25824017871423E-10  3.36602596154371E-02
 cg2d: Sum(rhs),rhsMax =  -1.47743706158110E-10  2.86519214944469E-02
 cg2d: Sum(rhs),rhsMax =  -1.67130642658719E-10  2.53303926135177E-02
 cg2d: Sum(rhs),rhsMax =  -1.64154467796607E-10  2.57761969808676E-02
 cg2d: Sum(rhs),rhsMax =  -1.59613211536680E-10  2.64804189714132E-02
 cg2d: Sum(rhs),rhsMax =  -1.54782964223443E-10  2.72845741832328E-02
 cg2d: Sum(rhs),rhsMax =  -1.48990181303432E-10  2.83272638781394E-02
 cg2d: Sum(rhs),rhsMax =  -1.42675725400832E-10  2.95559192408456E-02
 cg2d: Sum(rhs),rhsMax =  -1.35127520284328E-10  3.11726820954717E-02
 cg2d: Sum(rhs),rhsMax =  -1.28693944390079E-10  3.27055754375171E-02
 cg2d: Sum(rhs),rhsMax =  -1.22229337762292E-10  3.44072388999115E-02
 cg2d: Sum(rhs),rhsMax =  -1.15780829368362E-10  3.63051969187082E-02
 cg2d: Sum(rhs),rhsMax =  -1.03100750159513E-10  4.07420288750251E-02
 cg2d: Sum(rhs),rhsMax =  -9.29607502087038E-11  4.51735259077366E-02
 cg2d: Sum(rhs),rhsMax =  -8.44826431034562E-11  4.96769916052824E-02
 cg2d: Sum(rhs),rhsMax =  -7.74679209669671E-11  5.41718716322464E-02
 cg2d: Sum(rhs),rhsMax =  -7.13814563013671E-11  5.87407158438855E-02
 cg2d: Sum(rhs),rhsMax =  -6.61346533092910E-11  6.33401632323619E-02
 cg2d: Sum(rhs),rhsMax =  -6.15972828299505E-11  6.80051857803949E-02
 cg2d: Sum(rhs),rhsMax =  -5.75575143102469E-11  7.27128287461947E-02
 cg2d: Sum(rhs),rhsMax =  -5.40212319322109E-11  7.73830320328716E-02
 cg2d: Sum(rhs),rhsMax =  -5.09676745252818E-11  8.20128233538207E-02
 cg2d: Sum(rhs),rhsMax =  -4.82391904199631E-11  8.65992045755370E-02
 cg2d: Sum(rhs),rhsMax =  -4.58072468845216E-11  9.11391705317413E-02
 cg2d: Sum(rhs),rhsMax =  -4.36248814850160E-11  9.56297273171102E-02
 cg2d: Sum(rhs),rhsMax =  -4.16847667494835E-11  1.00067910566494E-01
 cg2d: Sum(rhs),rhsMax =  -3.99145161367187E-11  1.04450804075476E-01
 cg2d: Sum(rhs),rhsMax =  -3.83389986424731E-11  1.08775558862314E-01
 cg2d: Sum(rhs),rhsMax =  -3.69994035409604E-11  1.13039412508546E-01
 cg2d: Sum(rhs),rhsMax =  -3.57081031410189E-11  1.17239708361157E-01
 cg2d: Sum(rhs),rhsMax =  -3.44992923118070E-11  1.21373913962663E-01
 cg2d: Sum(rhs),rhsMax =  -3.34762217946150E-11  1.25439637910719E-01
 cg2d: Sum(rhs),rhsMax =  -3.24579252364288E-11  1.29434644306543E-01
 cg2d: Sum(rhs),rhsMax =  -3.15847348275611E-11  1.33356863918620E-01
 cg2d: Sum(rhs),rhsMax =  -3.07629477447335E-11  1.37204401287901E-01
 cg2d: Sum(rhs),rhsMax =  -3.00262037455923E-11  1.40975537191298E-01
 cg2d: Sum(rhs),rhsMax =  -2.93509661020153E-11  1.44668726121593E-01
 cg2d: Sum(rhs),rhsMax =  -2.86353163403419E-11  1.48282588727843E-01
 cg2d: Sum(rhs),rhsMax =  -2.79906098299421E-11  1.51815899469622E-01
 cg2d: Sum(rhs),rhsMax =  -2.74134048794394E-11  1.55267570030977E-01
 cg2d: Sum(rhs),rhsMax =  -2.68929323254952E-11  1.58838856946802E-01
 cg2d: Sum(rhs),rhsMax =  -2.63122856836162E-11  1.62589511218651E-01
 cg2d: Sum(rhs),rhsMax =  -2.57347476662062E-11  1.66241336172784E-01
 cg2d: Sum(rhs),rhsMax =  -2.52449172677416E-11  1.69791183981010E-01
 cg2d: Sum(rhs),rhsMax =  -2.49682496900050E-11  1.73235903345357E-01
 cg2d: Sum(rhs),rhsMax =  -2.46480613697031E-11  1.76572317395510E-01
 cg2d: Sum(rhs),rhsMax =  -2.43242093134199E-11  1.79797204405788E-01
 cg2d: Sum(rhs),rhsMax =  -2.40291120334746E-11  1.82907283503125E-01
 cg2d: Sum(rhs),rhsMax =  -2.37366792887883E-11  1.85899207310659E-01
 cg2d: Sum(rhs),rhsMax =  -2.34414709865405E-11  1.88769562981093E-01
 cg2d: Sum(rhs),rhsMax =  -2.31445973497557E-11  1.91514882754341E-01
 cg2d: Sum(rhs),rhsMax =  -2.28245200517563E-11  1.94131664453523E-01
 cg2d: Sum(rhs),rhsMax =  -2.25620633287349E-11  1.96616401688315E-01
 cg2d: Sum(rhs),rhsMax =  -2.23029372747874E-11  1.98965622902984E-01
 cg2d: Sum(rhs),rhsMax =  -2.21019869073302E-11  2.01175937833149E-01
 cg2d: Sum(rhs),rhsMax =  -2.19483320407221E-11  2.03244089448924E-01
 cg2d: Sum(rhs),rhsMax =  -2.17487139408945E-11  2.05167009104454E-01
 cg2d: Sum(rhs),rhsMax =  -2.15439888151536E-11  2.06941872416977E-01
 cg2d: Sum(rhs),rhsMax =  -2.13462580944679E-11  2.08566153210309E-01
 cg2d: Sum(rhs),rhsMax =  -2.12232453833394E-11  2.10037672917480E-01
 cg2d: Sum(rhs),rhsMax =  -2.10865769290081E-11  2.11354642967342E-01
 cg2d: Sum(rhs),rhsMax =  -2.09435802034363E-11  2.12515697903611E-01
 cg2d: Sum(rhs),rhsMax =  -2.07984740541178E-11  2.13519917146485E-01
 cg2d: Sum(rhs),rhsMax =  -2.05957473298213E-11  2.14366834057706E-01
 cg2d: Sum(rhs),rhsMax =  -2.05138128706039E-11  2.15056431167309E-01
 cg2d: Sum(rhs),rhsMax =  -2.04157801775295E-11  2.15589121224357E-01
 cg2d: Sum(rhs),rhsMax =  -2.03469463500028E-11  2.15965714641033E-01
 cg2d: Sum(rhs),rhsMax =  -2.02703409613036E-11  2.16187374365927E-01
 cg2d: Sum(rhs),rhsMax =  -2.02688976713716E-11  2.16255560219598E-01
 cg2d: Sum(rhs),rhsMax =  -2.02050598474557E-11  2.16579017392616E-01
 cg2d: Sum(rhs),rhsMax =  -2.01126892918069E-11  2.17045385482999E-01
 cg2d: Sum(rhs),rhsMax =  -2.01145766709487E-11  2.17395704214854E-01
 cg2d: Sum(rhs),rhsMax =  -2.00929273219685E-11  2.17628364574081E-01
 cg2d: Sum(rhs),rhsMax =  -2.01006988831409E-11  2.17741840148267E-01
 cg2d: Sum(rhs),rhsMax =  -2.01234584551457E-11  2.17734731166204E-01
 cg2d: Sum(rhs),rhsMax =  -2.00879313183577E-11  2.17605809788788E-01
 cg2d: Sum(rhs),rhsMax =  -2.00852667830986E-11  2.17354064216014E-01
 cg2d: Sum(rhs),rhsMax =  -2.01013650169557E-11  2.16978739098593E-01
 cg2d: Sum(rhs),rhsMax =  -2.01564320789771E-11  2.16479369939677E-01
 cg2d: Sum(rhs),rhsMax =  -2.01960670409562E-11  2.15855809369425E-01
 cg2d: Sum(rhs),rhsMax =  -2.02401428950338E-11  2.15108243525492E-01
 cg2d: Sum(rhs),rhsMax =  -2.03010941390858E-11  2.14237197200062E-01
 cg2d: Sum(rhs),rhsMax =  -2.04102290624064E-11  2.13243527376008E-01
 cg2d: Sum(rhs),rhsMax =  -2.04901651201794E-11  2.12128404303082E-01
 cg2d: Sum(rhs),rhsMax =  -2.05931938168646E-11  2.10893281488508E-01
 cg2d: Sum(rhs),rhsMax =  -2.07556194453673E-11  2.09539855989511E-01
 cg2d: Sum(rhs),rhsMax =  -2.09149364494010E-11  2.08070020972544E-01
 cg2d: Sum(rhs),rhsMax =  -2.09993133992725E-11  2.06485813538570E-01
 cg2d: Sum(rhs),rhsMax =  -2.11121120585744E-11  2.04789360181369E-01
 cg2d: Sum(rhs),rhsMax =  -2.11820561091258E-11  2.02982823099585E-01
 cg2d: Sum(rhs),rhsMax =  -2.13205009202966E-11  2.01068350457796E-01
 cg2d: Sum(rhs),rhsMax =  -2.14219753047473E-11  1.99048033371946E-01
 cg2d: Sum(rhs),rhsMax =  -2.16552331622211E-11  1.96923871884765E-01
 cg2d: Sum(rhs),rhsMax =  -2.18598472656595E-11  1.94697751520497E-01
 cg2d: Sum(rhs),rhsMax =  -2.21158646951380E-11  1.92371431255014E-01
 cg2d: Sum(rhs),rhsMax =  -2.23984164549051E-11  1.89946542998815E-01
 cg2d: Sum(rhs),rhsMax =  -2.26674234937718E-11  1.87424601108854E-01
 cg2d: Sum(rhs),rhsMax =  -2.29476437851872E-11  1.84807020924366E-01
 cg2d: Sum(rhs),rhsMax =  -2.32627250795758E-11  1.82095144134781E-01
 cg2d: Sum(rhs),rhsMax =  -2.35849118013221E-11  1.79290268176538E-01
 cg2d: Sum(rhs),rhsMax =  -2.39307462734928E-11  1.76393676935837E-01
 cg2d: Sum(rhs),rhsMax =  -2.43205455774387E-11  1.73406669969750E-01
 cg2d: Sum(rhs),rhsMax =  -2.47127873720387E-11  1.70330588215309E-01
 cg2d: Sum(rhs),rhsMax =  -2.51431098163835E-11  1.67166833659981E-01
 cg2d: Sum(rhs),rhsMax =  -2.55844234686720E-11  1.63916881640696E-01
 cg2d: Sum(rhs),rhsMax =  -2.60297339238491E-11  1.60582285137675E-01
 cg2d: Sum(rhs),rhsMax =  -2.66269228887950E-11  1.57164671163765E-01
 cg2d: Sum(rhs),rhsMax =  -2.72574185444796E-11  1.53665730015801E-01
 cg2d: Sum(rhs),rhsMax =  -2.79128942182183E-11  1.50087198740716E-01
 cg2d: Sum(rhs),rhsMax =  -2.86037860064425E-11  1.46430840698047E-01
 cg2d: Sum(rhs),rhsMax =  -2.93793878114457E-11  1.42698423246256E-01
 cg2d: Sum(rhs),rhsMax =  -3.02391445217154E-11  1.38891695774629E-01
 cg2d: Sum(rhs),rhsMax =  -3.12014858394605E-11  1.35012370215151E-01
 cg2d: Sum(rhs),rhsMax =  -3.22236681782329E-11  1.31062105885869E-01
 cg2d: Sum(rhs),rhsMax =  -3.33452154777092E-11  1.27042500062665E-01
 cg2d: Sum(rhs),rhsMax =  -3.45310446903113E-11  1.22955085068228E-01
 cg2d: Sum(rhs),rhsMax =  -3.57650575821822E-11  1.18801331964279E-01
 cg2d: Sum(rhs),rhsMax =  -3.71441766233715E-11  1.14582660643073E-01
 cg2d: Sum(rhs),rhsMax =  -3.86308762756471E-11  1.10300454852163E-01
 cg2d: Sum(rhs),rhsMax =  -4.02700095492037E-11  1.05956080409035E-01
 cg2d: Sum(rhs),rhsMax =  -4.20731227634974E-11  1.01550904562476E-01
 cg2d: Sum(rhs),rhsMax =  -4.40877334639822E-11  9.70863142355807E-02
 cg2d: Sum(rhs),rhsMax =  -4.63094007585596E-11  9.25637307082692E-02
 cg2d: Sum(rhs),rhsMax =  -4.87883067279427E-11  8.79846188382891E-02
 cg2d: Sum(rhs),rhsMax =  -5.15825160363192E-11  8.33504892015227E-02
 cg2d: Sum(rhs),rhsMax =  -5.47608625112161E-11  7.86628921493129E-02
 cg2d: Sum(rhs),rhsMax =  -5.83531001296933E-11  7.39234035221341E-02
 cg2d: Sum(rhs),rhsMax =  -6.07365269189586E-11  7.11749707828256E-02
 cg2d: Sum(rhs),rhsMax =  -6.06665828684072E-11  7.13062493298037E-02
 cg2d: Sum(rhs),rhsMax =  -6.08357253462088E-11  7.12370401123521E-02
 cg2d: Sum(rhs),rhsMax =  -6.11917738702061E-11  7.09423774593542E-02
 cg2d: Sum(rhs),rhsMax =  -6.17618178821999E-11  7.04193261223532E-02
 cg2d: Sum(rhs),rhsMax =  -6.26456941876796E-11  6.95699814681866E-02
 cg2d: Sum(rhs),rhsMax =  -6.38296360211399E-11  6.84125523717464E-02
 cg2d: Sum(rhs),rhsMax =  -6.48812809034283E-11  6.73690280022188E-02
 cg2d: Sum(rhs),rhsMax =  -6.66240673741214E-11  6.56525917643467E-02
 cg2d: Sum(rhs),rhsMax =  -6.87297371793072E-11  6.36955502245414E-02
 cg2d: Sum(rhs),rhsMax =  -7.12542247427450E-11  6.14933121217946E-02
 cg2d: Sum(rhs),rhsMax =  -7.42899630701288E-11  5.90403898552541E-02
 cg2d: Sum(rhs),rhsMax =  -7.78258013589550E-11  5.64144232809801E-02
 cg2d: Sum(rhs),rhsMax =  -8.20151724312268E-11  5.35642068405241E-02
 cg2d: Sum(rhs),rhsMax =  -8.71882566144677E-11  5.04536097864313E-02
 cg2d: Sum(rhs),rhsMax =  -9.34424759790886E-11  4.71278304439456E-02
 cg2d: Sum(rhs),rhsMax =  -1.00624841792296E-10  4.38020542199905E-02
 cg2d: Sum(rhs),rhsMax =  -1.09403264225705E-10  4.03237976369768E-02
 cg2d: Sum(rhs),rhsMax =  -1.04992570193474E-10  4.20414009785622E-02
 cg2d: Sum(rhs),rhsMax =  -9.54242240780445E-11  4.63009731940506E-02
 cg2d: Sum(rhs),rhsMax =  -8.74964545261037E-11  5.05465767060287E-02
 cg2d: Sum(rhs),rhsMax =  -8.08129119178602E-11  5.47772936239954E-02
 cg2d: Sum(rhs),rhsMax =  -7.50539630445246E-11  5.89923353763662E-02
 cg2d: Sum(rhs),rhsMax =  -7.01585456397424E-11  6.31910749094644E-02
 cg2d: Sum(rhs),rhsMax =  -6.58282317544945E-11  6.73730711388932E-02
 cg2d: Sum(rhs),rhsMax =  -6.20561380060280E-11  7.15380821498265E-02
 cg2d: Sum(rhs),rhsMax =  -5.86979354011419E-11  7.56860644971057E-02
 cg2d: Sum(rhs),rhsMax =  -5.57265344980351E-11  7.98171576878047E-02
 cg2d: Sum(rhs),rhsMax =  -5.29998267495557E-11  8.39316538989474E-02
 cg2d: Sum(rhs),rhsMax =  -5.06115149789821E-11  8.80299545836235E-02
 cg2d: Sum(rhs),rhsMax =  -4.75877115491130E-11  9.37417112892194E-02
 cg2d: Sum(rhs),rhsMax =  -4.47892833932428E-11  9.96494106028991E-02
 cg2d: Sum(rhs),rhsMax =  -4.23341361965868E-11  1.05563068370395E-01
 cg2d: Sum(rhs),rhsMax =  -4.01911837144553E-11  1.11478807042322E-01
 cg2d: Sum(rhs),rhsMax =  -3.82357479011830E-11  1.17392685122222E-01
 cg2d: Sum(rhs),rhsMax =  -3.64571706157335E-11  1.23300726730170E-01
 cg2d: Sum(rhs),rhsMax =  -3.48586715048782E-11  1.29198952903720E-01
 cg2d: Sum(rhs),rhsMax =  -3.33972849375641E-11  1.35083414268157E-01
 cg2d: Sum(rhs),rhsMax =  -3.20602433490080E-11  1.40950224275848E-01
 cg2d: Sum(rhs),rhsMax =  -3.08281178362790E-11  1.46795591788211E-01
 cg2d: Sum(rhs),rhsMax =  -2.96864755000570E-11  1.52615851417174E-01
 cg2d: Sum(rhs),rhsMax =  -2.86767276591604E-11  1.58407489803246E-01
 cg2d: Sum(rhs),rhsMax =  -2.77062817133356E-11  1.64167166005512E-01
 cg2d: Sum(rhs),rhsMax =  -2.68099986655557E-11  1.69891724234656E-01
 cg2d: Sum(rhs),rhsMax =  -2.59822163783952E-11  1.75578197550218E-01
 cg2d: Sum(rhs),rhsMax =  -2.52411425094579E-11  1.81223801679655E-01
 cg2d: Sum(rhs),rhsMax =  -2.45043985103166E-11  1.86825918761451E-01
 cg2d: Sum(rhs),rhsMax =  -2.39248620914623E-11  1.92382071518787E-01
 cg2d: Sum(rhs),rhsMax =  -2.32933672350555E-11  1.97889889078325E-01
 cg2d: Sum(rhs),rhsMax =  -2.27774465955122E-11  2.03347066265829E-01
 cg2d: Sum(rhs),rhsMax =  -2.21985763104726E-11  2.08751318706346E-01
 cg2d: Sum(rhs),rhsMax =  -2.17369455768335E-11  2.14100336344561E-01
 cg2d: Sum(rhs),rhsMax =  -2.13090656231429E-11  2.19391738018637E-01
 cg2d: Sum(rhs),rhsMax =  -2.08315587002517E-11  2.24623029588850E-01
 cg2d: Sum(rhs),rhsMax =  -2.04655181690327E-11  2.29791567758102E-01
 cg2d: Sum(rhs),rhsMax =  -2.00552907614338E-11  2.34894531212108E-01
 cg2d: Sum(rhs),rhsMax =  -1.96858085388385E-11  2.39928900089728E-01
 cg2d: Sum(rhs),rhsMax =  -1.93528526537534E-11  2.44891444156227E-01
 cg2d: Sum(rhs),rhsMax =  -1.90576443515056E-11  2.49778719472123E-01
 cg2d: Sum(rhs),rhsMax =  -1.87203585966245E-11  2.54587072849704E-01
 cg2d: Sum(rhs),rhsMax =  -1.83956183619216E-11  2.59312653039796E-01
 cg2d: Sum(rhs),rhsMax =  -1.81645809504971E-11  2.63951427419272E-01
 cg2d: Sum(rhs),rhsMax =  -1.78860259936187E-11  2.68499202896743E-01
 cg2d: Sum(rhs),rhsMax =  -1.76347825231460E-11  2.72951649855399E-01
 cg2d: Sum(rhs),rhsMax =  -1.74237291261647E-11  2.77304328156114E-01
 cg2d: Sum(rhs),rhsMax =  -1.71700431650379E-11  2.81552714486284E-01
 cg2d: Sum(rhs),rhsMax =  -1.69538827421434E-11  2.85692230606609E-01
 cg2d: Sum(rhs),rhsMax =  -1.67882374668693E-11  2.89718272282765E-01
 cg2d: Sum(rhs),rhsMax =  -1.66472391427419E-11  2.93626238857791E-01
 cg2d: Sum(rhs),rhsMax =  -1.65017999265160E-11  2.97411563495931E-01
 cg2d: Sum(rhs),rhsMax =  -1.63791202822949E-11  3.01069744129369E-01
 cg2d: Sum(rhs),rhsMax =  -1.62507785006483E-11  3.04596375051831E-01
 cg2d: Sum(rhs),rhsMax =  -1.61175517376932E-11  3.07987178896157E-01
 cg2d: Sum(rhs),rhsMax =  -1.59998680970830E-11  3.11238038579747E-01
 cg2d: Sum(rhs),rhsMax =  -1.58983937126322E-11  3.14345028633173E-01
 cg2d: Sum(rhs),rhsMax =  -1.57788226928801E-11  3.17304445119096E-01
 cg2d: Sum(rhs),rhsMax =  -1.57227564301365E-11  3.20112833306066E-01
 cg2d: Sum(rhs),rhsMax =  -1.56180623989144E-11  3.22767012319084E-01
 cg2d: Sum(rhs),rhsMax =  -1.55320201145059E-11  3.25264095942775E-01
 cg2d: Sum(rhs),rhsMax =  -1.55108148547356E-11  3.27601508965322E-01
 cg2d: Sum(rhs),rhsMax =  -1.54087853587725E-11  3.29776998682844E-01
 cg2d: Sum(rhs),rhsMax =  -1.53733692442870E-11  3.31788641414269E-01
 cg2d: Sum(rhs),rhsMax =  -1.55200297058400E-11  3.33634844273168E-01
 cg2d: Sum(rhs),rhsMax =  -1.55769841470033E-11  3.35314342619854E-01
 cg2d: Sum(rhs),rhsMax =  -1.55977453175637E-11  3.36826193843407E-01
 cg2d: Sum(rhs),rhsMax =  -1.56259449823892E-11  3.38169768032035E-01
 cg2d: Sum(rhs),rhsMax =  -1.56348267665862E-11  3.39344736650997E-01
 cg2d: Sum(rhs),rhsMax =  -1.56341606327715E-11  3.40351059935960E-01
 cg2d: Sum(rhs),rhsMax =  -1.56368251680306E-11  3.41188973979028E-01
 cg2d: Sum(rhs),rhsMax =  -1.55981894067736E-11  3.41858978014482E-01
 cg2d: Sum(rhs),rhsMax =  -1.55991886074958E-11  3.42361822281130E-01
 cg2d: Sum(rhs),rhsMax =  -1.55921942024406E-11  3.42698496800218E-01
 cg2d: Sum(rhs),rhsMax =  -1.55566670656526E-11  3.42870221054921E-01
 cg2d: Sum(rhs),rhsMax =  -1.55016000036312E-11  3.42878434345179E-01
 cg2d: Sum(rhs),rhsMax =  -1.54549706365970E-11  3.42724786420895E-01
 cg2d: Sum(rhs),rhsMax =  -1.54373180905054E-11  3.42411127876464E-01
 cg2d: Sum(rhs),rhsMax =  -1.53793644486200E-11  3.41939499513400E-01
 cg2d: Sum(rhs),rhsMax =  -1.53721479989599E-11  3.41312120474418E-01
 cg2d: Sum(rhs),rhsMax =  -1.53335122377030E-11  3.40531374379126E-01
 cg2d: Sum(rhs),rhsMax =  -1.53923540580081E-11  3.39599792736168E-01
 cg2d: Sum(rhs),rhsMax =  -1.53943524594524E-11  3.38520035278858E-01
 cg2d: Sum(rhs),rhsMax =  -1.53874690766997E-11  3.37294867050880E-01
 cg2d: Sum(rhs),rhsMax =  -1.54438684063507E-11  3.35927132549065E-01
 cg2d: Sum(rhs),rhsMax =  -1.54855017697741E-11  3.34419727468288E-01
 cg2d: Sum(rhs),rhsMax =  -1.55121471223651E-11  3.32775567907739E-01
 cg2d: Sum(rhs),rhsMax =  -1.55785384592377E-11  3.30997559093460E-01
 cg2d: Sum(rhs),rhsMax =  -1.56671342566028E-11  3.29088565029198E-01
 cg2d: Sum(rhs),rhsMax =  -1.57466262251660E-11  3.27051380577885E-01
 cg2d: Sum(rhs),rhsMax =  -1.58395518923271E-11  3.24888707835770E-01
 cg2d: Sum(rhs),rhsMax =  -1.59496860163699E-11  3.22603138690264E-01
 cg2d: Sum(rhs),rhsMax =  -1.59894320006515E-11  3.20197145298537E-01
 cg2d: Sum(rhs),rhsMax =  -1.60297330964454E-11  3.17673079679733E-01
 cg2d: Sum(rhs),rhsMax =  -1.61423097111424E-11  3.15033183240894E-01
 cg2d: Sum(rhs),rhsMax =  -1.62556634819566E-11  3.12279606558688E-01
 cg2d: Sum(rhs),rhsMax =  -1.63715707657275E-11  3.09414437964855E-01
 cg2d: Sum(rhs),rhsMax =  -1.65050195732874E-11  3.06439739506273E-01
 cg2d: Sum(rhs),rhsMax =  -1.66030522663618E-11  3.03357588084634E-01
 cg2d: Sum(rhs),rhsMax =  -1.67442726350941E-11  3.00170118699615E-01
 cg2d: Sum(rhs),rhsMax =  -1.68494107555262E-11  2.96879566433755E-01
 cg2d: Sum(rhs),rhsMax =  -1.69555480766803E-11  2.93488303603505E-01
 cg2d: Sum(rhs),rhsMax =  -1.70969904900176E-11  2.89998869066669E-01
 cg2d: Sum(rhs),rhsMax =  -1.72418745947311E-11  2.86413987314759E-01
(PID.TID 0000.0001)      cg2d_init_res =   5.99935629513000E-02
(PID.TID 0000.0001)      cg2d_iters(min,last) =      -1      37
(PID.TID 0000.0001)      cg2d_last_res =   4.84011790010830E-14
(PID.TID 0000.0001) // =======================================================
(PID.TID 0000.0001) // Begin MONITOR dynamic field statistics
(PID.TID 0000.0001) // =======================================================
(PID.TID 0000.0001) %MON time_tsnumber                =                  1920
(PID.TID 0000.0001) %MON time_secondsf                =   2.8800000000000E+04
(PID.TID 0000.0001) %MON dynstat_eta_max              =   4.7924647067336E-02
(PID.TID 0000.0001) %MON dynstat_eta_min              =  -4.7101379721012E-02
(PID.TID 0000.0001) %MON dynstat_eta_mean             =   1.0460658601212E-14
(PID.TID 0000.0001) %MON dynstat_eta_sd               =   3.4513789513994E-02
(PID.TID 0000.0001) %MON dynstat_eta_del2             =   4.3924507140285E-05
(PID.TID 0000.0001) %MON dynstat_uvel_max             =   1.3990377330135E+00
(PID.TID 0000.0001) %MON dynstat_uvel_min             =  -7.9298513016273E-01
(PID.TID 0000.0001) %MON dynstat_uvel_mean            =   2.8967968508373E-01
(PID.TID 0000.0001) %MON dynstat_uvel_sd              =   8.9956415563121E-02
(PID.TID 0000.0001) %MON dynstat_uvel_del2            =   7.5419989943455E-04
(PID.TID 0000.0001) %MON dynstat_vvel_max             =   0.0000000000000E+00
(PID.TID 0000.0001) %MON dynstat_vvel_min             =   0.0000000000000E+00
(PID.TID 0000.0001) %MON dynstat_vvel_mean            =   0.0000000000000E+00
(PID.TID 0000.0001) %MON dynstat_vvel_sd              =   0.0000000000000E+00
(PID.TID 0000.0001) %MON dynstat_vvel_del2            =   0.0000000000000E+00
(PID.TID 0000.0001) %MON dynstat_wvel_max             =   5.0608235435576E-02
(PID.TID 0000.0001) %MON dynstat_wvel_min             =  -3.7289441156425E-02
(PID.TID 0000.0001) %MON dynstat_wvel_mean            =  -7.5259481683854E-21
(PID.TID 0000.0001) %MON dynstat_wvel_sd              =   3.4536337586066E-03
(PID.TID 0000.0001) %MON dynstat_wvel_del2            =   1.2703877776564E-04
(PID.TID 0000.0001) %MON dynstat_theta_max            =   1.5000000000006E+01
(PID.TID 0000.0001) %MON dynstat_theta_min            =   9.9999999999964E+00
(PID.TID 0000.0001) %MON dynstat_theta_mean           =   1.2553508405060E+01
(PID.TID 0000.0001) %MON dynstat_theta_sd             =   2.4546941626447E+00
(PID.TID 0000.0001) %MON dynstat_theta_del2           =   1.4902422672594E-03
(PID.TID 0000.0001) %MON dynstat_salt_max             =   3.5000000000000E+01
(PID.TID 0000.0001) %MON dynstat_salt_min             =   3.5000000000000E+01
(PID.TID 0000.0001) %MON dynstat_salt_mean            =   3.5000000000000E+01
(PID.TID 0000.0001) %MON dynstat_salt_sd              =   3.1974423109205E-13
(PID.TID 0000.0001) %MON dynstat_salt_del2            =   0.0000000000000E+00
(PID.TID 0000.0001) %MON dynstat_sst_max              =   1.5000000000000E+01
(PID.TID 0000.0001) %MON dynstat_sst_min              =   1.4991689310714E+01
(PID.TID 0000.0001) %MON dynstat_sst_mean             =   1.4999840396422E+01
(PID.TID 0000.0001) %MON dynstat_sst_sd               =   9.1548558209752E-04
(PID.TID 0000.0001) %MON dynstat_sst_del2             =   3.0633539608963E-05
(PID.TID 0000.0001) %MON dynstat_sss_max              =   3.5000000000000E+01
(PID.TID 0000.0001) %MON dynstat_sss_min              =   3.5000000000000E+01
(PID.TID 0000.0001) %MON dynstat_sss_mean             =   3.5000000000000E+01
(PID.TID 0000.0001) %MON dynstat_sss_sd               =   5.6843418860808E-14
(PID.TID 0000.0001) %MON dynstat_sss_del2             =   0.0000000000000E+00
(PID.TID 0000.0001) %MON forcing_qnet_max             =   0.0000000000000E+00
(PID.TID 0000.0001) %MON forcing_qnet_min             =   0.0000000000000E+00
(PID.TID 0000.0001) %MON forcing_qnet_mean            =   0.0000000000000E+00
(PID.TID 0000.0001) %MON forcing_qnet_sd              =   0.0000000000000E+00
(PID.TID 0000.0001) %MON forcing_qnet_del2            =   0.0000000000000E+00
(PID.TID 0000.0001) %MON forcing_qsw_max              =   0.0000000000000E+00
(PID.TID 0000.0001) %MON forcing_qsw_min              =   0.0000000000000E+00
(PID.TID 0000.0001) %MON forcing_qsw_mean             =   0.0000000000000E+00
(PID.TID 0000.0001) %MON forcing_qsw_sd               =   0.0000000000000E+00
(PID.TID 0000.0001) %MON forcing_qsw_del2             =   0.0000000000000E+00
(PID.TID 0000.0001) %MON forcing_empmr_max            =   0.0000000000000E+00
(PID.TID 0000.0001) %MON forcing_empmr_min            =   0.0000000000000E+00
(PID.TID 0000.0001) %MON forcing_empmr_mean           =   0.0000000000000E+00
(PID.TID 0000.0001) %MON forcing_empmr_sd             =   0.0000000000000E+00
(PID.TID 0000.0001) %MON forcing_empmr_del2           =   0.0000000000000E+00
(PID.TID 0000.0001) %MON forcing_fu_max               =   0.0000000000000E+00
(PID.TID 0000.0001) %MON forcing_fu_min               =   0.0000000000000E+00
(PID.TID 0000.0001) %MON forcing_fu_mean              =   0.0000000000000E+00
(PID.TID 0000.0001) %MON forcing_fu_sd                =   0.0000000000000E+00
(PID.TID 0000.0001) %MON forcing_fu_del2              =   0.0000000000000E+00
(PID.TID 0000.0001) %MON forcing_fv_max               =   0.0000000000000E+00
(PID.TID 0000.0001) %MON forcing_fv_min               =   0.0000000000000E+00
(PID.TID 0000.0001) %MON forcing_fv_mean              =   0.0000000000000E+00
(PID.TID 0000.0001) %MON forcing_fv_sd                =   0.0000000000000E+00
(PID.TID 0000.0001) %MON forcing_fv_del2              =   0.0000000000000E+00
(PID.TID 0000.0001) %MON advcfl_uvel_max              =   1.0492782997601E-01
(PID.TID 0000.0001) %MON advcfl_vvel_max              =   0.0000000000000E+00
(PID.TID 0000.0001) %MON advcfl_wvel_max              =   4.2159752672854E-01
(PID.TID 0000.0001) %MON advcfl_W_hf_max              =   4.2724378603490E-01
(PID.TID 0000.0001) %MON pe_b_mean                    =   2.9839511458758E-05
(PID.TID 0000.0001) %MON ke_max                       =   6.7454036761802E-01
(PID.TID 0000.0001) %MON ke_mean                      =   4.6049467999394E-02
(PID.TID 0000.0001) %MON ke_vol                       =   9.5633499295324E+10
(PID.TID 0000.0001) %MON vort_r_min                   =   0.0000000000000E+00
(PID.TID 0000.0001) %MON vort_r_max                   =   0.0000000000000E+00
(PID.TID 0000.0001) %MON vort_a_mean                  =   0.0000000000000E+00
(PID.TID 0000.0001) %MON vort_a_sd                    =   0.0000000000000E+00
(PID.TID 0000.0001) %MON vort_p_mean                  =   0.0000000000000E+00
(PID.TID 0000.0001) %MON vort_p_sd                    =   0.0000000000000E+00
(PID.TID 0000.0001) %MON surfExpan_theta_mean         =  -2.1129311650066E-09
(PID.TID 0000.0001) %MON surfExpan_salt_mean          =   1.9739156354983E-19
(PID.TID 0000.0001) // =======================================================
(PID.TID 0000.0001) // End MONITOR dynamic field statistics
(PID.TID 0000.0001) // =======================================================
(PID.TID 0000.0001) // =======================================================
(PID.TID 0000.0001) // Begin OBCS MONITOR field statistics
(PID.TID 0000.0001) // =======================================================
(PID.TID 0000.0001) %MON obc_E_uVel_max               =   2.8014282071829E-01
(PID.TID 0000.0001) %MON obc_E_uVel_min               =   2.8014282071829E-01
(PID.TID 0000.0001) %MON obc_E_uVel_mean              =   2.8014282071829E-01
(PID.TID 0000.0001) %MON obc_E_uVel_sd                =   3.7252902984619E-09
(PID.TID 0000.0001) %MON obc_E_uVel_Int               =   2.8014282071829E+05
(PID.TID 0000.0001) %MON obc_W_uVel_max               =   2.8014282071829E-01
(PID.TID 0000.0001) %MON obc_W_uVel_min               =   2.8014282071829E-01
(PID.TID 0000.0001) %MON obc_W_uVel_mean              =   2.8014282071829E-01
(PID.TID 0000.0001) %MON obc_W_uVel_sd                =   3.7252902984619E-09
(PID.TID 0000.0001) %MON obc_W_uVel_Int               =   2.8014282071829E+05
(PID.TID 0000.0001) // =======================================================
(PID.TID 0000.0001) // End OBCS MONITOR field statistics
(PID.TID 0000.0001) // =======================================================
 cg2d: Sum(rhs),rhsMax =  -1.74119607621037E-11  2.82736575622508E-01
 cg2d: Sum(rhs),rhsMax =  -1.75985892525432E-11  2.78969739208912E-01
 cg2d: Sum(rhs),rhsMax =  -1.78201897682584E-11  2.75116754839415E-01
 cg2d: Sum(rhs),rhsMax =  -1.80208070688082E-11  2.71181044295862E-01
 cg2d: Sum(rhs),rhsMax =  -1.82306392204623E-11  2.67166140354716E-01
 cg2d: Sum(rhs),rhsMax =  -1.84786630441636E-11  2.63075648496225E-01
 cg2d: Sum(rhs),rhsMax =  -1.87057036526994E-11  2.58913207741790E-01
 cg2d: Sum(rhs),rhsMax =  -1.89400717331978E-11  2.54682453874614E-01
 cg2d: Sum(rhs),rhsMax =  -1.92202920246132E-11  2.50386987799829E-01
 cg2d: Sum(rhs),rhsMax =  -1.95067295649665E-11  2.46030351044724E-01
 cg2d: Sum(rhs),rhsMax =  -1.97779570498824E-11  2.41616009489932E-01
 cg2d: Sum(rhs),rhsMax =  -2.00823802032346E-11  2.37147345477894E-01
 cg2d: Sum(rhs),rhsMax =  -2.03923544717100E-11  2.32627657493246E-01
 cg2d: Sum(rhs),rhsMax =  -2.07348582748068E-11  2.28060165793669E-01
 cg2d: Sum(rhs),rhsMax =  -2.11070050326612E-11  2.23448022712510E-01
 cg2d: Sum(rhs),rhsMax =  -2.14929185560209E-11  2.18794324928113E-01
 cg2d: Sum(rhs),rhsMax =  -2.18667306484122E-11  2.14102125387132E-01
 cg2d: Sum(rhs),rhsMax =  -2.22859508625106E-11  2.09374443412780E-01
 cg2d: Sum(rhs),rhsMax =  -2.27282637155213E-11  2.04614271768159E-01
 cg2d: Sum(rhs),rhsMax =  -2.32052155269002E-11  1.99824579905849E-01
 cg2d: Sum(rhs),rhsMax =  -2.36629604799532E-11  1.95008313181334E-01
 cg2d: Sum(rhs),rhsMax =  -2.41995312677545E-11  1.90168388312772E-01
 cg2d: Sum(rhs),rhsMax =  -2.47287745835933E-11  1.85307685621447E-01
 cg2d: Sum(rhs),rhsMax =  -2.53747023393203E-11  1.80429038905831E-01
 cg2d: Sum(rhs),rhsMax =  -2.60423904663298E-11  1.75535223725146E-01
 cg2d: Sum(rhs),rhsMax =  -2.67347255444861E-11  1.70628944712274E-01
 cg2d: Sum(rhs),rhsMax =  -2.74869016436696E-11  1.65712822286924E-01
 cg2d: Sum(rhs),rhsMax =  -2.82420753450197E-11  1.60789378865689E-01
 cg2d: Sum(rhs),rhsMax =  -2.90755197696058E-11  1.55861024429071E-01
 cg2d: Sum(rhs),rhsMax =  -3.00007796383284E-11  1.50930041160417E-01
 cg2d: Sum(rhs),rhsMax =  -3.09453573876795E-11  1.45998566823509E-01
 cg2d: Sum(rhs),rhsMax =  -3.19428927753052E-11  1.41068576855935E-01
 cg2d: Sum(rhs),rhsMax =  -3.30642180301766E-11  1.36141864981113E-01
 cg2d: Sum(rhs),rhsMax =  -3.42046391210715E-11  1.31220022895009E-01
 cg2d: Sum(rhs),rhsMax =  -3.54923868073342E-11  1.26304419917855E-01
 cg2d: Sum(rhs),rhsMax =  -3.68614028189995E-11  1.21396183787940E-01
 cg2d: Sum(rhs),rhsMax =  -3.83308940143934E-11  1.16496184124812E-01
 cg2d: Sum(rhs),rhsMax =  -3.98900912301769E-11  1.11605019965463E-01
 cg2d: Sum(rhs),rhsMax =  -4.16511269918374E-11  1.06723013273900E-01
 cg2d: Sum(rhs),rhsMax =  -4.36249925073184E-11  1.01850209918542E-01
 cg2d: Sum(rhs),rhsMax =  -4.57391902131121E-11  9.69863893033221E-02
 cg2d: Sum(rhs),rhsMax =  -4.80693262971954E-11  9.21310831663169E-02
 cg2d: Sum(rhs),rhsMax =  -5.06495956287267E-11  8.72836035467919E-02
 cg2d: Sum(rhs),rhsMax =  -5.34796651407987E-11  8.24430792690905E-02
 cg2d: Sum(rhs),rhsMax =  -5.67014213359585E-11  7.76084997116220E-02
 cg2d: Sum(rhs),rhsMax =  -6.03942451604667E-11  7.27787639945616E-02
 cg2d: Sum(rhs),rhsMax =  -6.46567244189100E-11  6.79527333125308E-02
 cg2d: Sum(rhs),rhsMax =  -6.95471458200814E-11  6.31292840836675E-02
 cg2d: Sum(rhs),rhsMax =  -7.52146123161879E-11  5.83073595939865E-02
 cg2d: Sum(rhs),rhsMax =  -8.19768697368772E-11  5.34860178360296E-02
 cg2d: Sum(rhs),rhsMax =  -9.00495233935317E-11  4.86644736501322E-02
 cg2d: Sum(rhs),rhsMax =  -9.98463534074290E-11  4.38421338560877E-02
 cg2d: Sum(rhs),rhsMax =  -1.12116871342494E-10  3.90186246743494E-02
 cg2d: Sum(rhs),rhsMax =  -1.27892141321695E-10  3.41938113059320E-02
 cg2d: Sum(rhs),rhsMax =  -1.48860812565488E-10  2.93678101480370E-02
 cg2d: Sum(rhs),rhsMax =  -1.62885926968670E-10  2.68336567734247E-02
 cg2d: Sum(rhs),rhsMax =  -1.53322576856851E-10  2.84968730418424E-02
 cg2d: Sum(rhs),rhsMax =  -1.44966538773161E-10  3.01319295266547E-02
 cg2d: Sum(rhs),rhsMax =  -1.38498656987451E-10  3.15286182602166E-02
 cg2d: Sum(rhs),rhsMax =  -1.33595155771271E-10  3.26601700553412E-02
 cg2d: Sum(rhs),rhsMax =  -1.30140356824349E-10  3.35214799193374E-02
 cg2d: Sum(rhs),rhsMax =  -1.23782761818347E-10  3.52295388330489E-02
 cg2d: Sum(rhs),rhsMax =  -1.15269238598614E-10  3.78065540542387E-02
 cg2d: Sum(rhs),rhsMax =  -1.07850006703103E-10  4.03806603915561E-02
 cg2d: Sum(rhs),rhsMax =  -9.68599644934898E-11  4.49316825398359E-02
 cg2d: Sum(rhs),rhsMax =  -9.30330257276069E-11  4.67510949235736E-02
 cg2d: Sum(rhs),rhsMax =  -8.89974760553969E-11  4.88136531247927E-02
 cg2d: Sum(rhs),rhsMax =  -8.32608426648562E-11  5.21311247017724E-02
 cg2d: Sum(rhs),rhsMax =  -8.07358624399512E-11  5.37188584661895E-02
 cg2d: Sum(rhs),rhsMax =  -7.71029906587728E-11  5.61958399188065E-02
 cg2d: Sum(rhs),rhsMax =  -7.51931850118126E-11  5.75496598799124E-02
 cg2d: Sum(rhs),rhsMax =  -7.26274596019039E-11  5.95216760967301E-02
 cg2d: Sum(rhs),rhsMax =  -7.12560010995844E-11  6.06142308759611E-02
 cg2d: Sum(rhs),rhsMax =  -6.69770905403766E-11  6.44368193767732E-02
 cg2d: Sum(rhs),rhsMax =  -6.25975937751377E-11  6.88968722827364E-02
 cg2d: Sum(rhs),rhsMax =  -5.88182835770112E-11  7.33189658578286E-02
 cg2d: Sum(rhs),rhsMax =  -5.54417622922188E-11  7.77013206334392E-02
 cg2d: Sum(rhs),rhsMax =  -5.24382759437003E-11  8.20419903048587E-02
 cg2d: Sum(rhs),rhsMax =  -4.98128205350667E-11  8.63388467014385E-02
 cg2d: Sum(rhs),rhsMax =  -4.74070782630065E-11  9.05895736350042E-02
 cg2d: Sum(rhs),rhsMax =  -4.52820003715715E-11  9.47916712426006E-02
 cg2d: Sum(rhs),rhsMax =  -4.33512115094459E-11  9.89424715563636E-02
 cg2d: Sum(rhs),rhsMax =  -4.15961709521184E-11  1.03039165218445E-01
 cg2d: Sum(rhs),rhsMax =  -3.99789090721470E-11  1.07078837690182E-01
 cg2d: Sum(rhs),rhsMax =  -3.85390608315106E-11  1.11058512315651E-01
 cg2d: Sum(rhs),rhsMax =  -3.71702668644502E-11  1.14975196550212E-01
 cg2d: Sum(rhs),rhsMax =  -3.59329233035055E-11  1.18825926897669E-01
 cg2d: Sum(rhs),rhsMax =  -3.48289175278182E-11  1.22607807991517E-01
 cg2d: Sum(rhs),rhsMax =  -3.37746497436342E-11  1.26318041752713E-01
 cg2d: Sum(rhs),rhsMax =  -3.27516902487446E-11  1.29953943474432E-01
 cg2d: Sum(rhs),rhsMax =  -3.17503801028352E-11  1.33512943135612E-01
 cg2d: Sum(rhs),rhsMax =  -3.09117176300333E-11  1.36992571994006E-01
 cg2d: Sum(rhs),rhsMax =  -3.01201286134756E-11  1.40390436267777E-01
 cg2d: Sum(rhs),rhsMax =  -2.94346769180720E-11  1.43704181392846E-01
 cg2d: Sum(rhs),rhsMax =  -2.87462276205019E-11  1.46931451549729E-01
 cg2d: Sum(rhs),rhsMax =  -2.81495937670684E-11  1.50069849737061E-01
 cg2d: Sum(rhs),rhsMax =  -2.75157674423099E-11  1.53116903604204E-01
 cg2d: Sum(rhs),rhsMax =  -2.69506639227757E-11  1.56070041556382E-01
 cg2d: Sum(rhs),rhsMax =  -2.64567256991199E-11  1.58926582373773E-01
 cg2d: Sum(rhs),rhsMax =  -2.59516852452180E-11  1.61683739940912E-01
 cg2d: Sum(rhs),rhsMax =  -2.54689602741109E-11  1.64338642887087E-01
 cg2d: Sum(rhs),rhsMax =  -2.50310883131988E-11  1.66888367175310E-01
 cg2d: Sum(rhs),rhsMax =  -2.46179743257358E-11  1.69329978576562E-01
 cg2d: Sum(rhs),rhsMax =  -2.42784681248054E-11  1.71660580935457E-01
 cg2d: Sum(rhs),rhsMax =  -2.39174235971973E-11  1.73877365895385E-01
 cg2d: Sum(rhs),rhsMax =  -2.36130004438451E-11  1.75977660006740E-01
 cg2d: Sum(rhs),rhsMax =  -2.32948105249875E-11  1.77958965909737E-01
 cg2d: Sum(rhs),rhsMax =  -2.29867236356540E-11  1.79818995297017E-01
 cg2d: Sum(rhs),rhsMax =  -2.27468044400325E-11  1.81555692557266E-01
 cg2d: Sum(rhs),rhsMax =  -2.24256169190085E-11  1.83167249214269E-01
 cg2d: Sum(rhs),rhsMax =  -2.21540563671851E-11  1.84652110343604E-01
 cg2d: Sum(rhs),rhsMax =  -2.19299023385133E-11  1.86008974753497E-01
 cg2d: Sum(rhs),rhsMax =  -2.17328377516424E-11  1.87236791292704E-01
 cg2d: Sum(rhs),rhsMax =  -2.15411022352896E-11  1.88334753606398E-01
 cg2d: Sum(rhs),rhsMax =  -2.13595807707634E-11  1.89302295390846E-01
 cg2d: Sum(rhs),rhsMax =  -2.12141415545375E-11  1.90432066560291E-01
 cg2d: Sum(rhs),rhsMax =  -2.10332862238261E-11  1.91798881542737E-01
 cg2d: Sum(rhs),rhsMax =  -2.08473238672013E-11  1.93069289624270E-01
 cg2d: Sum(rhs),rhsMax =  -2.06881178854701E-11  1.94241726354983E-01
 cg2d: Sum(rhs),rhsMax =  -2.05796490959642E-11  1.95314554891750E-01
 cg2d: Sum(rhs),rhsMax =  -2.04662953251500E-11  1.96286074358514E-01
 cg2d: Sum(rhs),rhsMax =  -2.04194439135108E-11  1.97154534171901E-01
 cg2d: Sum(rhs),rhsMax =  -2.03073113880237E-11  1.97918153642128E-01
 cg2d: Sum(rhs),rhsMax =  -2.02508010360702E-11  1.98575146110833E-01
 cg2d: Sum(rhs),rhsMax =  -2.01566541235820E-11  1.99123746479392E-01
 cg2d: Sum(rhs),rhsMax =  -2.01222372098186E-11  1.99562241024190E-01
 cg2d: Sum(rhs),rhsMax =  -2.00489624901934E-11  1.99888998163420E-01
 cg2d: Sum(rhs),rhsMax =  -2.00055527699305E-11  2.00102499017059E-01
 cg2d: Sum(rhs),rhsMax =  -1.99670280309761E-11  2.00201366752781E-01
 cg2d: Sum(rhs),rhsMax =  -1.99574801129643E-11  2.00184393722454E-01
 cg2d: Sum(rhs),rhsMax =  -1.99265048905772E-11  2.00050566263848E-01
 cg2d: Sum(rhs),rhsMax =  -1.99723571014943E-11  1.99799086237796E-01
 cg2d: Sum(rhs),rhsMax =  -1.99145144819113E-11  1.99429388964254E-01
 cg2d: Sum(rhs),rhsMax =  -1.99110727905349E-11  1.98941157274067E-01
 cg2d: Sum(rhs),rhsMax =  -1.99066318984364E-11  1.98334331470179E-01
 cg2d: Sum(rhs),rhsMax =  -1.99311678272807E-11  1.97609114973371E-01
 cg2d: Sum(rhs),rhsMax =  -1.99471550388353E-11  1.96765975517567E-01
 cg2d: Sum(rhs),rhsMax =  -1.99733563022164E-11  1.95805641400394E-01
 cg2d: Sum(rhs),rhsMax =  -1.99935623612646E-11  1.94729092376491E-01
 cg2d: Sum(rhs),rhsMax =  -2.00257588289787E-11  1.93537545393394E-01
 cg2d: Sum(rhs),rhsMax =  -2.01157979162758E-11  1.92232435110438E-01
 cg2d: Sum(rhs),rhsMax =  -2.02120542525108E-11  1.90815389178369E-01
 cg2d: Sum(rhs),rhsMax =  -2.03577155133416E-11  1.89288199289098E-01
 cg2d: Sum(rhs),rhsMax =  -2.04904981870868E-11  1.87652788290679E-01
 cg2d: Sum(rhs),rhsMax =  -2.06525907486821E-11  1.85911174650282E-01
 cg2d: Sum(rhs),rhsMax =  -2.08089101505493E-11  1.84065435785786E-01
 cg2d: Sum(rhs),rhsMax =  -2.10265138633758E-11  1.82117672048899E-01
 cg2d: Sum(rhs),rhsMax =  -2.12148076883523E-11  1.80069973208869E-01
 cg2d: Sum(rhs),rhsMax =  -2.14313011781542E-11  1.77924389251619E-01
 cg2d: Sum(rhs),rhsMax =  -2.17416085135369E-11  1.75682907078806E-01
 cg2d: Sum(rhs),rhsMax =  -2.20740092871097E-11  1.73347434542216E-01
 cg2d: Sum(rhs),rhsMax =  -2.24117391312006E-11  1.70919791652306E-01
 cg2d: Sum(rhs),rhsMax =  -2.27843299782649E-11  1.68401709515101E-01
 cg2d: Sum(rhs),rhsMax =  -2.31979990772402E-11  1.65794836232085E-01
 cg2d: Sum(rhs),rhsMax =  -2.35983454999200E-11  1.63100748125654E-01
 cg2d: Sum(rhs),rhsMax =  -2.40667485940094E-11  1.60320964077928E-01
 cg2d: Sum(rhs),rhsMax =  -2.45652387320661E-11  1.57456961227319E-01
 cg2d: Sum(rhs),rhsMax =  -2.50610643348637E-11  1.54510188962879E-01
 cg2d: Sum(rhs),rhsMax =  -2.55985233010847E-11  1.51482078818031E-01
 cg2d: Sum(rhs),rhsMax =  -2.61788368760563E-11  1.48374048393954E-01
 cg2d: Sum(rhs),rhsMax =  -2.67958988331429E-11  1.45187498102532E-01
 cg2d: Sum(rhs),rhsMax =  -2.74751332796086E-11  1.41923800354270E-01
 cg2d: Sum(rhs),rhsMax =  -2.82104339888178E-11  1.38584281700489E-01
 cg2d: Sum(rhs),rhsMax =  -2.89956947341352E-11  1.35170199301085E-01
 cg2d: Sum(rhs),rhsMax =  -2.98359115191715E-11  1.31682713808762E-01
 cg2d: Sum(rhs),rhsMax =  -3.06870084898492E-11  1.28122861393358E-01
 cg2d: Sum(rhs),rhsMax =  -3.16353609974840E-11  1.24491527808172E-01
 cg2d: Sum(rhs),rhsMax =  -3.26269011807767E-11  1.20789427372307E-01
 cg2d: Sum(rhs),rhsMax =  -3.37345706924452E-11  1.17017089454771E-01
 cg2d: Sum(rhs),rhsMax =  -3.49343887151576E-11  1.13174854494203E-01
 cg2d: Sum(rhs),rhsMax =  -3.62336827208765E-11  1.09262880788039E-01
 cg2d: Sum(rhs),rhsMax =  -3.76431108506381E-11  1.05281162194922E-01
 cg2d: Sum(rhs),rhsMax =  -3.91925381038050E-11  1.01229557070323E-01
 cg2d: Sum(rhs),rhsMax =  -4.09046130300794E-11  9.71078266515172E-02
 cg2d: Sum(rhs),rhsMax =  -4.28362900706247E-11  9.29156810876441E-02
 cg2d: Sum(rhs),rhsMax =  -4.49660308987632E-11  8.86528307905275E-02
 cg2d: Sum(rhs),rhsMax =  -4.73732164607554E-11  8.43190406543007E-02
 cg2d: Sum(rhs),rhsMax =  -5.00843810868901E-11  7.99141846000280E-02
 cg2d: Sum(rhs),rhsMax =  -5.31726884744899E-11  7.54382979225185E-02
 cg2d: Sum(rhs),rhsMax =  -5.66945379532058E-11  7.08916251022745E-02
 cg2d: Sum(rhs),rhsMax =  -6.07702776989072E-11  6.62746611866236E-02
 cg2d: Sum(rhs),rhsMax =  -6.55206999766733E-11  6.15881851299413E-02
 cg2d: Sum(rhs),rhsMax =  -7.10772551926198E-11  5.68332838814295E-02
 cg2d: Sum(rhs),rhsMax =  -7.77168329690880E-11  5.20113664227590E-02
 cg2d: Sum(rhs),rhsMax =  -8.58497717359796E-11  4.71241673550293E-02
 cg2d: Sum(rhs),rhsMax =  -9.60257429127864E-11  4.21737401650863E-02
 cg2d: Sum(rhs),rhsMax =  -1.02110708777303E-10  3.96761322602934E-02
 cg2d: Sum(rhs),rhsMax =  -1.06224029572388E-10  3.81633664086859E-02
 cg2d: Sum(rhs),rhsMax =  -1.10942949271831E-10  3.65794902799280E-02
 cg2d: Sum(rhs),rhsMax =  -1.16137474637235E-10  3.49656023815180E-02
 cg2d: Sum(rhs),rhsMax =  -1.21829822272157E-10  3.33591871424813E-02
 cg2d: Sum(rhs),rhsMax =  -1.29272537119363E-10  3.14725514189523E-02
 cg2d: Sum(rhs),rhsMax =  -1.36431366204448E-10  2.98504075071134E-02
 cg2d: Sum(rhs),rhsMax =  -1.44769640719744E-10  2.81358853944651E-02
 cg2d: Sum(rhs),rhsMax =  -1.54049661915678E-10  2.64478488398555E-02
 cg2d: Sum(rhs),rhsMax =  -1.64528168866696E-10  2.47698060823489E-02
 cg2d: Sum(rhs),rhsMax =  -1.63660973662161E-10  2.49034798910235E-02
 cg2d: Sum(rhs),rhsMax =  -1.43478340319803E-10  2.84298178287397E-02
 cg2d: Sum(rhs),rhsMax =  -1.24625643138643E-10  3.27442007633714E-02
 cg2d: Sum(rhs),rhsMax =  -1.09727116281988E-10  3.71954337142363E-02
 cg2d: Sum(rhs),rhsMax =  -9.78143122054576E-11  4.17715841377558E-02
 cg2d: Sum(rhs),rhsMax =  -8.80077122289435E-11  4.64840674389224E-02
 cg2d: Sum(rhs),rhsMax =  -7.97942822927666E-11  5.12870557077166E-02
 cg2d: Sum(rhs),rhsMax =  -7.29686311373712E-11  5.61754968697517E-02
 cg2d: Sum(rhs),rhsMax =  -6.70181687922877E-11  6.11937473044066E-02
 cg2d: Sum(rhs),rhsMax =  -6.19295725812208E-11  6.62680401295038E-02
 cg2d: Sum(rhs),rhsMax =  -5.74614800186168E-11  7.14347352083005E-02
 cg2d: Sum(rhs),rhsMax =  -5.35625988007382E-11  7.67009966906382E-02
 cg2d: Sum(rhs),rhsMax =  -5.01829688914768E-11  8.20684577594289E-02
 cg2d: Sum(rhs),rhsMax =  -4.71009897751173E-11  8.76001076278774E-02
 cg2d: Sum(rhs),rhsMax =  -4.44345671368751E-11  9.31176340267771E-02
 cg2d: Sum(rhs),rhsMax =  -4.20103951626061E-11  9.86185245464454E-02
 cg2d: Sum(rhs),rhsMax =  -3.99007493712134E-11  1.04100423406332E-01
 cg2d: Sum(rhs),rhsMax =  -3.79861697652473E-11  1.09561140723726E-01
 cg2d: Sum(rhs),rhsMax =  -3.62679886123374E-11  1.14998652662816E-01
 cg2d: Sum(rhs),rhsMax =  -3.46898065828327E-11  1.20411091463178E-01
 cg2d: Sum(rhs),rhsMax =  -3.32338601083393E-11  1.25796725233843E-01
 cg2d: Sum(rhs),rhsMax =  -3.19969606366044E-11  1.31153928316014E-01
 cg2d: Sum(rhs),rhsMax =  -3.07786018893808E-11  1.36481143874353E-01
 cg2d: Sum(rhs),rhsMax =  -2.97214475253327E-11  1.41776841089326E-01
 cg2d: Sum(rhs),rhsMax =  -2.86992651865603E-11  1.47039469823572E-01
 cg2d: Sum(rhs),rhsMax =  -2.77647904667333E-11  1.52267415880694E-01
 cg2d: Sum(rhs),rhsMax =  -2.68816080506440E-11  1.57458959950161E-01
 cg2d: Sum(rhs),rhsMax =  -2.60623744807731E-11  1.62612243051875E-01
 cg2d: Sum(rhs),rhsMax =  -2.52989851290408E-11  1.67725240778745E-01
 cg2d: Sum(rhs),rhsMax =  -2.46177522811308E-11  1.72795747966032E-01
 cg2d: Sum(rhs),rhsMax =  -2.39942510305013E-11  1.77821374645934E-01
 cg2d: Sum(rhs),rhsMax =  -2.34143815447396E-11  1.82799553284595E-01
 cg2d: Sum(rhs),rhsMax =  -2.28846941396910E-11  1.87727556505254E-01
 cg2d: Sum(rhs),rhsMax =  -2.24044116592381E-11  1.92602523819511E-01
 cg2d: Sum(rhs),rhsMax =  -2.19109175247922E-11  1.97421495241838E-01
 cg2d: Sum(rhs),rhsMax =  -2.14740447646022E-11  2.02181449224063E-01
 cg2d: Sum(rhs),rhsMax =  -2.10432782310477E-11  2.06879342110113E-01
 cg2d: Sum(rhs),rhsMax =  -2.06419326076457E-11  2.11512146255154E-01
 cg2d: Sum(rhs),rhsMax =  -2.02895478196297E-11  2.16076884099615E-01
 cg2d: Sum(rhs),rhsMax =  -1.99380512100333E-11  2.20570655809484E-01
 cg2d: Sum(rhs),rhsMax =  -1.95946592285168E-11  2.24990658569973E-01
 cg2d: Sum(rhs),rhsMax =  -1.92678095700671E-11  2.29334196246077E-01
 cg2d: Sum(rhs),rhsMax =  -1.89831483865532E-11  2.33598678839890E-01
 cg2d: Sum(rhs),rhsMax =  -1.86689552705843E-11  2.37781611945550E-01
 cg2d: Sum(rhs),rhsMax =  -1.83981718748782E-11  2.41880577179899E-01
 cg2d: Sum(rhs),rhsMax =  -1.81240578100983E-11  2.45893205297692E-01
 cg2d: Sum(rhs),rhsMax =  -1.78771442094217E-11  2.49817144334852E-01
 cg2d: Sum(rhs),rhsMax =  -1.76195724677086E-11  2.53650025586400E-01
 cg2d: Sum(rhs),rhsMax =  -1.74171788103195E-11  2.57389430520802E-01
 cg2d: Sum(rhs),rhsMax =  -1.72366565465154E-11  2.61032861791942E-01
 cg2d: Sum(rhs),rhsMax =  -1.70234937257874E-11  2.64577721305663E-01
 cg2d: Sum(rhs),rhsMax =  -1.68527414246000E-11  2.68021297858394E-01
 cg2d: Sum(rhs),rhsMax =  -1.66412439384089E-11  2.71360766226506E-01
 cg2d: Sum(rhs),rhsMax =  -1.65563118770251E-11  2.74593198766628E-01
 cg2d: Sum(rhs),rhsMax =  -1.64500635335685E-11  2.77715589625305E-01
 cg2d: Sum(rhs),rhsMax =  -1.63791202822949E-11  2.80724890653690E-01
 cg2d: Sum(rhs),rhsMax =  -1.62734270503506E-11  2.83618057292962E-01
 cg2d: Sum(rhs),rhsMax =  -1.61628488370980E-11  2.86392101855738E-01
 cg2d: Sum(rhs),rhsMax =  -1.60916835412195E-11  2.89044151007851E-01
 cg2d: Sum(rhs),rhsMax =  -1.60492730216788E-11  2.91571503968474E-01
 cg2d: Sum(rhs),rhsMax =  -1.60097490820021E-11  2.93971687783776E-01
 cg2d: Sum(rhs),rhsMax =  -1.59637858487827E-11  2.96242506249100E-01
 cg2d: Sum(rhs),rhsMax =  -1.58835167241023E-11  2.98382079650105E-01
 cg2d: Sum(rhs),rhsMax =  -1.58671964456403E-11  3.00388873052181E-01
 cg2d: Sum(rhs),rhsMax =  -1.58643098657762E-11  3.02261711690134E-01
 cg2d: Sum(rhs),rhsMax =  -1.58093538260573E-11  3.03999782964105E-01
 cg2d: Sum(rhs),rhsMax =  -1.58015822648849E-11  3.05602625496942E-01
 cg2d: Sum(rhs),rhsMax =  -1.58042468001440E-11  3.07070106102111E-01
 cg2d: Sum(rhs),rhsMax =  -1.57956980828544E-11  3.08402386812894E-01
 cg2d: Sum(rhs),rhsMax =  -1.57653889942821E-11  3.09599884317085E-01
 cg2d: Sum(rhs),rhsMax =  -1.57619473029058E-11  3.10663224404331E-01
 cg2d: Sum(rhs),rhsMax =  -1.57058810401622E-11  3.11593194151367E-01
 cg2d: Sum(rhs),rhsMax =  -1.55870871765273E-11  3.12390694494132E-01
 cg2d: Sum(rhs),rhsMax =  -1.55032653381681E-11  3.13056695399333E-01
 cg2d: Sum(rhs),rhsMax =  -1.53790313817126E-11  3.13592195829832E-01
 cg2d: Sum(rhs),rhsMax =  -1.53245194312035E-11  3.13998190069666E-01
 cg2d: Sum(rhs),rhsMax =  -1.53086432419514E-11  3.14275641489628E-01
 cg2d: Sum(rhs),rhsMax =  -1.53353996168448E-11  3.14425464330627E-01
 cg2d: Sum(rhs),rhsMax =  -1.52879930936933E-11  3.14448513617149E-01
 cg2d: Sum(rhs),rhsMax =  -1.52439172396157E-11  3.14345582902253E-01
 cg2d: Sum(rhs),rhsMax =  -1.52304835410177E-11  3.14117409094004E-01
 cg2d: Sum(rhs),rhsMax =  -1.52285961618759E-11  3.13764683896911E-01
 cg2d: Sum(rhs),rhsMax =  -1.52418078158689E-11  3.13288070337066E-01
 cg2d: Sum(rhs),rhsMax =  -1.52863277591564E-11  3.12688222900690E-01
 cg2d: Sum(rhs),rhsMax =  -1.53012047476864E-11  3.11965809928248E-01
 cg2d: Sum(rhs),rhsMax =  -1.53907997457736E-11  3.11121536840778E-01
 cg2d: Sum(rhs),rhsMax =  -1.54299906185429E-11  3.10156168791806E-01
 cg2d: Sum(rhs),rhsMax =  -1.54763979409722E-11  3.09070551594245E-01
 cg2d: Sum(rhs),rhsMax =  -1.54989354683721E-11  3.07865629377189E-01
 cg2d: Sum(rhs),rhsMax =  -1.55514490174369E-11  3.06542458036196E-01
 cg2d: Sum(rhs),rhsMax =  -1.55998547413105E-11  3.05102213924669E-01
 cg2d: Sum(rhs),rhsMax =  -1.56603618961526E-11  3.03546198053074E-01
 cg2d: Sum(rhs),rhsMax =  -1.57209800732971E-11  3.01875835205423E-01
 cg2d: Sum(rhs),rhsMax =  -1.57734936223619E-11  3.00092668299156E-01
 cg2d: Sum(rhs),rhsMax =  -1.58570934161162E-11  2.98198348725466E-01
 cg2d: Sum(rhs),rhsMax =  -1.59315893810685E-11  2.96194623461001E-01
 cg2d: Sum(rhs),rhsMax =  -1.60067514798357E-11  2.94083320273220E-01
 cg2d: Sum(rhs),rhsMax =  -1.61067825743544E-11  2.91866332288740E-01
 cg2d: Sum(rhs),rhsMax =  -1.61646251939374E-11  2.89545603194093E-01
 cg2d: Sum(rhs),rhsMax =  -1.62760915856097E-11  2.87123114414439E-01
 cg2d: Sum(rhs),rhsMax =  -1.63913327355658E-11  2.84600875047179E-01
 cg2d: Sum(rhs),rhsMax =  -1.65333302604154E-11  2.81980915265806E-01
 cg2d: Sum(rhs),rhsMax =  -1.66063829354357E-11  2.79265284080795E-01
 cg2d: Sum(rhs),rhsMax =  -1.67340585832676E-11  2.76456051609919E-01
 cg2d: Sum(rhs),rhsMax =  -1.68659530785931E-11  2.73555315535290E-01
 cg2d: Sum(rhs),rhsMax =  -1.69655400839019E-11  2.70565211124568E-01
 cg2d: Sum(rhs),rhsMax =  -1.70962133339003E-11  2.67487923899707E-01
 cg2d: Sum(rhs),rhsMax =  -1.71914704694132E-11  2.64325703899959E-01
 cg2d: Sum(rhs),rhsMax =  -1.73484560050952E-11  2.61080880457462E-01
 cg2d: Sum(rhs),rhsMax =  -1.75415237890775E-11  2.57755875602559E-01
 cg2d: Sum(rhs),rhsMax =  -1.77434733572568E-11  2.54353214715634E-01
 cg2d: Sum(rhs),rhsMax =  -1.79293246915790E-11  2.50875533300093E-01
 cg2d: Sum(rhs),rhsMax =  -1.81735737569966E-11  2.47325578837967E-01
 cg2d: Sum(rhs),rhsMax =  -1.83796311503670E-11  2.43706207000626E-01
 cg2d: Sum(rhs),rhsMax =  -1.85952364617492E-11  2.40020371888658E-01
 cg2d: Sum(rhs),rhsMax =  -1.88649096344307E-11  2.36271110372703E-01
 cg2d: Sum(rhs),rhsMax =  -1.91288096473841E-11  2.32461521010687E-01
 cg2d: Sum(rhs),rhsMax =  -1.94342320014584E-11  2.28594738390729E-01
 cg2d: Sum(rhs),rhsMax =  -1.96861416057459E-11  2.24673904058910E-01
 cg2d: Sum(rhs),rhsMax =  -2.00334193678486E-11  2.20702135408053E-01
 cg2d: Sum(rhs),rhsMax =  -2.03256300679300E-11  2.16682494002332E-01
 cg2d: Sum(rhs),rhsMax =  -2.06276107306280E-11  2.12617954626615E-01
 cg2d: Sum(rhs),rhsMax =  -2.09924300165198E-11  2.08511377066507E-01
 cg2d: Sum(rhs),rhsMax =  -2.13651318858865E-11  2.04365481034182E-01
 cg2d: Sum(rhs),rhsMax =  -2.17229567667232E-11  2.00182825347754E-01
 cg2d: Sum(rhs),rhsMax =  -2.21608287276354E-11  1.95965791911104E-01
 cg2d: Sum(rhs),rhsMax =  -2.25813812093634E-11  1.91716574703496E-01
 cg2d: Sum(rhs),rhsMax =  -2.30304664228242E-11  1.87437173778504E-01
 cg2d: Sum(rhs),rhsMax =  -2.35351738098188E-11  1.83129394033560E-01
 cg2d: Sum(rhs),rhsMax =  -2.40145681118520E-11  1.78794848319700E-01
 cg2d: Sum(rhs),rhsMax =  -2.45116149599767E-11  1.74434964397586E-01
 cg2d: Sum(rhs),rhsMax =  -2.50416354319327E-11  1.70050995260929E-01
 cg2d: Sum(rhs),rhsMax =  -2.56163978917812E-11  1.65644032423683E-01
 cg2d: Sum(rhs),rhsMax =  -2.61924926192592E-11  1.61215021877060E-01
 cg2d: Sum(rhs),rhsMax =  -2.68369770850541E-11  1.56764782540972E-01
 cg2d: Sum(rhs),rhsMax =  -2.75665046345352E-11  1.52294027133682E-01
 cg2d: Sum(rhs),rhsMax =  -2.83369994136251E-11  1.47803385421643E-01
 cg2d: Sum(rhs),rhsMax =  -2.92180724059676E-11  1.43293429843817E-01
 cg2d: Sum(rhs),rhsMax =  -3.01060287810628E-11  1.38764703414067E-01
 cg2d: Sum(rhs),rhsMax =  -3.10943493175841E-11  1.34217749578851E-01
 cg2d: Sum(rhs),rhsMax =  -3.21218607268747E-11  1.29653143470469E-01
 cg2d: Sum(rhs),rhsMax =  -3.32078808895631E-11  1.25071523741655E-01
 cg2d: Sum(rhs),rhsMax =  -3.44444472943906E-11  1.20473624076898E-01
 cg2d: Sum(rhs),rhsMax =  -3.57663898498117E-11  1.15860303076849E-01
 cg2d: Sum(rhs),rhsMax =  -3.71982444846708E-11  1.11232570954246E-01
 cg2d: Sum(rhs),rhsMax =  -3.87843090976503E-11  1.06591611409651E-01
 cg2d: Sum(rhs),rhsMax =  -4.04454247870945E-11  1.01938797317053E-01
 cg2d: Sum(rhs),rhsMax =  -4.23413526462468E-11  9.72756989077572E-02
 cg2d: Sum(rhs),rhsMax =  -4.44227987728141E-11  9.26040834589658E-02
 cg2d: Sum(rhs),rhsMax =  -4.67305083517999E-11  8.79259059201956E-02
 cg2d: Sum(rhs),rhsMax =  -4.92859086875796E-11  8.32432904361913E-02
 cg2d: Sum(rhs),rhsMax =  -5.21896970084867E-11  7.85585032953513E-02
 cg2d: Sum(rhs),rhsMax =  -5.53814771819816E-11  7.38739183541999E-02
 cg2d: Sum(rhs),rhsMax =  -5.90711923820209E-11  6.91919766080069E-02
 cg2d: Sum(rhs),rhsMax =  -6.32569552294626E-11  6.45151418098423E-02
 cg2d: Sum(rhs),rhsMax =  -6.81104062039140E-11  5.98458543912023E-02
 cg2d: Sum(rhs),rhsMax =  -7.37978567144637E-11  5.51864859336788E-02
 cg2d: Sum(rhs),rhsMax =  -8.05460143027403E-11  5.05392967094931E-02
 cg2d: Sum(rhs),rhsMax =  -8.86499762486892E-11  4.59063982989575E-02
 cg2d: Sum(rhs),rhsMax =  -9.85055370605892E-11  4.12897230640179E-02
 cg2d: Sum(rhs),rhsMax =  -1.05876085676471E-10  3.83922156956368E-02
 cg2d: Sum(rhs),rhsMax =  -1.00654262702449E-10  4.03642489841044E-02
 cg2d: Sum(rhs),rhsMax =  -9.61584700753804E-11  4.22561785992105E-02
 cg2d: Sum(rhs),rhsMax =  -9.22002196812599E-11  4.40619216123161E-02
 cg2d: Sum(rhs),rhsMax =  -8.88323026249083E-11  4.57170384829576E-02
 cg2d: Sum(rhs),rhsMax =  -8.59084192672555E-11  4.72305634819291E-02
 cg2d: Sum(rhs),rhsMax =  -8.33707963776575E-11  4.86319188153915E-02
 cg2d: Sum(rhs),rhsMax =  -8.13172584823718E-11  4.98253249245905E-02
 cg2d: Sum(rhs),rhsMax =  -7.97244215089421E-11  5.07988191630802E-02
 cg2d: Sum(rhs),rhsMax =  -7.84223241900861E-11  5.16024891341984E-02
 cg2d: Sum(rhs),rhsMax =  -7.76038122651812E-11  5.21046164855316E-02
 cg2d: Sum(rhs),rhsMax =  -7.71105956864915E-11  5.24003527054980E-02
 cg2d: Sum(rhs),rhsMax =  -7.69696528735153E-11  5.24610764301258E-02
 cg2d: Sum(rhs),rhsMax =  -7.71751551553734E-11  5.22590651592555E-02
 cg2d: Sum(rhs),rhsMax =  -7.76203545882481E-11  5.19051990394418E-02
 cg2d: Sum(rhs),rhsMax =  -7.84333709091811E-11  5.12930231946269E-02
 cg2d: Sum(rhs),rhsMax =  -7.68198837874934E-11  5.23187222212229E-02
 cg2d: Sum(rhs),rhsMax =  -7.25933757550479E-11  5.52910220441334E-02
 cg2d: Sum(rhs),rhsMax =  -6.88633594592147E-11  5.82324701410447E-02
 cg2d: Sum(rhs),rhsMax =  -6.55269172256112E-11  6.11421005001493E-02
 cg2d: Sum(rhs),rhsMax =  -6.24525986481217E-11  6.40188117839367E-02
 cg2d: Sum(rhs),rhsMax =  -5.97705218652322E-11  6.68615197207908E-02
 cg2d: Sum(rhs),rhsMax =  -5.72175640201067E-11  6.96691581718794E-02
 cg2d: Sum(rhs),rhsMax =  -5.44115863476691E-11  7.32217931799601E-02
 cg2d: Sum(rhs),rhsMax =  -5.16749976142705E-11  7.70269689337114E-02
 cg2d: Sum(rhs),rhsMax =  -4.92581531119640E-11  8.07776407755844E-02
 cg2d: Sum(rhs),rhsMax =  -4.69827510229948E-11  8.44715967357164E-02
 cg2d: Sum(rhs),rhsMax =  -4.50600667889489E-11  8.81067605851038E-02
 cg2d: Sum(rhs),rhsMax =  -4.32137658989973E-11  9.16812099827380E-02
 cg2d: Sum(rhs),rhsMax =  -4.16029433125686E-11  9.51931871240086E-02
 cg2d: Sum(rhs),rhsMax =  -4.01054744969542E-11  9.86411013487602E-02
 cg2d: Sum(rhs),rhsMax =  -3.87230247866910E-11  1.02023523760478E-01
 cg2d: Sum(rhs),rhsMax =  -3.74648090328833E-11  1.05339174544825E-01
 cg2d: Sum(rhs),rhsMax =  -3.63648000600847E-11  1.08586904219171E-01
 cg2d: Sum(rhs),rhsMax =  -3.52590179275580E-11  1.11765670317381E-01
 cg2d: Sum(rhs),rhsMax =  -3.42652572982161E-11  1.14874511356916E-01
 cg2d: Sum(rhs),rhsMax =  -3.33366667604196E-11  1.17912519816102E-01
 cg2d: Sum(rhs),rhsMax =  -3.24781312954769E-11  1.20878815772592E-01
 cg2d: Sum(rhs),rhsMax =  -3.16228154773057E-11  1.23772522714037E-01
 cg2d: Sum(rhs),rhsMax =  -3.08311154384455E-11  1.26592746814446E-01
 cg2d: Sum(rhs),rhsMax =  -3.01128011415130E-11  1.29338560597752E-01
 cg2d: Sum(rhs),rhsMax =  -2.94256841115725E-11  1.32008991738847E-01
 cg2d: Sum(rhs),rhsMax =  -2.87750934191422E-11  1.34603017327576E-01
 cg2d: Sum(rhs),rhsMax =  -2.81910050858869E-11  1.37119563511398E-01
 cg2d: Sum(rhs),rhsMax =  -2.76573208779496E-11  1.39557510025191E-01
 cg2d: Sum(rhs),rhsMax =  -2.71166422649571E-11  1.41915698729726E-01
 cg2d: Sum(rhs),rhsMax =  -2.66138222571044E-11  1.44192944945586E-01
 cg2d: Sum(rhs),rhsMax =  -2.61383137356574E-11  1.46388050121978E-01
 cg2d: Sum(rhs),rhsMax =  -2.57250887258920E-11  1.48499814251507E-01
 cg2d: Sum(rhs),rhsMax =  -2.53143062067807E-11  1.50527046534266E-01
 cg2d: Sum(rhs),rhsMax =  -2.49474885194445E-11  1.52468572934685E-01
 cg2d: Sum(rhs),rhsMax =  -2.45795606090837E-11  1.54323239683477E-01
 cg2d: Sum(rhs),rhsMax =  -2.42608155787138E-11  1.56089912277525E-01
 cg2d: Sum(rhs),rhsMax =  -2.39686048786325E-11  1.57767469930014E-01
 cg2d: Sum(rhs),rhsMax =  -2.37040387318643E-11  1.59354796060761E-01
 cg2d: Sum(rhs),rhsMax =  -2.34202657267701E-11  1.60850765792910E-01
 cg2d: Sum(rhs),rhsMax =  -2.31528130001379E-11  1.62254231915304E-01
 cg2d: Sum(rhs),rhsMax =  -2.28457253115266E-11  1.63895014276750E-01
 cg2d: Sum(rhs),rhsMax =  -2.25341967308168E-11  1.65625765568817E-01
 cg2d: Sum(rhs),rhsMax =  -2.22393214954764E-11  1.67275326712872E-01
 cg2d: Sum(rhs),rhsMax =  -2.19861906458618E-11  1.68843138804952E-01
 cg2d: Sum(rhs),rhsMax =  -2.17289519710562E-11  1.70328538846893E-01
 cg2d: Sum(rhs),rhsMax =  -2.14729345415776E-11  1.71730747933515E-01
 cg2d: Sum(rhs),rhsMax =  -2.12585504755225E-11  1.73048862619349E-01
 cg2d: Sum(rhs),rhsMax =  -2.10860218174957E-11  1.74281849137882E-01
 cg2d: Sum(rhs),rhsMax =  -2.09133821371665E-11  1.75428540092356E-01
 cg2d: Sum(rhs),rhsMax =  -2.07543982000402E-11  1.76487633358402E-01
 cg2d: Sum(rhs),rhsMax =  -2.05969685751484E-11  1.77457693034872E-01
 cg2d: Sum(rhs),rhsMax =  -2.04745109755322E-11  1.78337152585596E-01
 cg2d: Sum(rhs),rhsMax =  -2.03771444162726E-11  1.79124320430993E-01
 cg2d: Sum(rhs),rhsMax =  -2.02459160547619E-11  1.79817388298481E-01
 cg2d: Sum(rhs),rhsMax =  -2.01940686395119E-11  1.80414443031763E-01
 cg2d: Sum(rhs),rhsMax =  -2.01573202573968E-11  1.80913482497747E-01
 cg2d: Sum(rhs),rhsMax =  -2.01827443646607E-11  1.81312436158143E-01
 cg2d: Sum(rhs),rhsMax =  -2.01594296811436E-11  1.81609190651633E-01
 cg2d: Sum(rhs),rhsMax =  -2.01403338451200E-11  1.81801620485761E-01
 cg2d: Sum(rhs),rhsMax =  -2.01184624515349E-11  1.81887623422839E-01
 cg2d: Sum(rhs),rhsMax =  -2.00691685492416E-11  1.81865160172145E-01
 cg2d: Sum(rhs),rhsMax =  -2.00452987542121E-11  1.81732297057334E-01
 cg2d: Sum(rhs),rhsMax =  -2.00028882346714E-11  1.81487250040062E-01
 cg2d: Sum(rhs),rhsMax =  -1.99888994245612E-11  1.81128428298411E-01
 cg2d: Sum(rhs),rhsMax =  -1.98748795199322E-11  1.80654475393674E-01
 cg2d: Sum(rhs),rhsMax =  -1.98603355983096E-11  1.80064306039360E-01
 cg2d: Sum(rhs),rhsMax =  -1.98996374933813E-11  1.79357136663648E-01
 cg2d: Sum(rhs),rhsMax =  -1.99330552064225E-11  1.78532508293921E-01
 cg2d: Sum(rhs),rhsMax =  -2.00485184009835E-11  1.77590300125216E-01
 cg2d: Sum(rhs),rhsMax =  -2.00823802032346E-11  1.76530733659996E-01
 cg2d: Sum(rhs),rhsMax =  -2.02204919474980E-11  1.75354367288281E-01
 cg2d: Sum(rhs),rhsMax =  -2.02799999016179E-11  1.74062081785835E-01
 cg2d: Sum(rhs),rhsMax =  -2.03227434880660E-11  1.72655057554079E-01
 cg2d: Sum(rhs),rhsMax =  -2.04665173697549E-11  1.71134745157633E-01
 cg2d: Sum(rhs),rhsMax =  -2.07169836841103E-11  1.69502830691004E-01
 cg2d: Sum(rhs),rhsMax =  -2.09233741443882E-11  1.67761197590648E-01
 cg2d: Sum(rhs),rhsMax =  -2.12456718884368E-11  1.65911886640856E-01
 cg2d: Sum(rhs),rhsMax =  -2.16356932369877E-11  1.63957055810365E-01
 cg2d: Sum(rhs),rhsMax =  -2.20308216114518E-11  1.61898941348667E-01
 cg2d: Sum(rhs),rhsMax =  -2.24384955060941E-11  1.59739821302734E-01
 cg2d: Sum(rhs),rhsMax =  -2.27843299782649E-11  1.57481982376102E-01
 cg2d: Sum(rhs),rhsMax =  -2.31913377390924E-11  1.55127690779077E-01
 cg2d: Sum(rhs),rhsMax =  -2.36072272841170E-11  1.52679166909793E-01
 cg2d: Sum(rhs),rhsMax =  -2.40337749701780E-11  1.50138564523929E-01
 cg2d: Sum(rhs),rhsMax =  -2.45189424319392E-11  1.47507954373606E-01
 cg2d: Sum(rhs),rhsMax =  -2.50102161203358E-11  1.44789311845125E-01
 cg2d: Sum(rhs),rhsMax =  -2.55545584693095E-11  1.41984509106833E-01
 cg2d: Sum(rhs),rhsMax =  -2.61386468025648E-11  1.39095310957966E-01
 cg2d: Sum(rhs),rhsMax =  -2.67728061942307E-11  1.36123374155973E-01
 cg2d: Sum(rhs),rhsMax =  -2.74656963838993E-11  1.33070250014619E-01
 cg2d: Sum(rhs),rhsMax =  -2.81892287290475E-11  1.29937390039736E-01
 cg2d: Sum(rhs),rhsMax =  -2.90156787485785E-11  1.26726154343980E-01
 cg2d: Sum(rhs),rhsMax =  -2.98473468163252E-11  1.23437822519310E-01
 cg2d: Sum(rhs),rhsMax =  -3.07798231347078E-11  1.20073606576384E-01
 cg2d: Sum(rhs),rhsMax =  -3.17655901582725E-11  1.16634665493838E-01
 cg2d: Sum(rhs),rhsMax =  -3.28358451540112E-11  1.13122120838528E-01
 cg2d: Sum(rhs),rhsMax =  -3.40243389018724E-11  1.09537072951460E-01
 cg2d: Sum(rhs),rhsMax =  -3.52436968498182E-11  1.05880617091746E-01
 cg2d: Sum(rhs),rhsMax =  -3.66024988096569E-11  1.02153858901384E-01
 cg2d: Sum(rhs),rhsMax =  -3.80609987971070E-11  9.83579286800958E-02
 cg2d: Sum(rhs),rhsMax =  -3.96730426288627E-11  9.44939937138214E-02
 cg2d: Sum(rhs),rhsMax =  -4.14810408244648E-11  9.05632682273295E-02
 cg2d: Sum(rhs),rhsMax =  -4.34433600204898E-11  8.65670211346340E-02
 cg2d: Sum(rhs),rhsMax =  -4.56776838575479E-11  8.25065809795792E-02
 cg2d: Sum(rhs),rhsMax =  -4.81756856629545E-11  7.83833378890927E-02
 cg2d: Sum(rhs),rhsMax =  -5.10121944685693E-11  7.41987426465394E-02
 cg2d: Sum(rhs),rhsMax =  -5.41884315197194E-11  6.99543032075167E-02
(PID.TID 0000.0001)      cg2d_init_res =   3.29796036241314E-01
(PID.TID 0000.0001)      cg2d_iters(min,last) =      -1      38
(PID.TID 0000.0001)      cg2d_last_res =   7.36951937923218E-14
(PID.TID 0000.0001) // =======================================================
(PID.TID 0000.0001) // Begin MONITOR dynamic field statistics
(PID.TID 0000.0001) // =======================================================
(PID.TID 0000.0001) %MON time_tsnumber                =                  2400
(PID.TID 0000.0001) %MON time_secondsf                =   3.6000000000000E+04
(PID.TID 0000.0001) %MON dynstat_eta_max              =   1.3448206212065E-02
(PID.TID 0000.0001) %MON dynstat_eta_min              =  -1.5136221951084E-02
(PID.TID 0000.0001) %MON dynstat_eta_mean             =   8.0590581628323E-15
(PID.TID 0000.0001) %MON dynstat_eta_sd               =   8.8963750234159E-03
(PID.TID 0000.0001) %MON dynstat_eta_del2             =   3.1225595231135E-05
(PID.TID 0000.0001) %MON dynstat_uvel_max             =   1.3347927111326E+00
(PID.TID 0000.0001) %MON dynstat_uvel_min             =  -1.1281855149420E+00
(PID.TID 0000.0001) %MON dynstat_uvel_mean            =   2.8141808868386E-01
(PID.TID 0000.0001) %MON dynstat_uvel_sd              =   9.9818390857894E-02
(PID.TID 0000.0001) %MON dynstat_uvel_del2            =   7.2891504874993E-04
(PID.TID 0000.0001) %MON dynstat_vvel_max             =   0.0000000000000E+00
(PID.TID 0000.0001) %MON dynstat_vvel_min             =   0.0000000000000E+00
(PID.TID 0000.0001) %MON dynstat_vvel_mean            =   0.0000000000000E+00
(PID.TID 0000.0001) %MON dynstat_vvel_sd              =   0.0000000000000E+00
(PID.TID 0000.0001) %MON dynstat_vvel_del2            =   0.0000000000000E+00
(PID.TID 0000.0001) %MON dynstat_wvel_max             =   5.2822700387994E-02
(PID.TID 0000.0001) %MON dynstat_wvel_min             =  -3.7580967723397E-02
(PID.TID 0000.0001) %MON dynstat_wvel_mean            =   5.8725871010663E-21
(PID.TID 0000.0001) %MON dynstat_wvel_sd              =   3.1561236280069E-03
(PID.TID 0000.0001) %MON dynstat_wvel_del2            =   1.0972190729545E-04
(PID.TID 0000.0001) %MON dynstat_theta_max            =   1.5000000000007E+01
(PID.TID 0000.0001) %MON dynstat_theta_min            =   9.9999999999956E+00
(PID.TID 0000.0001) %MON dynstat_theta_mean           =   1.2552868627662E+01
(PID.TID 0000.0001) %MON dynstat_theta_sd             =   2.4440973377161E+00
(PID.TID 0000.0001) %MON dynstat_theta_del2           =   1.5500452945348E-03
(PID.TID 0000.0001) %MON dynstat_salt_max             =   3.5000000000000E+01
(PID.TID 0000.0001) %MON dynstat_salt_min             =   3.5000000000000E+01
(PID.TID 0000.0001) %MON dynstat_salt_mean            =   3.5000000000000E+01
(PID.TID 0000.0001) %MON dynstat_salt_sd              =   3.1974423109205E-13
(PID.TID 0000.0001) %MON dynstat_salt_del2            =   0.0000000000000E+00
(PID.TID 0000.0001) %MON dynstat_sst_max              =   1.5000000000000E+01
(PID.TID 0000.0001) %MON dynstat_sst_min              =   1.4993504646338E+01
(PID.TID 0000.0001) %MON dynstat_sst_mean             =   1.4999867528296E+01
(PID.TID 0000.0001) %MON dynstat_sst_sd               =   6.7670605515887E-04
(PID.TID 0000.0001) %MON dynstat_sst_del2             =   2.5780537883674E-05
(PID.TID 0000.0001) %MON dynstat_sss_max              =   3.5000000000000E+01
(PID.TID 0000.0001) %MON dynstat_sss_min              =   3.5000000000000E+01
(PID.TID 0000.0001) %MON dynstat_sss_mean             =   3.5000000000000E+01
(PID.TID 0000.0001) %MON dynstat_sss_sd               =   5.6843418860808E-14
(PID.TID 0000.0001) %MON dynstat_sss_del2             =   0.0000000000000E+00
(PID.TID 0000.0001) %MON forcing_qnet_max             =   0.0000000000000E+00
(PID.TID 0000.0001) %MON forcing_qnet_min             =   0.0000000000000E+00
(PID.TID 0000.0001) %MON forcing_qnet_mean            =   0.0000000000000E+00
(PID.TID 0000.0001) %MON forcing_qnet_sd              =   0.0000000000000E+00
(PID.TID 0000.0001) %MON forcing_qnet_del2            =   0.0000000000000E+00
(PID.TID 0000.0001) %MON forcing_qsw_max              =   0.0000000000000E+00
(PID.TID 0000.0001) %MON forcing_qsw_min              =   0.0000000000000E+00
(PID.TID 0000.0001) %MON forcing_qsw_mean             =   0.0000000000000E+00
(PID.TID 0000.0001) %MON forcing_qsw_sd               =   0.0000000000000E+00
(PID.TID 0000.0001) %MON forcing_qsw_del2             =   0.0000000000000E+00
(PID.TID 0000.0001) %MON forcing_empmr_max            =   0.0000000000000E+00
(PID.TID 0000.0001) %MON forcing_empmr_min            =   0.0000000000000E+00
(PID.TID 0000.0001) %MON forcing_empmr_mean           =   0.0000000000000E+00
(PID.TID 0000.0001) %MON forcing_empmr_sd             =   0.0000000000000E+00
(PID.TID 0000.0001) %MON forcing_empmr_del2           =   0.0000000000000E+00
(PID.TID 0000.0001) %MON forcing_fu_max               =   0.0000000000000E+00
(PID.TID 0000.0001) %MON forcing_fu_min               =   0.0000000000000E+00
(PID.TID 0000.0001) %MON forcing_fu_mean              =   0.0000000000000E+00
(PID.TID 0000.0001) %MON forcing_fu_sd                =   0.0000000000000E+00
(PID.TID 0000.0001) %MON forcing_fu_del2              =   0.0000000000000E+00
(PID.TID 0000.0001) %MON forcing_fv_max               =   0.0000000000000E+00
(PID.TID 0000.0001) %MON forcing_fv_min               =   0.0000000000000E+00
(PID.TID 0000.0001) %MON forcing_fv_mean              =   0.0000000000000E+00
(PID.TID 0000.0001) %MON forcing_fv_sd                =   0.0000000000000E+00
(PID.TID 0000.0001) %MON forcing_fv_del2              =   0.0000000000000E+00
(PID.TID 0000.0001) %MON advcfl_uvel_max              =   1.0010945333495E-01
(PID.TID 0000.0001) %MON advcfl_vvel_max              =   0.0000000000000E+00
(PID.TID 0000.0001) %MON advcfl_wvel_max              =   6.6072805295221E-01
(PID.TID 0000.0001) %MON advcfl_W_hf_max              =   6.6957687601553E-01
(PID.TID 0000.0001) %MON pe_b_mean                    =   1.9825884893376E-06
(PID.TID 0000.0001) %MON ke_max                       =   6.8251851168526E-01
(PID.TID 0000.0001) %MON ke_mean                      =   4.4610152020916E-02
(PID.TID 0000.0001) %MON ke_vol                       =   9.5633499295324E+10
(PID.TID 0000.0001) %MON vort_r_min                   =   0.0000000000000E+00
(PID.TID 0000.0001) %MON vort_r_max                   =   0.0000000000000E+00
(PID.TID 0000.0001) %MON vort_a_mean                  =   0.0000000000000E+00
(PID.TID 0000.0001) %MON vort_a_sd                    =   0.0000000000000E+00
(PID.TID 0000.0001) %MON vort_p_mean                  =   0.0000000000000E+00
(PID.TID 0000.0001) %MON vort_p_sd                    =   0.0000000000000E+00
(PID.TID 0000.0001) %MON surfExpan_theta_mean         =   2.5588315528347E-09
(PID.TID 0000.0001) %MON surfExpan_salt_mean          =  -3.3519322112236E-20
(PID.TID 0000.0001) // =======================================================
(PID.TID 0000.0001) // End MONITOR dynamic field statistics
(PID.TID 0000.0001) // =======================================================
(PID.TID 0000.0001) // =======================================================
(PID.TID 0000.0001) // Begin OBCS MONITOR field statistics
(PID.TID 0000.0001) // =======================================================
(PID.TID 0000.0001) %MON obc_E_uVel_max               =   2.8014282071829E-01
(PID.TID 0000.0001) %MON obc_E_uVel_min               =   2.8014282071829E-01
(PID.TID 0000.0001) %MON obc_E_uVel_mean              =   2.8014282071829E-01
(PID.TID 0000.0001) %MON obc_E_uVel_sd                =   3.7252902984619E-09
(PID.TID 0000.0001) %MON obc_E_uVel_Int               =   2.8014282071829E+05
(PID.TID 0000.0001) %MON obc_W_uVel_max               =   2.8014282071829E-01
(PID.TID 0000.0001) %MON obc_W_uVel_min               =   2.8014282071829E-01
(PID.TID 0000.0001) %MON obc_W_uVel_mean              =   2.8014282071829E-01
(PID.TID 0000.0001) %MON obc_W_uVel_sd                =   3.7252902984619E-09
(PID.TID 0000.0001) %MON obc_W_uVel_Int               =   2.8014282071829E+05
(PID.TID 0000.0001) // =======================================================
(PID.TID 0000.0001) // End OBCS MONITOR field statistics
(PID.TID 0000.0001) // =======================================================
 cg2d: Sum(rhs),rhsMax =  -5.78178616095215E-11  6.56515790270238E-02
 cg2d: Sum(rhs),rhsMax =  -6.20704598830457E-11  6.12921737289831E-02
 cg2d: Sum(rhs),rhsMax =  -6.69754252058397E-11  5.68777265839558E-02
 cg2d: Sum(rhs),rhsMax =  -7.28033189290045E-11  5.24099033667044E-02
 cg2d: Sum(rhs),rhsMax =  -7.97939492258593E-11  4.78903872228053E-02
 cg2d: Sum(rhs),rhsMax =  -8.83082496017096E-11  4.33208701141782E-02
 cg2d: Sum(rhs),rhsMax =  -9.88850112904061E-11  3.87030453868518E-02
 cg2d: Sum(rhs),rhsMax =  -1.12525544437858E-10  3.40386019732355E-02
 cg2d: Sum(rhs),rhsMax =  -1.30554123067839E-10  2.93543691203852E-02
 cg2d: Sum(rhs),rhsMax =  -1.44596001838693E-10  2.65153707137128E-02
 cg2d: Sum(rhs),rhsMax =  -1.62000579617683E-10  2.36687679399366E-02
 cg2d: Sum(rhs),rhsMax =  -1.84333992514496E-10  2.08147012202628E-02
 cg2d: Sum(rhs),rhsMax =  -1.96421878762010E-10  1.95403947114164E-02
 cg2d: Sum(rhs),rhsMax =  -1.96786232274648E-10  1.95116959320202E-02
 cg2d: Sum(rhs),rhsMax =  -1.87736604040367E-10  2.04647116720284E-02
 cg2d: Sum(rhs),rhsMax =  -1.72795444619567E-10  2.22385366803608E-02
 cg2d: Sum(rhs),rhsMax =  -1.59731172733046E-10  2.40665749726666E-02
 cg2d: Sum(rhs),rhsMax =  -1.48369538877091E-10  2.59169074395775E-02
 cg2d: Sum(rhs),rhsMax =  -1.38354550038855E-10  2.78168671663611E-02
 cg2d: Sum(rhs),rhsMax =  -1.25084720359325E-10  3.07724596073553E-02
 cg2d: Sum(rhs),rhsMax =  -1.10322639912397E-10  3.49290511310143E-02
 cg2d: Sum(rhs),rhsMax =  -9.84511361323825E-11  3.91798785724142E-02
 cg2d: Sum(rhs),rhsMax =  -8.86477558026399E-11  4.35548214960860E-02
 cg2d: Sum(rhs),rhsMax =  -8.04568633938629E-11  4.79996730601360E-02
 cg2d: Sum(rhs),rhsMax =  -7.35727034850697E-11  5.25309524062575E-02
 cg2d: Sum(rhs),rhsMax =  -6.76376732400286E-11  5.71725605334893E-02
 cg2d: Sum(rhs),rhsMax =  -6.25294260814258E-11  6.18704063099243E-02
 cg2d: Sum(rhs),rhsMax =  -5.81028558599428E-11  6.66678352452249E-02
 cg2d: Sum(rhs),rhsMax =  -5.41633404793629E-11  7.15626457950358E-02
 cg2d: Sum(rhs),rhsMax =  -5.07063280252851E-11  7.65669363303651E-02
 cg2d: Sum(rhs),rhsMax =  -4.75954831102854E-11  8.17211882090969E-02
 cg2d: Sum(rhs),rhsMax =  -4.48640014028001E-11  8.68580987408401E-02
 cg2d: Sum(rhs),rhsMax =  -4.24298374213095E-11  9.19736524080273E-02
 cg2d: Sum(rhs),rhsMax =  -4.02685662592717E-11  9.70639896717391E-02
 cg2d: Sum(rhs),rhsMax =  -3.83669762626937E-11  1.02125458127076E-01
 cg2d: Sum(rhs),rhsMax =  -3.65998342743978E-11  1.07154655395001E-01
 cg2d: Sum(rhs),rhsMax =  -3.50341977650714E-11  1.12148461700316E-01
 cg2d: Sum(rhs),rhsMax =  -3.36178862525571E-11  1.17104060736327E-01
 cg2d: Sum(rhs),rhsMax =  -3.22919468942473E-11  1.22018948142345E-01
 cg2d: Sum(rhs),rhsMax =  -3.11166648003791E-11  1.26890927668974E-01
 cg2d: Sum(rhs),rhsMax =  -3.00149904930436E-11  1.31718095824107E-01
 cg2d: Sum(rhs),rhsMax =  -2.90309998263183E-11  1.36498816424221E-01
 cg2d: Sum(rhs),rhsMax =  -2.80884204784115E-11  1.41231686976104E-01
 cg2d: Sum(rhs),rhsMax =  -2.72635247711150E-11  1.45915499152304E-01
 cg2d: Sum(rhs),rhsMax =  -2.65023558654320E-11  1.50549195783691E-01
 cg2d: Sum(rhs),rhsMax =  -2.57143195625531E-11  1.55131826776573E-01
 cg2d: Sum(rhs),rhsMax =  -2.50302001347791E-11  1.59662506183349E-01
 cg2d: Sum(rhs),rhsMax =  -2.44870790311325E-11  1.64140372350240E-01
 cg2d: Sum(rhs),rhsMax =  -2.38769004567985E-11  1.68564552636043E-01
 cg2d: Sum(rhs),rhsMax =  -2.33689734230325E-11  1.72934133755839E-01
 cg2d: Sum(rhs),rhsMax =  -2.28803642698949E-11  1.77248138327586E-01
 cg2d: Sum(rhs),rhsMax =  -2.23805418642087E-11  1.81505507776209E-01
 cg2d: Sum(rhs),rhsMax =  -2.19581020033388E-11  1.85705091358093E-01
 cg2d: Sum(rhs),rhsMax =  -2.15717443907693E-11  1.89845640772298E-01
 cg2d: Sum(rhs),rhsMax =  -2.11850537112923E-11  1.93925809594375E-01
 cg2d: Sum(rhs),rhsMax =  -2.07847072886125E-11  1.97944156718311E-01
 cg2d: Sum(rhs),rhsMax =  -2.04475325560338E-11  2.01899152947599E-01
 cg2d: Sum(rhs),rhsMax =  -2.01146876932512E-11  2.05789189931474E-01
 cg2d: Sum(rhs),rhsMax =  -1.97555305447850E-11  2.09612590727739E-01
 cg2d: Sum(rhs),rhsMax =  -1.94387839158594E-11  2.13367621375943E-01
 cg2d: Sum(rhs),rhsMax =  -1.91736626575789E-11  2.17052502964738E-01
 cg2d: Sum(rhs),rhsMax =  -1.89273041684146E-11  2.20665423761316E-01
 cg2d: Sum(rhs),rhsMax =  -1.86439752525303E-11  2.24204551033136E-01
 cg2d: Sum(rhs),rhsMax =  -1.83965065403413E-11  2.27668042234388E-01
 cg2d: Sum(rhs),rhsMax =  -1.81942239052546E-11  2.31054055260429E-01
 cg2d: Sum(rhs),rhsMax =  -1.80002679428526E-11  2.34360757505120E-01
 cg2d: Sum(rhs),rhsMax =  -1.77917680588280E-11  2.37586333502014E-01
 cg2d: Sum(rhs),rhsMax =  -1.76045844568762E-11  2.40728991004280E-01
 cg2d: Sum(rhs),rhsMax =  -1.74356085125282E-11  2.43786965446631E-01
 cg2d: Sum(rhs),rhsMax =  -1.72909464524196E-11  2.46758522891584E-01
 cg2d: Sum(rhs),rhsMax =  -1.71392899872558E-11  2.49641961678504E-01
 cg2d: Sum(rhs),rhsMax =  -1.69819713846664E-11  2.52435613151535E-01
 cg2d: Sum(rhs),rhsMax =  -1.68310920756198E-11  2.55137841977574E-01
 cg2d: Sum(rhs),rhsMax =  -1.67656999394694E-11  2.57747046652744E-01
 cg2d: Sum(rhs),rhsMax =  -1.67096336767258E-11  2.60261660776866E-01
 cg2d: Sum(rhs),rhsMax =  -1.66374691801252E-11  2.62680155728282E-01
 cg2d: Sum(rhs),rhsMax =  -1.65747415792339E-11  2.65001045154693E-01
 cg2d: Sum(rhs),rhsMax =  -1.65315539035760E-11  2.67222891460129E-01
 cg2d: Sum(rhs),rhsMax =  -1.64963598336954E-11  2.69344314294077E-01
 cg2d: Sum(rhs),rhsMax =  -1.66178182325893E-11  2.71364000793211E-01
 cg2d: Sum(rhs),rhsMax =  -1.66069380469480E-11  2.73280716958218E-01
 cg2d: Sum(rhs),rhsMax =  -1.67199587508549E-11  2.75093319546261E-01
 cg2d: Sum(rhs),rhsMax =  -1.68302038972001E-11  2.76800767643856E-01
 cg2d: Sum(rhs),rhsMax =  -1.69032565722205E-11  2.78402133017752E-01
 cg2d: Sum(rhs),rhsMax =  -1.69954050832644E-11  2.79896608344130E-01
 cg2d: Sum(rhs),rhsMax =  -1.70273795063736E-11  2.81283512770632E-01
 cg2d: Sum(rhs),rhsMax =  -1.70969904900176E-11  2.82562294397574E-01
 cg2d: Sum(rhs),rhsMax =  -1.70797820331359E-11  2.83732529553413E-01
 cg2d: Sum(rhs),rhsMax =  -1.71364034073918E-11  2.84793919021263E-01
 cg2d: Sum(rhs),rhsMax =  -1.71425096340272E-11  2.85746281653203E-01
 cg2d: Sum(rhs),rhsMax =  -1.71139769022943E-11  2.86589546071606E-01
 cg2d: Sum(rhs),rhsMax =  -1.70945479993634E-11  2.87323741110089E-01
 cg2d: Sum(rhs),rhsMax =  -1.69720903997472E-11  2.87948985846430E-01
 cg2d: Sum(rhs),rhsMax =  -1.68735025951605E-11  2.88465480017110E-01
 cg2d: Sum(rhs),rhsMax =  -1.68109970388741E-11  2.88873495395098E-01
 cg2d: Sum(rhs),rhsMax =  -1.67834635078634E-11  2.89173368583328E-01
 cg2d: Sum(rhs),rhsMax =  -1.67048597177200E-11  2.89365495273348E-01
 cg2d: Sum(rhs),rhsMax =  -1.66385794031498E-11  2.89450325887518E-01
 cg2d: Sum(rhs),rhsMax =  -1.66359148678907E-11  2.89428362141113E-01
 cg2d: Sum(rhs),rhsMax =  -1.65990554634732E-11  2.89300154664758E-01
 cg2d: Sum(rhs),rhsMax =  -1.65761848691659E-11  2.89066300724448E-01
 cg2d: Sum(rhs),rhsMax =  -1.65746305569314E-11  2.88727441572796E-01
 cg2d: Sum(rhs),rhsMax =  -1.65937263929550E-11  2.88284259069860E-01
 cg2d: Sum(rhs),rhsMax =  -1.66026081771520E-11  2.87737471363392E-01
 cg2d: Sum(rhs),rhsMax =  -1.66260338829716E-11  2.87087827601160E-01
 cg2d: Sum(rhs),rhsMax =  -1.65980562627510E-11  2.86336101877839E-01
 cg2d: Sum(rhs),rhsMax =  -1.66231473031075E-11  2.85483086974886E-01
 cg2d: Sum(rhs),rhsMax =  -1.66452407412976E-11  2.84529587895348E-01
 cg2d: Sum(rhs),rhsMax =  -1.66324731765144E-11  2.83476416478986E-01
 cg2d: Sum(rhs),rhsMax =  -1.66261449052740E-11  2.82324387870208E-01
 cg2d: Sum(rhs),rhsMax =  -1.67201807954598E-11  2.81074319455808E-01
 cg2d: Sum(rhs),rhsMax =  -1.67292846242617E-11  2.79727033260335E-01
 cg2d: Sum(rhs),rhsMax =  -1.67739155898516E-11  2.78283362189560E-01
 cg2d: Sum(rhs),rhsMax =  -1.68370872799528E-11  2.76744160095919E-01
 cg2d: Sum(rhs),rhsMax =  -1.68823843793575E-11  2.75110315772015E-01
 cg2d: Sum(rhs),rhsMax =  -1.69660951954143E-11  2.73382770507336E-01
 cg2d: Sum(rhs),rhsMax =  -1.70277125732810E-11  2.71562538451009E-01
 cg2d: Sum(rhs),rhsMax =  -1.71069824972392E-11  2.69650728659692E-01
 cg2d: Sum(rhs),rhsMax =  -1.72195591119362E-11  2.67648567398190E-01
 cg2d: Sum(rhs),rhsMax =  -1.72714065271862E-11  2.65557419023432E-01
 cg2d: Sum(rhs),rhsMax =  -1.73455694252311E-11  2.63378803831274E-01
 cg2d: Sum(rhs),rhsMax =  -1.74593672852552E-11  2.61114410502803E-01
 cg2d: Sum(rhs),rhsMax =  -1.75800485280320E-11  2.58766101701880E-01
 cg2d: Sum(rhs),rhsMax =  -1.76814118901802E-11  2.56335911444465E-01
 cg2d: Sum(rhs),rhsMax =  -1.77596826134163E-11  2.53826032965166E-01
 cg2d: Sum(rhs),rhsMax =  -1.80755410639222E-11  2.51238796194747E-01
 cg2d: Sum(rhs),rhsMax =  -1.81734627346941E-11  2.48576635402293E-01
 cg2d: Sum(rhs),rhsMax =  -1.83659754071641E-11  2.45842047167833E-01
 cg2d: Sum(rhs),rhsMax =  -1.85526038976036E-11  2.43037539986160E-01
 cg2d: Sum(rhs),rhsMax =  -1.87230231318836E-11  2.40165577655084E-01
 cg2d: Sum(rhs),rhsMax =  -1.89056548194344E-11  2.37228519276979E-01
 cg2d: Sum(rhs),rhsMax =  -1.90878424177754E-11  2.34228559245118E-01
 cg2d: Sum(rhs),rhsMax =  -1.93103311119103E-11  2.31167670969468E-01
 cg2d: Sum(rhs),rhsMax =  -1.95100602340403E-11  2.28047558248348E-01
 cg2d: Sum(rhs),rhsMax =  -1.97410976454648E-11  2.24869618089750E-01
 cg2d: Sum(rhs),rhsMax =  -1.99938954281720E-11  2.21634918399466E-01
 cg2d: Sum(rhs),rhsMax =  -2.02606820209894E-11  2.18344193292558E-01
 cg2d: Sum(rhs),rhsMax =  -2.05007122389134E-11  2.14997857927075E-01
 cg2d: Sum(rhs),rhsMax =  -2.07920347605750E-11  2.11596043490063E-01
 cg2d: Sum(rhs),rhsMax =  -2.11223261104010E-11  2.08138651747736E-01
 cg2d: Sum(rhs),rhsMax =  -2.14305240220369E-11  2.04625427297811E-01
 cg2d: Sum(rhs),rhsMax =  -2.17458273610305E-11  2.01056044036490E-01
 cg2d: Sum(rhs),rhsMax =  -2.21312967951803E-11  1.97430201628267E-01
 cg2d: Sum(rhs),rhsMax =  -2.25284235710888E-11  1.93747727101335E-01
 cg2d: Sum(rhs),rhsMax =  -2.29161134512879E-11  1.90008675274200E-01
 cg2d: Sum(rhs),rhsMax =  -2.33113528480544E-11  1.86213422033689E-01
 cg2d: Sum(rhs),rhsMax =  -2.37299069283381E-11  1.82362744750389E-01
 cg2d: Sum(rhs),rhsMax =  -2.41755504504226E-11  1.78457884750652E-01
 cg2d: Sum(rhs),rhsMax =  -2.46879183762871E-11  1.74500587804392E-01
 cg2d: Sum(rhs),rhsMax =  -2.51894061165103E-11  1.70493119853974E-01
 cg2d: Sum(rhs),rhsMax =  -2.57196486330713E-11  1.66438256708767E-01
 cg2d: Sum(rhs),rhsMax =  -2.62874166878646E-11  1.62339248058863E-01
 cg2d: Sum(rhs),rhsMax =  -2.68780553369652E-11  1.58199757574099E-01
 cg2d: Sum(rhs),rhsMax =  -2.75324207876793E-11  1.54023782504237E-01
 cg2d: Sum(rhs),rhsMax =  -2.81845657923441E-11  1.49815557272273E-01
 cg2d: Sum(rhs),rhsMax =  -2.89492874117059E-11  1.45579446382725E-01
 cg2d: Sum(rhs),rhsMax =  -2.97203373023081E-11  1.41319832604225E-01
 cg2d: Sum(rhs),rhsMax =  -3.05554470614311E-11  1.37041006277566E-01
 cg2d: Sum(rhs),rhsMax =  -3.14663850531360E-11  1.32747061459142E-01
 cg2d: Sum(rhs),rhsMax =  -3.24232862780605E-11  1.28441803994741E-01
 cg2d: Sum(rhs),rhsMax =  -3.35262928530256E-11  1.24128675754960E-01
 cg2d: Sum(rhs),rhsMax =  -3.46488393532240E-11  1.19810698033372E-01
 cg2d: Sum(rhs),rhsMax =  -3.59352547718572E-11  1.15490435977534E-01
 cg2d: Sum(rhs),rhsMax =  -3.72830655237522E-11  1.11169984767426E-01
 cg2d: Sum(rhs),rhsMax =  -3.87748722019410E-11  1.06850976915744E-01
 cg2d: Sum(rhs),rhsMax =  -4.03639344170870E-11  1.02534609032197E-01
 cg2d: Sum(rhs),rhsMax =  -4.20878887297249E-11  9.82216852086513E-02
 cg2d: Sum(rhs),rhsMax =  -4.39446257161080E-11  9.39126738703937E-02
 cg2d: Sum(rhs),rhsMax =  -4.59950966202882E-11  8.96077742576527E-02
 cg2d: Sum(rhs),rhsMax =  -4.82479611818576E-11  8.53069884671052E-02
 cg2d: Sum(rhs),rhsMax =  -5.07398567606288E-11  8.10101949344281E-02
 cg2d: Sum(rhs),rhsMax =  -5.34950972408410E-11  7.67172194273757E-02
 cg2d: Sum(rhs),rhsMax =  -5.65764102233857E-11  7.24279000020467E-02
 cg2d: Sum(rhs),rhsMax =  -6.00627325653136E-11  6.81421429161690E-02
 cg2d: Sum(rhs),rhsMax =  -6.40186792466579E-11  6.38599671578670E-02
 cg2d: Sum(rhs),rhsMax =  -6.85430601166104E-11  5.95815360035835E-02
 cg2d: Sum(rhs),rhsMax =  -7.37176986120858E-11  5.53071748691229E-02
 cg2d: Sum(rhs),rhsMax =  -7.97647503603116E-11  5.10373753913164E-02
 cg2d: Sum(rhs),rhsMax =  -8.69101457467991E-11  4.67727867244528E-02
 cg2d: Sum(rhs),rhsMax =  -9.55662216028941E-11  4.25141957167217E-02
 cg2d: Sum(rhs),rhsMax =  -1.06136266442292E-10  3.82624982130059E-02
 cg2d: Sum(rhs),rhsMax =  -1.11554265824765E-10  3.63825927125322E-02
 cg2d: Sum(rhs),rhsMax =  -1.11975345662430E-10  3.62355198841316E-02
 cg2d: Sum(rhs),rhsMax =  -1.12406667307496E-10  3.60675447693198E-02
 cg2d: Sum(rhs),rhsMax =  -1.12757962906010E-10  3.59363454143472E-02
 cg2d: Sum(rhs),rhsMax =  -1.13063294837623E-10  3.58146390794114E-02
 cg2d: Sum(rhs),rhsMax =  -1.13154846603791E-10  3.57563416518951E-02
 cg2d: Sum(rhs),rhsMax =  -1.13348053165652E-10  3.56746878493485E-02
 cg2d: Sum(rhs),rhsMax =  -1.05899622404593E-10  3.81548098819096E-02
 cg2d: Sum(rhs),rhsMax =  -9.78306324839195E-11  4.12767478711101E-02
 cg2d: Sum(rhs),rhsMax =  -9.09450292851943E-11  4.43773337259038E-02
 cg2d: Sum(rhs),rhsMax =  -8.49927905832715E-11  4.74540504511551E-02
 cg2d: Sum(rhs),rhsMax =  -7.97728549883914E-11  5.05043501137285E-02
 cg2d: Sum(rhs),rhsMax =  -7.51760875772334E-11  5.35254577224789E-02
 cg2d: Sum(rhs),rhsMax =  -7.10712599882868E-11  5.65146695518521E-02
 cg2d: Sum(rhs),rhsMax =  -6.73987532451292E-11  5.94694768094013E-02
 cg2d: Sum(rhs),rhsMax =  -6.40978381483137E-11  6.24347127817734E-02
 cg2d: Sum(rhs),rhsMax =  -6.11253270221823E-11  6.54532276343405E-02
 cg2d: Sum(rhs),rhsMax =  -5.83945114485118E-11  6.84304711245449E-02
 cg2d: Sum(rhs),rhsMax =  -5.58639801084837E-11  7.13646888018704E-02
 cg2d: Sum(rhs),rhsMax =  -5.36030109188346E-11  7.42544718961806E-02
 cg2d: Sum(rhs),rhsMax =  -5.15739673190296E-11  7.70986543191580E-02
 cg2d: Sum(rhs),rhsMax =  -4.97014651656968E-11  7.98963552776923E-02
 cg2d: Sum(rhs),rhsMax =  -4.80161466143159E-11  8.26468602427131E-02
 cg2d: Sum(rhs),rhsMax =  -4.64185356818803E-11  8.53495873297407E-02
 cg2d: Sum(rhs),rhsMax =  -4.49797976642685E-11  8.80040581398392E-02
 cg2d: Sum(rhs),rhsMax =  -4.36574110196375E-11  9.06098501336515E-02
 cg2d: Sum(rhs),rhsMax =  -4.24337232018956E-11  9.31665044865608E-02
 cg2d: Sum(rhs),rhsMax =  -4.12649914238727E-11  9.56734831232328E-02
 cg2d: Sum(rhs),rhsMax =  -4.01962907403686E-11  9.81301342092859E-02
 cg2d: Sum(rhs),rhsMax =  -3.91636723051647E-11  1.00535560943583E-01
 cg2d: Sum(rhs),rhsMax =  -3.82061049464255E-11  1.02888681699030E-01
 cg2d: Sum(rhs),rhsMax =  -3.73276964893421E-11  1.05188393611746E-01
 cg2d: Sum(rhs),rhsMax =  -3.65055763396072E-11  1.07433479650452E-01
 cg2d: Sum(rhs),rhsMax =  -3.56561447034665E-11  1.09622591623536E-01
 cg2d: Sum(rhs),rhsMax =  -3.48685524897974E-11  1.11754348993813E-01
 cg2d: Sum(rhs),rhsMax =  -3.41393580072236E-11  1.13827485301000E-01
 cg2d: Sum(rhs),rhsMax =  -3.34579031147086E-11  1.15840668714171E-01
 cg2d: Sum(rhs),rhsMax =  -3.27845528502735E-11  1.17792674170333E-01
 cg2d: Sum(rhs),rhsMax =  -3.21699333838410E-11  1.19682509493383E-01
 cg2d: Sum(rhs),rhsMax =  -3.16302539715707E-11  1.21509370829312E-01
 cg2d: Sum(rhs),rhsMax =  -3.10630410282897E-11  1.23392593547070E-01
 cg2d: Sum(rhs),rhsMax =  -3.04697378439300E-11  1.25539601253744E-01
 cg2d: Sum(rhs),rhsMax =  -2.99246183388391E-11  1.27610165476958E-01
 cg2d: Sum(rhs),rhsMax =  -2.93489677005709E-11  1.29603517268502E-01
 cg2d: Sum(rhs),rhsMax =  -2.88924439928451E-11  1.31518835488922E-01
 cg2d: Sum(rhs),rhsMax =  -2.84352541513044E-11  1.33355284610696E-01
 cg2d: Sum(rhs),rhsMax =  -2.79793965773933E-11  1.35112058668184E-01
 cg2d: Sum(rhs),rhsMax =  -2.75657274784180E-11  1.36788427086542E-01
 cg2d: Sum(rhs),rhsMax =  -2.71876965385331E-11  1.38383777790363E-01
 cg2d: Sum(rhs),rhsMax =  -2.68439714901092E-11  1.39897653363748E-01
 cg2d: Sum(rhs),rhsMax =  -2.65376609576151E-11  1.41329776527934E-01
 cg2d: Sum(rhs),rhsMax =  -2.62064814293694E-11  1.42757627290339E-01
 cg2d: Sum(rhs),rhsMax =  -2.58171262146334E-11  1.44718523809661E-01
 cg2d: Sum(rhs),rhsMax =  -2.54380960740264E-11  1.46592600130768E-01
 cg2d: Sum(rhs),rhsMax =  -2.50914844457384E-11  1.48378802142272E-01
 cg2d: Sum(rhs),rhsMax =  -2.47688536347823E-11  1.50076222018859E-01
 cg2d: Sum(rhs),rhsMax =  -2.44140263561121E-11  1.51684079283298E-01
 cg2d: Sum(rhs),rhsMax =  -2.41132669387412E-11  1.53201700705563E-01
 cg2d: Sum(rhs),rhsMax =  -2.37985187112599E-11  1.54628501063114E-01
 cg2d: Sum(rhs),rhsMax =  -2.35460539954602E-11  1.55963966560118E-01
 cg2d: Sum(rhs),rhsMax =  -2.33488783862867E-11  1.57207642198655E-01
 cg2d: Sum(rhs),rhsMax =  -2.31401564576572E-11  1.58359123756028E-01
 cg2d: Sum(rhs),rhsMax =  -2.29251062577873E-11  1.59418054318745E-01
 cg2d: Sum(rhs),rhsMax =  -2.27694529897349E-11  1.60384124863587E-01
 cg2d: Sum(rhs),rhsMax =  -2.26206831044351E-11  1.61257077683434E-01
 cg2d: Sum(rhs),rhsMax =  -2.24946727911401E-11  1.62036711091822E-01
 cg2d: Sum(rhs),rhsMax =  -2.23653318087713E-11  1.62722883684079E-01
 cg2d: Sum(rhs),rhsMax =  -2.22769580560112E-11  1.63315516269780E-01
 cg2d: Sum(rhs),rhsMax =  -2.21901386154855E-11  1.63814589865216E-01
 cg2d: Sum(rhs),rhsMax =  -2.21139773159962E-11  1.64220138521065E-01
 cg2d: Sum(rhs),rhsMax =  -2.20368168157847E-11  1.64532236232920E-01
 cg2d: Sum(rhs),rhsMax =  -2.20529150496418E-11  1.64750977828117E-01
 cg2d: Sum(rhs),rhsMax =  -2.20148343998972E-11  1.64876454363587E-01
 cg2d: Sum(rhs),rhsMax =  -2.19787521515968E-11  1.64908724436950E-01
 cg2d: Sum(rhs),rhsMax =  -2.19939622070342E-11  1.64847783476930E-01
 cg2d: Sum(rhs),rhsMax =  -2.20112816862184E-11  1.64693533177997E-01
 cg2d: Sum(rhs),rhsMax =  -2.20220508495572E-11  1.64445753788728E-01
 cg2d: Sum(rhs),rhsMax =  -2.21008766843056E-11  1.64104082020469E-01
 cg2d: Sum(rhs),rhsMax =  -2.21188622973045E-11  1.63667997136237E-01
 cg2d: Sum(rhs),rhsMax =  -2.20921059224111E-11  1.63136817319387E-01
 cg2d: Sum(rhs),rhsMax =  -2.21146434498110E-11  1.62509707909284E-01
 cg2d: Sum(rhs),rhsMax =  -2.21991314219849E-11  1.61785701740411E-01
 cg2d: Sum(rhs),rhsMax =  -2.23404628130197E-11  1.60963731441118E-01
 cg2d: Sum(rhs),rhsMax =  -2.24842366947087E-11  1.60042672655394E-01
 cg2d: Sum(rhs),rhsMax =  -2.25988117108500E-11  1.59021396080815E-01
 cg2d: Sum(rhs),rhsMax =  -2.27495799975941E-11  1.57898825507080E-01
 cg2d: Sum(rhs),rhsMax =  -2.29457564060453E-11  1.56673998542470E-01
 cg2d: Sum(rhs),rhsMax =  -2.32127650434677E-11  1.55346126398720E-01
 cg2d: Sum(rhs),rhsMax =  -2.34439134771947E-11  1.53914649497115E-01
 cg2d: Sum(rhs),rhsMax =  -2.37024844196299E-11  1.52379285354456E-01
 cg2d: Sum(rhs),rhsMax =  -2.40273356766352E-11  1.50740065988675E-01
 cg2d: Sum(rhs),rhsMax =  -2.44539943849986E-11  1.48997362784171E-01
 cg2d: Sum(rhs),rhsMax =  -2.47898368499477E-11  1.47151897583276E-01
 cg2d: Sum(rhs),rhsMax =  -2.51431098163835E-11  1.45204739648938E-01
 cg2d: Sum(rhs),rhsMax =  -2.55755416844750E-11  1.43157289013155E-01
 cg2d: Sum(rhs),rhsMax =  -2.60177435151832E-11  1.41011247572787E-01
 cg2d: Sum(rhs),rhsMax =  -2.64736010890942E-11  1.38768579978703E-01
 cg2d: Sum(rhs),rhsMax =  -2.69638755767687E-11  1.36431466347943E-01
 cg2d: Sum(rhs),rhsMax =  -2.75194311782911E-11  1.34002250071684E-01
 cg2d: Sum(rhs),rhsMax =  -2.81007439539849E-11  1.31483383504329E-01
 cg2d: Sum(rhs),rhsMax =  -2.87262436060587E-11  1.28877374757097E-01
 cg2d: Sum(rhs),rhsMax =  -2.94180235727026E-11  1.26186737749349E-01
 cg2d: Sum(rhs),rhsMax =  -3.01542124603316E-11  1.23413947699484E-01
 cg2d: Sum(rhs),rhsMax =  -3.09493541905681E-11  1.20561403768569E-01
 cg2d: Sum(rhs),rhsMax =  -3.18022275180851E-11  1.17631399994111E-01
 cg2d: Sum(rhs),rhsMax =  -3.27028404356611E-11  1.14626105086939E-01
 cg2d: Sum(rhs),rhsMax =  -3.36561889469067E-11  1.11547551097388E-01
 cg2d: Sum(rhs),rhsMax =  -3.46747075496978E-11  1.08397630447391E-01
 cg2d: Sum(rhs),rhsMax =  -3.57850415966254E-11  1.05178100406229E-01
 cg2d: Sum(rhs),rhsMax =  -3.69967390057013E-11  1.01890593777917E-01
 cg2d: Sum(rhs),rhsMax =  -3.82711640156685E-11  9.85366343735699E-02
 cg2d: Sum(rhs),rhsMax =  -3.97035737620399E-11  9.51176557601563E-02
 cg2d: Sum(rhs),rhsMax =  -4.12847533937111E-11  9.16350217671447E-02
 cg2d: Sum(rhs),rhsMax =  -4.30135926876574E-11  8.80900475329659E-02
 cg2d: Sum(rhs),rhsMax =  -4.49077441899703E-11  8.44840196261626E-02
 cg2d: Sum(rhs),rhsMax =  -4.70108396655178E-11  8.08182144759097E-02
 cg2d: Sum(rhs),rhsMax =  -4.93337592999410E-11  7.70939142929337E-02
 cg2d: Sum(rhs),rhsMax =  -5.19740916971045E-11  7.33124204962726E-02
 cg2d: Sum(rhs),rhsMax =  -5.49223999612991E-11  6.94750641832007E-02
 cg2d: Sum(rhs),rhsMax =  -5.82873749266355E-11  6.55832136720685E-02
 cg2d: Sum(rhs),rhsMax =  -6.20831164255264E-11  6.16382794664052E-02
 cg2d: Sum(rhs),rhsMax =  -6.65072441563552E-11  5.76417171194448E-02
 cg2d: Sum(rhs),rhsMax =  -7.08750835798355E-11  5.41057418397738E-02
 cg2d: Sum(rhs),rhsMax =  -7.49076356498790E-11  5.12845568567890E-02
 cg2d: Sum(rhs),rhsMax =  -7.93793919484642E-11  4.84416977120194E-02
 cg2d: Sum(rhs),rhsMax =  -8.44339043126752E-11  4.55788271897656E-02
 cg2d: Sum(rhs),rhsMax =  -9.01901886507517E-11  4.26976465058189E-02
 cg2d: Sum(rhs),rhsMax =  -9.68179980631589E-11  3.97999027998076E-02
 cg2d: Sum(rhs),rhsMax =  -1.04534159106606E-10  3.68873707726194E-02
 cg2d: Sum(rhs),rhsMax =  -1.13607345753053E-10  3.39618186424417E-02
 cg2d: Sum(rhs),rhsMax =  -1.24475652008016E-10  3.10250033795937E-02
 cg2d: Sum(rhs),rhsMax =  -1.37637679031855E-10  2.80785721172667E-02
 cg2d: Sum(rhs),rhsMax =  -1.53908663591551E-10  2.51240330801824E-02
 cg2d: Sum(rhs),rhsMax =  -1.74479930503679E-10  2.21627287926397E-02
 cg2d: Sum(rhs),rhsMax =  -1.78237091752464E-10  2.17038191257849E-02
 cg2d: Sum(rhs),rhsMax =  -1.78684483875813E-10  2.16485637210440E-02
 cg2d: Sum(rhs),rhsMax =  -1.78974892198203E-10  2.16207772358703E-02
 cg2d: Sum(rhs),rhsMax =  -1.79246173459546E-10  2.15900517825524E-02
 cg2d: Sum(rhs),rhsMax =  -1.68616787199483E-10  2.29490143485818E-02
 cg2d: Sum(rhs),rhsMax =  -1.45391643169290E-10  2.66238047987888E-02
 cg2d: Sum(rhs),rhsMax =  -1.27341748257237E-10  3.04040683738631E-02
 cg2d: Sum(rhs),rhsMax =  -1.12938325358414E-10  3.43010084219964E-02
 cg2d: Sum(rhs),rhsMax =  -1.01334163282729E-10  3.82643659985622E-02
 cg2d: Sum(rhs),rhsMax =  -9.17717013493302E-11  4.22983429252098E-02
 cg2d: Sum(rhs),rhsMax =  -8.36217761701619E-11  4.64426004107580E-02
 cg2d: Sum(rhs),rhsMax =  -7.67462760009607E-11  5.06320375896456E-02
 cg2d: Sum(rhs),rhsMax =  -7.08186842501846E-11  5.49048549443456E-02
 cg2d: Sum(rhs),rhsMax =  -6.56941168131198E-11  5.92517967187111E-02
 cg2d: Sum(rhs),rhsMax =  -6.12301320757069E-11  6.36510698641993E-02
 cg2d: Sum(rhs),rhsMax =  -5.73375791290687E-11  6.81463042914003E-02
 cg2d: Sum(rhs),rhsMax =  -5.37574429415599E-11  7.27995772104915E-02
 cg2d: Sum(rhs),rhsMax =  -5.05827602026443E-11  7.74958088413492E-02
 cg2d: Sum(rhs),rhsMax =  -4.77621275862816E-11  8.21820580537839E-02
 cg2d: Sum(rhs),rhsMax =  -4.52698989406031E-11  8.68552825828066E-02
 cg2d: Sum(rhs),rhsMax =  -4.30820934482767E-11  9.15122960239658E-02
 cg2d: Sum(rhs),rhsMax =  -4.10714795506806E-11  9.61497917046383E-02
 cg2d: Sum(rhs),rhsMax =  -3.92633703327760E-11  1.00764374972842E-01
 cg2d: Sum(rhs),rhsMax =  -3.76050302008935E-11  1.05352602622014E-01
 cg2d: Sum(rhs),rhsMax =  -3.61107810320505E-11  1.09911027670497E-01
 cg2d: Sum(rhs),rhsMax =  -3.47052386828750E-11  1.14436247322391E-01
 cg2d: Sum(rhs),rhsMax =  -3.34697825010721E-11  1.18924951684431E-01
 cg2d: Sum(rhs),rhsMax =  -3.22861737345193E-11  1.23373970724123E-01
 cg2d: Sum(rhs),rhsMax =  -3.12588843698336E-11  1.27780317035279E-01
 cg2d: Sum(rhs),rhsMax =  -3.02764480153428E-11  1.32141222222168E-01
 cg2d: Sum(rhs),rhsMax =  -2.93706170495511E-11  1.36454165098822E-01
 cg2d: Sum(rhs),rhsMax =  -2.85251822162991E-11  1.40716890396475E-01
 cg2d: Sum(rhs),rhsMax =  -2.77540213033944E-11  1.44927417240174E-01
 cg2d: Sum(rhs),rhsMax =  -2.70531375079486E-11  1.49084037253442E-01
 cg2d: Sum(rhs),rhsMax =  -2.64175348263507E-11  1.53185302735440E-01
 cg2d: Sum(rhs),rhsMax =  -2.58368881844717E-11  1.57230005889901E-01
 cg2d: Sum(rhs),rhsMax =  -2.52855514304429E-11  1.61217150536542E-01
 cg2d: Sum(rhs),rhsMax =  -2.47842857348246E-11  1.65145918051449E-01
 cg2d: Sum(rhs),rhsMax =  -2.42899034219590E-11  1.69015629508918E-01
 cg2d: Sum(rhs),rhsMax =  -2.38503661265099E-11  1.72825706063750E-01
 cg2d: Sum(rhs),rhsMax =  -2.33753016942728E-11  1.76575629522119E-01
 cg2d: Sum(rhs),rhsMax =  -2.29644081528591E-11  1.80264904942047E-01
 cg2d: Sum(rhs),rhsMax =  -2.25912621942825E-11  1.83893026712926E-01
 cg2d: Sum(rhs),rhsMax =  -2.21879181694362E-11  1.87459449269773E-01
 cg2d: Sum(rhs),rhsMax =  -2.18393081397039E-11  1.90963563218656E-01
 cg2d: Sum(rhs),rhsMax =  -2.14861461955707E-11  1.94404677264616E-01
 cg2d: Sum(rhs),rhsMax =  -2.11798356630766E-11  1.97782005975269E-01
 cg2d: Sum(rhs),rhsMax =  -2.08812966917549E-11  2.01094663108740E-01
 cg2d: Sum(rhs),rhsMax =  -2.06022976456666E-11  2.04341659998907E-01
 cg2d: Sum(rhs),rhsMax =  -2.03579375579466E-11  2.07521908348822E-01
 cg2d: Sum(rhs),rhsMax =  -2.01187955184423E-11  2.10634226705173E-01
 cg2d: Sum(rhs),rhsMax =  -1.98633332004761E-11  2.13677349886246E-01
 cg2d: Sum(rhs),rhsMax =  -1.96478389113963E-11  2.16649940724117E-01
 cg2d: Sum(rhs),rhsMax =  -1.94050331359108E-11  2.19550603539490E-01
 cg2d: Sum(rhs),rhsMax =  -1.91893168022261E-11  2.22377898954067E-01
 cg2d: Sum(rhs),rhsMax =  -1.90287785528653E-11  2.25130359770070E-01
 cg2d: Sum(rhs),rhsMax =  -1.88324911221116E-11  2.27806507697172E-01
 cg2d: Sum(rhs),rhsMax =  -1.87400095441603E-11  2.30404870742049E-01
 cg2d: Sum(rhs),rhsMax =  -1.86338722230062E-11  2.32924001173960E-01
 cg2d: Sum(rhs),rhsMax =  -1.85210735637042E-11  2.35362493857852E-01
 cg2d: Sum(rhs),rhsMax =  -1.84231518929323E-11  2.37719004645763E-01
 cg2d: Sum(rhs),rhsMax =  -1.83321136049130E-11  2.39992268448296E-01
 cg2d: Sum(rhs),rhsMax =  -1.82592829744976E-11  2.42181116363999E-01
 cg2d: Sum(rhs),rhsMax =  -1.81756831807434E-11  2.44284491268067E-01
 cg2d: Sum(rhs),rhsMax =  -1.81006321042787E-11  2.46301461104684E-01
 cg2d: Sum(rhs),rhsMax =  -1.80145898198703E-11  2.48231229099601E-01
 cg2d: Sum(rhs),rhsMax =  -1.79384285203810E-11  2.50073140150147E-01
 cg2d: Sum(rhs),rhsMax =  -1.78419501395410E-11  2.51826682768269E-01
 cg2d: Sum(rhs),rhsMax =  -1.78126402516909E-11  2.53491486146361E-01
 cg2d: Sum(rhs),rhsMax =  -1.77471370932381E-11  2.55067312211513E-01
 cg2d: Sum(rhs),rhsMax =  -1.76704206822365E-11  2.56554042632022E-01
 cg2d: Sum(rhs),rhsMax =  -1.75983672079383E-11  2.57951661327327E-01
 cg2d: Sum(rhs),rhsMax =  -1.75428560567070E-11  2.59260233198976E-01
 cg2d: Sum(rhs),rhsMax =  -1.74760206306246E-11  2.60479880057729E-01
 cg2d: Sum(rhs),rhsMax =  -1.73756564691985E-11  2.61610754929314E-01
 cg2d: Sum(rhs),rhsMax =  -1.72505343343232E-11  2.62653016035489E-01
 cg2d: Sum(rhs),rhsMax =  -1.71550551542055E-11  2.63606801843879E-01
 cg2d: Sum(rhs),rhsMax =  -1.69866343213698E-11  2.64472208485678E-01
 cg2d: Sum(rhs),rhsMax =  -1.68127733957135E-11  2.65249270744044E-01
 cg2d: Sum(rhs),rhsMax =  -1.66399116707794E-11  2.65937947459061E-01
 cg2d: Sum(rhs),rhsMax =  -1.64342983666188E-11  2.66538112200258E-01
 cg2d: Sum(rhs),rhsMax =  -1.62930779978865E-11  2.67049549641723E-01
 cg2d: Sum(rhs),rhsMax =  -1.62094782041322E-11  2.67471957749944E-01
 cg2d: Sum(rhs),rhsMax =  -1.61817226285166E-11  2.67804955586621E-01
 cg2d: Sum(rhs),rhsMax =  -1.61836100076584E-11  2.68048096245191E-01
 cg2d: Sum(rhs),rhsMax =  -1.61218816074893E-11  2.68200884074293E-01
 cg2d: Sum(rhs),rhsMax =  -1.60633728540915E-11  2.68262795566248E-01
 cg2d: Sum(rhs),rhsMax =  -1.60563784490364E-11  2.68233302666888E-01
 cg2d: Sum(rhs),rhsMax =  -1.60489399547714E-11  2.68111897261941E-01
 cg2d: Sum(rhs),rhsMax =  -1.60226276690878E-11  2.67898115694844E-01
 cg2d: Sum(rhs),rhsMax =  -1.60215174460632E-11  2.67591562221230E-01
 cg2d: Sum(rhs),rhsMax =  -1.59948720934722E-11  2.67191930424052E-01
 cg2d: Sum(rhs),rhsMax =  -1.59973145841263E-11  2.66699021769577E-01
 cg2d: Sum(rhs),rhsMax =  -1.59788848819176E-11  2.66112760809062E-01
 cg2d: Sum(rhs),rhsMax =  -1.59403601429631E-11  2.65433206407440E-01
 cg2d: Sum(rhs),rhsMax =  -1.59502411278822E-11  2.64660558868311E-01
 cg2d: Sum(rhs),rhsMax =  -1.58868473931761E-11  2.63795163300243E-01
 cg2d: Sum(rhs),rhsMax =  -1.58799640104235E-11  2.62837509535875E-01
 cg2d: Sum(rhs),rhsMax =  -1.58534296801349E-11  2.61788229085040E-01
 cg2d: Sum(rhs),rhsMax =  -1.58161261865075E-11  2.60648089707573E-01
 cg2d: Sum(rhs),rhsMax =  -1.58786317427939E-11  2.59417988138165E-01
 cg2d: Sum(rhs),rhsMax =  -1.59052770953849E-11  2.58098941976938E-01
 cg2d: Sum(rhs),rhsMax =  -1.59263713328528E-11  2.56692081040043E-01
 cg2d: Sum(rhs),rhsMax =  -1.59544599753758E-11  2.55198638642409E-01
 cg2d: Sum(rhs),rhsMax =  -1.60159663309400E-11  2.53619943138131E-01
 cg2d: Sum(rhs),rhsMax =  -1.60532698245675E-11  2.51957409881277E-01
 cg2d: Sum(rhs),rhsMax =  -1.60946811433860E-11  2.50212533605829E-01
 cg2d: Sum(rhs),rhsMax =  -1.61680668853137E-11  2.48386881086085E-01
 cg2d: Sum(rhs),rhsMax =  -1.62247992818720E-11  2.46482083845805E-01
 cg2d: Sum(rhs),rhsMax =  -1.62889701726954E-11  2.44499830713328E-01
 cg2d: Sum(rhs),rhsMax =  -1.63286051346745E-11  2.42441859937107E-01
 cg2d: Sum(rhs),rhsMax =  -1.64096514154721E-11  2.40309950386898E-01
 cg2d: Sum(rhs),rhsMax =  -1.64428470839084E-11  2.38105912109294E-01
 cg2d: Sum(rhs),rhsMax =  -1.65509828065069E-11  2.35831576342800E-01
 cg2d: Sum(rhs),rhsMax =  -1.66006097757077E-11  2.33488785371190E-01
 cg2d: Sum(rhs),rhsMax =  -1.67595937128340E-11  2.31079382256296E-01
 cg2d: Sum(rhs),rhsMax =  -1.69041447506402E-11  2.28605200879501E-01
 cg2d: Sum(rhs),rhsMax =  -1.70268243948613E-11  2.26068056772291E-01
 cg2d: Sum(rhs),rhsMax =  -1.71809233506792E-11  2.23469739156152E-01
 cg2d: Sum(rhs),rhsMax =  -1.73645542389522E-11  2.20812004514684E-01
 cg2d: Sum(rhs),rhsMax =  -1.75396364099356E-11  2.18096571848475E-01
 cg2d: Sum(rhs),rhsMax =  -1.77506898069169E-11  2.15325119554877E-01
 cg2d: Sum(rhs),rhsMax =  -1.79394277211031E-11  2.12499283662619E-01
 cg2d: Sum(rhs),rhsMax =  -1.81535897425533E-11  2.09620656964682E-01
 cg2d: Sum(rhs),rhsMax =  -1.83526527308686E-11  2.06690788458292E-01
 cg2d: Sum(rhs),rhsMax =  -1.85509385630667E-11  2.03711182439762E-01
 cg2d: Sum(rhs),rhsMax =  -1.87754256586459E-11  2.00683296636576E-01
 cg2d: Sum(rhs),rhsMax =  -1.90329974003589E-11  1.97608538889929E-01
 cg2d: Sum(rhs),rhsMax =  -1.92675875254622E-11  1.94488262008652E-01
 cg2d: Sum(rhs),rhsMax =  -1.95367055866313E-11  1.91323756775053E-01
 cg2d: Sum(rhs),rhsMax =  -1.97920568822951E-11  1.88116243493038E-01
 cg2d: Sum(rhs),rhsMax =  -2.00739425082475E-11  1.84866862570111E-01
 cg2d: Sum(rhs),rhsMax =  -2.03499439521693E-11  1.81576665274839E-01
 cg2d: Sum(rhs),rhsMax =  -2.06811234804150E-11  1.78246605562631E-01
 cg2d: Sum(rhs),rhsMax =  -2.10071959827474E-11  1.74877534029738E-01
 cg2d: Sum(rhs),rhsMax =  -2.13514761426836E-11  1.71470195206737E-01
 cg2d: Sum(rhs),rhsMax =  -2.17156292947607E-11  1.68025229246552E-01
 cg2d: Sum(rhs),rhsMax =  -2.21029861080524E-11  1.64543178771432E-01
 cg2d: Sum(rhs),rhsMax =  -2.25127694264415E-11  1.61024501261463E-01
 cg2d: Sum(rhs),rhsMax =  -2.29308794175154E-11  1.57469586931960E-01
 cg2d: Sum(rhs),rhsMax =  -2.33637553748167E-11  1.53878781601650E-01
 cg2d: Sum(rhs),rhsMax =  -2.38494779480902E-11  1.50252413684571E-01
 cg2d: Sum(rhs),rhsMax =  -2.43450815062829E-11  1.46590824066282E-01
 cg2d: Sum(rhs),rhsMax =  -2.48779885581030E-11  1.42894397478671E-01
 cg2d: Sum(rhs),rhsMax =  -2.54658516496420E-11  1.39163593788661E-01
 cg2d: Sum(rhs),rhsMax =  -2.61040078441965E-11  1.35398977642870E-01
 cg2d: Sum(rhs),rhsMax =  -2.67483812876890E-11  1.31601245079436E-01
 cg2d: Sum(rhs),rhsMax =  -2.74621436702205E-11  1.27771245966278E-01
 cg2d: Sum(rhs),rhsMax =  -2.82791567940421E-11  1.23910001299938E-01
 cg2d: Sum(rhs),rhsMax =  -2.91117130402085E-11  1.20018714880333E-01
 cg2d: Sum(rhs),rhsMax =  -3.00639513284295E-11  1.16098779177761E-01
 cg2d: Sum(rhs),rhsMax =  -3.10452774598957E-11  1.12151775270313E-01
 cg2d: Sum(rhs),rhsMax =  -3.21296322880471E-11  1.08179467337773E-01
 cg2d: Sum(rhs),rhsMax =  -3.32731620034110E-11  1.04183792136341E-01
 cg2d: Sum(rhs),rhsMax =  -3.45403705637182E-11  1.00166844035479E-01
 cg2d: Sum(rhs),rhsMax =  -3.59156038243214E-11  9.61308563320889E-02
 cg2d: Sum(rhs),rhsMax =  -3.74245079370894E-11  9.20781795513157E-02
 cg2d: Sum(rhs),rhsMax =  -3.90776300207563E-11  8.80112574414252E-02
 cg2d: Sum(rhs),rhsMax =  -4.08784117666983E-11  8.39326013728402E-02
 cg2d: Sum(rhs),rhsMax =  -4.28787005901654E-11  7.98447638474461E-02
 cg2d: Sum(rhs),rhsMax =  -4.51227943898402E-11  7.57503118276038E-02
 cg2d: Sum(rhs),rhsMax =  -4.76249040204380E-11  7.16518005936391E-02
 cg2d: Sum(rhs),rhsMax =  -5.04197794626293E-11  6.75517488287378E-02
 cg2d: Sum(rhs),rhsMax =  -5.35879118856997E-11  6.34526156029588E-02
 cg2d: Sum(rhs),rhsMax =  -5.71987457398393E-11  5.93567798748204E-02
(PID.TID 0000.0001)      cg2d_init_res =   3.83306025910002E-01
(PID.TID 0000.0001)      cg2d_iters(min,last) =      -1      38
(PID.TID 0000.0001)      cg2d_last_res =   7.42243042944704E-14
(PID.TID 0000.0001) // =======================================================
(PID.TID 0000.0001) // Begin MONITOR dynamic field statistics
(PID.TID 0000.0001) // =======================================================
(PID.TID 0000.0001) %MON time_tsnumber                =                  2880
(PID.TID 0000.0001) %MON time_secondsf                =   4.3200000000000E+04
(PID.TID 0000.0001) %MON dynstat_eta_max              =   9.8942746655024E-03
(PID.TID 0000.0001) %MON dynstat_eta_min              =  -1.5474483865802E-02
(PID.TID 0000.0001) %MON dynstat_eta_mean             =   7.1920085742166E-15
(PID.TID 0000.0001) %MON dynstat_eta_sd               =   7.2245619867640E-03
(PID.TID 0000.0001) %MON dynstat_eta_del2             =   2.1085697662086E-05
(PID.TID 0000.0001) %MON dynstat_uvel_max             =   1.5070180240701E+00
(PID.TID 0000.0001) %MON dynstat_uvel_min             =  -4.4480442942571E-01
(PID.TID 0000.0001) %MON dynstat_uvel_mean            =   2.9118263665359E-01
(PID.TID 0000.0001) %MON dynstat_uvel_sd              =   1.0805060385542E-01
(PID.TID 0000.0001) %MON dynstat_uvel_del2            =   7.0118243929792E-04
(PID.TID 0000.0001) %MON dynstat_vvel_max             =   0.0000000000000E+00
(PID.TID 0000.0001) %MON dynstat_vvel_min             =   0.0000000000000E+00
(PID.TID 0000.0001) %MON dynstat_vvel_mean            =   0.0000000000000E+00
(PID.TID 0000.0001) %MON dynstat_vvel_sd              =   0.0000000000000E+00
(PID.TID 0000.0001) %MON dynstat_vvel_del2            =   0.0000000000000E+00
(PID.TID 0000.0001) %MON dynstat_wvel_max             =   3.8765334735732E-02
(PID.TID 0000.0001) %MON dynstat_wvel_min             =  -3.3458557584552E-02
(PID.TID 0000.0001) %MON dynstat_wvel_mean            =   3.2902351375936E-20
(PID.TID 0000.0001) %MON dynstat_wvel_sd              =   2.4184657462108E-03
(PID.TID 0000.0001) %MON dynstat_wvel_del2            =   7.8284280893080E-05
(PID.TID 0000.0001) %MON dynstat_theta_max            =   1.5000000000008E+01
(PID.TID 0000.0001) %MON dynstat_theta_min            =   9.9999999999947E+00
(PID.TID 0000.0001) %MON dynstat_theta_mean           =   1.2541778258986E+01
(PID.TID 0000.0001) %MON dynstat_theta_sd             =   2.4340824745550E+00
(PID.TID 0000.0001) %MON dynstat_theta_del2           =   1.2962059123534E-03
(PID.TID 0000.0001) %MON dynstat_salt_max             =   3.5000000000000E+01
(PID.TID 0000.0001) %MON dynstat_salt_min             =   3.5000000000000E+01
(PID.TID 0000.0001) %MON dynstat_salt_mean            =   3.5000000000000E+01
(PID.TID 0000.0001) %MON dynstat_salt_sd              =   3.1974423109205E-13
(PID.TID 0000.0001) %MON dynstat_salt_del2            =   0.0000000000000E+00
(PID.TID 0000.0001) %MON dynstat_sst_max              =   1.5000000000000E+01
(PID.TID 0000.0001) %MON dynstat_sst_min              =   1.4995718640479E+01
(PID.TID 0000.0001) %MON dynstat_sst_mean             =   1.4999860845123E+01
(PID.TID 0000.0001) %MON dynstat_sst_sd               =   5.6924594343960E-04
(PID.TID 0000.0001) %MON dynstat_sst_del2             =   2.0583810444466E-05
(PID.TID 0000.0001) %MON dynstat_sss_max              =   3.5000000000000E+01
(PID.TID 0000.0001) %MON dynstat_sss_min              =   3.5000000000000E+01
(PID.TID 0000.0001) %MON dynstat_sss_mean             =   3.5000000000000E+01
(PID.TID 0000.0001) %MON dynstat_sss_sd               =   5.6843418860808E-14
(PID.TID 0000.0001) %MON dynstat_sss_del2             =   0.0000000000000E+00
(PID.TID 0000.0001) %MON forcing_qnet_max             =   0.0000000000000E+00
(PID.TID 0000.0001) %MON forcing_qnet_min             =   0.0000000000000E+00
(PID.TID 0000.0001) %MON forcing_qnet_mean            =   0.0000000000000E+00
(PID.TID 0000.0001) %MON forcing_qnet_sd              =   0.0000000000000E+00
(PID.TID 0000.0001) %MON forcing_qnet_del2            =   0.0000000000000E+00
(PID.TID 0000.0001) %MON forcing_qsw_max              =   0.0000000000000E+00
(PID.TID 0000.0001) %MON forcing_qsw_min              =   0.0000000000000E+00
(PID.TID 0000.0001) %MON forcing_qsw_mean             =   0.0000000000000E+00
(PID.TID 0000.0001) %MON forcing_qsw_sd               =   0.0000000000000E+00
(PID.TID 0000.0001) %MON forcing_qsw_del2             =   0.0000000000000E+00
(PID.TID 0000.0001) %MON forcing_empmr_max            =   0.0000000000000E+00
(PID.TID 0000.0001) %MON forcing_empmr_min            =   0.0000000000000E+00
(PID.TID 0000.0001) %MON forcing_empmr_mean           =   0.0000000000000E+00
(PID.TID 0000.0001) %MON forcing_empmr_sd             =   0.0000000000000E+00
(PID.TID 0000.0001) %MON forcing_empmr_del2           =   0.0000000000000E+00
(PID.TID 0000.0001) %MON forcing_fu_max               =   0.0000000000000E+00
(PID.TID 0000.0001) %MON forcing_fu_min               =   0.0000000000000E+00
(PID.TID 0000.0001) %MON forcing_fu_mean              =   0.0000000000000E+00
(PID.TID 0000.0001) %MON forcing_fu_sd                =   0.0000000000000E+00
(PID.TID 0000.0001) %MON forcing_fu_del2              =   0.0000000000000E+00
(PID.TID 0000.0001) %MON forcing_fv_max               =   0.0000000000000E+00
(PID.TID 0000.0001) %MON forcing_fv_min               =   0.0000000000000E+00
(PID.TID 0000.0001) %MON forcing_fv_mean              =   0.0000000000000E+00
(PID.TID 0000.0001) %MON forcing_fv_sd                =   0.0000000000000E+00
(PID.TID 0000.0001) %MON forcing_fv_del2              =   0.0000000000000E+00
(PID.TID 0000.0001) %MON advcfl_uvel_max              =   1.1302635180525E-01
(PID.TID 0000.0001) %MON advcfl_vvel_max              =   0.0000000000000E+00
(PID.TID 0000.0001) %MON advcfl_wvel_max              =   3.2414579234711E-01
(PID.TID 0000.0001) %MON advcfl_W_hf_max              =   3.2414579234711E-01
(PID.TID 0000.0001) %MON pe_b_mean                    =   1.3074631561183E-06
(PID.TID 0000.0001) %MON ke_max                       =   9.7088204996752E-01
(PID.TID 0000.0001) %MON ke_mean                      =   4.8302410258137E-02
(PID.TID 0000.0001) %MON ke_vol                       =   9.5633499295324E+10
(PID.TID 0000.0001) %MON vort_r_min                   =   0.0000000000000E+00
(PID.TID 0000.0001) %MON vort_r_max                   =   0.0000000000000E+00
(PID.TID 0000.0001) %MON vort_a_mean                  =   0.0000000000000E+00
(PID.TID 0000.0001) %MON vort_a_sd                    =   0.0000000000000E+00
(PID.TID 0000.0001) %MON vort_p_mean                  =   0.0000000000000E+00
(PID.TID 0000.0001) %MON vort_p_sd                    =   0.0000000000000E+00
(PID.TID 0000.0001) %MON surfExpan_theta_mean         =  -2.8018061934616E-09
(PID.TID 0000.0001) %MON surfExpan_salt_mean          =   1.6610686291175E-18
(PID.TID 0000.0001) // =======================================================
(PID.TID 0000.0001) // End MONITOR dynamic field statistics
(PID.TID 0000.0001) // =======================================================
(PID.TID 0000.0001) // =======================================================
(PID.TID 0000.0001) // Begin OBCS MONITOR field statistics
(PID.TID 0000.0001) // =======================================================
(PID.TID 0000.0001) %MON obc_E_uVel_max               =   2.8014282071829E-01
(PID.TID 0000.0001) %MON obc_E_uVel_min               =   2.8014282071829E-01
(PID.TID 0000.0001) %MON obc_E_uVel_mean              =   2.8014282071829E-01
(PID.TID 0000.0001) %MON obc_E_uVel_sd                =   3.7252902984619E-09
(PID.TID 0000.0001) %MON obc_E_uVel_Int               =   2.8014282071829E+05
(PID.TID 0000.0001) %MON obc_W_uVel_max               =   2.8014282071829E-01
(PID.TID 0000.0001) %MON obc_W_uVel_min               =   2.8014282071829E-01
(PID.TID 0000.0001) %MON obc_W_uVel_mean              =   2.8014282071829E-01
(PID.TID 0000.0001) %MON obc_W_uVel_sd                =   3.7252902984619E-09
(PID.TID 0000.0001) %MON obc_W_uVel_Int               =   2.8014282071829E+05
(PID.TID 0000.0001) // =======================================================
(PID.TID 0000.0001) // End OBCS MONITOR field statistics
(PID.TID 0000.0001) // =======================================================
(PID.TID 0000.0001) %CHECKPOINT      2880 0000002880
 cg2d: Sum(rhs),rhsMax =  -6.13019635054002E-11  5.52665230424332E-02
 cg2d: Sum(rhs),rhsMax =  -6.60768106897081E-11  5.11840149269223E-02
 cg2d: Sum(rhs),rhsMax =  -7.16285919466486E-11  4.71113035209317E-02
 cg2d: Sum(rhs),rhsMax =  -7.82244269359467E-11  4.30503085278555E-02
 cg2d: Sum(rhs),rhsMax =  -8.62694915504392E-11  3.90028184254351E-02
 cg2d: Sum(rhs),rhsMax =  -9.61380974828785E-11  3.49704908210188E-02
 cg2d: Sum(rhs),rhsMax =  -1.08492687056483E-10  3.09548555724892E-02
 cg2d: Sum(rhs),rhsMax =  -1.24464979989192E-10  2.69573199858970E-02
 cg2d: Sum(rhs),rhsMax =  -1.40983447138865E-10  2.37809585775196E-02
 cg2d: Sum(rhs),rhsMax =  -1.28833499424275E-10  2.60138222025358E-02
 cg2d: Sum(rhs),rhsMax =  -1.16399945238044E-10  2.87744325123210E-02
 cg2d: Sum(rhs),rhsMax =  -1.06199271598939E-10  3.15105122170146E-02
 cg2d: Sum(rhs),rhsMax =  -9.76539960007017E-11  3.42445761324392E-02
 cg2d: Sum(rhs),rhsMax =  -9.00663987835060E-11  3.70949776484960E-02
 cg2d: Sum(rhs),rhsMax =  -8.36828384365162E-11  3.99175305068103E-02
 cg2d: Sum(rhs),rhsMax =  -7.81620324019627E-11  4.27117539316879E-02
 cg2d: Sum(rhs),rhsMax =  -7.33667571140018E-11  4.54771781748622E-02
 cg2d: Sum(rhs),rhsMax =  -6.91167123534342E-11  4.82132911409643E-02
 cg2d: Sum(rhs),rhsMax =  -6.54133414101921E-11  5.09195107952003E-02
 cg2d: Sum(rhs),rhsMax =  -6.20570261844477E-11  5.35951698574443E-02
 cg2d: Sum(rhs),rhsMax =  -5.90807403000326E-11  5.62394934823162E-02
 cg2d: Sum(rhs),rhsMax =  -5.64007729408900E-11  5.88515799848038E-02
 cg2d: Sum(rhs),rhsMax =  -5.39446265435117E-11  6.14303949196292E-02
 cg2d: Sum(rhs),rhsMax =  -5.16985343423926E-11  6.39747827598093E-02
 cg2d: Sum(rhs),rhsMax =  -4.96521712634035E-11  6.64834585469804E-02
 cg2d: Sum(rhs),rhsMax =  -4.77722306158057E-11  6.89550204630616E-02
 cg2d: Sum(rhs),rhsMax =  -4.60973481608562E-11  7.13880769664645E-02
 cg2d: Sum(rhs),rhsMax =  -4.45514736213681E-11  7.37812347524811E-02
 cg2d: Sum(rhs),rhsMax =  -4.30804281137398E-11  7.61331017818457E-02
 cg2d: Sum(rhs),rhsMax =  -4.17738066360585E-11  7.84423002555130E-02
 cg2d: Sum(rhs),rhsMax =  -4.05339095621571E-11  8.07075011524636E-02
 cg2d: Sum(rhs),rhsMax =  -3.93640675611096E-11  8.29275267633385E-02
 cg2d: Sum(rhs),rhsMax =  -3.83444387352938E-11  8.51013273340967E-02
 cg2d: Sum(rhs),rhsMax =  -3.73358011174219E-11  8.72279386914663E-02
 cg2d: Sum(rhs),rhsMax =  -3.64116514717239E-11  8.93065806670042E-02
 cg2d: Sum(rhs),rhsMax =  -3.55664386830767E-11  9.13366580625976E-02
 cg2d: Sum(rhs),rhsMax =  -3.47711859305377E-11  9.33177272194554E-02
 cg2d: Sum(rhs),rhsMax =  -3.40198980097739E-11  9.52494432485660E-02
 cg2d: Sum(rhs),rhsMax =  -3.32954774862060E-11  9.72188741168186E-02
 cg2d: Sum(rhs),rhsMax =  -3.24578142141263E-11  9.95369153573781E-02
 cg2d: Sum(rhs),rhsMax =  -3.16355830420889E-11  1.01789709457287E-01
 cg2d: Sum(rhs),rhsMax =  -3.09100522954964E-11  1.03975959595142E-01
 cg2d: Sum(rhs),rhsMax =  -3.01670910474172E-11  1.06094501321245E-01
 cg2d: Sum(rhs),rhsMax =  -2.95301560981898E-11  1.08144336388410E-01
 cg2d: Sum(rhs),rhsMax =  -2.89156476540597E-11  1.10124658698680E-01
 cg2d: Sum(rhs),rhsMax =  -2.83509882237354E-11  1.12034871022836E-01
 cg2d: Sum(rhs),rhsMax =  -2.78095324546257E-11  1.13874589627426E-01
 cg2d: Sum(rhs),rhsMax =  -2.72831757186509E-11  1.15643637708781E-01
 cg2d: Sum(rhs),rhsMax =  -2.67924571417666E-11  1.17342028067885E-01
 cg2d: Sum(rhs),rhsMax =  -2.63622457197243E-11  1.18969935445523E-01
 cg2d: Sum(rhs),rhsMax =  -2.59543497804771E-11  1.20527659636556E-01
 cg2d: Sum(rhs),rhsMax =  -2.56018539701586E-11  1.22015581876941E-01
 cg2d: Sum(rhs),rhsMax =  -2.52402543310382E-11  1.23434117899392E-01
 cg2d: Sum(rhs),rhsMax =  -2.49466003410248E-11  1.24783671399757E-01
 cg2d: Sum(rhs),rhsMax =  -2.46217490840195E-11  1.26064591553362E-01
 cg2d: Sum(rhs),rhsMax =  -2.43636222307941E-11  1.27277137805615E-01
 cg2d: Sum(rhs),rhsMax =  -2.41185960092594E-11  1.28421454506249E-01
 cg2d: Sum(rhs),rhsMax =  -2.37885267040383E-11  1.29896793724523E-01
 cg2d: Sum(rhs),rhsMax =  -2.34288144440598E-11  1.31545734442125E-01
 cg2d: Sum(rhs),rhsMax =  -2.30970798043018E-11  1.33107630660831E-01
 cg2d: Sum(rhs),rhsMax =  -2.28090879517140E-11  1.34581528642645E-01
 cg2d: Sum(rhs),rhsMax =  -2.25338636639094E-11  1.35966594934202E-01
 cg2d: Sum(rhs),rhsMax =  -2.22947216244052E-11  1.37262123366758E-01
 cg2d: Sum(rhs),rhsMax =  -2.20460316668891E-11  1.38467538794478E-01
 cg2d: Sum(rhs),rhsMax =  -2.17852402784047E-11  1.39582397139277E-01
 cg2d: Sum(rhs),rhsMax =  -2.15882867138362E-11  1.40606381505531E-01
 cg2d: Sum(rhs),rhsMax =  -2.14142037435749E-11  1.41539294410050E-01
 cg2d: Sum(rhs),rhsMax =  -2.12733164417500E-11  1.42381046442916E-01
 cg2d: Sum(rhs),rhsMax =  -2.11329842514374E-11  1.43131641926303E-01
 cg2d: Sum(rhs),rhsMax =  -2.10180761683887E-11  1.43791162372964E-01
 cg2d: Sum(rhs),rhsMax =  -2.09019468400129E-11  1.44359748757902E-01
 cg2d: Sum(rhs),rhsMax =  -2.08063566375927E-11  1.44837583576148E-01
 cg2d: Sum(rhs),rhsMax =  -2.07470707280777E-11  1.45224873853288E-01
 cg2d: Sum(rhs),rhsMax =  -2.06940020675006E-11  1.45521836202787E-01
 cg2d: Sum(rhs),rhsMax =  -2.06045180917158E-11  1.45728684844817E-01
 cg2d: Sum(rhs),rhsMax =  -2.04688488381066E-11  1.45845623201985E-01
 cg2d: Sum(rhs),rhsMax =  -2.05159222943507E-11  1.45872839624534E-01
 cg2d: Sum(rhs),rhsMax =  -2.05292449706462E-11  1.45810507387707E-01
 cg2d: Sum(rhs),rhsMax =  -2.05863104341120E-11  1.45658788493360E-01
 cg2d: Sum(rhs),rhsMax =  -2.06462624774417E-11  1.45417840698425E-01
 cg2d: Sum(rhs),rhsMax =  -2.06155092996596E-11  1.45087826913545E-01
 cg2d: Sum(rhs),rhsMax =  -2.06151762327522E-11  1.44668925899317E-01
 cg2d: Sum(rhs),rhsMax =  -2.06461514551393E-11  1.44161343067899E-01
 cg2d: Sum(rhs),rhsMax =  -2.07600603374658E-11  1.43565320413404E-01
 cg2d: Sum(rhs),rhsMax =  -2.08182360239562E-11  1.42881143856442E-01
 cg2d: Sum(rhs),rhsMax =  -2.09111616911173E-11  1.42109147684789E-01
 cg2d: Sum(rhs),rhsMax =  -2.10146344770124E-11  1.41249715553777E-01
 cg2d: Sum(rhs),rhsMax =  -2.11421991025418E-11  1.40303277872796E-01
 cg2d: Sum(rhs),rhsMax =  -2.13243867008828E-11  1.39270305802702E-01
 cg2d: Sum(rhs),rhsMax =  -2.14844808610337E-11  1.38151302474359E-01
 cg2d: Sum(rhs),rhsMax =  -2.17182938300198E-11  1.36946792152418E-01
 cg2d: Sum(rhs),rhsMax =  -2.20554685625984E-11  1.35657308925905E-01
 cg2d: Sum(rhs),rhsMax =  -2.24067431275898E-11  1.34283385902763E-01
 cg2d: Sum(rhs),rhsMax =  -2.27755592163703E-11  1.32825546019336E-01
 cg2d: Sum(rhs),rhsMax =  -2.31641372749891E-11  1.31284295452711E-01
 cg2d: Sum(rhs),rhsMax =  -2.34889885319944E-11  1.29660120331899E-01
 cg2d: Sum(rhs),rhsMax =  -2.38506991934173E-11  1.27953487063644E-01
 cg2d: Sum(rhs),rhsMax =  -2.42629250024606E-11  1.26164846170520E-01
 cg2d: Sum(rhs),rhsMax =  -2.46602738229740E-11  1.24294639135985E-01
 cg2d: Sum(rhs),rhsMax =  -2.51190179767491E-11  1.22343307450704E-01
 cg2d: Sum(rhs),rhsMax =  -2.55935272974739E-11  1.20311302852996E-01
 cg2d: Sum(rhs),rhsMax =  -2.61199950557511E-11  1.18199097119039E-01
 cg2d: Sum(rhs),rhsMax =  -2.66933142256676E-11  1.16007190709136E-01
 cg2d: Sum(rhs),rhsMax =  -2.72989408856006E-11  1.13736119678795E-01
 cg2d: Sum(rhs),rhsMax =  -2.79705147931963E-11  1.11386459709984E-01
 cg2d: Sum(rhs),rhsMax =  -2.86336510058049E-11  1.08958827154551E-01
 cg2d: Sum(rhs),rhsMax =  -2.93852719934762E-11  1.06453877317401E-01
 cg2d: Sum(rhs),rhsMax =  -3.02533553764306E-11  1.03872300603133E-01
 cg2d: Sum(rhs),rhsMax =  -3.10790282398443E-11  1.01214817496130E-01
 cg2d: Sum(rhs),rhsMax =  -3.20274917697816E-11  9.84821735687660E-02
 cg2d: Sum(rhs),rhsMax =  -3.30196980868891E-11  9.56751357905794E-02
 cg2d: Sum(rhs),rhsMax =  -3.41217054611320E-11  9.27944913374782E-02
 cg2d: Sum(rhs),rhsMax =  -3.52927687075066E-11  8.98410498811072E-02
 cg2d: Sum(rhs),rhsMax =  -3.65516505951291E-11  8.68156499966194E-02
 cg2d: Sum(rhs),rhsMax =  -3.77006204033137E-11  8.37191698984465E-02
 cg2d: Sum(rhs),rhsMax =  -3.92668120241524E-11  8.05525422491079E-02
 cg2d: Sum(rhs),rhsMax =  -4.09863254446918E-11  7.73167723782533E-02
 cg2d: Sum(rhs),rhsMax =  -4.28757029879989E-11  7.40129585937896E-02
 cg2d: Sum(rhs),rhsMax =  -4.49280612713210E-11  7.06423133769879E-02
 cg2d: Sum(rhs),rhsMax =  -4.68183269930478E-11  6.79527639593761E-02
 cg2d: Sum(rhs),rhsMax =  -4.85613771417093E-11  6.56386102117697E-02
 cg2d: Sum(rhs),rhsMax =  -5.04711827886695E-11  6.32921499533336E-02
 cg2d: Sum(rhs),rhsMax =  -5.24993382100547E-11  6.09147305592543E-02
 cg2d: Sum(rhs),rhsMax =  -5.47649703364073E-11  5.85079389030105E-02
 cg2d: Sum(rhs),rhsMax =  -5.72749625504798E-11  5.60735876263605E-02
 cg2d: Sum(rhs),rhsMax =  -6.00332006328586E-11  5.36136732755751E-02
 cg2d: Sum(rhs),rhsMax =  -6.30678842483690E-11  5.11303326509994E-02
 cg2d: Sum(rhs),rhsMax =  -6.64368560165940E-11  4.86257746148583E-02
 cg2d: Sum(rhs),rhsMax =  -7.01158020532944E-11  4.61022055186090E-02
 cg2d: Sum(rhs),rhsMax =  -7.42683692322998E-11  4.35617133882044E-02
 cg2d: Sum(rhs),rhsMax =  -7.89773801912474E-11  4.10062259062785E-02
 cg2d: Sum(rhs),rhsMax =  -8.43609626599573E-11  3.84374570580437E-02
 cg2d: Sum(rhs),rhsMax =  -9.04915031796349E-11  3.58568454370548E-02
 cg2d: Sum(rhs),rhsMax =  -9.76134728603029E-11  3.32655278947705E-02
 cg2d: Sum(rhs),rhsMax =  -1.05994879540106E-10  3.06643361833765E-02
 cg2d: Sum(rhs),rhsMax =  -1.15919496224137E-10  2.80538200450219E-02
 cg2d: Sum(rhs),rhsMax =  -1.16125775662113E-10  2.80351303682049E-02
 cg2d: Sum(rhs),rhsMax =  -1.16958276397128E-10  2.78659649174596E-02
 cg2d: Sum(rhs),rhsMax =  -1.19022347533360E-10  2.73973096844995E-02
 cg2d: Sum(rhs),rhsMax =  -1.18288198680538E-10  2.75972796167878E-02
 cg2d: Sum(rhs),rhsMax =  -1.23143852753804E-10  2.65255734142388E-02
 cg2d: Sum(rhs),rhsMax =  -1.29391053427241E-10  2.52764100391545E-02
 cg2d: Sum(rhs),rhsMax =  -1.14627196623474E-10  2.85434126029392E-02
 cg2d: Sum(rhs),rhsMax =  -1.01859798373738E-10  3.21455645388845E-02
 cg2d: Sum(rhs),rhsMax =  -9.13717990158602E-11  3.58601219721698E-02
 cg2d: Sum(rhs),rhsMax =  -8.27786728052615E-11  3.96351752521735E-02
 cg2d: Sum(rhs),rhsMax =  -7.55239204508484E-11  4.34624673751641E-02
 cg2d: Sum(rhs),rhsMax =  -6.93481938540685E-11  4.73826647704470E-02
 cg2d: Sum(rhs),rhsMax =  -6.40599795431740E-11  5.13329449224333E-02
 cg2d: Sum(rhs),rhsMax =  -5.94165827649817E-11  5.53631079101338E-02
 cg2d: Sum(rhs),rhsMax =  -5.54516432771379E-11  5.94492695773112E-02
 cg2d: Sum(rhs),rhsMax =  -5.18448617370382E-11  6.36112514540634E-02
 cg2d: Sum(rhs),rhsMax =  -4.86608531247157E-11  6.79072252297234E-02
 cg2d: Sum(rhs),rhsMax =  -4.58566518091175E-11  7.22082360601048E-02
 cg2d: Sum(rhs),rhsMax =  -4.33714175684941E-11  7.64986508255057E-02
 cg2d: Sum(rhs),rhsMax =  -4.11353173745965E-11  8.07760890500719E-02
 cg2d: Sum(rhs),rhsMax =  -3.91489063389372E-11  8.50380458943270E-02
 cg2d: Sum(rhs),rhsMax =  -3.73354680505145E-11  8.92819179170029E-02
 cg2d: Sum(rhs),rhsMax =  -3.56988882899145E-11  9.35050371878773E-02
 cg2d: Sum(rhs),rhsMax =  -3.42315065182675E-11  9.77047118096342E-02
 cg2d: Sum(rhs),rhsMax =  -3.28709282015893E-11  1.01878270407036E-01
 cg2d: Sum(rhs),rhsMax =  -3.16288106816387E-11  1.06023107698411E-01
 cg2d: Sum(rhs),rhsMax =  -3.04878344792314E-11  1.10136728160136E-01
 cg2d: Sum(rhs),rhsMax =  -2.94430035907567E-11  1.14216784919354E-01
 cg2d: Sum(rhs),rhsMax =  -2.84801071614993E-11  1.18261111334875E-01
 cg2d: Sum(rhs),rhsMax =  -2.76102474217055E-11  1.22267743302296E-01
 cg2d: Sum(rhs),rhsMax =  -2.67771360640268E-11  1.26234931063831E-01
 cg2d: Sum(rhs),rhsMax =  -2.60360621950895E-11  1.30161140141092E-01
 cg2d: Sum(rhs),rhsMax =  -2.53792542537212E-11  1.34045041854378E-01
 cg2d: Sum(rhs),rhsMax =  -2.47336595649017E-11  1.37885494659941E-01
 cg2d: Sum(rhs),rhsMax =  -2.41697772906946E-11  1.41681518153605E-01
 cg2d: Sum(rhs),rhsMax =  -2.36303199230292E-11  1.45432262000526E-01
 cg2d: Sum(rhs),rhsMax =  -2.31398233907498E-11  1.49136972227542E-01
 cg2d: Sum(rhs),rhsMax =  -2.26806351477649E-11  1.52794957254243E-01
 cg2d: Sum(rhs),rhsMax =  -2.22803997473875E-11  1.56405555766881E-01
 cg2d: Sum(rhs),rhsMax =  -2.18708384736033E-11  1.59968108092084E-01
 cg2d: Sum(rhs),rhsMax =  -2.14840367718239E-11  1.63481932170383E-01
 cg2d: Sum(rhs),rhsMax =  -2.11050066312168E-11  1.66946304670220E-01
 cg2d: Sum(rhs),rhsMax =  -2.07620587389101E-11  1.70360447203300E-01
 cg2d: Sum(rhs),rhsMax =  -2.04035677242587E-11  1.73723517133982E-01
 cg2d: Sum(rhs),rhsMax =  -2.00666150362849E-11  1.77034602159367E-01
 cg2d: Sum(rhs),rhsMax =  -1.97472038721003E-11  1.80292717643815E-01
 cg2d: Sum(rhs),rhsMax =  -1.94851912382887E-11  1.83496805659884E-01
 cg2d: Sum(rhs),rhsMax =  -1.91913152036705E-11  1.86645734833281E-01
 cg2d: Sum(rhs),rhsMax =  -1.89057658417369E-11  1.89738300334530E-01
 cg2d: Sum(rhs),rhsMax =  -1.86591853079676E-11  1.92773223680322E-01
 cg2d: Sum(rhs),rhsMax =  -1.84287030080554E-11  1.95749152356345E-01
 cg2d: Sum(rhs),rhsMax =  -1.82209802801481E-11  1.98664659610120E-01
 cg2d: Sum(rhs),rhsMax =  -1.79860570881374E-11  2.01518245018581E-01
 cg2d: Sum(rhs),rhsMax =  -1.77819980962113E-11  2.04308336622542E-01
 cg2d: Sum(rhs),rhsMax =  -1.76204606461283E-11  2.07033295513849E-01
 cg2d: Sum(rhs),rhsMax =  -1.74502634564533E-11  2.09691423665842E-01
 cg2d: Sum(rhs),rhsMax =  -1.72534209141872E-11  2.12280975775894E-01
 cg2d: Sum(rhs),rhsMax =  -1.70738978511054E-11  2.14800175471007E-01
 cg2d: Sum(rhs),rhsMax =  -1.69324554377681E-11  2.17247235978641E-01
 cg2d: Sum(rhs),rhsMax =  -1.68599578742601E-11  2.19620384906931E-01
 cg2d: Sum(rhs),rhsMax =  -1.68030034330968E-11  2.21917892552700E-01
 cg2d: Sum(rhs),rhsMax =  -1.67458269473286E-11  2.24138102706344E-01
 cg2d: Sum(rhs),rhsMax =  -1.66696656478393E-11  2.26279464599152E-01
 cg2d: Sum(rhs),rhsMax =  -1.66558988823340E-11  2.28340564386425E-01
 cg2d: Sum(rhs),rhsMax =  -1.64873670271959E-11  2.30320154477636E-01
 cg2d: Sum(rhs),rhsMax =  -1.64994684581643E-11  2.32217178926053E-01
 cg2d: Sum(rhs),rhsMax =  -1.64631641652591E-11  2.34030793236799E-01
 cg2d: Sum(rhs),rhsMax =  -1.64322999651745E-11  2.35760377189321E-01
 cg2d: Sum(rhs),rhsMax =  -1.63975499845037E-11  2.37405539617522E-01
 cg2d: Sum(rhs),rhsMax =  -1.63726809887521E-11  2.38966114530712E-01
 cg2d: Sum(rhs),rhsMax =  -1.62927449309791E-11  2.40442148499502E-01
 cg2d: Sum(rhs),rhsMax =  -1.62454494301301E-11  2.41833879648585E-01
 cg2d: Sum(rhs),rhsMax =  -1.62265756387114E-11  2.43141709283436E-01
 cg2d: Sum(rhs),rhsMax =  -1.62101443379470E-11  2.44366167635825E-01
 cg2d: Sum(rhs),rhsMax =  -1.63027369382007E-11  2.45507875609501E-01
 cg2d: Sum(rhs),rhsMax =  -1.62315716423223E-11  2.46567504682385E-01
 cg2d: Sum(rhs),rhsMax =  -1.61543001198083E-11  2.47545737269673E-01
 cg2d: Sum(rhs),rhsMax =  -1.60746971289427E-11  2.48443229856424E-01
 cg2d: Sum(rhs),rhsMax =  -1.60504942670059E-11  2.49260581042106E-01
 cg2d: Sum(rhs),rhsMax =  -1.59723345660723E-11  2.49998306324990E-01
 cg2d: Sum(rhs),rhsMax =  -1.59249280429208E-11  2.50656820979824E-01
 cg2d: Sum(rhs),rhsMax =  -1.59053881176874E-11  2.51236431778824E-01
 cg2d: Sum(rhs),rhsMax =  -1.59123825227425E-11  2.51737337837394E-01
 cg2d: Sum(rhs),rhsMax =  -1.58136836958533E-11  2.52159640152105E-01
 cg2d: Sum(rhs),rhsMax =  -1.57718282878250E-11  2.52503358799814E-01
 cg2d: Sum(rhs),rhsMax =  -1.57629465036280E-11  2.52768456241319E-01
 cg2d: Sum(rhs),rhsMax =  -1.57609481021836E-11  2.52954864656848E-01
 cg2d: Sum(rhs),rhsMax =  -1.57784896259727E-11  2.53062515504184E-01
 cg2d: Sum(rhs),rhsMax =  -1.57709401094053E-11  2.53091368660212E-01
 cg2d: Sum(rhs),rhsMax =  -1.57923674137805E-11  2.53041438946459E-01
 cg2d: Sum(rhs),rhsMax =  -1.58275614836612E-11  2.52912818095712E-01
 cg2d: Sum(rhs),rhsMax =  -1.58784096981890E-11  2.52705690616656E-01
 cg2d: Sum(rhs),rhsMax =  -1.58824065010776E-11  2.52420342519490E-01
 cg2d: Sum(rhs),rhsMax =  -1.58960622442805E-11  2.52057162457596E-01
 cg2d: Sum(rhs),rhsMax =  -1.59326996040932E-11  2.51616635596802E-01
 cg2d: Sum(rhs),rhsMax =  -1.59350310724449E-11  2.51099330636003E-01
 cg2d: Sum(rhs),rhsMax =  -1.59643409602950E-11  2.50505881445555E-01
 cg2d: Sum(rhs),rhsMax =  -1.59855462200653E-11  2.49836965151980E-01
 cg2d: Sum(rhs),rhsMax =  -1.59910973351884E-11  2.49093278590003E-01
 cg2d: Sum(rhs),rhsMax =  -1.60197410892238E-11  2.48275515107218E-01
 cg2d: Sum(rhs),rhsMax =  -1.60572666274561E-11  2.47384343629105E-01
 cg2d: Sum(rhs),rhsMax =  -1.60851332253742E-11  2.46420391497999E-01
 cg2d: Sum(rhs),rhsMax =  -1.61308744139887E-11  2.45384232274351E-01
 cg2d: Sum(rhs),rhsMax =  -1.61703983536654E-11  2.44276379289613E-01
 cg2d: Sum(rhs),rhsMax =  -1.61796132047698E-11  2.43097285143672E-01
 cg2d: Sum(rhs),rhsMax =  -1.62406754711242E-11  2.41847346497744E-01
 cg2d: Sum(rhs),rhsMax =  -1.62821978122452E-11  2.40526913254196E-01
 cg2d: Sum(rhs),rhsMax =  -1.62970748007751E-11  2.39136300868553E-01
 cg2d: Sum(rhs),rhsMax =  -1.63498103944448E-11  2.37675804336635E-01
 cg2d: Sum(rhs),rhsMax =  -1.64376290356927E-11  2.36145712360040E-01
 cg2d: Sum(rhs),rhsMax =  -1.65277791452922E-11  2.34546320321965E-01
 cg2d: Sum(rhs),rhsMax =  -1.65709668209502E-11  2.32877940984201E-01
 cg2d: Sum(rhs),rhsMax =  -1.66318070426996E-11  2.31140912207041E-01
 cg2d: Sum(rhs),rhsMax =  -1.67360569847119E-11  2.29335601539794E-01
 cg2d: Sum(rhs),rhsMax =  -1.68066671690781E-11  2.27462407517223E-01
 cg2d: Sum(rhs),rhsMax =  -1.68728364613457E-11  2.25521758795522E-01
 cg2d: Sum(rhs),rhsMax =  -1.69246838765957E-11  2.23514111672435E-01
 cg2d: Sum(rhs),rhsMax =  -1.70687908251921E-11  2.21439947082505E-01
 cg2d: Sum(rhs),rhsMax =  -1.72097891493195E-11  2.19299768125894E-01
 cg2d: Sum(rhs),rhsMax =  -1.73671077519089E-11  2.17094098981303E-01
 cg2d: Sum(rhs),rhsMax =  -1.75344183617199E-11  2.14823485763122E-01
 cg2d: Sum(rhs),rhsMax =  -1.76394454598494E-11  2.12488499516921E-01
 cg2d: Sum(rhs),rhsMax =  -1.78017600660496E-11  2.10089741141363E-01
 cg2d: Sum(rhs),rhsMax =  -1.79632975161326E-11  2.07627847645623E-01
 cg2d: Sum(rhs),rhsMax =  -1.81736847792990E-11  2.05103498863676E-01
 cg2d: Sum(rhs),rhsMax =  -1.83687509647257E-11  2.02517423538541E-01
 cg2d: Sum(rhs),rhsMax =  -1.85692572429730E-11  1.99870403738460E-01
 cg2d: Sum(rhs),rhsMax =  -1.87567739118322E-11  1.97163276691038E-01
 cg2d: Sum(rhs),rhsMax =  -1.89720461563070E-11  1.94396933439345E-01
 cg2d: Sum(rhs),rhsMax =  -1.91942017835345E-11  1.91572314117826E-01
 cg2d: Sum(rhs),rhsMax =  -1.94256832841688E-11  1.88690400036526E-01
 cg2d: Sum(rhs),rhsMax =  -1.96551663833588E-11  1.85752203498868E-01
 cg2d: Sum(rhs),rhsMax =  -1.99613658935505E-11  1.82758756529244E-01
 cg2d: Sum(rhs),rhsMax =  -2.02275973748556E-11  1.79711099994538E-01
 cg2d: Sum(rhs),rhsMax =  -2.05272465692019E-11  1.76610274744621E-01
 cg2d: Sum(rhs),rhsMax =  -2.08654205025027E-11  1.73457316299086E-01
 cg2d: Sum(rhs),rhsMax =  -2.12213580041976E-11  1.70253254870574E-01
 cg2d: Sum(rhs),rhsMax =  -2.15760742605653E-11  1.66999121298151E-01
 cg2d: Sum(rhs),rhsMax =  -2.19556595126846E-11  1.63695959349255E-01
 cg2d: Sum(rhs),rhsMax =  -2.23521201547783E-11  1.60344844238734E-01
 cg2d: Sum(rhs),rhsMax =  -2.27657892537536E-11  1.56946906467681E-01
 cg2d: Sum(rhs),rhsMax =  -2.31994423671722E-11  1.53503359502903E-01
 cg2d: Sum(rhs),rhsMax =  -2.36857200519580E-11  1.50015529309811E-01
 cg2d: Sum(rhs),rhsMax =  -2.41794362310088E-11  1.46484883395283E-01
 cg2d: Sum(rhs),rhsMax =  -2.47160070188102E-11  1.42913056955121E-01
 cg2d: Sum(rhs),rhsMax =  -2.52898813002389E-11  1.39301873772772E-01
 cg2d: Sum(rhs),rhsMax =  -2.59013921422024E-11  1.35653359797880E-01
 cg2d: Sum(rhs),rhsMax =  -2.66148214578266E-11  1.31969747882001E-01
 cg2d: Sum(rhs),rhsMax =  -2.73671085793126E-11  1.28253472796006E-01
 cg2d: Sum(rhs),rhsMax =  -2.81097367604843E-11  1.24507156352859E-01
 cg2d: Sum(rhs),rhsMax =  -2.88793433611545E-11  1.20733583185021E-01
 cg2d: Sum(rhs),rhsMax =  -2.97177837893514E-11  1.16935668399432E-01
 cg2d: Sum(rhs),rhsMax =  -3.06790148840719E-11  1.13116418913729E-01
 cg2d: Sum(rhs),rhsMax =  -3.16912052156226E-11  1.09278890649521E-01
 cg2d: Sum(rhs),rhsMax =  -3.28235216784378E-11  1.05426143876480E-01
 cg2d: Sum(rhs),rhsMax =  -3.39858141629179E-11  1.01561199197726E-01
 cg2d: Sum(rhs),rhsMax =  -3.53349571824424E-11  9.76869964699568E-02
 cg2d: Sum(rhs),rhsMax =  -3.67827990288561E-11  9.38063585128427E-02
 cg2d: Sum(rhs),rhsMax =  -3.82929243869512E-11  8.99219609344158E-02
 cg2d: Sum(rhs),rhsMax =  -3.99626998159874E-11  8.60363090651963E-02
 cg2d: Sum(rhs),rhsMax =  -4.17973433641805E-11  8.21517223606084E-02
 cg2d: Sum(rhs),rhsMax =  -4.38284963877322E-11  7.82703261227985E-02
 cg2d: Sum(rhs),rhsMax =  -4.60463889240259E-11  7.43940499501283E-02
 cg2d: Sum(rhs),rhsMax =  -4.84930984256948E-11  7.05246319792577E-02
 cg2d: Sum(rhs),rhsMax =  -5.12217490644673E-11  6.66636277586282E-02
 cg2d: Sum(rhs),rhsMax =  -5.42929590174879E-11  6.28124224874071E-02
 cg2d: Sum(rhs),rhsMax =  -5.76967362775349E-11  5.89722453708963E-02
 cg2d: Sum(rhs),rhsMax =  -6.15830719752353E-11  5.51441849592298E-02
 cg2d: Sum(rhs),rhsMax =  -6.60618226788756E-11  5.13292045256440E-02
 cg2d: Sum(rhs),rhsMax =  -7.12525038970568E-11  4.75281567599885E-02
 cg2d: Sum(rhs),rhsMax =  -7.73505148821130E-11  4.37417973929888E-02
 cg2d: Sum(rhs),rhsMax =  -8.34473601329933E-11  4.05263977509698E-02
 cg2d: Sum(rhs),rhsMax =  -8.34969315910428E-11  4.04800716375557E-02
 cg2d: Sum(rhs),rhsMax =  -8.37891284133363E-11  4.02906982346231E-02
 cg2d: Sum(rhs),rhsMax =  -8.44886105522136E-11  3.99537685281070E-02
 cg2d: Sum(rhs),rhsMax =  -8.53998816108259E-11  3.94867716915931E-02
 cg2d: Sum(rhs),rhsMax =  -8.68187743918725E-11  3.88123912936885E-02
 cg2d: Sum(rhs),rhsMax =  -8.85179152199100E-11  3.80270638628628E-02
 cg2d: Sum(rhs),rhsMax =  -9.06199559835841E-11  3.71167672158971E-02
 cg2d: Sum(rhs),rhsMax =  -9.32124932795375E-11  3.60694625055399E-02
 cg2d: Sum(rhs),rhsMax =  -9.18379816639003E-11  3.65918917267523E-02
 cg2d: Sum(rhs),rhsMax =  -8.59617932391643E-11  3.90692956785339E-02
 cg2d: Sum(rhs),rhsMax =  -8.08351163783527E-11  4.15239811898370E-02
 cg2d: Sum(rhs),rhsMax =  -7.62823137989699E-11  4.39555507644990E-02
 cg2d: Sum(rhs),rhsMax =  -7.22064630309660E-11  4.63634778495031E-02
 cg2d: Sum(rhs),rhsMax =  -6.85695944468989E-11  4.87471410324549E-02
 cg2d: Sum(rhs),rhsMax =  -6.52904397213661E-11  5.11058240448793E-02
 cg2d: Sum(rhs),rhsMax =  -6.23516793751833E-11  5.34387349036602E-02
 cg2d: Sum(rhs),rhsMax =  -5.96112048611985E-11  5.57450047926780E-02
 cg2d: Sum(rhs),rhsMax =  -5.71832581286458E-11  5.80237499698552E-02
 cg2d: Sum(rhs),rhsMax =  -5.49114087533553E-11  6.03266699544811E-02
 cg2d: Sum(rhs),rhsMax =  -5.27892174417843E-11  6.26131367168925E-02
 cg2d: Sum(rhs),rhsMax =  -5.08372233198884E-11  6.48682230560555E-02
 cg2d: Sum(rhs),rhsMax =  -4.90610885250931E-11  6.70909657713493E-02
 cg2d: Sum(rhs),rhsMax =  -4.74558170537875E-11  6.92803948678507E-02
 cg2d: Sum(rhs),rhsMax =  -4.59616789072470E-11  7.14355795486454E-02
 cg2d: Sum(rhs),rhsMax =  -4.45651293645710E-11  7.35555546151059E-02
 cg2d: Sum(rhs),rhsMax =  -4.32955893359122E-11  7.56393076713225E-02
 cg2d: Sum(rhs),rhsMax =  -4.20489199015606E-11  7.76857446968684E-02
 cg2d: Sum(rhs),rhsMax =  -4.09692280101126E-11  7.96937289114719E-02
 cg2d: Sum(rhs),rhsMax =  -3.99184019173049E-11  8.16620147704838E-02
 cg2d: Sum(rhs),rhsMax =  -3.89147603030437E-11  8.35892571188664E-02
 cg2d: Sum(rhs),rhsMax =  -3.79812847839389E-11  8.54740169618293E-02
 cg2d: Sum(rhs),rhsMax =  -3.70857788922763E-11  8.73148475697844E-02
 cg2d: Sum(rhs),rhsMax =  -3.63353791499321E-11  8.91102771349676E-02
 cg2d: Sum(rhs),rhsMax =  -3.55956375486244E-11  9.08588612926124E-02
 cg2d: Sum(rhs),rhsMax =  -3.49027473589558E-11  9.25592387318457E-02
 cg2d: Sum(rhs),rhsMax =  -3.42479378190319E-11  9.42101652836084E-02
 cg2d: Sum(rhs),rhsMax =  -3.36358718655561E-11  9.58106147500094E-02
 cg2d: Sum(rhs),rhsMax =  -3.29851701508233E-11  9.73597214440011E-02
 cg2d: Sum(rhs),rhsMax =  -3.22551985121322E-11  9.91529966868704E-02
 cg2d: Sum(rhs),rhsMax =  -3.16058290650290E-11  1.01031787323244E-01
 cg2d: Sum(rhs),rhsMax =  -3.09611225546291E-11  1.02855243120532E-01
 cg2d: Sum(rhs),rhsMax =  -3.03923552991137E-11  1.04621650579369E-01
 cg2d: Sum(rhs),rhsMax =  -2.98334690285174E-11  1.06329148002693E-01
 cg2d: Sum(rhs),rhsMax =  -2.92996737982776E-11  1.07975767206903E-01
 cg2d: Sum(rhs),rhsMax =  -2.88311596818858E-11  1.09559488842809E-01
 cg2d: Sum(rhs),rhsMax =  -2.83741918849501E-11  1.11078307537085E-01
 cg2d: Sum(rhs),rhsMax =  -2.79227752031375E-11  1.12530302235177E-01
 cg2d: Sum(rhs),rhsMax =  -2.75245382042044E-11  1.13913706674179E-01
 cg2d: Sum(rhs),rhsMax =  -2.72176725601980E-11  1.15226974735713E-01
 cg2d: Sum(rhs),rhsMax =  -2.69141375852655E-11  1.16468835651416E-01
 cg2d: Sum(rhs),rhsMax =  -2.65734101390080E-11  1.17638334831524E-01
 cg2d: Sum(rhs),rhsMax =  -2.63272736944486E-11  1.18734857479154E-01
 cg2d: Sum(rhs),rhsMax =  -2.61077826024803E-11  1.19758133749149E-01
 cg2d: Sum(rhs),rhsMax =  -2.58416621434776E-11  1.20708225814877E-01
 cg2d: Sum(rhs),rhsMax =  -2.55920840075419E-11  1.21585498626933E-01
 cg2d: Sum(rhs),rhsMax =  -2.54021248480285E-11  1.22390577291894E-01
 cg2d: Sum(rhs),rhsMax =  -2.51908494064423E-11  1.23124294971494E-01
 cg2d: Sum(rhs),rhsMax =  -2.49067433344408E-11  1.23787635079866E-01
 cg2d: Sum(rhs),rhsMax =  -2.47805109765409E-11  1.24381671969065E-01
 cg2d: Sum(rhs),rhsMax =  -2.45645725982513E-11  1.24907514687357E-01
 cg2d: Sum(rhs),rhsMax =  -2.43891573603605E-11  1.25366256944086E-01
 cg2d: Sum(rhs),rhsMax =  -2.42028619368284E-11  1.26102306818322E-01
 cg2d: Sum(rhs),rhsMax =  -2.39778197297369E-11  1.26914125825521E-01
 cg2d: Sum(rhs),rhsMax =  -2.38384867401464E-11  1.27642626062048E-01
 cg2d: Sum(rhs),rhsMax =  -2.35785835300817E-11  1.28286237219774E-01
 cg2d: Sum(rhs),rhsMax =  -2.34481323246882E-11  1.28843512055987E-01
 cg2d: Sum(rhs),rhsMax =  -2.33072450228633E-11  1.29313164288809E-01
 cg2d: Sum(rhs),rhsMax =  -2.32317498571888E-11  1.29694101974850E-01
 cg2d: Sum(rhs),rhsMax =  -2.30359065156449E-11  1.29985454529264E-01
 cg2d: Sum(rhs),rhsMax =  -2.30394592293237E-11  1.30186591815887E-01
 cg2d: Sum(rhs),rhsMax =  -2.28957963699372E-11  1.30297134089408E-01
 cg2d: Sum(rhs),rhsMax =  -2.27872165581289E-11  1.30316952619366E-01
 cg2d: Sum(rhs),rhsMax =  -2.27726726365063E-11  1.30246160689985E-01
 cg2d: Sum(rhs),rhsMax =  -2.27612373393526E-11  1.30085095604291E-01
 cg2d: Sum(rhs),rhsMax =  -2.27029506305598E-11  1.29834292852596E-01
 cg2d: Sum(rhs),rhsMax =  -2.27955432308136E-11  1.29494454045378E-01
 cg2d: Sum(rhs),rhsMax =  -2.29026797526899E-11  1.29066410507392E-01
 cg2d: Sum(rhs),rhsMax =  -2.29987140443200E-11  1.28551084749109E-01
 cg2d: Sum(rhs),rhsMax =  -2.31121788374367E-11  1.27949451463656E-01
 cg2d: Sum(rhs),rhsMax =  -2.32357466600774E-11  1.27262500251294E-01
 cg2d: Sum(rhs),rhsMax =  -2.34385844066765E-11  1.26491201892382E-01
 cg2d: Sum(rhs),rhsMax =  -2.37010411296978E-11  1.25636479531225E-01
 cg2d: Sum(rhs),rhsMax =  -2.39472885965597E-11  1.24699185740230E-01
 cg2d: Sum(rhs),rhsMax =  -2.41968667324954E-11  1.23680086052104E-01
 cg2d: Sum(rhs),rhsMax =  -2.45533593457026E-11  1.22579849064901E-01
 cg2d: Sum(rhs),rhsMax =  -2.48759901566586E-11  1.21399042852837E-01
 cg2d: Sum(rhs),rhsMax =  -2.51438869725007E-11  1.20138137434923E-01
 cg2d: Sum(rhs),rhsMax =  -2.54495313711800E-11  1.18797512482284E-01
 cg2d: Sum(rhs),rhsMax =  -2.58157939470038E-11  1.17377469226339E-01
 cg2d: Sum(rhs),rhsMax =  -2.61283217284358E-11  1.15878245609737E-01
 cg2d: Sum(rhs),rhsMax =  -2.65786281872238E-11  1.14300033737922E-01
 cg2d: Sum(rhs),rhsMax =  -2.69975153344149E-11  1.12642998758804E-01
 cg2d: Sum(rhs),rhsMax =  -2.74835709745958E-11  1.10907298408948E-01
 cg2d: Sum(rhs),rhsMax =  -2.79837264471894E-11  1.09093102605263E-01
 cg2d: Sum(rhs),rhsMax =  -2.85603762861797E-11  1.07200612644716E-01
 cg2d: Sum(rhs),rhsMax =  -2.91393575935217E-11  1.05230079704399E-01
 cg2d: Sum(rhs),rhsMax =  -2.98151503486110E-11  1.03181822120514E-01
 cg2d: Sum(rhs),rhsMax =  -3.05485636786784E-11  1.01056241941936E-01
 cg2d: Sum(rhs),rhsMax =  -3.12034842409048E-11  9.88538404250795E-02
 cg2d: Sum(rhs),rhsMax =  -3.19796411574202E-11  9.65752323641110E-02
 cg2d: Sum(rhs),rhsMax =  -3.29072324944946E-11  9.42211593559003E-02
 cg2d: Sum(rhs),rhsMax =  -3.38145067502182E-11  9.17925019288625E-02
 cg2d: Sum(rhs),rhsMax =  -3.48482354084467E-11  8.92902904115339E-02
 cg2d: Sum(rhs),rhsMax =  -3.57326390698631E-11  8.71707747179264E-02
 cg2d: Sum(rhs),rhsMax =  -3.66655594774556E-11  8.50840423326092E-02
 cg2d: Sum(rhs),rhsMax =  -3.76653153111306E-11  8.29552471316856E-02
 cg2d: Sum(rhs),rhsMax =  -3.87043730398773E-11  8.07844352312828E-02
 cg2d: Sum(rhs),rhsMax =  -3.98272526069832E-11  7.85713872492781E-02
 cg2d: Sum(rhs),rhsMax =  -4.10753653312668E-11  7.63156380241822E-02
 cg2d: Sum(rhs),rhsMax =  -4.24099644291687E-11  7.40165145557605E-02
 cg2d: Sum(rhs),rhsMax =  -4.38481473352681E-11  7.16731914692325E-02
 cg2d: Sum(rhs),rhsMax =  -4.52787807248001E-11  6.95826597393472E-02
 cg2d: Sum(rhs),rhsMax =  -4.67302863071950E-11  6.74637624302698E-02
 cg2d: Sum(rhs),rhsMax =  -4.83649786886531E-11  6.53132102386499E-02
 cg2d: Sum(rhs),rhsMax =  -5.00975927408831E-11  6.31328483311170E-02
 cg2d: Sum(rhs),rhsMax =  -5.19418952293904E-11  6.09243771063664E-02
 cg2d: Sum(rhs),rhsMax =  -5.40084643674277E-11  5.86893262898638E-02
 cg2d: Sum(rhs),rhsMax =  -5.62843105456068E-11  5.64290384363441E-02
 cg2d: Sum(rhs),rhsMax =  -5.87468962365278E-11  5.41446647580091E-02
 cg2d: Sum(rhs),rhsMax =  -6.14763795425688E-11  5.18371523348152E-02
 cg2d: Sum(rhs),rhsMax =  -6.43550768231194E-11  4.95481510350293E-02
 cg2d: Sum(rhs),rhsMax =  -6.75637323865885E-11  4.72697061671625E-02
 cg2d: Sum(rhs),rhsMax =  -7.11092296157290E-11  4.49716289562992E-02
 cg2d: Sum(rhs),rhsMax =  -7.51263495857302E-11  4.26543424211464E-02
 cg2d: Sum(rhs),rhsMax =  -7.95413734877570E-11  4.03182134651853E-02
 cg2d: Sum(rhs),rhsMax =  -8.45151726380777E-11  3.79635768928841E-02
 cg2d: Sum(rhs),rhsMax =  -9.02163899141328E-11  3.55907652061948E-02
 cg2d: Sum(rhs),rhsMax =  -9.67869118184694E-11  3.32001407206188E-02
 cg2d: Sum(rhs),rhsMax =  -1.04399933142929E-10  3.07921410302733E-02
 cg2d: Sum(rhs),rhsMax =  -1.13436926518773E-10  2.83672917544013E-02
 cg2d: Sum(rhs),rhsMax =  -1.24175336679855E-10  2.59262290964672E-02
 cg2d: Sum(rhs),rhsMax =  -1.27540422667494E-10  2.52650477647900E-02
 cg2d: Sum(rhs),rhsMax =  -1.29737887100134E-10  2.48457622243537E-02
 cg2d: Sum(rhs),rhsMax =  -1.30694455258151E-10  2.46986665152400E-02
 cg2d: Sum(rhs),rhsMax =  -1.31427757565916E-10  2.45714857301370E-02
 cg2d: Sum(rhs),rhsMax =  -1.25990478033050E-10  2.56469728954377E-02
 cg2d: Sum(rhs),rhsMax =  -1.12078152314510E-10  2.88582882411623E-02
 cg2d: Sum(rhs),rhsMax =  -1.00743774433809E-10  3.21296237353325E-02
 cg2d: Sum(rhs),rhsMax =  -9.13024100768212E-11  3.54818479119605E-02
 cg2d: Sum(rhs),rhsMax =  -8.33931812493915E-11  3.88723503997290E-02
 cg2d: Sum(rhs),rhsMax =  -7.66198215984559E-11  4.23446408499099E-02
 cg2d: Sum(rhs),rhsMax =  -7.08078595756945E-11  4.58712694742852E-02
 cg2d: Sum(rhs),rhsMax =  -6.57193188757788E-11  4.94454709572051E-02
 cg2d: Sum(rhs),rhsMax =  -6.12917494535736E-11  5.31174761297192E-02
 cg2d: Sum(rhs),rhsMax =  -5.73346925492046E-11  5.68497977177789E-02
 cg2d: Sum(rhs),rhsMax =  -5.38152855611429E-11  6.07008737860867E-02
 cg2d: Sum(rhs),rhsMax =  -5.05775421544286E-11  6.46600058376479E-02
 cg2d: Sum(rhs),rhsMax =  -4.77557993150413E-11  6.86139390534481E-02
 cg2d: Sum(rhs),rhsMax =  -4.52672344053440E-11  7.25598118834896E-02
 cg2d: Sum(rhs),rhsMax =  -4.30036006804357E-11  7.64948614414899E-02
 cg2d: Sum(rhs),rhsMax =  -4.09942080281667E-11  8.04164504719410E-02
 cg2d: Sum(rhs),rhsMax =  -3.91309207259383E-11  8.43220857620980E-02
 cg2d: Sum(rhs),rhsMax =  -3.74860142926536E-11  8.82094282102586E-02
 cg2d: Sum(rhs),rhsMax =  -3.59805518712619E-11  9.20762948485224E-02
 cg2d: Sum(rhs),rhsMax =  -3.46189743538616E-11  9.59206535867390E-02
 cg2d: Sum(rhs),rhsMax =  -3.33106875416433E-11  9.97406117687065E-02
 cg2d: Sum(rhs),rhsMax =  -3.21354054477752E-11  1.03534399850432E-01
 cg2d: Sum(rhs),rhsMax =  -3.10347303411618E-11  1.07300351656468E-01
 cg2d: Sum(rhs),rhsMax =  -3.00384161988632E-11  1.11036882761352E-01
 cg2d: Sum(rhs),rhsMax =  -2.91051627243633E-11  1.14742468564412E-01
 cg2d: Sum(rhs),rhsMax =  -2.82416312558098E-11  1.18415623570198E-01
 cg2d: Sum(rhs),rhsMax =  -2.74484879270176E-11  1.22054883248862E-01
 cg2d: Sum(rhs),rhsMax =  -2.67631472539165E-11  1.25658789629919E-01
 cg2d: Sum(rhs),rhsMax =  -2.60985677513759E-11  1.29225881482954E-01
 cg2d: Sum(rhs),rhsMax =  -2.55130361281886E-11  1.32754689571359E-01
 cg2d: Sum(rhs),rhsMax =  -2.49457121626051E-11  1.36243737061014E-01
 cg2d: Sum(rhs),rhsMax =  -2.43743913941330E-11  1.39691544689919E-01
 cg2d: Sum(rhs),rhsMax =  -2.38872255309275E-11  1.43096639948710E-01
 cg2d: Sum(rhs),rhsMax =  -2.34126051879002E-11  1.46457569146315E-01
 cg2d: Sum(rhs),rhsMax =  -2.29806174090186E-11  1.49772910976803E-01
 cg2d: Sum(rhs),rhsMax =  -2.25869323244865E-11  1.53041290095604E-01
 cg2d: Sum(rhs),rhsMax =  -2.21649365528265E-11  1.56261389232747E-01
(PID.TID 0000.0001)      cg2d_init_res =   1.08250051797949E-01
(PID.TID 0000.0001)      cg2d_iters(min,last) =      -1      37
(PID.TID 0000.0001)      cg2d_last_res =   6.52826720476949E-14
(PID.TID 0000.0001) // =======================================================
(PID.TID 0000.0001) // Begin MONITOR dynamic field statistics
(PID.TID 0000.0001) // =======================================================
(PID.TID 0000.0001) %MON time_tsnumber                =                  3360
(PID.TID 0000.0001) %MON time_secondsf                =   5.0400000000000E+04
(PID.TID 0000.0001) %MON dynstat_eta_max              =   2.6535885085818E-02
(PID.TID 0000.0001) %MON dynstat_eta_min              =  -2.1914201129701E-02
(PID.TID 0000.0001) %MON dynstat_eta_mean             =   7.3862789535626E-15
(PID.TID 0000.0001) %MON dynstat_eta_sd               =   1.7645995083530E-02
(PID.TID 0000.0001) %MON dynstat_eta_del2             =   2.4094215181697E-05
(PID.TID 0000.0001) %MON dynstat_uvel_max             =   1.3286029510450E+00
(PID.TID 0000.0001) %MON dynstat_uvel_min             =  -7.3777643414433E-01
(PID.TID 0000.0001) %MON dynstat_uvel_mean            =   2.8270901762393E-01
(PID.TID 0000.0001) %MON dynstat_uvel_sd              =   1.1522274220800E-01
(PID.TID 0000.0001) %MON dynstat_uvel_del2            =   6.8179354802539E-04
(PID.TID 0000.0001) %MON dynstat_vvel_max             =   0.0000000000000E+00
(PID.TID 0000.0001) %MON dynstat_vvel_min             =   0.0000000000000E+00
(PID.TID 0000.0001) %MON dynstat_vvel_mean            =   0.0000000000000E+00
(PID.TID 0000.0001) %MON dynstat_vvel_sd              =   0.0000000000000E+00
(PID.TID 0000.0001) %MON dynstat_vvel_del2            =   0.0000000000000E+00
(PID.TID 0000.0001) %MON dynstat_wvel_max             =   2.1020346274230E-02
(PID.TID 0000.0001) %MON dynstat_wvel_min             =  -2.8763148295389E-02
(PID.TID 0000.0001) %MON dynstat_wvel_mean            =   6.3831972807997E-20
(PID.TID 0000.0001) %MON dynstat_wvel_sd              =   2.1913995631779E-03
(PID.TID 0000.0001) %MON dynstat_wvel_del2            =   6.4290971338839E-05
(PID.TID 0000.0001) %MON dynstat_theta_max            =   1.5000000000009E+01
(PID.TID 0000.0001) %MON dynstat_theta_min            =   9.9999999999940E+00
(PID.TID 0000.0001) %MON dynstat_theta_mean           =   1.2529612354051E+01
(PID.TID 0000.0001) %MON dynstat_theta_sd             =   2.4258485049569E+00
(PID.TID 0000.0001) %MON dynstat_theta_del2           =   1.4735467073655E-03
(PID.TID 0000.0001) %MON dynstat_salt_max             =   3.5000000000000E+01
(PID.TID 0000.0001) %MON dynstat_salt_min             =   3.5000000000000E+01
(PID.TID 0000.0001) %MON dynstat_salt_mean            =   3.5000000000000E+01
(PID.TID 0000.0001) %MON dynstat_salt_sd              =   3.1974423109205E-13
(PID.TID 0000.0001) %MON dynstat_salt_del2            =   0.0000000000000E+00
(PID.TID 0000.0001) %MON dynstat_sst_max              =   1.5000000000000E+01
(PID.TID 0000.0001) %MON dynstat_sst_min              =   1.4996886140244E+01
(PID.TID 0000.0001) %MON dynstat_sst_mean             =   1.4999876724603E+01
(PID.TID 0000.0001) %MON dynstat_sst_sd               =   4.7964846863349E-04
(PID.TID 0000.0001) %MON dynstat_sst_del2             =   1.1582277183580E-05
(PID.TID 0000.0001) %MON dynstat_sss_max              =   3.5000000000000E+01
(PID.TID 0000.0001) %MON dynstat_sss_min              =   3.5000000000000E+01
(PID.TID 0000.0001) %MON dynstat_sss_mean             =   3.5000000000000E+01
(PID.TID 0000.0001) %MON dynstat_sss_sd               =   5.6843418860808E-14
(PID.TID 0000.0001) %MON dynstat_sss_del2             =   0.0000000000000E+00
(PID.TID 0000.0001) %MON forcing_qnet_max             =   0.0000000000000E+00
(PID.TID 0000.0001) %MON forcing_qnet_min             =   0.0000000000000E+00
(PID.TID 0000.0001) %MON forcing_qnet_mean            =   0.0000000000000E+00
(PID.TID 0000.0001) %MON forcing_qnet_sd              =   0.0000000000000E+00
(PID.TID 0000.0001) %MON forcing_qnet_del2            =   0.0000000000000E+00
(PID.TID 0000.0001) %MON forcing_qsw_max              =   0.0000000000000E+00
(PID.TID 0000.0001) %MON forcing_qsw_min              =   0.0000000000000E+00
(PID.TID 0000.0001) %MON forcing_qsw_mean             =   0.0000000000000E+00
(PID.TID 0000.0001) %MON forcing_qsw_sd               =   0.0000000000000E+00
(PID.TID 0000.0001) %MON forcing_qsw_del2             =   0.0000000000000E+00
(PID.TID 0000.0001) %MON forcing_empmr_max            =   0.0000000000000E+00
(PID.TID 0000.0001) %MON forcing_empmr_min            =   0.0000000000000E+00
(PID.TID 0000.0001) %MON forcing_empmr_mean           =   0.0000000000000E+00
(PID.TID 0000.0001) %MON forcing_empmr_sd             =   0.0000000000000E+00
(PID.TID 0000.0001) %MON forcing_empmr_del2           =   0.0000000000000E+00
(PID.TID 0000.0001) %MON forcing_fu_max               =   0.0000000000000E+00
(PID.TID 0000.0001) %MON forcing_fu_min               =   0.0000000000000E+00
(PID.TID 0000.0001) %MON forcing_fu_mean              =   0.0000000000000E+00
(PID.TID 0000.0001) %MON forcing_fu_sd                =   0.0000000000000E+00
(PID.TID 0000.0001) %MON forcing_fu_del2              =   0.0000000000000E+00
(PID.TID 0000.0001) %MON forcing_fv_max               =   0.0000000000000E+00
(PID.TID 0000.0001) %MON forcing_fv_min               =   0.0000000000000E+00
(PID.TID 0000.0001) %MON forcing_fv_mean              =   0.0000000000000E+00
(PID.TID 0000.0001) %MON forcing_fv_sd                =   0.0000000000000E+00
(PID.TID 0000.0001) %MON forcing_fv_del2              =   0.0000000000000E+00
(PID.TID 0000.0001) %MON advcfl_uvel_max              =   9.9645221328373E-02
(PID.TID 0000.0001) %MON advcfl_vvel_max              =   0.0000000000000E+00
(PID.TID 0000.0001) %MON advcfl_wvel_max              =   2.9463090925848E-01
(PID.TID 0000.0001) %MON advcfl_W_hf_max              =   2.9857676379480E-01
(PID.TID 0000.0001) %MON pe_b_mean                    =   7.8000740174449E-06
(PID.TID 0000.0001) %MON ke_max                       =   6.8151697079623E-01
(PID.TID 0000.0001) %MON ke_mean                      =   4.6653277833045E-02
(PID.TID 0000.0001) %MON ke_vol                       =   9.5633499295324E+10
(PID.TID 0000.0001) %MON vort_r_min                   =   0.0000000000000E+00
(PID.TID 0000.0001) %MON vort_r_max                   =   0.0000000000000E+00
(PID.TID 0000.0001) %MON vort_a_mean                  =   0.0000000000000E+00
(PID.TID 0000.0001) %MON vort_a_sd                    =   0.0000000000000E+00
(PID.TID 0000.0001) %MON vort_p_mean                  =   0.0000000000000E+00
(PID.TID 0000.0001) %MON vort_p_sd                    =   0.0000000000000E+00
(PID.TID 0000.0001) %MON surfExpan_theta_mean         =   2.3187691051688E-09
(PID.TID 0000.0001) %MON surfExpan_salt_mean          =   3.4096599326391E-18
(PID.TID 0000.0001) // =======================================================
(PID.TID 0000.0001) // End MONITOR dynamic field statistics
(PID.TID 0000.0001) // =======================================================
(PID.TID 0000.0001) // =======================================================
(PID.TID 0000.0001) // Begin OBCS MONITOR field statistics
(PID.TID 0000.0001) // =======================================================
(PID.TID 0000.0001) %MON obc_E_uVel_max               =   2.8014282071829E-01
(PID.TID 0000.0001) %MON obc_E_uVel_min               =   2.8014282071829E-01
(PID.TID 0000.0001) %MON obc_E_uVel_mean              =   2.8014282071829E-01
(PID.TID 0000.0001) %MON obc_E_uVel_sd                =   3.7252902984619E-09
(PID.TID 0000.0001) %MON obc_E_uVel_Int               =   2.8014282071829E+05
(PID.TID 0000.0001) %MON obc_W_uVel_max               =   2.8014282071829E-01
(PID.TID 0000.0001) %MON obc_W_uVel_min               =   2.8014282071829E-01
(PID.TID 0000.0001) %MON obc_W_uVel_mean              =   2.8014282071829E-01
(PID.TID 0000.0001) %MON obc_W_uVel_sd                =   3.7252902984619E-09
(PID.TID 0000.0001) %MON obc_W_uVel_Int               =   2.8014282071829E+05
(PID.TID 0000.0001) // =======================================================
(PID.TID 0000.0001) // End OBCS MONITOR field statistics
(PID.TID 0000.0001) // =======================================================
 cg2d: Sum(rhs),rhsMax =  -2.18212115044025E-11  1.59431958563779E-01
 cg2d: Sum(rhs),rhsMax =  -2.14372963824871E-11  1.62551821406093E-01
 cg2d: Sum(rhs),rhsMax =  -2.11066719657538E-11  1.65619875743765E-01
 cg2d: Sum(rhs),rhsMax =  -2.08073558383148E-11  1.68635091571881E-01
 cg2d: Sum(rhs),rhsMax =  -2.04970485029321E-11  1.71596504537342E-01
 cg2d: Sum(rhs),rhsMax =  -2.02189376352635E-11  1.74503206774855E-01
 cg2d: Sum(rhs),rhsMax =  -1.99213978646640E-11  1.77354336150259E-01
 cg2d: Sum(rhs),rhsMax =  -1.96479499336988E-11  1.80149065299413E-01
 cg2d: Sum(rhs),rhsMax =  -1.94358973359954E-11  1.82886591790559E-01
 cg2d: Sum(rhs),rhsMax =  -1.91681115424558E-11  1.85566130507729E-01
 cg2d: Sum(rhs),rhsMax =  -1.89259719007850E-11  1.88186909140562E-01
 cg2d: Sum(rhs),rhsMax =  -1.87246884664205E-11  1.90748167055817E-01
 cg2d: Sum(rhs),rhsMax =  -1.85431670018943E-11  1.93249157434689E-01
 cg2d: Sum(rhs),rhsMax =  -1.83497661510046E-11  1.95689152088552E-01
 cg2d: Sum(rhs),rhsMax =  -1.81668013965464E-11  1.98067447994636E-01
 cg2d: Sum(rhs),rhsMax =  -1.79963821622664E-11  2.00383374340614E-01
 cg2d: Sum(rhs),rhsMax =  -1.78319581323194E-11  2.02636298774828E-01
 cg2d: Sum(rhs),rhsMax =  -1.76797465556433E-11  2.04825631683832E-01
 cg2d: Sum(rhs),rhsMax =  -1.75921499590004E-11  2.06950827577152E-01
 cg2d: Sum(rhs),rhsMax =  -1.74641412442611E-11  2.09011383053399E-01
 cg2d: Sum(rhs),rhsMax =  -1.73803194059019E-11  2.11006831258151E-01
 cg2d: Sum(rhs),rhsMax =  -1.73069336639742E-11  2.12936733209214E-01
 cg2d: Sum(rhs),rhsMax =  -1.72386549479597E-11  2.14800666774621E-01
 cg2d: Sum(rhs),rhsMax =  -1.72009073651225E-11  2.16598214424900E-01
 cg2d: Sum(rhs),rhsMax =  -1.71305192253612E-11  2.18328951000248E-01
 cg2d: Sum(rhs),rhsMax =  -1.70928826648264E-11  2.19992432782156E-01
 cg2d: Sum(rhs),rhsMax =  -1.70666814014453E-11  2.21588189019066E-01
 cg2d: Sum(rhs),rhsMax =  -1.69730896004694E-11  2.23115716779009E-01
 cg2d: Sum(rhs),rhsMax =  -1.69305680586262E-11  2.24574479681634E-01
 cg2d: Sum(rhs),rhsMax =  -1.68597358296552E-11  2.25963910532236E-01
 cg2d: Sum(rhs),rhsMax =  -1.67773572812280E-11  2.27283417576805E-01
 cg2d: Sum(rhs),rhsMax =  -1.68115521503864E-11  2.28532393761263E-01
 cg2d: Sum(rhs),rhsMax =  -1.68789426879812E-11  2.29710228087589E-01
 cg2d: Sum(rhs),rhsMax =  -1.69624314594330E-11  2.30816318028800E-01
 cg2d: Sum(rhs),rhsMax =  -1.70288227963056E-11  2.31850081967992E-01
 cg2d: Sum(rhs),rhsMax =  -1.70573555280384E-11  2.32810970754274E-01
 cg2d: Sum(rhs),rhsMax =  -1.70755631856423E-11  2.33698477694706E-01
 cg2d: Sum(rhs),rhsMax =  -1.71279657124046E-11  2.34512146591244E-01
 cg2d: Sum(rhs),rhsMax =  -1.71399561210706E-11  2.35251577742105E-01
 cg2d: Sum(rhs),rhsMax =  -1.71679337412911E-11  2.35916432115390E-01
 cg2d: Sum(rhs),rhsMax =  -1.71854752650802E-11  2.36506434161802E-01
 cg2d: Sum(rhs),rhsMax =  -1.72053482572210E-11  2.37021373730825E-01
 cg2d: Sum(rhs),rhsMax =  -1.72165615097697E-11  2.37461107782754E-01
 cg2d: Sum(rhs),rhsMax =  -1.72186709335165E-11  2.37825562410633E-01
 cg2d: Sum(rhs),rhsMax =  -1.71921366032279E-11  2.38114735482988E-01
 cg2d: Sum(rhs),rhsMax =  -1.71385128311385E-11  2.38328699936026E-01
 cg2d: Sum(rhs),rhsMax =  -1.70955472000855E-11  2.38467607807618E-01
 cg2d: Sum(rhs),rhsMax =  -1.70536917920572E-11  2.38531694277681E-01
 cg2d: Sum(rhs),rhsMax =  -1.70298219970277E-11  2.38521281044784E-01
 cg2d: Sum(rhs),rhsMax =  -1.70544689481744E-11  2.38436778232039E-01
 cg2d: Sum(rhs),rhsMax =  -1.70620184647419E-11  2.38278683978037E-01
 cg2d: Sum(rhs),rhsMax =  -1.70394809373420E-11  2.38047580936671E-01
 cg2d: Sum(rhs),rhsMax =  -1.70449210301626E-11  2.37744129102148E-01
 cg2d: Sum(rhs),rhsMax =  -1.70213843020406E-11  2.37369054783459E-01
 cg2d: Sum(rhs),rhsMax =  -1.70159442092199E-11  2.36923135282713E-01
 cg2d: Sum(rhs),rhsMax =  -1.69841918307156E-11  2.36407180094132E-01
 cg2d: Sum(rhs),rhsMax =  -1.69502190061621E-11  2.35822009366169E-01
 cg2d: Sum(rhs),rhsMax =  -1.69005920369614E-11  2.35168430665318E-01
 cg2d: Sum(rhs),rhsMax =  -1.68769442865369E-11  2.34447215298105E-01
 cg2d: Sum(rhs),rhsMax =  -1.68809410894255E-11  2.33659075604203E-01
 cg2d: Sum(rhs),rhsMax =  -1.68792757548886E-11  2.32804644496323E-01
 cg2d: Sum(rhs),rhsMax =  -1.68303149195026E-11  2.31884458623785E-01
 cg2d: Sum(rhs),rhsMax =  -1.68924874088816E-11  2.30898946200876E-01
 cg2d: Sum(rhs),rhsMax =  -1.68843827808018E-11  2.29848420162496E-01
 cg2d: Sum(rhs),rhsMax =  -1.69155800477938E-11  2.28733077362814E-01
 cg2d: Sum(rhs),rhsMax =  -1.69647629277847E-11  2.27553003608166E-01
 cg2d: Sum(rhs),rhsMax =  -1.69997349530604E-11  2.26308184262830E-01
 cg2d: Sum(rhs),rhsMax =  -1.70576885949458E-11  2.24998519872231E-01
 cg2d: Sum(rhs),rhsMax =  -1.71069824972392E-11  2.23623846002480E-01
 cg2d: Sum(rhs),rhsMax =  -1.71317404706883E-11  2.22183956305936E-01
 cg2d: Sum(rhs),rhsMax =  -1.71924696701353E-11  2.20678627701313E-01
 cg2d: Sum(rhs),rhsMax =  -1.72593050962178E-11  2.19107646503285E-01
 cg2d: Sum(rhs),rhsMax =  -1.73721037555197E-11  2.17470834217511E-01
 cg2d: Sum(rhs),rhsMax =  -1.74334990887814E-11  2.15768072308607E-01
 cg2d: Sum(rhs),rhsMax =  -1.74902314853398E-11  2.13999324657543E-01
 cg2d: Sum(rhs),rhsMax =  -1.75579550898419E-11  2.12164656599949E-01
 cg2d: Sum(rhs),rhsMax =  -1.76250125605293E-11  2.10264250085897E-01
 cg2d: Sum(rhs),rhsMax =  -1.77062808859318E-11  2.08298414476813E-01
 cg2d: Sum(rhs),rhsMax =  -1.77864389883098E-11  2.06267592689690E-01
 cg2d: Sum(rhs),rhsMax =  -1.78763670533044E-11  2.04172362591648E-01
 cg2d: Sum(rhs),rhsMax =  -1.80438997077204E-11  2.02013433758492E-01
 cg2d: Sum(rhs),rhsMax =  -1.82110992952289E-11  1.99791640019416E-01
 cg2d: Sum(rhs),rhsMax =  -1.83847381762803E-11  1.97507928433586E-01
 cg2d: Sum(rhs),rhsMax =  -1.85428339349869E-11  1.95163345561506E-01
 cg2d: Sum(rhs),rhsMax =  -1.87518889305238E-11  1.92759022061557E-01
 cg2d: Sum(rhs),rhsMax =  -1.89679383311159E-11  1.90296156742933E-01
 cg2d: Sum(rhs),rhsMax =  -1.91855420439424E-11  1.87776001232126E-01
 cg2d: Sum(rhs),rhsMax =  -1.94015914445345E-11  1.85199846367460E-01
 cg2d: Sum(rhs),rhsMax =  -1.96567206955933E-11  1.82569011097508E-01
 cg2d: Sum(rhs),rhsMax =  -1.98866478839932E-11  1.79884834744930E-01
 cg2d: Sum(rhs),rhsMax =  -2.01335614846698E-11  1.77148673007009E-01
 cg2d: Sum(rhs),rhsMax =  -2.04180006235788E-11  1.74361897727035E-01
 cg2d: Sum(rhs),rhsMax =  -2.06986650042040E-11  1.71525900142286E-01
 cg2d: Sum(rhs),rhsMax =  -2.10189643468084E-11  1.68642097017609E-01
 cg2d: Sum(rhs),rhsMax =  -2.13271622584443E-11  1.65711938826029E-01
 cg2d: Sum(rhs),rhsMax =  -2.16771045558062E-11  1.62736918783387E-01
 cg2d: Sum(rhs),rhsMax =  -2.19989582106450E-11  1.59718582134273E-01
 cg2d: Sum(rhs),rhsMax =  -2.23846496893998E-11  1.56658534165990E-01
 cg2d: Sum(rhs),rhsMax =  -2.27891039372707E-11  1.53558445990796E-01
 cg2d: Sum(rhs),rhsMax =  -2.32129870880726E-11  1.50420057331089E-01
 cg2d: Sum(rhs),rhsMax =  -2.36366481942696E-11  1.47245175787042E-01
 cg2d: Sum(rhs),rhsMax =  -2.41391351352149E-11  1.44035672294779E-01
 cg2d: Sum(rhs),rhsMax =  -2.46056508501624E-11  1.40793472869316E-01
 cg2d: Sum(rhs),rhsMax =  -2.51411114149391E-11  1.37520546910837E-01
 cg2d: Sum(rhs),rhsMax =  -2.56679122401238E-11  1.34218892555479E-01
 cg2d: Sum(rhs),rhsMax =  -2.62529997741012E-11  1.30890519807811E-01
 cg2d: Sum(rhs),rhsMax =  -2.68772781808480E-11  1.27537432321651E-01
 cg2d: Sum(rhs),rhsMax =  -2.75220957135502E-11  1.24161608757039E-01
 cg2d: Sum(rhs),rhsMax =  -2.82195378176198E-11  1.20764984639673E-01
 cg2d: Sum(rhs),rhsMax =  -2.89608337311620E-11  1.17349435584649E-01
 cg2d: Sum(rhs),rhsMax =  -2.97548652383739E-11  1.13916762631748E-01
 cg2d: Sum(rhs),rhsMax =  -3.05833136593492E-11  1.10468680315568E-01
 cg2d: Sum(rhs),rhsMax =  -3.15206749590402E-11  1.07006807902439E-01
 cg2d: Sum(rhs),rhsMax =  -3.25515170374047E-11  1.03532664058994E-01
 cg2d: Sum(rhs),rhsMax =  -3.36243255461000E-11  1.00047664982308E-01
 cg2d: Sum(rhs),rhsMax =  -3.48080453349553E-11  9.65531258402994E-02
 cg2d: Sum(rhs),rhsMax =  -3.60520502340478E-11  9.30502652505077E-02
 cg2d: Sum(rhs),rhsMax =  -3.74210662457131E-11  8.95402124646874E-02
 cg2d: Sum(rhs),rhsMax =  -3.89059895411492E-11  8.60240167291356E-02
 cg2d: Sum(rhs),rhsMax =  -4.04675182252845E-11  8.25026582584428E-02
 cg2d: Sum(rhs),rhsMax =  -4.22212265149824E-11  7.89770602452987E-02
 cg2d: Sum(rhs),rhsMax =  -4.41440217713307E-11  7.54481013704511E-02
 cg2d: Sum(rhs),rhsMax =  -4.62490046260200E-11  7.19166283784393E-02
 cg2d: Sum(rhs),rhsMax =  -4.85389506366118E-11  6.83834683424822E-02
 cg2d: Sum(rhs),rhsMax =  -5.10939068831817E-11  6.48494403402826E-02
 cg2d: Sum(rhs),rhsMax =  -5.39472910787708E-11  6.13153663611147E-02
 cg2d: Sum(rhs),rhsMax =  -5.71483416145213E-11  5.77820813539174E-02
 cg2d: Sum(rhs),rhsMax =  -6.07545125319575E-11  5.42504423978155E-02
 cg2d: Sum(rhs),rhsMax =  -6.48822107152114E-11  5.07213370208428E-02
 cg2d: Sum(rhs),rhsMax =  -6.95858093369139E-11  4.71956906990273E-02
 cg2d: Sum(rhs),rhsMax =  -7.50545736671882E-11  4.36744736419166E-02
 cg2d: Sum(rhs),rhsMax =  -8.14877887389542E-11  4.01587067580025E-02
 cg2d: Sum(rhs),rhsMax =  -8.92067669733265E-11  3.66494667903715E-02
 cg2d: Sum(rhs),rhsMax =  -9.85672307662888E-11  3.31478905363380E-02
 cg2d: Sum(rhs),rhsMax =  -1.10095765837315E-10  2.96551779953598E-02
 cg2d: Sum(rhs),rhsMax =  -1.23222321235517E-10  2.64760387839472E-02
 cg2d: Sum(rhs),rhsMax =  -1.16185172593930E-10  2.80675684112110E-02
 cg2d: Sum(rhs),rhsMax =  -1.07319264586181E-10  3.03619256165736E-02
 cg2d: Sum(rhs),rhsMax =  -9.95650784041402E-11  3.27001172932037E-02
 cg2d: Sum(rhs),rhsMax =  -9.29248900050084E-11  3.50177695760715E-02
 cg2d: Sum(rhs),rhsMax =  -8.71674954439072E-11  3.73139899390033E-02
 cg2d: Sum(rhs),rhsMax =  -8.20733481177172E-11  3.95879371879167E-02
 cg2d: Sum(rhs),rhsMax =  -7.76148034731250E-11  4.18388178854989E-02
 cg2d: Sum(rhs),rhsMax =  -7.35520533368117E-11  4.40659034714400E-02
 cg2d: Sum(rhs),rhsMax =  -6.99325042319288E-11  4.62685244622621E-02
 cg2d: Sum(rhs),rhsMax =  -6.66587895992166E-11  4.84460576053239E-02
 cg2d: Sum(rhs),rhsMax =  -6.37170316508673E-11  5.05979075518351E-02
 cg2d: Sum(rhs),rhsMax =  -6.10349548679778E-11  5.27234736600145E-02
 cg2d: Sum(rhs),rhsMax =  -5.85741455338962E-11  5.48221138159190E-02
 cg2d: Sum(rhs),rhsMax =  -5.63380453399986E-11  5.68931791828748E-02
 cg2d: Sum(rhs),rhsMax =  -5.43102229855208E-11  5.89360273969400E-02
 cg2d: Sum(rhs),rhsMax =  -5.24569276905140E-11  6.09500122491795E-02
 cg2d: Sum(rhs),rhsMax =  -5.07459629872642E-11  6.29344866292683E-02
 cg2d: Sum(rhs),rhsMax =  -4.90988361079303E-11  6.48887628527196E-02
 cg2d: Sum(rhs),rhsMax =  -4.76323425147029E-11  6.68121331942763E-02
 cg2d: Sum(rhs),rhsMax =  -4.62926363908878E-11  6.87039085476965E-02
 cg2d: Sum(rhs),rhsMax =  -4.49839054894596E-11  7.05634214548546E-02
 cg2d: Sum(rhs),rhsMax =  -4.38267200308928E-11  7.23900275243927E-02
 cg2d: Sum(rhs),rhsMax =  -4.26931823227505E-11  7.41830594158311E-02
 cg2d: Sum(rhs),rhsMax =  -4.16494616573004E-11  7.59418644869377E-02
 cg2d: Sum(rhs),rhsMax =  -4.06675804143219E-11  7.76657722288364E-02
 cg2d: Sum(rhs),rhsMax =  -3.97490929060496E-11  7.93540765845037E-02
 cg2d: Sum(rhs),rhsMax =  -3.88695742259415E-11  8.10060467629734E-02
 cg2d: Sum(rhs),rhsMax =  -3.81037423835551E-11  8.26209169972422E-02
 cg2d: Sum(rhs),rhsMax =  -3.73536757081183E-11  8.41978898994026E-02
 cg2d: Sum(rhs),rhsMax =  -3.66158214859524E-11  8.57361462548869E-02
 cg2d: Sum(rhs),rhsMax =  -3.59569041208374E-11  8.72348228231672E-02
 cg2d: Sum(rhs),rhsMax =  -3.53268525543626E-11  8.86930254017845E-02
 cg2d: Sum(rhs),rhsMax =  -3.46942474749312E-11  9.01098738498511E-02
 cg2d: Sum(rhs),rhsMax =  -3.40680816890426E-11  9.14845384886038E-02
 cg2d: Sum(rhs),rhsMax =  -3.34874350471637E-11  9.28162244432077E-02
 cg2d: Sum(rhs),rhsMax =  -3.29227756168393E-11  9.41042260250886E-02
 cg2d: Sum(rhs),rhsMax =  -3.24030802190123E-11  9.53479361312618E-02
 cg2d: Sum(rhs),rhsMax =  -3.19727577746676E-11  9.65468627052803E-02
 cg2d: Sum(rhs),rhsMax =  -3.15117931748432E-11  9.77005866483400E-02
 cg2d: Sum(rhs),rhsMax =  -3.10971248751457E-11  9.89678726335884E-02
 cg2d: Sum(rhs),rhsMax =  -3.05788727672507E-11  1.00359526238397E-01
 cg2d: Sum(rhs),rhsMax =  -3.01009217551496E-11  1.01700256461060E-01
 cg2d: Sum(rhs),rhsMax =  -2.96466184934729E-11  1.02988965495127E-01
 cg2d: Sum(rhs),rhsMax =  -2.92494917175645E-11  1.04224479081929E-01
 cg2d: Sum(rhs),rhsMax =  -2.88885582122589E-11  1.05405565027795E-01
 cg2d: Sum(rhs),rhsMax =  -2.85522716580999E-11  1.06530956646558E-01
 cg2d: Sum(rhs),rhsMax =  -2.82232015536010E-11  1.07599379370037E-01
 cg2d: Sum(rhs),rhsMax =  -2.79307688089148E-11  1.08609578076286E-01
 cg2d: Sum(rhs),rhsMax =  -2.76817457844913E-11  1.09560342592510E-01
 cg2d: Sum(rhs),rhsMax =  -2.73889799728977E-11  1.10450528942745E-01
 cg2d: Sum(rhs),rhsMax =  -2.71453970412949E-11  1.11279074575109E-01
 cg2d: Sum(rhs),rhsMax =  -2.69362310234555E-11  1.12045006600074E-01
 cg2d: Sum(rhs),rhsMax =  -2.67260658048940E-11  1.12747442964163E-01
 cg2d: Sum(rhs),rhsMax =  -2.65516497677254E-11  1.13385587339008E-01
 cg2d: Sum(rhs),rhsMax =  -2.63965516111853E-11  1.13958719275912E-01
 cg2d: Sum(rhs),rhsMax =  -2.62317945143309E-11  1.14466182193539E-01
 cg2d: Sum(rhs),rhsMax =  -2.60540478080884E-11  1.14907370648993E-01
 cg2d: Sum(rhs),rhsMax =  -2.59067212127206E-11  1.15281719424374E-01
 cg2d: Sum(rhs),rhsMax =  -2.58227883520590E-11  1.15588697544978E-01
 cg2d: Sum(rhs),rhsMax =  -2.56966670164616E-11  1.15827809305349E-01
 cg2d: Sum(rhs),rhsMax =  -2.56131782450097E-11  1.15998603017942E-01
 cg2d: Sum(rhs),rhsMax =  -2.55413468153165E-11  1.16100686973027E-01
 cg2d: Sum(rhs),rhsMax =  -2.55114818159541E-11  1.16133751431348E-01
 cg2d: Sum(rhs),rhsMax =  -2.54917198461158E-11  1.16097595083294E-01
 cg2d: Sum(rhs),rhsMax =  -2.54866128202025E-11  1.15992154016516E-01
 cg2d: Sum(rhs),rhsMax =  -2.54966048274241E-11  1.15817530831882E-01
 cg2d: Sum(rhs),rhsMax =  -2.55417909045264E-11  1.15574021284343E-01
 cg2d: Sum(rhs),rhsMax =  -2.55752086175676E-11  1.15262135657703E-01
 cg2d: Sum(rhs),rhsMax =  -2.56772381135306E-11  1.14882612341844E-01
 cg2d: Sum(rhs),rhsMax =  -2.57618371080071E-11  1.14436421884303E-01
 cg2d: Sum(rhs),rhsMax =  -2.59352539444535E-11  1.13924760237899E-01
 cg2d: Sum(rhs),rhsMax =  -2.61062282902458E-11  1.13349031118852E-01
 cg2d: Sum(rhs),rhsMax =  -2.62950772267345E-11  1.12710816945814E-01
 cg2d: Sum(rhs),rhsMax =  -2.65405475374791E-11  1.12011839368141E-01
 cg2d: Sum(rhs),rhsMax =  -2.68001176806365E-11  1.11253911630809E-01
 cg2d: Sum(rhs),rhsMax =  -2.70347078057398E-11  1.10438885279600E-01
 cg2d: Sum(rhs),rhsMax =  -2.73443490073078E-11  1.09568593847252E-01
 cg2d: Sum(rhs),rhsMax =  -2.76658695952392E-11  1.08644794656773E-01
 cg2d: Sum(rhs),rhsMax =  -2.79529732694073E-11  1.07669113570476E-01
 cg2d: Sum(rhs),rhsMax =  -2.83347789675759E-11  1.06642994667206E-01
 cg2d: Sum(rhs),rhsMax =  -2.86326518050828E-11  1.05567657992676E-01
 cg2d: Sum(rhs),rhsMax =  -2.89623880433965E-11  1.04444068252178E-01
 cg2d: Sum(rhs),rhsMax =  -2.93568502840458E-11  1.03272916677832E-01
 cg2d: Sum(rhs),rhsMax =  -2.97488700340409E-11  1.02054617494176E-01
 cg2d: Sum(rhs),rhsMax =  -3.01798586122004E-11  1.00789319791222E-01
 cg2d: Sum(rhs),rhsMax =  -3.06128455918042E-11  9.94769338776213E-02
 cg2d: Sum(rhs),rhsMax =  -3.10819148197083E-11  9.81171709794543E-02
 cg2d: Sum(rhs),rhsMax =  -3.16154880053432E-11  9.67095941636314E-02
 cg2d: Sum(rhs),rhsMax =  -3.21457305219042E-11  9.52536779967814E-02
 cg2d: Sum(rhs),rhsMax =  -3.27718963077928E-11  9.37488735501570E-02
 cg2d: Sum(rhs),rhsMax =  -3.33694183396460E-11  9.21946745188899E-02
 cg2d: Sum(rhs),rhsMax =  -3.40099060025523E-11  9.06264252517383E-02
 cg2d: Sum(rhs),rhsMax =  -3.45828921055613E-11  8.92655782717955E-02
 cg2d: Sum(rhs),rhsMax =  -3.52443629836330E-11  8.78706312734624E-02
 cg2d: Sum(rhs),rhsMax =  -3.58970630998101E-11  8.64423008899233E-02
 cg2d: Sum(rhs),rhsMax =  -3.66149333075327E-11  8.49810503199709E-02
 cg2d: Sum(rhs),rhsMax =  -3.73792108376847E-11  8.34871703859601E-02
 cg2d: Sum(rhs),rhsMax =  -3.80100395602767E-11  8.19608048415148E-02
 cg2d: Sum(rhs),rhsMax =  -3.87381238198259E-11  8.04020143913334E-02
 cg2d: Sum(rhs),rhsMax =  -3.96729316065603E-11  7.88107966535576E-02
 cg2d: Sum(rhs),rhsMax =  -4.05687705651303E-11  7.71871110979144E-02
 cg2d: Sum(rhs),rhsMax =  -4.15062428871238E-11  7.55309125301590E-02
 cg2d: Sum(rhs),rhsMax =  -4.25044444085643E-11  7.38421961538781E-02
 cg2d: Sum(rhs),rhsMax =  -4.35643743301739E-11  7.21210544330217E-02
 cg2d: Sum(rhs),rhsMax =  -4.46876979864896E-11  7.03676733447223E-02
 cg2d: Sum(rhs),rhsMax =  -4.59182691869842E-11  6.85823673936629E-02
 cg2d: Sum(rhs),rhsMax =  -4.72829553288534E-11  6.67656412242190E-02
 cg2d: Sum(rhs),rhsMax =  -4.86668483290487E-11  6.49180828625142E-02
 cg2d: Sum(rhs),rhsMax =  -5.01856334267359E-11  6.30404720197046E-02
 cg2d: Sum(rhs),rhsMax =  -5.18116660686019E-11  6.11337308728651E-02
 cg2d: Sum(rhs),rhsMax =  -5.35557154179855E-11  5.91988799436633E-02
 cg2d: Sum(rhs),rhsMax =  -5.54843948563644E-11  5.72370086648080E-02
 cg2d: Sum(rhs),rhsMax =  -5.75376413181061E-11  5.52492444454419E-02
 cg2d: Sum(rhs),rhsMax =  -5.99220673080936E-11  5.32367284075152E-02
 cg2d: Sum(rhs),rhsMax =  -6.24044149688530E-11  5.12005941454847E-02
 cg2d: Sum(rhs),rhsMax =  -6.51455556166525E-11  4.91419774844260E-02
 cg2d: Sum(rhs),rhsMax =  -6.81198430996233E-11  4.70619250734368E-02
 cg2d: Sum(rhs),rhsMax =  -7.13615833092263E-11  4.49614676489998E-02
 cg2d: Sum(rhs),rhsMax =  -7.49253992182730E-11  4.28415909350374E-02
 cg2d: Sum(rhs),rhsMax =  -7.88854537248085E-11  4.07032290359180E-02
 cg2d: Sum(rhs),rhsMax =  -8.33604296701651E-11  3.85472795861605E-02
 cg2d: Sum(rhs),rhsMax =  -8.83932926853959E-11  3.63746396222521E-02
 cg2d: Sum(rhs),rhsMax =  -9.41967615020189E-11  3.41861268805468E-02
 cg2d: Sum(rhs),rhsMax =  -1.00721209150834E-10  3.19825774350455E-02
 cg2d: Sum(rhs),rhsMax =  -1.08285047595302E-10  2.97648467103870E-02
 cg2d: Sum(rhs),rhsMax =  -1.17107157304730E-10  2.75338130117787E-02
 cg2d: Sum(rhs),rhsMax =  -1.23585142119964E-10  2.61025115969304E-02
 cg2d: Sum(rhs),rhsMax =  -1.24490306951941E-10  2.59218254105762E-02
 cg2d: Sum(rhs),rhsMax =  -1.25523036409447E-10  2.57364876984776E-02
 cg2d: Sum(rhs),rhsMax =  -1.13342325108734E-10  2.85205380543840E-02
 cg2d: Sum(rhs),rhsMax =  -1.02737054974433E-10  3.14901825373015E-02
 cg2d: Sum(rhs),rhsMax =  -9.37812050239017E-11  3.45203008009246E-02
 cg2d: Sum(rhs),rhsMax =  -8.60788107459598E-11  3.76252172483923E-02
 cg2d: Sum(rhs),rhsMax =  -7.94780907753534E-11  4.07657439206399E-02
 cg2d: Sum(rhs),rhsMax =  -7.37496730351950E-11  4.39750889669953E-02
 cg2d: Sum(rhs),rhsMax =  -6.86816159500836E-11  4.72345363139910E-02
 cg2d: Sum(rhs),rhsMax =  -6.42962905139655E-11  5.05410236679775E-02
 cg2d: Sum(rhs),rhsMax =  -6.03287420020138E-11  5.39331164049748E-02
 cg2d: Sum(rhs),rhsMax =  -5.67085822744673E-11  5.74648542142866E-02
 cg2d: Sum(rhs),rhsMax =  -5.35325117567709E-11  6.10016133796967E-02
 cg2d: Sum(rhs),rhsMax =  -5.06908959252428E-11  6.45397993143699E-02
 cg2d: Sum(rhs),rhsMax =  -4.81256146045439E-11  6.80777536462399E-02
 cg2d: Sum(rhs),rhsMax =  -4.58292293004092E-11  7.16137336957842E-02
 cg2d: Sum(rhs),rhsMax =  -4.37666569652606E-11  7.51459332954035E-02
 cg2d: Sum(rhs),rhsMax =  -4.18441947758197E-11  7.86725048347840E-02
 cg2d: Sum(rhs),rhsMax =  -4.01214617085088E-11  8.21915809196542E-02
 cg2d: Sum(rhs),rhsMax =  -3.85518283962938E-11  8.57012943057467E-02
 cg2d: Sum(rhs),rhsMax =  -3.70995456577816E-11  8.91997949451876E-02
 cg2d: Sum(rhs),rhsMax =  -3.57550655749606E-11  9.26852633244963E-02
 cg2d: Sum(rhs),rhsMax =  -3.45103945420533E-11  9.61559196382431E-02
 cg2d: Sum(rhs),rhsMax =  -3.33699734511583E-11  9.96100286893126E-02
 cg2d: Sum(rhs),rhsMax =  -3.23127080648078E-11  1.03045900745923E-01
 cg2d: Sum(rhs),rhsMax =  -3.13297165988047E-11  1.06461888819892E-01
 cg2d: Sum(rhs),rhsMax =  -3.04170022502603E-11  1.09856383020310E-01
 cg2d: Sum(rhs),rhsMax =  -2.95871105393530E-11  1.13227802761949E-01
 cg2d: Sum(rhs),rhsMax =  -2.87434520629404E-11  1.16574587666113E-01
 cg2d: Sum(rhs),rhsMax =  -2.80429013344019E-11  1.19895187991943E-01
 cg2d: Sum(rhs),rhsMax =  -2.73306932641049E-11  1.23188055393392E-01
 cg2d: Sum(rhs),rhsMax =  -2.67319499869245E-11  1.26451634727436E-01
 cg2d: Sum(rhs),rhsMax =  -2.61549670810268E-11  1.29684357555762E-01
 cg2d: Sum(rhs),rhsMax =  -2.56490384487051E-11  1.32884637892286E-01
 cg2d: Sum(rhs),rhsMax =  -2.51045850774290E-11  1.36050870657915E-01
 cg2d: Sum(rhs),rhsMax =  -2.46398457193209E-11  1.39181433208005E-01
 cg2d: Sum(rhs),rhsMax =  -2.41714426252315E-11  1.42274690178313E-01
 cg2d: Sum(rhs),rhsMax =  -2.37324604412947E-11  1.45329001772450E-01
 cg2d: Sum(rhs),rhsMax =  -2.33386643344602E-11  1.48342735460623E-01
 cg2d: Sum(rhs),rhsMax =  -2.29373187110582E-11  1.51314280881330E-01
 cg2d: Sum(rhs),rhsMax =  -2.25726104474688E-11  1.54242067528764E-01
 cg2d: Sum(rhs),rhsMax =  -2.22653007142526E-11  1.57124584588621E-01
 cg2d: Sum(rhs),rhsMax =  -2.19075868557184E-11  1.59960402107878E-01
 cg2d: Sum(rhs),rhsMax =  -2.15960582750085E-11  1.62748192451851E-01
 cg2d: Sum(rhs),rhsMax =  -2.12896367202120E-11  1.65486750843446E-01
 cg2d: Sum(rhs),rhsMax =  -2.09980921539454E-11  1.68175013723240E-01
 cg2d: Sum(rhs),rhsMax =  -2.07429629028866E-11  1.70812073692573E-01
 cg2d: Sum(rhs),rhsMax =  -2.04992689489814E-11  1.73397189884335E-01
 cg2d: Sum(rhs),rhsMax =  -2.02364791590526E-11  1.75929792779506E-01
 cg2d: Sum(rhs),rhsMax =  -2.00127692195906E-11  1.78409482781364E-01
 cg2d: Sum(rhs),rhsMax =  -1.97667437973337E-11  1.80836022209880E-01
 cg2d: Sum(rhs),rhsMax =  -1.95647942291544E-11  1.83209320729928E-01
 cg2d: Sum(rhs),rhsMax =  -1.93577376350618E-11  1.85529414656436E-01
 cg2d: Sum(rhs),rhsMax =  -1.91998639209601E-11  1.87796440920037E-01
 cg2d: Sum(rhs),rhsMax =  -1.90080173823048E-11  1.90010606798529E-01
 cg2d: Sum(rhs),rhsMax =  -1.89058768640393E-11  1.92172156696028E-01
 cg2d: Sum(rhs),rhsMax =  -1.88100646170142E-11  1.94281337409271E-01
 cg2d: Sum(rhs),rhsMax =  -1.86894943965399E-11  1.96338363354287E-01
 cg2d: Sum(rhs),rhsMax =  -1.86101134502792E-11  1.98343383168816E-01
 cg2d: Sum(rhs),rhsMax =  -1.85284010356668E-11  2.00296448974718E-01
 cg2d: Sum(rhs),rhsMax =  -1.84409154613263E-11  2.02197489398544E-01
 cg2d: Sum(rhs),rhsMax =  -1.83791870611572E-11  2.04046287225605E-01
 cg2d: Sum(rhs),rhsMax =  -1.83055792746245E-11  2.05842462317652E-01
 cg2d: Sum(rhs),rhsMax =  -1.82326376219066E-11  2.07585460242286E-01
 cg2d: Sum(rhs),rhsMax =  -1.81783477160025E-11  2.09274546777276E-01
 cg2d: Sum(rhs),rhsMax =  -1.81297199475239E-11  2.10908808269165E-01
 cg2d: Sum(rhs),rhsMax =  -1.80624404322316E-11  2.12487157647890E-01
 cg2d: Sum(rhs),rhsMax =  -1.79841697089955E-11  2.14008345724435E-01
 cg2d: Sum(rhs),rhsMax =  -1.79374293196588E-11  2.15470977234349E-01
 cg2d: Sum(rhs),rhsMax =  -1.78888015511802E-11  2.16873530965406E-01
 cg2d: Sum(rhs),rhsMax =  -1.78388415150721E-11  2.18214383107168E-01
 cg2d: Sum(rhs),rhsMax =  -1.77847736537728E-11  2.19491832933140E-01
 cg2d: Sum(rhs),rhsMax =  -1.77582393234843E-11  2.20704129881807E-01
 cg2d: Sum(rhs),rhsMax =  -1.77221570751840E-11  2.21849501061109E-01
 cg2d: Sum(rhs),rhsMax =  -1.76801906448532E-11  2.22926178251682E-01
 cg2d: Sum(rhs),rhsMax =  -1.77502457177070E-11  2.23932423599474E-01
 cg2d: Sum(rhs),rhsMax =  -1.78149717200426E-11  2.24866553364045E-01
 cg2d: Sum(rhs),rhsMax =  -1.78447256971026E-11  2.25726959308570E-01
 cg2d: Sum(rhs),rhsMax =  -1.78494996561085E-11  2.26512127559698E-01
 cg2d: Sum(rhs),rhsMax =  -1.78248527049618E-11  2.27220655003298E-01
 cg2d: Sum(rhs),rhsMax =  -1.77637904386074E-11  2.27851263489163E-01
 cg2d: Sum(rhs),rhsMax =  -1.77902137465935E-11  2.28402812260114E-01
 cg2d: Sum(rhs),rhsMax =  -1.77734493789217E-11  2.28874309105540E-01
 cg2d: Sum(rhs),rhsMax =  -1.76858527822787E-11  2.29264920675329E-01
 cg2d: Sum(rhs),rhsMax =  -1.76604286750148E-11  2.29573982253516E-01
 cg2d: Sum(rhs),rhsMax =  -1.75819359071738E-11  2.29801007144908E-01
 cg2d: Sum(rhs),rhsMax =  -1.76210157576406E-11  2.29945695628590E-01
 cg2d: Sum(rhs),rhsMax =  -1.77617920371631E-11  2.30007943225848E-01
 cg2d: Sum(rhs),rhsMax =  -1.77391434874608E-11  2.29987847489058E-01
 cg2d: Sum(rhs),rhsMax =  -1.77479142493553E-11  2.29885712554965E-01
 cg2d: Sum(rhs),rhsMax =  -1.77415859781149E-11  2.29702050636446E-01
 cg2d: Sum(rhs),rhsMax =  -1.77108328003328E-11  2.29437579654133E-01
 cg2d: Sum(rhs),rhsMax =  -1.77367009968066E-11  2.29093216390162E-01
 cg2d: Sum(rhs),rhsMax =  -1.78366210690228E-11  2.28670064806111E-01
 cg2d: Sum(rhs),rhsMax =  -1.78607129086572E-11  2.28169399086845E-01
 cg2d: Sum(rhs),rhsMax =  -1.78755898971872E-11  2.27592642071023E-01
 cg2d: Sum(rhs),rhsMax =  -1.78690395813419E-11  2.26941339724473E-01
 cg2d: Sum(rhs),rhsMax =  -1.78683734475271E-11  2.26217132640435E-01
 cg2d: Sum(rhs),rhsMax =  -1.78096426495244E-11  2.25421725805602E-01
 cg2d: Sum(rhs),rhsMax =  -1.78280723517332E-11  2.24556858054542E-01
 cg2d: Sum(rhs),rhsMax =  -1.78101977610368E-11  2.23624272550358E-01
 cg2d: Sum(rhs),rhsMax =  -1.78391745819795E-11  2.22625689685146E-01
 cg2d: Sum(rhs),rhsMax =  -1.78840275921743E-11  2.21562783472964E-01
 cg2d: Sum(rhs),rhsMax =  -1.79211090411968E-11  2.20437162257801E-01
 cg2d: Sum(rhs),rhsMax =  -1.79068981864816E-11  2.19250354324679E-01
 cg2d: Sum(rhs),rhsMax =  -1.79078973872038E-11  2.18003798270348E-01
 cg2d: Sum(rhs),rhsMax =  -1.80017112327846E-11  2.16698837885838E-01
 cg2d: Sum(rhs),rhsMax =  -1.80905290747546E-11  2.15336721022436E-01
 cg2d: Sum(rhs),rhsMax =  -1.81306081259436E-11  2.13918601706755E-01
 cg2d: Sum(rhs),rhsMax =  -1.82464043874120E-11  2.12445544649978E-01
 cg2d: Sum(rhs),rhsMax =  -1.83206783077594E-11  2.10918531271018E-01
 cg2d: Sum(rhs),rhsMax =  -1.84388060375795E-11  2.09338466301997E-01
 cg2d: Sum(rhs),rhsMax =  -1.85192972068648E-11  2.07706184611626E-01
 cg2d: Sum(rhs),rhsMax =  -1.85952364617492E-11  2.06022457725439E-01
 cg2d: Sum(rhs),rhsMax =  -1.86856086159537E-11  2.04287999198306E-01
 cg2d: Sum(rhs),rhsMax =  -1.87427851017219E-11  2.02503469199240E-01
 cg2d: Sum(rhs),rhsMax =  -1.89203097633595E-11  2.00669478376414E-01
 cg2d: Sum(rhs),rhsMax =  -1.89998017319226E-11  1.98786591242477E-01
 cg2d: Sum(rhs),rhsMax =  -1.90850668602138E-11  1.96855329396175E-01
 cg2d: Sum(rhs),rhsMax =  -1.92100779727866E-11  1.94876174942494E-01
 cg2d: Sum(rhs),rhsMax =  -1.93172144946629E-11  1.92849574438401E-01
 cg2d: Sum(rhs),rhsMax =  -1.94005922438123E-11  1.90775943643701E-01
 cg2d: Sum(rhs),rhsMax =  -1.95127247692994E-11  1.88655673275902E-01
 cg2d: Sum(rhs),rhsMax =  -1.97173388727379E-11  1.86489135865195E-01
 cg2d: Sum(rhs),rhsMax =  -1.99239513776206E-11  1.84276693694629E-01
 cg2d: Sum(rhs),rhsMax =  -2.01364480645339E-11  1.82018707729990E-01
 cg2d: Sum(rhs),rhsMax =  -2.03286276700965E-11  1.79715547286611E-01
 cg2d: Sum(rhs),rhsMax =  -2.05714334455820E-11  1.77367600157079E-01
 cg2d: Sum(rhs),rhsMax =  -2.07842631994026E-11  1.74975283016338E-01
 cg2d: Sum(rhs),rhsMax =  -2.10371720044122E-11  1.72539051819234E-01
 cg2d: Sum(rhs),rhsMax =  -2.13168371843153E-11  1.70059411948558E-01
 cg2d: Sum(rhs),rhsMax =  -2.15848450224598E-11  1.67536927942282E-01
 cg2d: Sum(rhs),rhsMax =  -2.18423057418704E-11  1.64972232703955E-01
 cg2d: Sum(rhs),rhsMax =  -2.21666018873634E-11  1.62366036155543E-01
 cg2d: Sum(rhs),rhsMax =  -2.24521512492970E-11  1.59719133323411E-01
 cg2d: Sum(rhs),rhsMax =  -2.27821095322156E-11  1.57032411696056E-01
 cg2d: Sum(rhs),rhsMax =  -2.30966357150919E-11  1.54306858125046E-01
 cg2d: Sum(rhs),rhsMax =  -2.34638974916379E-11  1.51543564856361E-01
 cg2d: Sum(rhs),rhsMax =  -2.38095099192037E-11  1.48743734347533E-01
 cg2d: Sum(rhs),rhsMax =  -2.41973108217053E-11  1.45908682475460E-01
 cg2d: Sum(rhs),rhsMax =  -2.45963249767556E-11  1.43039839567047E-01
 cg2d: Sum(rhs),rhsMax =  -2.50391929412785E-11  1.40138748722976E-01
 cg2d: Sum(rhs),rhsMax =  -2.55038212770842E-11  1.37207060710432E-01
 cg2d: Sum(rhs),rhsMax =  -2.60076404856591E-11  1.34246524817313E-01
 cg2d: Sum(rhs),rhsMax =  -2.64985811071483E-11  1.31258975228822E-01
 cg2d: Sum(rhs),rhsMax =  -2.70337086050176E-11  1.28246312745869E-01
 cg2d: Sum(rhs),rhsMax =  -2.77036171780765E-11  1.25210482007402E-01
 cg2d: Sum(rhs),rhsMax =  -2.83599810302348E-11  1.22153444778508E-01
 cg2d: Sum(rhs),rhsMax =  -2.89962498456475E-11  1.19077150284415E-01
 cg2d: Sum(rhs),rhsMax =  -2.96654922848916E-11  1.15983503948620E-01
 cg2d: Sum(rhs),rhsMax =  -3.03622682551463E-11  1.12874336239927E-01
 cg2d: Sum(rhs),rhsMax =  -3.11110026629535E-11  1.09751373472483E-01
 cg2d: Sum(rhs),rhsMax =  -3.19230197831644E-11  1.06616212458531E-01
 cg2d: Sum(rhs),rhsMax =  -3.28281846151413E-11  1.03470300764268E-01
 cg2d: Sum(rhs),rhsMax =  -3.38066241667434E-11  1.00314923929877E-01
 cg2d: Sum(rhs),rhsMax =  -3.48779893855067E-11  9.71512005912426E-02
 cg2d: Sum(rhs),rhsMax =  -3.59818841388915E-11  9.39800858782437E-02
 cg2d: Sum(rhs),rhsMax =  -3.71768171802955E-11  9.08023828507441E-02
 cg2d: Sum(rhs),rhsMax =  -3.84947629328281E-11  8.76187610223393E-02
 cg2d: Sum(rhs),rhsMax =  -3.98925892319824E-11  8.44297804804140E-02
 cg2d: Sum(rhs),rhsMax =  -4.13706846558171E-11  8.12359197144779E-02
 cg2d: Sum(rhs),rhsMax =  -4.29962176973220E-11  7.80376050474562E-02
 cg2d: Sum(rhs),rhsMax =  -4.47203385434136E-11  7.48352395435535E-02
 cg2d: Sum(rhs),rhsMax =  -4.66493510486998E-11  7.16292294402827E-02
 cg2d: Sum(rhs),rhsMax =  -4.87592743958487E-11  6.84200065024332E-02
 cg2d: Sum(rhs),rhsMax =  -5.10838038536576E-11  6.52080451825905E-02
 cg2d: Sum(rhs),rhsMax =  -5.36328204070458E-11  6.19938740400764E-02
 cg2d: Sum(rhs),rhsMax =  -5.64682745007872E-11  5.87780814531186E-02
 cg2d: Sum(rhs),rhsMax =  -5.96265814500896E-11  5.55613161937360E-02
 cg2d: Sum(rhs),rhsMax =  -6.31958374519570E-11  5.23442838664735E-02
 cg2d: Sum(rhs),rhsMax =  -6.72445987781600E-11  4.91277405203239E-02
 cg2d: Sum(rhs),rhsMax =  -7.18511639075103E-11  4.59124847957761E-02
 cg2d: Sum(rhs),rhsMax =  -7.70939423411221E-11  4.26993500375189E-02
 cg2d: Sum(rhs),rhsMax =  -8.32664631689184E-11  3.94891975553303E-02
 cg2d: Sum(rhs),rhsMax =  -9.05789245692068E-11  3.62829119383683E-02
 cg2d: Sum(rhs),rhsMax =  -9.92402965360739E-11  3.30813989690260E-02
 cg2d: Sum(rhs),rhsMax =  -1.09793257818680E-10  2.98855863045970E-02
 cg2d: Sum(rhs),rhsMax =  -1.07979958308135E-10  3.03760360732721E-02
 cg2d: Sum(rhs),rhsMax =  -1.00801755831270E-10  3.25176052430948E-02
 cg2d: Sum(rhs),rhsMax =  -9.45272193852986E-11  3.46409030718848E-02
 cg2d: Sum(rhs),rhsMax =  -8.90238438522317E-11  3.67454938660199E-02
 cg2d: Sum(rhs),rhsMax =  -8.41674507867651E-11  3.88310130667253E-02
 cg2d: Sum(rhs),rhsMax =  -7.98738852836323E-11  4.08972280046638E-02
 cg2d: Sum(rhs),rhsMax =  -7.60057572435358E-11  4.29440282592180E-02
 cg2d: Sum(rhs),rhsMax =  -7.25391968714462E-11  4.49713887936607E-02
 cg2d: Sum(rhs),rhsMax =  -6.94054813621392E-11  4.69793672832194E-02
 cg2d: Sum(rhs),rhsMax =  -6.64693855512155E-11  4.89680209043954E-02
 cg2d: Sum(rhs),rhsMax =  -6.38010755338314E-11  5.09373233416983E-02
 cg2d: Sum(rhs),rhsMax =  -6.13787909387042E-11  5.28870907015070E-02
 cg2d: Sum(rhs),rhsMax =  -5.91129367677468E-11  5.48169777086362E-02
 cg2d: Sum(rhs),rhsMax =  -5.70403724253765E-11  5.67264595803564E-02
 cg2d: Sum(rhs),rhsMax =  -5.51449996777365E-11  5.86148094499022E-02
 cg2d: Sum(rhs),rhsMax =  -5.33805222246997E-11  6.04810915397058E-02
 cg2d: Sum(rhs),rhsMax =  -5.17292875201747E-11  6.23241715594063E-02
 cg2d: Sum(rhs),rhsMax =  -5.01979569023092E-11  6.41427474475872E-02
 cg2d: Sum(rhs),rhsMax =  -4.87966334006273E-11  6.59353961609520E-02
 cg2d: Sum(rhs),rhsMax =  -4.74780215142800E-11  6.77006349501792E-02
 cg2d: Sum(rhs),rhsMax =  -4.62054838834547E-11  6.94369691231420E-02
 cg2d: Sum(rhs),rhsMax =  -4.50475212687707E-11  7.11429269722831E-02
 cg2d: Sum(rhs),rhsMax =  -4.39894787263029E-11  7.28170877430010E-02
 cg2d: Sum(rhs),rhsMax =  -4.29484225961119E-11  7.44581595353164E-02
 cg2d: Sum(rhs),rhsMax =  -4.19863033229717E-11  7.60648592273144E-02
 cg2d: Sum(rhs),rhsMax =  -4.11012335277405E-11  7.76360181701069E-02
 cg2d: Sum(rhs),rhsMax =  -4.02951005895602E-11  7.91705958477712E-02
 cg2d: Sum(rhs),rhsMax =  -3.95035115730025E-11  8.06676337793845E-02
 cg2d: Sum(rhs),rhsMax =  -3.87844201199528E-11  8.21262264275010E-02
 cg2d: Sum(rhs),rhsMax =  -3.80468989646943E-11  8.35499465445111E-02
 cg2d: Sum(rhs),rhsMax =  -3.73669983844138E-11  8.49528328087076E-02
 cg2d: Sum(rhs),rhsMax =  -3.67519348287715E-11  8.63147927674552E-02
 cg2d: Sum(rhs),rhsMax =  -3.61647378710472E-11  8.76352273607125E-02
 cg2d: Sum(rhs),rhsMax =  -3.55444562671892E-11  8.89135883843757E-02
 cg2d: Sum(rhs),rhsMax =  -3.50380835456576E-11  9.01493871997843E-02
 cg2d: Sum(rhs),rhsMax =  -3.45287132219596E-11  9.13421884582518E-02
 cg2d: Sum(rhs),rhsMax =  -3.40488748307166E-11  9.24916085901600E-02
 cg2d: Sum(rhs),rhsMax =  -3.35539374063387E-11  9.35973099320686E-02
 cg2d: Sum(rhs),rhsMax =  -3.31309424339565E-11  9.46589759534335E-02
 cg2d: Sum(rhs),rhsMax =  -3.26929594507419E-11  9.56763042966582E-02
(PID.TID 0000.0001)      cg2d_init_res =   8.88699075769244E-02
(PID.TID 0000.0001)      cg2d_iters(min,last) =      -1      37
(PID.TID 0000.0001)      cg2d_last_res =   5.62161523972247E-14
(PID.TID 0000.0001) // =======================================================
(PID.TID 0000.0001) // Begin MONITOR dynamic field statistics
(PID.TID 0000.0001) // =======================================================
(PID.TID 0000.0001) %MON time_tsnumber                =                  3840
(PID.TID 0000.0001) %MON time_secondsf                =   5.7600000000000E+04
(PID.TID 0000.0001) %MON dynstat_eta_max              =   2.2780637882971E-02
(PID.TID 0000.0001) %MON dynstat_eta_min              =  -1.8158590878513E-02
(PID.TID 0000.0001) %MON dynstat_eta_mean             =   6.6277959200352E-15
(PID.TID 0000.0001) %MON dynstat_eta_sd               =   1.4331882686139E-02
(PID.TID 0000.0001) %MON dynstat_eta_del2             =   2.2112825220377E-05
(PID.TID 0000.0001) %MON dynstat_uvel_max             =   2.0790864342968E+00
(PID.TID 0000.0001) %MON dynstat_uvel_min             =  -6.0728581896349E-01
(PID.TID 0000.0001) %MON dynstat_uvel_mean            =   2.8803112692954E-01
(PID.TID 0000.0001) %MON dynstat_uvel_sd              =   1.2293388826834E-01
(PID.TID 0000.0001) %MON dynstat_uvel_del2            =   6.9170760679707E-04
(PID.TID 0000.0001) %MON dynstat_vvel_max             =   0.0000000000000E+00
(PID.TID 0000.0001) %MON dynstat_vvel_min             =   0.0000000000000E+00
(PID.TID 0000.0001) %MON dynstat_vvel_mean            =   0.0000000000000E+00
(PID.TID 0000.0001) %MON dynstat_vvel_sd              =   0.0000000000000E+00
(PID.TID 0000.0001) %MON dynstat_vvel_del2            =   0.0000000000000E+00
(PID.TID 0000.0001) %MON dynstat_wvel_max             =   3.2374546234586E-02
(PID.TID 0000.0001) %MON dynstat_wvel_min             =  -3.1182589553502E-02
(PID.TID 0000.0001) %MON dynstat_wvel_mean            =  -1.0338743683829E-20
(PID.TID 0000.0001) %MON dynstat_wvel_sd              =   2.2396463896023E-03
(PID.TID 0000.0001) %MON dynstat_wvel_del2            =   6.6472006395975E-05
(PID.TID 0000.0001) %MON dynstat_theta_max            =   1.5000000000009E+01
(PID.TID 0000.0001) %MON dynstat_theta_min            =   9.9999999999939E+00
(PID.TID 0000.0001) %MON dynstat_theta_mean           =   1.2515810344972E+01
(PID.TID 0000.0001) %MON dynstat_theta_sd             =   2.4175752091234E+00
(PID.TID 0000.0001) %MON dynstat_theta_del2           =   1.3916256473645E-03
(PID.TID 0000.0001) %MON dynstat_salt_max             =   3.5000000000000E+01
(PID.TID 0000.0001) %MON dynstat_salt_min             =   3.5000000000000E+01
(PID.TID 0000.0001) %MON dynstat_salt_mean            =   3.5000000000000E+01
(PID.TID 0000.0001) %MON dynstat_salt_sd              =   3.1974423109205E-13
(PID.TID 0000.0001) %MON dynstat_salt_del2            =   0.0000000000000E+00
(PID.TID 0000.0001) %MON dynstat_sst_max              =   1.5000000000000E+01
(PID.TID 0000.0001) %MON dynstat_sst_min              =   1.4997213414766E+01
(PID.TID 0000.0001) %MON dynstat_sst_mean             =   1.4999888110588E+01
(PID.TID 0000.0001) %MON dynstat_sst_sd               =   4.4064957992882E-04
(PID.TID 0000.0001) %MON dynstat_sst_del2             =   8.2574858208788E-06
(PID.TID 0000.0001) %MON dynstat_sss_max              =   3.5000000000000E+01
(PID.TID 0000.0001) %MON dynstat_sss_min              =   3.5000000000000E+01
(PID.TID 0000.0001) %MON dynstat_sss_mean             =   3.5000000000000E+01
(PID.TID 0000.0001) %MON dynstat_sss_sd               =   5.6843418860808E-14
(PID.TID 0000.0001) %MON dynstat_sss_del2             =   0.0000000000000E+00
(PID.TID 0000.0001) %MON forcing_qnet_max             =   0.0000000000000E+00
(PID.TID 0000.0001) %MON forcing_qnet_min             =   0.0000000000000E+00
(PID.TID 0000.0001) %MON forcing_qnet_mean            =   0.0000000000000E+00
(PID.TID 0000.0001) %MON forcing_qnet_sd              =   0.0000000000000E+00
(PID.TID 0000.0001) %MON forcing_qnet_del2            =   0.0000000000000E+00
(PID.TID 0000.0001) %MON forcing_qsw_max              =   0.0000000000000E+00
(PID.TID 0000.0001) %MON forcing_qsw_min              =   0.0000000000000E+00
(PID.TID 0000.0001) %MON forcing_qsw_mean             =   0.0000000000000E+00
(PID.TID 0000.0001) %MON forcing_qsw_sd               =   0.0000000000000E+00
(PID.TID 0000.0001) %MON forcing_qsw_del2             =   0.0000000000000E+00
(PID.TID 0000.0001) %MON forcing_empmr_max            =   0.0000000000000E+00
(PID.TID 0000.0001) %MON forcing_empmr_min            =   0.0000000000000E+00
(PID.TID 0000.0001) %MON forcing_empmr_mean           =   0.0000000000000E+00
(PID.TID 0000.0001) %MON forcing_empmr_sd             =   0.0000000000000E+00
(PID.TID 0000.0001) %MON forcing_empmr_del2           =   0.0000000000000E+00
(PID.TID 0000.0001) %MON forcing_fu_max               =   0.0000000000000E+00
(PID.TID 0000.0001) %MON forcing_fu_min               =   0.0000000000000E+00
(PID.TID 0000.0001) %MON forcing_fu_mean              =   0.0000000000000E+00
(PID.TID 0000.0001) %MON forcing_fu_sd                =   0.0000000000000E+00
(PID.TID 0000.0001) %MON forcing_fu_del2              =   0.0000000000000E+00
(PID.TID 0000.0001) %MON forcing_fv_max               =   0.0000000000000E+00
(PID.TID 0000.0001) %MON forcing_fv_min               =   0.0000000000000E+00
(PID.TID 0000.0001) %MON forcing_fv_mean              =   0.0000000000000E+00
(PID.TID 0000.0001) %MON forcing_fv_sd                =   0.0000000000000E+00
(PID.TID 0000.0001) %MON forcing_fv_del2              =   0.0000000000000E+00
(PID.TID 0000.0001) %MON advcfl_uvel_max              =   1.5593148257226E-01
(PID.TID 0000.0001) %MON advcfl_vvel_max              =   0.0000000000000E+00
(PID.TID 0000.0001) %MON advcfl_wvel_max              =   2.6418707784363E-01
(PID.TID 0000.0001) %MON advcfl_W_hf_max              =   2.6418707784363E-01
(PID.TID 0000.0001) %MON pe_b_mean                    =   5.1453261072960E-06
(PID.TID 0000.0001) %MON ke_max                       =   1.0806501003193E+00
(PID.TID 0000.0001) %MON ke_mean                      =   4.9117680169384E-02
(PID.TID 0000.0001) %MON ke_vol                       =   9.5633499295324E+10
(PID.TID 0000.0001) %MON vort_r_min                   =   0.0000000000000E+00
(PID.TID 0000.0001) %MON vort_r_max                   =   0.0000000000000E+00
(PID.TID 0000.0001) %MON vort_a_mean                  =   0.0000000000000E+00
(PID.TID 0000.0001) %MON vort_a_sd                    =   0.0000000000000E+00
(PID.TID 0000.0001) %MON vort_p_mean                  =   0.0000000000000E+00
(PID.TID 0000.0001) %MON vort_p_sd                    =   0.0000000000000E+00
(PID.TID 0000.0001) %MON surfExpan_theta_mean         =  -1.1051255986631E-09
(PID.TID 0000.0001) %MON surfExpan_salt_mean          =  -3.3333103656057E-19
(PID.TID 0000.0001) // =======================================================
(PID.TID 0000.0001) // End MONITOR dynamic field statistics
(PID.TID 0000.0001) // =======================================================
(PID.TID 0000.0001) // =======================================================
(PID.TID 0000.0001) // Begin OBCS MONITOR field statistics
(PID.TID 0000.0001) // =======================================================
(PID.TID 0000.0001) %MON obc_E_uVel_max               =   2.8014282071829E-01
(PID.TID 0000.0001) %MON obc_E_uVel_min               =   2.8014282071829E-01
(PID.TID 0000.0001) %MON obc_E_uVel_mean              =   2.8014282071829E-01
(PID.TID 0000.0001) %MON obc_E_uVel_sd                =   3.7252902984619E-09
(PID.TID 0000.0001) %MON obc_E_uVel_Int               =   2.8014282071829E+05
(PID.TID 0000.0001) %MON obc_W_uVel_max               =   2.8014282071829E-01
(PID.TID 0000.0001) %MON obc_W_uVel_min               =   2.8014282071829E-01
(PID.TID 0000.0001) %MON obc_W_uVel_mean              =   2.8014282071829E-01
(PID.TID 0000.0001) %MON obc_W_uVel_sd                =   3.7252902984619E-09
(PID.TID 0000.0001) %MON obc_W_uVel_Int               =   2.8014282071829E+05
(PID.TID 0000.0001) // =======================================================
(PID.TID 0000.0001) // End OBCS MONITOR field statistics
(PID.TID 0000.0001) // =======================================================
 cg2d: Sum(rhs),rhsMax =  -3.22684101661252E-11  9.66489306498331E-02
 cg2d: Sum(rhs),rhsMax =  -3.19316795227564E-11  9.75765263533069E-02
 cg2d: Sum(rhs),rhsMax =  -3.16004999945108E-11  9.84587388971462E-02
 cg2d: Sum(rhs),rhsMax =  -3.13159498332993E-11  9.92951354498726E-02
 cg2d: Sum(rhs),rhsMax =  -3.10137471259964E-11  1.00085201376575E-01
 cg2d: Sum(rhs),rhsMax =  -3.07441849756174E-11  1.00828363050749E-01
 cg2d: Sum(rhs),rhsMax =  -3.05407921175060E-11  1.01524012324279E-01
 cg2d: Sum(rhs),rhsMax =  -3.03087555053594E-11  1.02171532175602E-01
 cg2d: Sum(rhs),rhsMax =  -3.00857116997122E-11  1.02770320720897E-01
 cg2d: Sum(rhs),rhsMax =  -2.98712166113546E-11  1.03319819115895E-01
 cg2d: Sum(rhs),rhsMax =  -2.96991320425377E-11  1.03819532985267E-01
 cg2d: Sum(rhs),rhsMax =  -2.96120905574071E-11  1.04269065411947E-01
 cg2d: Sum(rhs),rhsMax =  -2.94129165467893E-11  1.04667978579984E-01
 cg2d: Sum(rhs),rhsMax =  -2.92471602492128E-11  1.05022634090213E-01
 cg2d: Sum(rhs),rhsMax =  -2.91082713488322E-11  1.05491517507789E-01
 cg2d: Sum(rhs),rhsMax =  -2.88844503870678E-11  1.05894303281393E-01
 cg2d: Sum(rhs),rhsMax =  -2.87457835312921E-11  1.06230532684786E-01
 cg2d: Sum(rhs),rhsMax =  -2.86175527719479E-11  1.06499811653056E-01
 cg2d: Sum(rhs),rhsMax =  -2.85448331638349E-11  1.06701820830870E-01
 cg2d: Sum(rhs),rhsMax =  -2.85504953012605E-11  1.06836330285960E-01
 cg2d: Sum(rhs),rhsMax =  -2.84775536485427E-11  1.06903217762942E-01
 cg2d: Sum(rhs),rhsMax =  -2.84590129240314E-11  1.06902488905359E-01
 cg2d: Sum(rhs),rhsMax =  -2.84871015665544E-11  1.06834297543892E-01
 cg2d: Sum(rhs),rhsMax =  -2.85720336279383E-11  1.06698963742314E-01
 cg2d: Sum(rhs),rhsMax =  -2.86241030877932E-11  1.06496987736961E-01
 cg2d: Sum(rhs),rhsMax =  -2.86578538677418E-11  1.06229058432522E-01
 cg2d: Sum(rhs),rhsMax =  -2.87651014119206E-11  1.05896055115795E-01
 cg2d: Sum(rhs),rhsMax =  -2.88549184546127E-11  1.05499042489468E-01
 cg2d: Sum(rhs),rhsMax =  -2.89953616672278E-11  1.05039259375261E-01
 cg2d: Sum(rhs),rhsMax =  -2.90965029847712E-11  1.04518101460597E-01
 cg2d: Sum(rhs),rhsMax =  -2.93277624408006E-11  1.03937098966436E-01
 cg2d: Sum(rhs),rhsMax =  -2.95261592953011E-11  1.03297890470658E-01
 cg2d: Sum(rhs),rhsMax =  -2.97022406670067E-11  1.02602194053873E-01
 cg2d: Sum(rhs),rhsMax =  -2.99770208656014E-11  1.01960869208765E-01
 cg2d: Sum(rhs),rhsMax =  -3.02419200792770E-11  1.01364032182463E-01
 cg2d: Sum(rhs),rhsMax =  -3.04258840344573E-11  1.00722349264821E-01
 cg2d: Sum(rhs),rhsMax =  -3.06362712976238E-11  1.00035291137483E-01
 cg2d: Sum(rhs),rhsMax =  -3.08686409766779E-11  9.93024180587280E-02
 cg2d: Sum(rhs),rhsMax =  -3.11175529787988E-11  9.85234516782099E-02
 cg2d: Sum(rhs),rhsMax =  -3.14532844214455E-11  9.76983484657961E-02
 cg2d: Sum(rhs),rhsMax =  -3.17331716459535E-11  9.68273316483077E-02
 cg2d: Sum(rhs),rhsMax =  -3.20682369547853E-11  9.59109531765183E-02
 cg2d: Sum(rhs),rhsMax =  -3.24247295679925E-11  9.49501244910809E-02
 cg2d: Sum(rhs),rhsMax =  -3.27937677013779E-11  9.39460895528101E-02
 cg2d: Sum(rhs),rhsMax =  -3.32133209823837E-11  9.29003678427838E-02
 cg2d: Sum(rhs),rhsMax =  -3.36775052289795E-11  9.18146781483369E-02
 cg2d: Sum(rhs),rhsMax =  -3.41110473200956E-11  9.06908472127592E-02
 cg2d: Sum(rhs),rhsMax =  -3.45597994666491E-11  8.95307438900557E-02
 cg2d: Sum(rhs),rhsMax =  -3.50998119458268E-11  8.83360278415819E-02
 cg2d: Sum(rhs),rhsMax =  -3.56081830688026E-11  8.71082744620243E-02
 cg2d: Sum(rhs),rhsMax =  -3.62143648402480E-11  8.58488223486708E-02
 cg2d: Sum(rhs),rhsMax =  -3.68511887671730E-11  8.45586968106965E-02
 cg2d: Sum(rhs),rhsMax =  -3.74889008725177E-11  8.32386105218871E-02
 cg2d: Sum(rhs),rhsMax =  -3.82136544629930E-11  8.18889897220857E-02
 cg2d: Sum(rhs),rhsMax =  -3.89427379232643E-11  8.05100234216746E-02
 cg2d: Sum(rhs),rhsMax =  -3.96578325734254E-11  7.91017280058338E-02
 cg2d: Sum(rhs),rhsMax =  -4.04668520914697E-11  7.76639881123014E-02
 cg2d: Sum(rhs),rhsMax =  -4.12744283195821E-11  7.61966398187909E-02
 cg2d: Sum(rhs),rhsMax =  -4.21646051407265E-11  7.46995454972294E-02
 cg2d: Sum(rhs),rhsMax =  -4.31018554181151E-11  7.31726585824826E-02
 cg2d: Sum(rhs),rhsMax =  -4.40858460848403E-11  7.16160981576840E-02
 cg2d: Sum(rhs),rhsMax =  -4.51412240920490E-11  7.00301451398482E-02
 cg2d: Sum(rhs),rhsMax =  -4.62461180461560E-11  6.84152624492943E-02
 cg2d: Sum(rhs),rhsMax =  -4.74470462918930E-11  6.67721263241280E-02
 cg2d: Sum(rhs),rhsMax =  -4.87098139601017E-11  6.51016176044276E-02
 cg2d: Sum(rhs),rhsMax =  -5.00601782249532E-11  6.34047961558863E-02
 cg2d: Sum(rhs),rhsMax =  -5.15297804426496E-11  6.16828721744484E-02
 cg2d: Sum(rhs),rhsMax =  -5.31238386614064E-11  5.99371786381307E-02
 cg2d: Sum(rhs),rhsMax =  -5.47880629753195E-11  5.81691755571670E-02
 cg2d: Sum(rhs),rhsMax =  -5.66119373601737E-11  5.63802856183081E-02
 cg2d: Sum(rhs),rhsMax =  -5.85723691770568E-11  5.45720356765008E-02
 cg2d: Sum(rhs),rhsMax =  -6.06823480353569E-11  5.27459634931331E-02
 cg2d: Sum(rhs),rhsMax =  -6.29244434335874E-11  5.09035572873270E-02
 cg2d: Sum(rhs),rhsMax =  -6.54192255922226E-11  4.90462324949070E-02
 cg2d: Sum(rhs),rhsMax =  -6.81273926161907E-11  4.71752887355728E-02
 cg2d: Sum(rhs),rhsMax =  -7.10445036133933E-11  4.52918597923342E-02
 cg2d: Sum(rhs),rhsMax =  -7.42139683040932E-11  4.33968655498028E-02
 cg2d: Sum(rhs),rhsMax =  -7.76695374682390E-11  4.14909718227702E-02
 cg2d: Sum(rhs),rhsMax =  -8.14603939858216E-11  3.95745648031723E-02
 cg2d: Sum(rhs),rhsMax =  -8.56812398808415E-11  3.76477345440926E-02
 cg2d: Sum(rhs),rhsMax =  -9.03945807095852E-11  3.57102760333555E-02
 cg2d: Sum(rhs),rhsMax =  -9.58122470251510E-11  3.37617593719980E-02
 cg2d: Sum(rhs),rhsMax =  -1.01786690187566E-10  3.18014524686523E-02
 cg2d: Sum(rhs),rhsMax =  -1.08507147711379E-10  2.98284870219520E-02
 cg2d: Sum(rhs),rhsMax =  -1.16369358593715E-10  2.78419524218932E-02
 cg2d: Sum(rhs),rhsMax =  -1.25418730956284E-10  2.58410194924727E-02
 cg2d: Sum(rhs),rhsMax =  -1.17799825449794E-10  2.75300707744942E-02
 cg2d: Sum(rhs),rhsMax =  -1.07464454002226E-10  3.01903789789475E-02
 cg2d: Sum(rhs),rhsMax =  -9.85393155961134E-11  3.29308917650314E-02
 cg2d: Sum(rhs),rhsMax =  -9.08731423443498E-11  3.57297588270718E-02
 cg2d: Sum(rhs),rhsMax =  -8.42028946568263E-11  3.85790330238479E-02
 cg2d: Sum(rhs),rhsMax =  -7.83111631097455E-11  4.15115798931733E-02
 cg2d: Sum(rhs),rhsMax =  -7.30483173949636E-11  4.44927265224482E-02
 cg2d: Sum(rhs),rhsMax =  -6.84842738074565E-11  4.75302093085944E-02
 cg2d: Sum(rhs),rhsMax =  -6.43155528834427E-11  5.06735577671978E-02
 cg2d: Sum(rhs),rhsMax =  -6.05439032241861E-11  5.39207700468223E-02
 cg2d: Sum(rhs),rhsMax =  -5.71869773757783E-11  5.71708803345970E-02
 cg2d: Sum(rhs),rhsMax =  -5.41834355161086E-11  6.04217558239650E-02
 cg2d: Sum(rhs),rhsMax =  -5.14854825439670E-11  6.36711212176917E-02
 cg2d: Sum(rhs),rhsMax =  -4.90802953834191E-11  6.69165919026075E-02
 cg2d: Sum(rhs),rhsMax =  -4.68752259230598E-11  7.01557156204305E-02
 cg2d: Sum(rhs),rhsMax =  -4.48847070622094E-11  7.33860206410699E-02
 cg2d: Sum(rhs),rhsMax =  -4.30850910504432E-11  7.66050682258518E-02
 cg2d: Sum(rhs),rhsMax =  -4.14376311042020E-11  7.98105070413331E-02
 cg2d: Sum(rhs),rhsMax =  -3.98889810071523E-11  8.30001271303911E-02
 cg2d: Sum(rhs),rhsMax =  -3.84853260371187E-11  8.61719110341538E-02
 cg2d: Sum(rhs),rhsMax =  -3.71803698939743E-11  8.93240797775997E-02
 cg2d: Sum(rhs),rhsMax =  -3.59861029863850E-11  9.24551314811095E-02
 cg2d: Sum(rhs),rhsMax =  -3.48373552228054E-11  9.55638705647696E-02
 cg2d: Sum(rhs),rhsMax =  -3.37971872710341E-11  9.86494257849971E-02
 cg2d: Sum(rhs),rhsMax =  -3.28309601727028E-11  1.01711255715180E-01
 cg2d: Sum(rhs),rhsMax =  -3.20095061567827E-11  1.04749140762628E-01
 cg2d: Sum(rhs),rhsMax =  -3.12422310244642E-11  1.07763161410584E-01
 cg2d: Sum(rhs),rhsMax =  -3.03754799091394E-11  1.10753663019495E-01
 cg2d: Sum(rhs),rhsMax =  -2.96360713747390E-11  1.13721208241642E-01
 cg2d: Sum(rhs),rhsMax =  -2.89643864448408E-11  1.16666518829708E-01
 cg2d: Sum(rhs),rhsMax =  -2.83316703431069E-11  1.19590409291188E-01
 cg2d: Sum(rhs),rhsMax =  -2.77244893709394E-11  1.22493715397693E-01
 cg2d: Sum(rhs),rhsMax =  -2.71521694017451E-11  1.25377220949248E-01
 cg2d: Sum(rhs),rhsMax =  -2.66120459002650E-11  1.28241586350060E-01
 cg2d: Sum(rhs),rhsMax =  -2.60946819707897E-11  1.31087282534910E-01
 cg2d: Sum(rhs),rhsMax =  -2.55816479111104E-11  1.33914533480358E-01
 cg2d: Sum(rhs),rhsMax =  -2.50823806169365E-11  1.36723270029261E-01
 cg2d: Sum(rhs),rhsMax =  -2.46477283027957E-11  1.39513097072963E-01
 cg2d: Sum(rhs),rhsMax =  -2.42428299657149E-11  1.42283275328378E-01
 cg2d: Sum(rhs),rhsMax =  -2.38371544725169E-11  1.45032718081754E-01
 cg2d: Sum(rhs),rhsMax =  -2.34515740160646E-11  1.47760002415357E-01
 cg2d: Sum(rhs),rhsMax =  -2.30815366819570E-11  1.50463393652168E-01
 cg2d: Sum(rhs),rhsMax =  -2.27847740674747E-11  1.53140881098729E-01
 cg2d: Sum(rhs),rhsMax =  -2.24382734614892E-11  1.55790222684151E-01
 cg2d: Sum(rhs),rhsMax =  -2.21604956607280E-11  1.58408995791249E-01
 cg2d: Sum(rhs),rhsMax =  -2.18763895887264E-11  1.60994651478327E-01
 cg2d: Sum(rhs),rhsMax =  -2.15805151526638E-11  1.63544569364365E-01
 cg2d: Sum(rhs),rhsMax =  -2.12895256979095E-11  1.66056110679981E-01
 cg2d: Sum(rhs),rhsMax =  -2.10244044396291E-11  1.68526667336758E-01
 cg2d: Sum(rhs),rhsMax =  -2.08221218045423E-11  1.70953705297679E-01
 cg2d: Sum(rhs),rhsMax =  -2.05890859916735E-11  1.73334801003613E-01
 cg2d: Sum(rhs),rhsMax =  -2.03370653650836E-11  1.75667670083223E-01
 cg2d: Sum(rhs),rhsMax =  -2.01375582875585E-11  1.77950188012449E-01
 cg2d: Sum(rhs),rhsMax =  -2.00007788109247E-11  1.80180402815793E-01
 cg2d: Sum(rhs),rhsMax =  -1.99364968977989E-11  1.82356540211635E-01
 cg2d: Sum(rhs),rhsMax =  -1.98281391305954E-11  1.84477001894712E-01
 cg2d: Sum(rhs),rhsMax =  -1.97234450993733E-11  1.86540357878561E-01
 cg2d: Sum(rhs),rhsMax =  -1.96203053803856E-11  1.88545333995654E-01
 cg2d: Sum(rhs),rhsMax =  -1.95110594347625E-11  1.90490795776125E-01
 cg2d: Sum(rhs),rhsMax =  -1.94119165186635E-11  1.92375730004414E-01
 cg2d: Sum(rhs),rhsMax =  -1.93013383054108E-11  1.94199225284228E-01
 cg2d: Sum(rhs),rhsMax =  -1.92356131023530E-11  1.95960452970029E-01
 cg2d: Sum(rhs),rhsMax =  -1.91396898330254E-11  1.97658649759336E-01
 cg2d: Sum(rhs),rhsMax =  -1.90520932363825E-11  1.99293103125199E-01
 cg2d: Sum(rhs),rhsMax =  -1.89503968073268E-11  2.00863140584858E-01
 cg2d: Sum(rhs),rhsMax =  -1.88753457308621E-11  2.02368123555322E-01
 cg2d: Sum(rhs),rhsMax =  -1.87981852306507E-11  2.03807446173496E-01
 cg2d: Sum(rhs),rhsMax =  -1.87002635598787E-11  2.05180539081591E-01
 cg2d: Sum(rhs),rhsMax =  -1.86423099179933E-11  2.06486877740665E-01
 cg2d: Sum(rhs),rhsMax =  -1.86158866100072E-11  2.07725994391064E-01
 cg2d: Sum(rhs),rhsMax =  -1.85708115552075E-11  2.08897492412290E-01
 cg2d: Sum(rhs),rhsMax =  -1.83895121352862E-11  2.10001061350976E-01
 cg2d: Sum(rhs),rhsMax =  -1.82063253362230E-11  2.11036490897356E-01
 cg2d: Sum(rhs),rhsMax =  -1.80566672725035E-11  2.12003681959530E-01
 cg2d: Sum(rhs),rhsMax =  -1.79085635210186E-11  2.12902653118148E-01
 cg2d: Sum(rhs),rhsMax =  -1.79133374800244E-11  2.13733541063785E-01
 cg2d: Sum(rhs),rhsMax =  -1.78919101756492E-11  2.14496594098086E-01
 cg2d: Sum(rhs),rhsMax =  -1.78903558634147E-11  2.15192158378933E-01
 cg2d: Sum(rhs),rhsMax =  -1.79450898585287E-11  2.15820657254614E-01
 cg2d: Sum(rhs),rhsMax =  -1.79773973485453E-11  2.16382564697099E-01
 cg2d: Sum(rhs),rhsMax =  -1.79801729061069E-11  2.16878374444027E-01
 cg2d: Sum(rhs),rhsMax =  -1.80385706372022E-11  2.17308566947280E-01
 cg2d: Sum(rhs),rhsMax =  -1.80300219199125E-11  2.17673576496567E-01
 cg2d: Sum(rhs),rhsMax =  -1.79829484636684E-11  2.17973760934331E-01
 cg2d: Sum(rhs),rhsMax =  -1.78845827036866E-11  2.18209376338400E-01
 cg2d: Sum(rhs),rhsMax =  -1.78431713848681E-11  2.18380559003619E-01
 cg2d: Sum(rhs),rhsMax =  -1.78127512739934E-11  2.18487316046431E-01
 cg2d: Sum(rhs),rhsMax =  -1.78417280949361E-11  2.18529525632839E-01
 cg2d: Sum(rhs),rhsMax =  -1.78626002877991E-11  2.18506947178712E-01
 cg2d: Sum(rhs),rhsMax =  -1.78393966265844E-11  2.18419241199519E-01
 cg2d: Sum(rhs),rhsMax =  -1.79070092087841E-11  2.18265997842401E-01
 cg2d: Sum(rhs),rhsMax =  -1.79519732412814E-11  2.18046772644873E-01
 cg2d: Sum(rhs),rhsMax =  -1.80487846890287E-11  2.17761127330078E-01
 cg2d: Sum(rhs),rhsMax =  -1.81280546129869E-11  2.17408673297005E-01
 cg2d: Sum(rhs),rhsMax =  -1.81062942417043E-11  2.16989115421705E-01
 cg2d: Sum(rhs),rhsMax =  -1.80724324394532E-11  2.16502293528152E-01
 cg2d: Sum(rhs),rhsMax =  -1.80067072363954E-11  2.15948218941118E-01
 cg2d: Sum(rhs),rhsMax =  -1.79984915860132E-11  2.15327103720579E-01
 cg2d: Sum(rhs),rhsMax =  -1.80272463623510E-11  2.14639380512616E-01
 cg2d: Sum(rhs),rhsMax =  -1.80695458595892E-11  2.13885711282787E-01
 cg2d: Sum(rhs),rhsMax =  -1.81440418245415E-11  2.13066983848686E-01
 cg2d: Sum(rhs),rhsMax =  -1.81775705598852E-11  2.12184295716606E-01
 cg2d: Sum(rhs),rhsMax =  -1.82068804477353E-11  2.11238925410571E-01
 cg2d: Sum(rhs),rhsMax =  -1.82863724162985E-11  2.10232292214419E-01
 cg2d: Sum(rhs),rhsMax =  -1.83459913927209E-11  2.09165906095748E-01
 cg2d: Sum(rhs),rhsMax =  -1.84084969490073E-11  2.08041310489800E-01
 cg2d: Sum(rhs),rhsMax =  -1.84892101628975E-11  2.06860020942808E-01
 cg2d: Sum(rhs),rhsMax =  -1.85588211465415E-11  2.05623463362704E-01
 cg2d: Sum(rhs),rhsMax =  -1.86236581711796E-11  2.04332915944342E-01
 cg2d: Sum(rhs),rhsMax =  -1.86775039878739E-11  2.02989458924670E-01
 cg2d: Sum(rhs),rhsMax =  -1.87357906966668E-11  2.01593935957963E-01
 cg2d: Sum(rhs),rhsMax =  -1.87905246917808E-11  2.00146930751351E-01
 cg2d: Sum(rhs),rhsMax =  -1.88316029436919E-11  1.98648761285974E-01
 cg2d: Sum(rhs),rhsMax =  -1.88900006747872E-11  1.97099492921334E-01
 cg2d: Sum(rhs),rhsMax =  -1.90042426240211E-11  1.95498970659573E-01
 cg2d: Sum(rhs),rhsMax =  -1.90850668602138E-11  1.93846868963595E-01
 cg2d: Sum(rhs),rhsMax =  -1.92190707792861E-11  1.92142756767916E-01
 cg2d: Sum(rhs),rhsMax =  -1.92776905549863E-11  1.90386173772071E-01
 cg2d: Sum(rhs),rhsMax =  -1.94908533757143E-11  1.88576713151474E-01
 cg2d: Sum(rhs),rhsMax =  -1.95873317565542E-11  1.86714105143149E-01
 cg2d: Sum(rhs),rhsMax =  -1.96620497661115E-11  1.84798295688368E-01
 cg2d: Sum(rhs),rhsMax =  -1.97706295779199E-11  1.82829514520825E-01
 cg2d: Sum(rhs),rhsMax =  -1.99776861720125E-11  1.80808327737686E-01
 cg2d: Sum(rhs),rhsMax =  -2.01632044394273E-11  1.78735670934349E-01
 cg2d: Sum(rhs),rhsMax =  -2.03930206055247E-11  1.76612860379914E-01
 cg2d: Sum(rhs),rhsMax =  -2.05904182593031E-11  1.74441581132374E-01
 cg2d: Sum(rhs),rhsMax =  -2.08288941649926E-11  1.72223852846799E-01
 cg2d: Sum(rhs),rhsMax =  -2.10759187879717E-11  1.69961975581200E-01
 cg2d: Sum(rhs),rhsMax =  -2.13002948612484E-11  1.67658459284728E-01
 cg2d: Sum(rhs),rhsMax =  -2.15780726620096E-11  1.65315941790872E-01
 cg2d: Sum(rhs),rhsMax =  -2.18566276188881E-11  1.62937100894398E-01
 cg2d: Sum(rhs),rhsMax =  -2.21498375196916E-11  1.60524566399016E-01
 cg2d: Sum(rhs),rhsMax =  -2.24110729973859E-11  1.58080837858914E-01
 cg2d: Sum(rhs),rhsMax =  -2.27262653140770E-11  1.55608213131136E-01
 cg2d: Sum(rhs),rhsMax =  -2.30208074825100E-11  1.53108731872394E-01
 cg2d: Sum(rhs),rhsMax =  -2.33509878100335E-11  1.50584136846317E-01
 cg2d: Sum(rhs),rhsMax =  -2.36852759627482E-11  1.48035854331525E-01
 cg2d: Sum(rhs),rhsMax =  -2.40204522938825E-11  1.45464993998507E-01
 cg2d: Sum(rhs),rhsMax =  -2.43870479366137E-11  1.42872366499898E-01
 cg2d: Sum(rhs),rhsMax =  -2.47908360506699E-11  1.40258516154211E-01
 cg2d: Sum(rhs),rhsMax =  -2.51719756150237E-11  1.37623765370294E-01
 cg2d: Sum(rhs),rhsMax =  -2.56029641931832E-11  1.34968266747585E-01
 cg2d: Sum(rhs),rhsMax =  -2.60386157080461E-11  1.32292058702878E-01
 cg2d: Sum(rhs),rhsMax =  -2.65201194338260E-11  1.29595120665260E-01
 cg2d: Sum(rhs),rhsMax =  -2.70105049438030E-11  1.26877424386778E-01
 cg2d: Sum(rhs),rhsMax =  -2.74995581861504E-11  1.24138978660675E-01
 cg2d: Sum(rhs),rhsMax =  -2.80573342337220E-11  1.21379865628939E-01
 cg2d: Sum(rhs),rhsMax =  -2.86222157086513E-11  1.18600267790743E-01
 cg2d: Sum(rhs),rhsMax =  -2.92256219225351E-11  1.15800485700295E-01
 cg2d: Sum(rhs),rhsMax =  -2.98505664630966E-11  1.12980947081718E-01
 cg2d: Sum(rhs),rhsMax =  -3.05255820620687E-11  1.10142208631892E-01
 cg2d: Sum(rhs),rhsMax =  -3.12116998912870E-11  1.07284952136738E-01
 cg2d: Sum(rhs),rhsMax =  -3.19484438904283E-11  1.04409976437518E-01
 cg2d: Sum(rhs),rhsMax =  -3.27259330745733E-11  1.01518186834584E-01
 cg2d: Sum(rhs),rhsMax =  -3.36281003043837E-11  9.86105831662342E-02
 cg2d: Sum(rhs),rhsMax =  -3.45785067246140E-11  9.56882474175238E-02
 cg2d: Sum(rhs),rhsMax =  -3.56067952900219E-11  9.27523311673627E-02
 cg2d: Sum(rhs),rhsMax =  -3.67368357956366E-11  8.98040429777412E-02
 cg2d: Sum(rhs),rhsMax =  -3.79373199521638E-11  8.68446355222022E-02
 cg2d: Sum(rhs),rhsMax =  -3.91301990809723E-11  8.38753920690931E-02
 cg2d: Sum(rhs),rhsMax =  -4.04902777972893E-11  8.08976119685278E-02
 cg2d: Sum(rhs),rhsMax =  -4.19645984628403E-11  7.79125949737815E-02
 cg2d: Sum(rhs),rhsMax =  -4.35352864869287E-11  7.49216245429443E-02
 cg2d: Sum(rhs),rhsMax =  -4.52792248140099E-11  7.19259506403009E-02
 cg2d: Sum(rhs),rhsMax =  -4.71896410836337E-11  6.89267729288883E-02
 cg2d: Sum(rhs),rhsMax =  -4.92729190781915E-11  6.59252255576929E-02
 cg2d: Sum(rhs),rhsMax =  -5.15271714185417E-11  6.29223649564953E-02
 cg2d: Sum(rhs),rhsMax =  -5.40225086886892E-11  5.99191620662145E-02
 cg2d: Sum(rhs),rhsMax =  -5.67581259769412E-11  5.69165002844653E-02
 cg2d: Sum(rhs),rhsMax =  -5.97894234122265E-11  5.39151800633724E-02
 cg2d: Sum(rhs),rhsMax =  -6.32462970884262E-11  5.09159305917028E-02
 cg2d: Sum(rhs),rhsMax =  -6.71093458581851E-11  4.79194284009370E-02
 cg2d: Sum(rhs),rhsMax =  -7.14767273146677E-11  4.49263219718017E-02
 cg2d: Sum(rhs),rhsMax =  -7.65371099831214E-11  4.19372609523947E-02
 cg2d: Sum(rhs),rhsMax =  -8.24104708085915E-11  3.89529279549742E-02
 cg2d: Sum(rhs),rhsMax =  -8.91463708407869E-11  3.59740705810875E-02
 cg2d: Sum(rhs),rhsMax =  -9.71098479407573E-11  3.30015311864676E-02
 cg2d: Sum(rhs),rhsMax =  -1.06554154388760E-10  3.00597513549168E-02
 cg2d: Sum(rhs),rhsMax =  -9.99741955887146E-11  3.20280957551306E-02
 cg2d: Sum(rhs),rhsMax =  -9.40190703069277E-11  3.40282991985553E-02
 cg2d: Sum(rhs),rhsMax =  -8.87188655873672E-11  3.60317988969314E-02
 cg2d: Sum(rhs),rhsMax =  -8.40210678809683E-11  3.80181776428859E-02
 cg2d: Sum(rhs),rhsMax =  -7.97996113632848E-11  3.99860423471936E-02
 cg2d: Sum(rhs),rhsMax =  -7.59814433592965E-11  4.19341244931724E-02
 cg2d: Sum(rhs),rhsMax =  -7.25275395296876E-11  4.38613025141051E-02
 cg2d: Sum(rhs),rhsMax =  -6.93822777009245E-11  4.57666079979943E-02
 cg2d: Sum(rhs),rhsMax =  -6.65537625010870E-11  4.76492086007952E-02
 cg2d: Sum(rhs),rhsMax =  -6.39386321665825E-11  4.95083656102871E-02
 cg2d: Sum(rhs),rhsMax =  -6.15517636859408E-11  5.13434424133721E-02
 cg2d: Sum(rhs),rhsMax =  -5.93500804058067E-11  5.31538787959177E-02
 cg2d: Sum(rhs),rhsMax =  -5.73875391651768E-11  5.49391484467479E-02
 cg2d: Sum(rhs),rhsMax =  -5.55868684415373E-11  5.66986729840818E-02
 cg2d: Sum(rhs),rhsMax =  -5.38719069353988E-11  5.84318564681517E-02
 cg2d: Sum(rhs),rhsMax =  -5.22780707612469E-11  6.01380333292607E-02
 cg2d: Sum(rhs),rhsMax =  -5.07657249571025E-11  6.18164629885546E-02
 cg2d: Sum(rhs),rhsMax =  -4.94325691491326E-11  6.34663454654169E-02
 cg2d: Sum(rhs),rhsMax =  -4.80997464080701E-11  6.50868264480492E-02
 cg2d: Sum(rhs),rhsMax =  -4.68987071400306E-11  6.66770744259679E-02
 cg2d: Sum(rhs),rhsMax =  -4.58104665312931E-11  6.82362727236184E-02
 cg2d: Sum(rhs),rhsMax =  -4.47545334125721E-11  6.97636394334117E-02
 cg2d: Sum(rhs),rhsMax =  -4.37608838055326E-11  7.12584375730901E-02
 cg2d: Sum(rhs),rhsMax =  -4.28235225058415E-11  7.27200339169167E-02
 cg2d: Sum(rhs),rhsMax =  -4.19450030264557E-11  7.41478767125880E-02
 cg2d: Sum(rhs),rhsMax =  -4.11505274300339E-11  7.55414792820978E-02
 cg2d: Sum(rhs),rhsMax =  -4.03451716479708E-11  7.69004474315176E-02
 cg2d: Sum(rhs),rhsMax =  -3.96188637452610E-11  7.82244247652483E-02
 cg2d: Sum(rhs),rhsMax =  -3.89498433506219E-11  7.95130965016616E-02
 cg2d: Sum(rhs),rhsMax =  -3.82969211898398E-11  8.07661698194731E-02
 cg2d: Sum(rhs),rhsMax =  -3.76692010917168E-11  8.19833453058833E-02
 cg2d: Sum(rhs),rhsMax =  -3.70503627777907E-11  8.31643253251131E-02
 cg2d: Sum(rhs),rhsMax =  -3.65117935885451E-11  8.43087992580980E-02
 cg2d: Sum(rhs),rhsMax =  -3.59756668899536E-11  8.54164277195443E-02
 cg2d: Sum(rhs),rhsMax =  -3.54744011943353E-11  8.64868309865147E-02
 cg2d: Sum(rhs),rhsMax =  -3.50375284341453E-11  8.75195553802647E-02
 cg2d: Sum(rhs),rhsMax =  -3.45653505817722E-11  8.85140937599309E-02
 cg2d: Sum(rhs),rhsMax =  -3.41365824496620E-11  8.94698881893854E-02
 cg2d: Sum(rhs),rhsMax =  -3.37574412867525E-11  9.03863170532361E-02
 cg2d: Sum(rhs),rhsMax =  -3.33697514065534E-11  9.12626836442434E-02
 cg2d: Sum(rhs),rhsMax =  -3.30483418409244E-11  9.20982143690657E-02
 cg2d: Sum(rhs),rhsMax =  -3.26755289492553E-11  9.28920677297477E-02
 cg2d: Sum(rhs),rhsMax =  -3.24034132859197E-11  9.36433544169089E-02
 cg2d: Sum(rhs),rhsMax =  -3.21160875671467E-11  9.43511643304746E-02
 cg2d: Sum(rhs),rhsMax =  -3.18755022377104E-11  9.50146013977622E-02
 cg2d: Sum(rhs),rhsMax =  -3.16483506068721E-11  9.56328242886651E-02
 cg2d: Sum(rhs),rhsMax =  -3.14546166890750E-11  9.62050917160585E-02
 cg2d: Sum(rhs),rhsMax =  -3.13000736440472E-11  9.67303951642549E-02
 cg2d: Sum(rhs),rhsMax =  -3.10791392621468E-11  9.72088250788331E-02
 cg2d: Sum(rhs),rhsMax =  -3.08713055119370E-11  9.76403124539697E-02
 cg2d: Sum(rhs),rhsMax =  -3.07521785813947E-11  9.80247886145988E-02
 cg2d: Sum(rhs),rhsMax =  -3.06464853494504E-11  9.83623724189469E-02
 cg2d: Sum(rhs),rhsMax =  -3.04973823972432E-11  9.86534309310371E-02
 cg2d: Sum(rhs),rhsMax =  -3.03840286264290E-11  9.88985406879400E-02
 cg2d: Sum(rhs),rhsMax =  -3.02919911376875E-11  9.90984122616155E-02
 cg2d: Sum(rhs),rhsMax =  -3.02351477188267E-11  9.92538155520602E-02
 cg2d: Sum(rhs),rhsMax =  -3.01800806568053E-11  9.93770565067017E-02
 cg2d: Sum(rhs),rhsMax =  -3.01231262156421E-11  9.94694305031077E-02
 cg2d: Sum(rhs),rhsMax =  -3.01249025724815E-11  9.95173455752158E-02
 cg2d: Sum(rhs),rhsMax =  -3.00731661795339E-11  9.95212801861467E-02
 cg2d: Sum(rhs),rhsMax =  -3.01122460300007E-11  9.94815640697627E-02
 cg2d: Sum(rhs),rhsMax =  -3.01676461589295E-11  9.93983861325987E-02
 cg2d: Sum(rhs),rhsMax =  -3.02143865482662E-11  9.92717869815617E-02
 cg2d: Sum(rhs),rhsMax =  -3.02864400225644E-11  9.91016675670455E-02
 cg2d: Sum(rhs),rhsMax =  -3.03348457464381E-11  9.88878159118360E-02
 cg2d: Sum(rhs),rhsMax =  -3.04467562273203E-11  9.86299198705340E-02
 cg2d: Sum(rhs),rhsMax =  -3.05120373411683E-11  9.83276017800854E-02
 cg2d: Sum(rhs),rhsMax =  -3.06937808502994E-11  9.79804784638062E-02
 cg2d: Sum(rhs),rhsMax =  -3.08066905319038E-11  9.75882113212363E-02
 cg2d: Sum(rhs),rhsMax =  -3.10225178878909E-11  9.71505506749474E-02
 cg2d: Sum(rhs),rhsMax =  -3.11916048545413E-11  9.66673697625508E-02
 cg2d: Sum(rhs),rhsMax =  -3.13763459658389E-11  9.61386863047673E-02
 cg2d: Sum(rhs),rhsMax =  -3.17036397134984E-11  9.55646709995617E-02
 cg2d: Sum(rhs),rhsMax =  -3.19981818819315E-11  9.49456525910205E-02
 cg2d: Sum(rhs),rhsMax =  -3.23313598116215E-11  9.42821101716430E-02
 cg2d: Sum(rhs),rhsMax =  -3.27767812891011E-11  9.35746544944187E-02
 cg2d: Sum(rhs),rhsMax =  -3.31970007039217E-11  9.28240053833319E-02
 cg2d: Sum(rhs),rhsMax =  -3.36174421633473E-11  9.20309663324071E-02
 cg2d: Sum(rhs),rhsMax =  -3.39952510586272E-11  9.11963988886406E-02
 cg2d: Sum(rhs),rhsMax =  -3.43580719430747E-11  9.03212057230729E-02
 cg2d: Sum(rhs),rhsMax =  -3.47828432722963E-11  8.94063102798209E-02
 cg2d: Sum(rhs),rhsMax =  -3.52339268872015E-11  8.84526340784396E-02
 cg2d: Sum(rhs),rhsMax =  -3.56930041078840E-11  8.74610835252815E-02
 cg2d: Sum(rhs),rhsMax =  -3.61385366076661E-11  8.64496894723735E-02
 cg2d: Sum(rhs),rhsMax =  -3.66605634738448E-11  8.54118807377860E-02
 cg2d: Sum(rhs),rhsMax =  -3.71594977011114E-11  8.43403538125614E-02
 cg2d: Sum(rhs),rhsMax =  -3.77247122429480E-11  8.32355241409865E-02
 cg2d: Sum(rhs),rhsMax =  -3.82713860602735E-11  8.20985063418777E-02
 cg2d: Sum(rhs),rhsMax =  -3.89026588720753E-11  8.09298643279259E-02
 cg2d: Sum(rhs),rhsMax =  -3.95977695077931E-11  7.97298495527301E-02
 cg2d: Sum(rhs),rhsMax =  -4.03194144737995E-11  7.84985988200154E-02
 cg2d: Sum(rhs),rhsMax =  -4.10704803499584E-11  7.72361888835588E-02
 cg2d: Sum(rhs),rhsMax =  -4.18352019693202E-11  7.59426196687177E-02
 cg2d: Sum(rhs),rhsMax =  -4.26146895549095E-11  7.46177878705380E-02
 cg2d: Sum(rhs),rhsMax =  -4.34987601494186E-11  7.32615275877570E-02
 cg2d: Sum(rhs),rhsMax =  -4.44224657059067E-11  7.18736404506861E-02
 cg2d: Sum(rhs),rhsMax =  -4.54779547354178E-11  7.04539617788792E-02
 cg2d: Sum(rhs),rhsMax =  -4.64805971489568E-11  6.90496744445598E-02
 cg2d: Sum(rhs),rhsMax =  -4.75046668668710E-11  6.76201866640551E-02
 cg2d: Sum(rhs),rhsMax =  -4.86261031440449E-11  6.61589502301677E-02
 cg2d: Sum(rhs),rhsMax =  -4.97825114464945E-11  6.46666440744027E-02
 cg2d: Sum(rhs),rhsMax =  -5.10671505082883E-11  6.31442004891598E-02
 cg2d: Sum(rhs),rhsMax =  -5.23867615953577E-11  6.15927933590781E-02
 cg2d: Sum(rhs),rhsMax =  -5.38438182928758E-11  6.00138147765685E-02
 cg2d: Sum(rhs),rhsMax =  -5.53568302308349E-11  5.84088328431793E-02
 cg2d: Sum(rhs),rhsMax =  -5.69959635043915E-11  5.67795375882840E-02
 cg2d: Sum(rhs),rhsMax =  -5.88495918663057E-11  5.51276889450483E-02
 cg2d: Sum(rhs),rhsMax =  -6.07853767320421E-11  5.34550605235126E-02
 cg2d: Sum(rhs),rhsMax =  -6.28364027477346E-11  5.17633828873985E-02
 cg2d: Sum(rhs),rhsMax =  -6.50572928861948E-11  5.00542895248710E-02
 cg2d: Sum(rhs),rhsMax =  -6.74834632619081E-11  4.83292840857346E-02
 cg2d: Sum(rhs),rhsMax =  -7.01073643583072E-11  4.65897088035314E-02
 cg2d: Sum(rhs),rhsMax =  -7.29268867516453E-11  4.48367263672966E-02
 cg2d: Sum(rhs),rhsMax =  -7.60047580428136E-11  4.30713039505703E-02
 cg2d: Sum(rhs),rhsMax =  -7.93501930829166E-11  4.12942234768271E-02
 cg2d: Sum(rhs),rhsMax =  -8.30261415174505E-11  3.95060836571850E-02
 cg2d: Sum(rhs),rhsMax =  -8.70271632535946E-11  3.77073314865961E-02
 cg2d: Sum(rhs),rhsMax =  -9.14458508916027E-11  3.58982767527664E-02
 cg2d: Sum(rhs),rhsMax =  -9.64021085181344E-11  3.40791324664133E-02
 cg2d: Sum(rhs),rhsMax =  -1.01912034367047E-10  3.22500383714628E-02
 cg2d: Sum(rhs),rhsMax =  -1.08133835219348E-10  3.04111131801371E-02
 cg2d: Sum(rhs),rhsMax =  -1.15201514994112E-10  2.85624603745743E-02
 cg2d: Sum(rhs),rhsMax =  -1.20203125231200E-10  2.73945516516547E-02
 cg2d: Sum(rhs),rhsMax =  -1.21181786827407E-10  2.71903471858913E-02
 cg2d: Sum(rhs),rhsMax =  -1.14443454712898E-10  2.88120584879283E-02
 cg2d: Sum(rhs),rhsMax =  -1.05488867641057E-10  3.12798893032061E-02
 cg2d: Sum(rhs),rhsMax =  -9.76408676134355E-11  3.38034401925215E-02
 cg2d: Sum(rhs),rhsMax =  -9.07437796779376E-11  3.63838545170567E-02
 cg2d: Sum(rhs),rhsMax =  -8.47328179842677E-11  3.89993004838813E-02
 cg2d: Sum(rhs),rhsMax =  -7.93016069478014E-11  4.16777304090177E-02
 cg2d: Sum(rhs),rhsMax =  -7.44543593445002E-11  4.44083260595717E-02
 cg2d: Sum(rhs),rhsMax =  -7.00819680066189E-11  4.71995733477577E-02
 cg2d: Sum(rhs),rhsMax =  -6.60486942916094E-11  5.01596769784655E-02
 cg2d: Sum(rhs),rhsMax =  -6.24030827012234E-11  5.31335731610433E-02
 cg2d: Sum(rhs),rhsMax =  -5.91416360329333E-11  5.61177891137538E-02
 cg2d: Sum(rhs),rhsMax =  -5.62423441152760E-11  5.91101936023540E-02
 cg2d: Sum(rhs),rhsMax =  -5.36004574058779E-11  6.21084699549872E-02
 cg2d: Sum(rhs),rhsMax =  -5.11934938884906E-11  6.51101612724200E-02
 cg2d: Sum(rhs),rhsMax =  -4.89698837036201E-11  6.81127197220688E-02
 cg2d: Sum(rhs),rhsMax =  -4.69609906517121E-11  7.11135571560443E-02
 cg2d: Sum(rhs),rhsMax =  -4.51044201987827E-11  7.41100944090937E-02
 cg2d: Sum(rhs),rhsMax =  -4.34208224930899E-11  7.70998069359718E-02
 cg2d: Sum(rhs),rhsMax =  -4.18290402315336E-11  8.00802648817300E-02
 cg2d: Sum(rhs),rhsMax =  -4.03908018142829E-11  8.30491661948469E-02
 cg2d: Sum(rhs),rhsMax =  -3.90463772426131E-11  8.60043619439343E-02
 cg2d: Sum(rhs),rhsMax =  -3.78104214604491E-11  8.89438735155625E-02
 cg2d: Sum(rhs),rhsMax =  -3.66410790597627E-11  9.18659019523477E-02
 cg2d: Sum(rhs),rhsMax =  -3.55705465082679E-11  9.47688299689637E-02
 cg2d: Sum(rhs),rhsMax =  -3.45629080911181E-11  9.76512175935677E-02
 cg2d: Sum(rhs),rhsMax =  -3.36737304706958E-11  1.00511792580325E-01
 cg2d: Sum(rhs),rhsMax =  -3.27914362330262E-11  1.03349436864639E-01
 cg2d: Sum(rhs),rhsMax =  -3.19867465847778E-11  1.06163170367859E-01
 cg2d: Sum(rhs),rhsMax =  -3.12412318237421E-11  1.08952133425697E-01
 cg2d: Sum(rhs),rhsMax =  -3.05135916534027E-11  1.11715569006027E-01
 cg2d: Sum(rhs),rhsMax =  -2.98512325969114E-11  1.14452805708035E-01
 cg2d: Sum(rhs),rhsMax =  -2.91991986145490E-11  1.17163242336443E-01
 cg2d: Sum(rhs),rhsMax =  -2.86198842402996E-11  1.19846334606275E-01
 cg2d: Sum(rhs),rhsMax =  -2.80698797539003E-11  1.22501584271514E-01
 cg2d: Sum(rhs),rhsMax =  -2.75068856581129E-11  1.25128530701579E-01
 cg2d: Sum(rhs),rhsMax =  -2.70012900926986E-11  1.27726744661683E-01
 cg2d: Sum(rhs),rhsMax =  -2.65167887647522E-11  1.30295823806306E-01
 cg2d: Sum(rhs),rhsMax =  -2.60614863023534E-11  1.32835389193581E-01
 cg2d: Sum(rhs),rhsMax =  -2.56141774457319E-11  1.35345081990707E-01
 cg2d: Sum(rhs),rhsMax =  -2.52103893316757E-11  1.37824559483835E-01
 cg2d: Sum(rhs),rhsMax =  -2.48274734104825E-11  1.40273489568457E-01
 cg2d: Sum(rhs),rhsMax =  -2.44778641800281E-11  1.42691543005630E-01
 cg2d: Sum(rhs),rhsMax =  -2.40825137609590E-11  1.45078382986498E-01
 cg2d: Sum(rhs),rhsMax =  -2.37468933406149E-11  1.47433651869460E-01
 cg2d: Sum(rhs),rhsMax =  -2.34079422511968E-11  1.49756955333387E-01
 cg2d: Sum(rhs),rhsMax =  -2.31311636511577E-11  1.52047844577562E-01
 cg2d: Sum(rhs),rhsMax =  -2.28467245122488E-11  1.54305797572901E-01
 cg2d: Sum(rhs),rhsMax =  -2.25583995927536E-11  1.56530200677116E-01
 cg2d: Sum(rhs),rhsMax =  -2.22667440041846E-11  1.58720332116256E-01
 cg2d: Sum(rhs),rhsMax =  -2.19981810545278E-11  1.60875348894189E-01
 cg2d: Sum(rhs),rhsMax =  -2.17593720819309E-11  1.62994278573276E-01
 cg2d: Sum(rhs),rhsMax =  -2.15263362690621E-11  1.65076017108155E-01
 cg2d: Sum(rhs),rhsMax =  -2.12939665900080E-11  1.67119333502129E-01
 cg2d: Sum(rhs),rhsMax =  -2.10875761297302E-11  1.69122881565963E-01
 cg2d: Sum(rhs),rhsMax =  -2.08795203349155E-11  1.71085218455060E-01
 cg2d: Sum(rhs),rhsMax =  -2.06760164545017E-11  1.73004829087524E-01
 cg2d: Sum(rhs),rhsMax =  -2.04736227971125E-11  1.74880155036166E-01
 cg2d: Sum(rhs),rhsMax =  -2.03828065536982E-11  1.76709626083928E-01
 cg2d: Sum(rhs),rhsMax =  -2.03095318340729E-11  1.78491692393914E-01
 cg2d: Sum(rhs),rhsMax =  -2.01444416703112E-11  1.80224855188188E-01
 cg2d: Sum(rhs),rhsMax =  -2.00988115039991E-11  1.81907693972471E-01
 cg2d: Sum(rhs),rhsMax =  -2.00115479742635E-11  1.83538888670700E-01
 cg2d: Sum(rhs),rhsMax =  -1.99358307639841E-11  1.85117235508981E-01
 cg2d: Sum(rhs),rhsMax =  -1.98524530148347E-11  1.86641656061914E-01
 cg2d: Sum(rhs),rhsMax =  -1.97878380348016E-11  1.88111199477657E-01
 cg2d: Sum(rhs),rhsMax =  -1.97167837612255E-11  1.89525038512073E-01
 cg2d: Sum(rhs),rhsMax =  -1.96592742085500E-11  1.90882460456096E-01
 cg2d: Sum(rhs),rhsMax =  -1.95943261616094E-11  1.92182854413726E-01
 cg2d: Sum(rhs),rhsMax =  -1.95520266643712E-11  1.93425696594472E-01
 cg2d: Sum(rhs),rhsMax =  -1.95015115167507E-11  1.94610535296254E-01
 cg2d: Sum(rhs),rhsMax =  -1.94223526150950E-11  1.95736977073316E-01
 cg2d: Sum(rhs),rhsMax =  -1.93735028020114E-11  1.96804675229796E-01
 cg2d: Sum(rhs),rhsMax =  -1.93240978774156E-11  1.97813321471301E-01
 cg2d: Sum(rhs),rhsMax =  -1.93077775989536E-11  1.98762641020061E-01
 cg2d: Sum(rhs),rhsMax =  -1.94347871129708E-11  1.99652391040115E-01
 cg2d: Sum(rhs),rhsMax =  -1.94785299001410E-11  2.00482361818909E-01
 cg2d: Sum(rhs),rhsMax =  -1.94928517771586E-11  2.01252379855727E-01
 cg2d: Sum(rhs),rhsMax =  -1.95148341930462E-11  2.01962311843816E-01
 cg2d: Sum(rhs),rhsMax =  -1.95540250658155E-11  2.02612068512375E-01
 cg2d: Sum(rhs),rhsMax =  -1.95634619615248E-11  2.03201607410255E-01
 cg2d: Sum(rhs),rhsMax =  -1.95778948608449E-11  2.03730933943590E-01
 cg2d: Sum(rhs),rhsMax =  -1.94861904390109E-11  2.04200100290253E-01
 cg2d: Sum(rhs),rhsMax =  -1.95187199736324E-11  2.04609202162418E-01
 cg2d: Sum(rhs),rhsMax =  -1.95133909031142E-11  2.04958373741408E-01
 cg2d: Sum(rhs),rhsMax =  -1.94899651972946E-11  2.05247781267349E-01
 cg2d: Sum(rhs),rhsMax =  -1.93585147911790E-11  2.05477616359569E-01
 cg2d: Sum(rhs),rhsMax =  -1.93078886212561E-11  2.05648089757800E-01
 cg2d: Sum(rhs),rhsMax =  -1.92315052771619E-11  2.05759426366908E-01
 cg2d: Sum(rhs),rhsMax =  -1.91637816726598E-11  2.05811862340261E-01
 cg2d: Sum(rhs),rhsMax =  -1.91372473423712E-11  2.05805644698418E-01
 cg2d: Sum(rhs),rhsMax =  -1.91574534014194E-11  2.05741033668427E-01
 cg2d: Sum(rhs),rhsMax =  -1.91222593315388E-11  2.05618307671555E-01
(PID.TID 0000.0001)      cg2d_init_res =   1.30970177220742E-02
(PID.TID 0000.0001)      cg2d_iters(min,last) =      -1      35
(PID.TID 0000.0001)      cg2d_last_res =   4.32470510790990E-14
(PID.TID 0000.0001) // =======================================================
(PID.TID 0000.0001) // Begin MONITOR dynamic field statistics
(PID.TID 0000.0001) // =======================================================
(PID.TID 0000.0001) %MON time_tsnumber                =                  4320
(PID.TID 0000.0001) %MON time_secondsf                =   6.4800000000000E+04
(PID.TID 0000.0001) %MON dynstat_eta_max              =   3.4437491986220E-02
(PID.TID 0000.0001) %MON dynstat_eta_min              =  -2.8642037930628E-02
(PID.TID 0000.0001) %MON dynstat_eta_mean             =   8.3634868593985E-15
(PID.TID 0000.0001) %MON dynstat_eta_sd               =   2.1582682718927E-02
(PID.TID 0000.0001) %MON dynstat_eta_del2             =   1.9757037200651E-05
(PID.TID 0000.0001) %MON dynstat_uvel_max             =   1.8390437696887E+00
(PID.TID 0000.0001) %MON dynstat_uvel_min             =  -7.7203563937528E-01
(PID.TID 0000.0001) %MON dynstat_uvel_mean            =   2.8654085739698E-01
(PID.TID 0000.0001) %MON dynstat_uvel_sd              =   1.2994125529863E-01
(PID.TID 0000.0001) %MON dynstat_uvel_del2            =   7.1128270922946E-04
(PID.TID 0000.0001) %MON dynstat_vvel_max             =   0.0000000000000E+00
(PID.TID 0000.0001) %MON dynstat_vvel_min             =   0.0000000000000E+00
(PID.TID 0000.0001) %MON dynstat_vvel_mean            =   0.0000000000000E+00
(PID.TID 0000.0001) %MON dynstat_vvel_sd              =   0.0000000000000E+00
(PID.TID 0000.0001) %MON dynstat_vvel_del2            =   0.0000000000000E+00
(PID.TID 0000.0001) %MON dynstat_wvel_max             =   3.6383636414806E-02
(PID.TID 0000.0001) %MON dynstat_wvel_min             =  -2.7783548703268E-02
(PID.TID 0000.0001) %MON dynstat_wvel_mean            =  -8.9349661876803E-21
(PID.TID 0000.0001) %MON dynstat_wvel_sd              =   2.3320543048264E-03
(PID.TID 0000.0001) %MON dynstat_wvel_del2            =   7.1646795313443E-05
(PID.TID 0000.0001) %MON dynstat_theta_max            =   1.5000000000008E+01
(PID.TID 0000.0001) %MON dynstat_theta_min            =   9.9999999999936E+00
(PID.TID 0000.0001) %MON dynstat_theta_mean           =   1.2499314151908E+01
(PID.TID 0000.0001) %MON dynstat_theta_sd             =   2.4083322163870E+00
(PID.TID 0000.0001) %MON dynstat_theta_del2           =   1.3872665405376E-03
(PID.TID 0000.0001) %MON dynstat_salt_max             =   3.5000000000000E+01
(PID.TID 0000.0001) %MON dynstat_salt_min             =   3.5000000000000E+01
(PID.TID 0000.0001) %MON dynstat_salt_mean            =   3.5000000000000E+01
(PID.TID 0000.0001) %MON dynstat_salt_sd              =   3.1974423109205E-13
(PID.TID 0000.0001) %MON dynstat_salt_del2            =   0.0000000000000E+00
(PID.TID 0000.0001) %MON dynstat_sst_max              =   1.5000000000000E+01
(PID.TID 0000.0001) %MON dynstat_sst_min              =   1.4997344614012E+01
(PID.TID 0000.0001) %MON dynstat_sst_mean             =   1.4999896288941E+01
(PID.TID 0000.0001) %MON dynstat_sst_sd               =   4.1457013756847E-04
(PID.TID 0000.0001) %MON dynstat_sst_del2             =   7.6747539901455E-06
(PID.TID 0000.0001) %MON dynstat_sss_max              =   3.5000000000000E+01
(PID.TID 0000.0001) %MON dynstat_sss_min              =   3.5000000000000E+01
(PID.TID 0000.0001) %MON dynstat_sss_mean             =   3.5000000000000E+01
(PID.TID 0000.0001) %MON dynstat_sss_sd               =   5.6843418860808E-14
(PID.TID 0000.0001) %MON dynstat_sss_del2             =   0.0000000000000E+00
(PID.TID 0000.0001) %MON forcing_qnet_max             =   0.0000000000000E+00
(PID.TID 0000.0001) %MON forcing_qnet_min             =   0.0000000000000E+00
(PID.TID 0000.0001) %MON forcing_qnet_mean            =   0.0000000000000E+00
(PID.TID 0000.0001) %MON forcing_qnet_sd              =   0.0000000000000E+00
(PID.TID 0000.0001) %MON forcing_qnet_del2            =   0.0000000000000E+00
(PID.TID 0000.0001) %MON forcing_qsw_max              =   0.0000000000000E+00
(PID.TID 0000.0001) %MON forcing_qsw_min              =   0.0000000000000E+00
(PID.TID 0000.0001) %MON forcing_qsw_mean             =   0.0000000000000E+00
(PID.TID 0000.0001) %MON forcing_qsw_sd               =   0.0000000000000E+00
(PID.TID 0000.0001) %MON forcing_qsw_del2             =   0.0000000000000E+00
(PID.TID 0000.0001) %MON forcing_empmr_max            =   0.0000000000000E+00
(PID.TID 0000.0001) %MON forcing_empmr_min            =   0.0000000000000E+00
(PID.TID 0000.0001) %MON forcing_empmr_mean           =   0.0000000000000E+00
(PID.TID 0000.0001) %MON forcing_empmr_sd             =   0.0000000000000E+00
(PID.TID 0000.0001) %MON forcing_empmr_del2           =   0.0000000000000E+00
(PID.TID 0000.0001) %MON forcing_fu_max               =   0.0000000000000E+00
(PID.TID 0000.0001) %MON forcing_fu_min               =   0.0000000000000E+00
(PID.TID 0000.0001) %MON forcing_fu_mean              =   0.0000000000000E+00
(PID.TID 0000.0001) %MON forcing_fu_sd                =   0.0000000000000E+00
(PID.TID 0000.0001) %MON forcing_fu_del2              =   0.0000000000000E+00
(PID.TID 0000.0001) %MON forcing_fv_max               =   0.0000000000000E+00
(PID.TID 0000.0001) %MON forcing_fv_min               =   0.0000000000000E+00
(PID.TID 0000.0001) %MON forcing_fv_mean              =   0.0000000000000E+00
(PID.TID 0000.0001) %MON forcing_fv_sd                =   0.0000000000000E+00
(PID.TID 0000.0001) %MON forcing_fv_del2              =   0.0000000000000E+00
(PID.TID 0000.0001) %MON advcfl_uvel_max              =   1.3792828272666E-01
(PID.TID 0000.0001) %MON advcfl_vvel_max              =   0.0000000000000E+00
(PID.TID 0000.0001) %MON advcfl_wvel_max              =   3.7045636953789E-01
(PID.TID 0000.0001) %MON advcfl_W_hf_max              =   3.7541771914620E-01
(PID.TID 0000.0001) %MON pe_b_mean                    =   1.1668560135965E-05
(PID.TID 0000.0001) %MON ke_max                       =   8.4552049670775E-01
(PID.TID 0000.0001) %MON ke_mean                      =   4.9580689211469E-02
(PID.TID 0000.0001) %MON ke_vol                       =   9.5633499295324E+10
(PID.TID 0000.0001) %MON vort_r_min                   =   0.0000000000000E+00
(PID.TID 0000.0001) %MON vort_r_max                   =   0.0000000000000E+00
(PID.TID 0000.0001) %MON vort_a_mean                  =   0.0000000000000E+00
(PID.TID 0000.0001) %MON vort_a_sd                    =   0.0000000000000E+00
(PID.TID 0000.0001) %MON vort_p_mean                  =   0.0000000000000E+00
(PID.TID 0000.0001) %MON vort_p_sd                    =   0.0000000000000E+00
(PID.TID 0000.0001) %MON surfExpan_theta_mean         =  -2.0447636390528E-10
(PID.TID 0000.0001) %MON surfExpan_salt_mean          =  -9.8113849099356E-20
(PID.TID 0000.0001) // =======================================================
(PID.TID 0000.0001) // End MONITOR dynamic field statistics
(PID.TID 0000.0001) // =======================================================
(PID.TID 0000.0001) // =======================================================
(PID.TID 0000.0001) // Begin OBCS MONITOR field statistics
(PID.TID 0000.0001) // =======================================================
(PID.TID 0000.0001) %MON obc_E_uVel_max               =   2.8014282071829E-01
(PID.TID 0000.0001) %MON obc_E_uVel_min               =   2.8014282071829E-01
(PID.TID 0000.0001) %MON obc_E_uVel_mean              =   2.8014282071829E-01
(PID.TID 0000.0001) %MON obc_E_uVel_sd                =   3.7252902984619E-09
(PID.TID 0000.0001) %MON obc_E_uVel_Int               =   2.8014282071829E+05
(PID.TID 0000.0001) %MON obc_W_uVel_max               =   2.8014282071829E-01
(PID.TID 0000.0001) %MON obc_W_uVel_min               =   2.8014282071829E-01
(PID.TID 0000.0001) %MON obc_W_uVel_mean              =   2.8014282071829E-01
(PID.TID 0000.0001) %MON obc_W_uVel_sd                =   3.7252902984619E-09
(PID.TID 0000.0001) %MON obc_W_uVel_Int               =   2.8014282071829E+05
(PID.TID 0000.0001) // =======================================================
(PID.TID 0000.0001) // End OBCS MONITOR field statistics
(PID.TID 0000.0001) // =======================================================
(PID.TID 0000.0001) %CHECKPOINT      4320 0000004320
 cg2d: Sum(rhs),rhsMax =  -1.91856530662449E-11  2.05437770273661E-01
 cg2d: Sum(rhs),rhsMax =  -1.91747728806035E-11  2.05199758361017E-01
 cg2d: Sum(rhs),rhsMax =  -1.92093008166694E-11  2.04904650685504E-01
 cg2d: Sum(rhs),rhsMax =  -1.91895388468311E-11  2.04552875667139E-01
 cg2d: Sum(rhs),rhsMax =  -1.91906490698557E-11  2.04144917344522E-01
 cg2d: Sum(rhs),rhsMax =  -1.91489046841298E-11  2.03681318487867E-01
 cg2d: Sum(rhs),rhsMax =  -1.91001658933487E-11  2.03162680140042E-01
 cg2d: Sum(rhs),rhsMax =  -1.91051618969595E-11  2.02589657074660E-01
 cg2d: Sum(rhs),rhsMax =  -1.91532345539258E-11  2.01962949122597E-01
 cg2d: Sum(rhs),rhsMax =  -1.91083815437310E-11  2.01283288649648E-01
 cg2d: Sum(rhs),rhsMax =  -1.90203408578782E-11  2.00551424792912E-01
 cg2d: Sum(rhs),rhsMax =  -1.90613080874869E-11  1.99768105362992E-01
 cg2d: Sum(rhs),rhsMax =  -1.90952809120404E-11  1.98934057527154E-01
 cg2d: Sum(rhs),rhsMax =  -1.91907600921581E-11  1.98049968527431E-01
 cg2d: Sum(rhs),rhsMax =  -1.92448279534574E-11  1.97116467658853E-01
 cg2d: Sum(rhs),rhsMax =  -1.93078886212561E-11  1.96134110767189E-01
 cg2d: Sum(rhs),rhsMax =  -1.93701721329376E-11  1.95103368299615E-01
 cg2d: Sum(rhs),rhsMax =  -1.94562144173460E-11  1.94024617515113E-01
 cg2d: Sum(rhs),rhsMax =  -1.94861904390109E-11  1.92898139186471E-01
 cg2d: Sum(rhs),rhsMax =  -1.95472527053653E-11  1.91724119181341E-01
 cg2d: Sum(rhs),rhsMax =  -1.95936600277946E-11  1.90502654514711E-01
 cg2d: Sum(rhs),rhsMax =  -1.96627158999263E-11  1.89233763302731E-01
 cg2d: Sum(rhs),rhsMax =  -1.97134530921517E-11  1.87917397898942E-01
 cg2d: Sum(rhs),rhsMax =  -1.97866167894745E-11  1.86553460335794E-01
 cg2d: Sum(rhs),rhsMax =  -1.98565608400258E-11  1.85141819113301E-01
 cg2d: Sum(rhs),rhsMax =  -1.99444905035762E-11  1.83682326431338E-01
 cg2d: Sum(rhs),rhsMax =  -2.00895966528947E-11  1.82174834946585E-01
 cg2d: Sum(rhs),rhsMax =  -2.02378114266821E-11  1.80619213235405E-01
 cg2d: Sum(rhs),rhsMax =  -2.03921324271050E-11  1.79015359551078E-01
 cg2d: Sum(rhs),rhsMax =  -2.05359063087940E-11  1.77363213628353E-01
 cg2d: Sum(rhs),rhsMax =  -2.07148742603636E-11  1.75662766400505E-01
 cg2d: Sum(rhs),rhsMax =  -2.08870698514829E-11  1.73914067678969E-01
 cg2d: Sum(rhs),rhsMax =  -2.10554906843186E-11  1.72117232038828E-01
 cg2d: Sum(rhs),rhsMax =  -2.12444506431098E-11  1.70272443119166E-01
 cg2d: Sum(rhs),rhsMax =  -2.14309681112468E-11  1.68379956812638E-01
 cg2d: Sum(rhs),rhsMax =  -2.16819895371145E-11  1.66440103745041E-01
 cg2d: Sum(rhs),rhsMax =  -2.18770557225412E-11  1.64453291381163E-01
 cg2d: Sum(rhs),rhsMax =  -2.21102025577125E-11  1.62420006042332E-01
 cg2d: Sum(rhs),rhsMax =  -2.23553398015497E-11  1.60340815064457E-01
 cg2d: Sum(rhs),rhsMax =  -2.26045848705780E-11  1.58216369266505E-01
 cg2d: Sum(rhs),rhsMax =  -2.28942420577027E-11  1.56047405839226E-01
 cg2d: Sum(rhs),rhsMax =  -2.31599184274955E-11  1.53834751710084E-01
 cg2d: Sum(rhs),rhsMax =  -2.34413599642380E-11  1.51579327392933E-01
 cg2d: Sum(rhs),rhsMax =  -2.37797559421438E-11  1.49282151285299E-01
 cg2d: Sum(rhs),rhsMax =  -2.41292541502958E-11  1.46944344326666E-01
 cg2d: Sum(rhs),rhsMax =  -2.44584352770971E-11  1.44567134865848E-01
 cg2d: Sum(rhs),rhsMax =  -2.48080445075516E-11  1.42151863483284E-01
 cg2d: Sum(rhs),rhsMax =  -2.51986209676147E-11  1.39699987388101E-01
 cg2d: Sum(rhs),rhsMax =  -2.56011878363438E-11  1.37213084183185E-01
 cg2d: Sum(rhs),rhsMax =  -2.60345078828550E-11  1.34692854338796E-01
 cg2d: Sum(rhs),rhsMax =  -2.64767097135632E-11  1.32141121664818E-01
 cg2d: Sum(rhs),rhsMax =  -2.69428923616033E-11  1.29559831152409E-01
 cg2d: Sum(rhs),rhsMax =  -2.74633649155476E-11  1.26951043567124E-01
 cg2d: Sum(rhs),rhsMax =  -2.79823941795598E-11  1.24316926241528E-01
 cg2d: Sum(rhs),rhsMax =  -2.85255152832065E-11  1.21659739648774E-01
 cg2d: Sum(rhs),rhsMax =  -2.90535373537182E-11  1.18981819544642E-01
 cg2d: Sum(rhs),rhsMax =  -2.96238589214681E-11  1.16285554728419E-01
 cg2d: Sum(rhs),rhsMax =  -3.02849967326324E-11  1.13573360765882E-01
 cg2d: Sum(rhs),rhsMax =  -3.09197112358106E-11  1.10847650321143E-01
 cg2d: Sum(rhs),rhsMax =  -3.16782156062345E-11  1.08110800994109E-01
 cg2d: Sum(rhs),rhsMax =  -3.23888693642971E-11  1.05365121762774E-01
 cg2d: Sum(rhs),rhsMax =  -3.31575322753963E-11  1.02612819254801E-01
 cg2d: Sum(rhs),rhsMax =  -3.40349415317576E-11  9.98559651315602E-02
 cg2d: Sum(rhs),rhsMax =  -3.49245632413897E-11  9.70964657488379E-02
 cg2d: Sum(rhs),rhsMax =  -3.58129081945435E-11  9.43360351635328E-02
 cg2d: Sum(rhs),rhsMax =  -3.67911812126920E-11  9.15761724418535E-02
 cg2d: Sum(rhs),rhsMax =  -3.78854725369138E-11  8.88181439879516E-02
 cg2d: Sum(rhs),rhsMax =  -3.90539822703317E-11  8.60629713195385E-02
 cg2d: Sum(rhs),rhsMax =  -4.02794464449130E-11  8.33114246524494E-02
 cg2d: Sum(rhs),rhsMax =  -4.16132128755464E-11  8.05640225539306E-02
 cg2d: Sum(rhs),rhsMax =  -4.30137592211111E-11  7.78210377862696E-02
 cg2d: Sum(rhs),rhsMax =  -4.45334324972180E-11  7.50825094303293E-02
 cg2d: Sum(rhs),rhsMax =  -4.61599647394451E-11  7.23482613697119E-02
 cg2d: Sum(rhs),rhsMax =  -4.78702633088801E-11  6.96179271949299E-02
 cg2d: Sum(rhs),rhsMax =  -4.97476504435213E-11  6.68909815182733E-02
 cg2d: Sum(rhs),rhsMax =  -5.17676457256755E-11  6.41667775474338E-02
 cg2d: Sum(rhs),rhsMax =  -5.39598921101003E-11  6.14445905345725E-02
 cg2d: Sum(rhs),rhsMax =  -5.63725455204889E-11  5.87236663972931E-02
 cg2d: Sum(rhs),rhsMax =  -5.90348880891156E-11  5.60032744163948E-02
 cg2d: Sum(rhs),rhsMax =  -6.19677087421167E-11  5.32827624819635E-02
 cg2d: Sum(rhs),rhsMax =  -6.52082554619682E-11  5.05616129524577E-02
 cg2d: Sum(rhs),rhsMax =  -6.88511678226256E-11  4.78394968256900E-02
 cg2d: Sum(rhs),rhsMax =  -7.29032487590403E-11  4.51163236155241E-02
 cg2d: Sum(rhs),rhsMax =  -7.74487141086411E-11  4.23922844779816E-02
 cg2d: Sum(rhs),rhsMax =  -8.26610169202269E-11  3.96678861545701E-02
 cg2d: Sum(rhs),rhsMax =  -8.86676010392051E-11  3.69439736708218E-02
 cg2d: Sum(rhs),rhsMax =  -9.55769907662329E-11  3.42217403531650E-02
 cg2d: Sum(rhs),rhsMax =  -1.01585739820109E-10  3.21862649717977E-02
 cg2d: Sum(rhs),rhsMax =  -9.61891677420113E-11  3.39723606506419E-02
 cg2d: Sum(rhs),rhsMax =  -9.13031317217872E-11  3.57503469310091E-02
 cg2d: Sum(rhs),rhsMax =  -8.69089800126233E-11  3.75197101346631E-02
 cg2d: Sum(rhs),rhsMax =  -8.29298851812155E-11  3.92797285917658E-02
 cg2d: Sum(rhs),rhsMax =  -7.93201060389492E-11  4.10294703120443E-02
 cg2d: Sum(rhs),rhsMax =  -7.59519114268414E-11  4.27678010843985E-02
 cg2d: Sum(rhs),rhsMax =  -7.29145632760719E-11  4.44934056785271E-02
 cg2d: Sum(rhs),rhsMax =  -7.00866031877467E-11  4.62048165529555E-02
 cg2d: Sum(rhs),rhsMax =  -6.75332012534113E-11  4.79004417891683E-02
 cg2d: Sum(rhs),rhsMax =  -6.51646514526760E-11  4.95785970669672E-02
 cg2d: Sum(rhs),rhsMax =  -6.29724050682512E-11  5.12375906838358E-02
 cg2d: Sum(rhs),rhsMax =  -6.09259309669596E-11  5.28757463906070E-02
 cg2d: Sum(rhs),rhsMax =  -5.90673066014347E-11  5.44914457549293E-02
 cg2d: Sum(rhs),rhsMax =  -5.73227021405387E-11  5.60831641055102E-02
 cg2d: Sum(rhs),rhsMax =  -5.57106583087830E-11  5.76495021004296E-02
 cg2d: Sum(rhs),rhsMax =  -5.41751088434239E-11  5.91892179635620E-02
 cg2d: Sum(rhs),rhsMax =  -5.27354826473925E-11  6.07012193704504E-02
 cg2d: Sum(rhs),rhsMax =  -5.14224218761683E-11  6.21845802328158E-02
 cg2d: Sum(rhs),rhsMax =  -5.02015096159880E-11  6.36385440248343E-02
 cg2d: Sum(rhs),rhsMax =  -4.90631979488398E-11  6.50625545390965E-02
 cg2d: Sum(rhs),rhsMax =  -4.79869477487682E-11  6.64560634832695E-02
 cg2d: Sum(rhs),rhsMax =  -4.69799754654332E-11  6.78186762550271E-02
 cg2d: Sum(rhs),rhsMax =  -4.60270710433974E-11  6.91501665720262E-02
 cg2d: Sum(rhs),rhsMax =  -4.51254589250993E-11  7.04504010402782E-02
 cg2d: Sum(rhs),rhsMax =  -4.42309522341588E-11  7.17192328428364E-02
 cg2d: Sum(rhs),rhsMax =  -4.34018376793688E-11  7.29565171580160E-02
 cg2d: Sum(rhs),rhsMax =  -4.26328972125134E-11  7.41621288303968E-02
 cg2d: Sum(rhs),rhsMax =  -4.19730916689787E-11  7.53359202101707E-02
 cg2d: Sum(rhs),rhsMax =  -4.13004075383583E-11  7.64777092201284E-02
 cg2d: Sum(rhs),rhsMax =  -4.06563671617732E-11  7.75872988112260E-02
 cg2d: Sum(rhs),rhsMax =  -3.99971167297508E-11  7.86644964365096E-02
 cg2d: Sum(rhs),rhsMax =  -3.94031474115764E-11  7.97091190071561E-02
 cg2d: Sum(rhs),rhsMax =  -3.88640231108184E-11  8.07209366548522E-02
 cg2d: Sum(rhs),rhsMax =  -3.82871512272231E-11  8.16996713198518E-02
 cg2d: Sum(rhs),rhsMax =  -3.78186371108313E-11  8.26449982556723E-02
 cg2d: Sum(rhs),rhsMax =  -3.73414632548474E-11  8.35565722111957E-02
 cg2d: Sum(rhs),rhsMax =  -3.68719499377335E-11  8.44340325742666E-02
 cg2d: Sum(rhs),rhsMax =  -3.64948071762683E-11  8.52769970293678E-02
 cg2d: Sum(rhs),rhsMax =  -3.60723673153984E-11  8.60850461864589E-02
 cg2d: Sum(rhs),rhsMax =  -3.56960017100505E-11  8.68577377449336E-02
 cg2d: Sum(rhs),rhsMax =  -3.53591600443792E-11  8.75946266273913E-02
 cg2d: Sum(rhs),rhsMax =  -3.50568463147738E-11  8.82952606733255E-02
 cg2d: Sum(rhs),rhsMax =  -3.48100437363996E-11  8.89591802384060E-02
 cg2d: Sum(rhs),rhsMax =  -3.44860806578140E-11  8.95859123787381E-02
 cg2d: Sum(rhs),rhsMax =  -3.42283978937985E-11  9.01749746090824E-02
 cg2d: Sum(rhs),rhsMax =  -3.39849259844982E-11  9.07258734148269E-02
 cg2d: Sum(rhs),rhsMax =  -3.38187255977118E-11  9.12381262038774E-02
 cg2d: Sum(rhs),rhsMax =  -3.36012329071878E-11  9.17112187342296E-02
 cg2d: Sum(rhs),rhsMax =  -3.34445804384131E-11  9.21446594015988E-02
 cg2d: Sum(rhs),rhsMax =  -3.32807115199785E-11  9.25379083709812E-02
 cg2d: Sum(rhs),rhsMax =  -3.30934168957242E-11  9.28904671287302E-02
 cg2d: Sum(rhs),rhsMax =  -3.30047100760567E-11  9.32018483317055E-02
 cg2d: Sum(rhs),rhsMax =  -3.28658211756760E-11  9.34715806451218E-02
 cg2d: Sum(rhs),rhsMax =  -3.27016191903340E-11  9.36992106480938E-02
 cg2d: Sum(rhs),rhsMax =  -3.25954818691798E-11  9.38843484967268E-02
 cg2d: Sum(rhs),rhsMax =  -3.25675042489593E-11  9.40266743115413E-02
 cg2d: Sum(rhs),rhsMax =  -3.24521520767007E-11  9.41259698644817E-02
 cg2d: Sum(rhs),rhsMax =  -3.23683302383415E-11  9.41821217568017E-02
 cg2d: Sum(rhs),rhsMax =  -3.23008286784443E-11  9.41951464134839E-02
 cg2d: Sum(rhs),rhsMax =  -3.23578941419100E-11  9.41652371139390E-02
 cg2d: Sum(rhs),rhsMax =  -3.23969739923768E-11  9.40928095137372E-02
 cg2d: Sum(rhs),rhsMax =  -3.23434612425899E-11  9.39784341616164E-02
 cg2d: Sum(rhs),rhsMax =  -3.23041593475182E-11  9.38228395029079E-02
 cg2d: Sum(rhs),rhsMax =  -3.22744053704582E-11  9.36268728793833E-02
 cg2d: Sum(rhs),rhsMax =  -3.23153726000669E-11  9.33914288298122E-02
 cg2d: Sum(rhs),rhsMax =  -3.24541504781450E-11  9.31174078896581E-02
 cg2d: Sum(rhs),rhsMax =  -3.25802718137425E-11  9.28058027218117E-02
 cg2d: Sum(rhs),rhsMax =  -3.28208571431787E-11  9.24576100541446E-02
 cg2d: Sum(rhs),rhsMax =  -3.29805072141198E-11  9.20737672161978E-02
 cg2d: Sum(rhs),rhsMax =  -3.32398553126723E-11  9.16550900995261E-02
 cg2d: Sum(rhs),rhsMax =  -3.35180772026433E-11  9.12022863407945E-02
 cg2d: Sum(rhs),rhsMax =  -3.38166161739650E-11  9.07159347839323E-02
 cg2d: Sum(rhs),rhsMax =  -3.40947270416336E-11  9.01964762095186E-02
 cg2d: Sum(rhs),rhsMax =  -3.44326789303295E-11  8.96442351943113E-02
 cg2d: Sum(rhs),rhsMax =  -3.47889494989317E-11  8.90595189749329E-02
 cg2d: Sum(rhs),rhsMax =  -3.51529916287063E-11  8.84425699841837E-02
 cg2d: Sum(rhs),rhsMax =  -3.54732909713107E-11  8.77936200415476E-02
 cg2d: Sum(rhs),rhsMax =  -3.58231222463701E-11  8.71129188424706E-02
 cg2d: Sum(rhs),rhsMax =  -3.61750629451763E-11  8.64007149672780E-02
 cg2d: Sum(rhs),rhsMax =  -3.65293351123341E-11  8.56572628784606E-02
 cg2d: Sum(rhs),rhsMax =  -3.69209107731194E-11  8.48828074856927E-02
 cg2d: Sum(rhs),rhsMax =  -3.72696318251542E-11  8.40775888440194E-02
 cg2d: Sum(rhs),rhsMax =  -3.77498032833046E-11  8.32418046010387E-02
 cg2d: Sum(rhs),rhsMax =  -3.81504827728918E-11  8.23755922055151E-02
 cg2d: Sum(rhs),rhsMax =  -3.86283227626905E-11  8.14790432340334E-02
 cg2d: Sum(rhs),rhsMax =  -3.91404686439500E-11  8.05521155012063E-02
 cg2d: Sum(rhs),rhsMax =  -3.96751520526095E-11  7.95946855945591E-02
 cg2d: Sum(rhs),rhsMax =  -4.02150535094847E-11  7.86065971831202E-02
 cg2d: Sum(rhs),rhsMax =  -4.08013622887893E-11  7.75876556701759E-02
 cg2d: Sum(rhs),rhsMax =  -4.14425160855103E-11  7.65376500600720E-02
 cg2d: Sum(rhs),rhsMax =  -4.20886658858421E-11  7.54563990872667E-02
 cg2d: Sum(rhs),rhsMax =  -4.27959889748308E-11  7.43438040671000E-02
 cg2d: Sum(rhs),rhsMax =  -4.35599334380754E-11  7.31999548077527E-02
 cg2d: Sum(rhs),rhsMax =  -4.43763914503847E-11  7.20250826244780E-02
 cg2d: Sum(rhs),rhsMax =  -4.52006210238665E-11  7.08195498904346E-02
 cg2d: Sum(rhs),rhsMax =  -4.61184423983241E-11  6.95839306532949E-02
 cg2d: Sum(rhs),rhsMax =  -4.70486982706575E-11  6.83189395131994E-02
 cg2d: Sum(rhs),rhsMax =  -4.80327999596852E-11  6.70254612594571E-02
 cg2d: Sum(rhs),rhsMax =  -4.91239271482868E-11  6.57045667624683E-02
 cg2d: Sum(rhs),rhsMax =  -5.01851893375260E-11  6.43574470877619E-02
 cg2d: Sum(rhs),rhsMax =  -5.13492581788455E-11  6.29853161603479E-02
 cg2d: Sum(rhs),rhsMax =  -5.25990362376660E-11  6.15894047010609E-02
 cg2d: Sum(rhs),rhsMax =  -5.38701305785594E-11  6.01709205379164E-02
 cg2d: Sum(rhs),rhsMax =  -5.52449197499527E-11  5.87309984509549E-02
 cg2d: Sum(rhs),rhsMax =  -5.67789149030773E-11  5.72706614594178E-02
 cg2d: Sum(rhs),rhsMax =  -5.83272319332195E-11  5.57907989780845E-02
 cg2d: Sum(rhs),rhsMax =  -6.00347549450930E-11  5.42921692485744E-02
 cg2d: Sum(rhs),rhsMax =  -6.17977891081978E-11  5.27753356236255E-02
 cg2d: Sum(rhs),rhsMax =  -6.37448982487854E-11  5.12407370689779E-02
 cg2d: Sum(rhs),rhsMax =  -6.58449961221663E-11  4.96886897797747E-02
 cg2d: Sum(rhs),rhsMax =  -6.81100731370066E-11  4.81193969705407E-02
 cg2d: Sum(rhs),rhsMax =  -7.04719615995941E-11  4.65329748837051E-02
 cg2d: Sum(rhs),rhsMax =  -7.30808746851608E-11  4.49294845703117E-02
 cg2d: Sum(rhs),rhsMax =  -7.59179386022879E-11  4.33089664749910E-02
 cg2d: Sum(rhs),rhsMax =  -7.90100207481714E-11  4.16714615252016E-02
 cg2d: Sum(rhs),rhsMax =  -8.23792145610014E-11  4.00170403225156E-02
 cg2d: Sum(rhs),rhsMax =  -8.60643778466397E-11  3.83459130109093E-02
 cg2d: Sum(rhs),rhsMax =  -9.01621000082287E-11  3.66583647262097E-02
 cg2d: Sum(rhs),rhsMax =  -9.46878131458107E-11  3.49547453354628E-02
 cg2d: Sum(rhs),rhsMax =  -9.96581706047550E-11  3.32355378863339E-02
 cg2d: Sum(rhs),rhsMax =  -1.05334796440815E-10  3.15013987869866E-02
 cg2d: Sum(rhs),rhsMax =  -1.11595066520920E-10  2.97531586077896E-02
 cg2d: Sum(rhs),rhsMax =  -1.09713904627995E-10  3.02762989593929E-02
 cg2d: Sum(rhs),rhsMax =  -1.02137021062987E-10  3.25363086453703E-02
 cg2d: Sum(rhs),rhsMax =  -9.54847589884622E-11  3.48298149278779E-02
 cg2d: Sum(rhs),rhsMax =  -8.95307022963365E-11  3.71709442615472E-02
 cg2d: Sum(rhs),rhsMax =  -8.42849470772400E-11  3.95448914603340E-02
 cg2d: Sum(rhs),rhsMax =  -7.95236411443856E-11  4.19730054332856E-02
 cg2d: Sum(rhs),rhsMax =  -7.50123574366768E-11  4.45536389678055E-02
 cg2d: Sum(rhs),rhsMax =  -7.09521469355323E-11  4.71620040474195E-02
 cg2d: Sum(rhs),rhsMax =  -6.72781552690793E-11  4.97849369077831E-02
 cg2d: Sum(rhs),rhsMax =  -6.39824582204795E-11  5.24210330647798E-02
 cg2d: Sum(rhs),rhsMax =  -6.09748918023456E-11  5.50687070281653E-02
 cg2d: Sum(rhs),rhsMax =  -5.82258685710713E-11  5.77262309781370E-02
 cg2d: Sum(rhs),rhsMax =  -5.57343060592075E-11  6.03917768777855E-02
 cg2d: Sum(rhs),rhsMax =  -5.34106647798183E-11  6.30634595104824E-02
 cg2d: Sum(rhs),rhsMax =  -5.12953568510000E-11  6.57393780113250E-02
 cg2d: Sum(rhs),rhsMax =  -4.93183271998987E-11  6.84176537099012E-02
 cg2d: Sum(rhs),rhsMax =  -4.75118833165311E-11  7.10964624867034E-02
 cg2d: Sum(rhs),rhsMax =  -4.58426074878560E-11  7.37740603273870E-02
 cg2d: Sum(rhs),rhsMax =  -4.42603176331602E-11  7.64488012946749E-02
 cg2d: Sum(rhs),rhsMax =  -4.28087010284628E-11  7.91191476857863E-02
 cg2d: Sum(rhs),rhsMax =  -4.14538958715127E-11  8.17836726673231E-02
 cg2d: Sum(rhs),rhsMax =  -4.01791933057893E-11  8.44410561489080E-02
 cg2d: Sum(rhs),rhsMax =  -3.90172893993679E-11  8.70900750215937E-02
 cg2d: Sum(rhs),rhsMax =  -3.79197784283747E-11  8.97295892764235E-02
 cg2d: Sum(rhs),rhsMax =  -3.69062003180431E-11  9.23585256216829E-02
 cg2d: Sum(rhs),rhsMax =  -3.59298701901878E-11  9.49758602166976E-02
 cg2d: Sum(rhs),rhsMax =  -3.50684481453811E-11  9.75806022667018E-02
 cg2d: Sum(rhs),rhsMax =  -3.42532668895501E-11  1.00171779998554E-01
 cg2d: Sum(rhs),rhsMax =  -3.34852146011144E-11  1.02748430280615E-01
 cg2d: Sum(rhs),rhsMax =  -3.27382565501466E-11  1.05309592812735E-01
 cg2d: Sum(rhs),rhsMax =  -3.20571347245391E-11  1.07854309393220E-01
 cg2d: Sum(rhs),rhsMax =  -3.13893355752271E-11  1.10381628319284E-01
 cg2d: Sum(rhs),rhsMax =  -3.07860403836457E-11  1.12890613511495E-01
 cg2d: Sum(rhs),rhsMax =  -3.01827451920644E-11  1.15380357478078E-01
 cg2d: Sum(rhs),rhsMax =  -2.95813373796250E-11  1.17849996830207E-01
 cg2d: Sum(rhs),rhsMax =  -2.90057977636593E-11  1.20298728744763E-01
 cg2d: Sum(rhs),rhsMax =  -2.85905743524495E-11  1.22725826577583E-01
 cg2d: Sum(rhs),rhsMax =  -2.81131784518607E-11  1.25130652789494E-01
 cg2d: Sum(rhs),rhsMax =  -2.76468847815181E-11  1.27512667434320E-01
 cg2d: Sum(rhs),rhsMax =  -2.71612732305471E-11  1.29871430732928E-01
 cg2d: Sum(rhs),rhsMax =  -2.67463828862446E-11  1.32206598665327E-01
 cg2d: Sum(rhs),rhsMax =  -2.63120636390113E-11  1.34517911033490E-01
 cg2d: Sum(rhs),rhsMax =  -2.59590127171805E-11  1.36805172037647E-01
 cg2d: Sum(rhs),rhsMax =  -2.55711007923765E-11  1.39068224016814E-01
 cg2d: Sum(rhs),rhsMax =  -2.51983989230098E-11  1.41306915575347E-01
 cg2d: Sum(rhs),rhsMax =  -2.48708831307454E-11  1.43521065799017E-01
 cg2d: Sum(rhs),rhsMax =  -2.45379272456603E-11  1.45710426612197E-01
 cg2d: Sum(rhs),rhsMax =  -2.42126318994451E-11  1.47874645511306E-01
 cg2d: Sum(rhs),rhsMax =  -2.38822295273167E-11  1.50013230915579E-01
 cg2d: Sum(rhs),rhsMax =  -2.36335395698006E-11  1.52125522192187E-01
 cg2d: Sum(rhs),rhsMax =  -2.33286723272386E-11  1.54210666095125E-01
 cg2d: Sum(rhs),rhsMax =  -2.30668817380320E-11  1.56267600906068E-01
 cg2d: Sum(rhs),rhsMax =  -2.28045360373130E-11  1.58295049036421E-01
 cg2d: Sum(rhs),rhsMax =  -2.25617302618275E-11  1.60291518292070E-01
 cg2d: Sum(rhs),rhsMax =  -2.23179252856198E-11  1.62255311491562E-01
 cg2d: Sum(rhs),rhsMax =  -2.20982121490465E-11  1.64184543659322E-01
 cg2d: Sum(rhs),rhsMax =  -2.19201323758966E-11  1.66077165660188E-01
 cg2d: Sum(rhs),rhsMax =  -2.17345030861793E-11  1.67930992927181E-01
 cg2d: Sum(rhs),rhsMax =  -2.15786277735219E-11  1.69743737845015E-01
 cg2d: Sum(rhs),rhsMax =  -2.14607220883067E-11  1.71513044376523E-01
 cg2d: Sum(rhs),rhsMax =  -2.12844186719963E-11  1.73236523649579E-01
 cg2d: Sum(rhs),rhsMax =  -2.11402007010975E-11  1.74911789428470E-01
 cg2d: Sum(rhs),rhsMax =  -2.09883221913287E-11  1.76536492641804E-01
 cg2d: Sum(rhs),rhsMax =  -2.08724149075579E-11  1.78108354393650E-01
 cg2d: Sum(rhs),rhsMax =  -2.07408534791398E-11  1.79625197113783E-01
 cg2d: Sum(rhs),rhsMax =  -2.06273886860231E-11  1.81084973682528E-01
 cg2d: Sum(rhs),rhsMax =  -2.04949390791853E-11  1.82485794480312E-01
 cg2d: Sum(rhs),rhsMax =  -2.04138927983877E-11  1.83825952354001E-01
 cg2d: Sum(rhs),rhsMax =  -2.03167482837330E-11  1.85103945475867E-01
 cg2d: Sum(rhs),rhsMax =  -2.02258210180162E-11  1.86318497996904E-01
 cg2d: Sum(rhs),rhsMax =  -2.01402228228176E-11  1.87468578261321E-01
 cg2d: Sum(rhs),rhsMax =  -2.00587324528101E-11  1.88553414230908E-01
 cg2d: Sum(rhs),rhsMax =  -1.99821270641110E-11  1.89572505658819E-01
 cg2d: Sum(rhs),rhsMax =  -1.99436023251565E-11  1.90525632387607E-01
 cg2d: Sum(rhs),rhsMax =  -1.98997485156838E-11  1.91412858112248E-01
 cg2d: Sum(rhs),rhsMax =  -1.98421279407057E-11  1.92234528983851E-01
 cg2d: Sum(rhs),rhsMax =  -1.98103755622014E-11  1.92991266428579E-01
 cg2d: Sum(rhs),rhsMax =  -1.98183691679787E-11  1.93683953662332E-01
 cg2d: Sum(rhs),rhsMax =  -1.97742933139011E-11  1.94313715548453E-01
 cg2d: Sum(rhs),rhsMax =  -1.97160066051083E-11  1.94881891669309E-01
 cg2d: Sum(rhs),rhsMax =  -1.96531679819145E-11  1.95390002729592E-01
 cg2d: Sum(rhs),rhsMax =  -1.96355154358230E-11  1.95839710720435E-01
 cg2d: Sum(rhs),rhsMax =  -1.96389571271993E-11  1.96232773572049E-01
 cg2d: Sum(rhs),rhsMax =  -1.96546112718465E-11  1.96570995335096E-01
 cg2d: Sum(rhs),rhsMax =  -1.96916927208690E-11  1.96856173166044E-01
 cg2d: Sum(rhs),rhsMax =  -1.95879978903690E-11  1.97090042921837E-01
 cg2d: Sum(rhs),rhsMax =  -1.95796712176843E-11  1.97274225058023E-01
 cg2d: Sum(rhs),rhsMax =  -1.95787830392646E-11  1.97410172837259E-01
 cg2d: Sum(rhs),rhsMax =  -1.95590210694263E-11  1.97499124957669E-01
 cg2d: Sum(rhs),rhsMax =  -1.95470306607604E-11  1.97542064705791E-01
 cg2d: Sum(rhs),rhsMax =  -1.94557703281362E-11  1.97539687615611E-01
 cg2d: Sum(rhs),rhsMax =  -1.94692040267341E-11  1.97492379465390E-01
 cg2d: Sum(rhs),rhsMax =  -1.94817495469124E-11  1.97400205847152E-01
 cg2d: Sum(rhs),rhsMax =  -1.95010674275409E-11  1.97262914270052E-01
 cg2d: Sum(rhs),rhsMax =  -1.95751193032834E-11  1.97079949320398E-01
 cg2d: Sum(rhs),rhsMax =  -1.95594651586362E-11  1.96850480633355E-01
 cg2d: Sum(rhs),rhsMax =  -1.95758964594006E-11  1.96573442772149E-01
 cg2d: Sum(rhs),rhsMax =  -1.96128668861206E-11  1.96247585468639E-01
 cg2d: Sum(rhs),rhsMax =  -1.96372917926624E-11  1.95871532080947E-01
 cg2d: Sum(rhs),rhsMax =  -1.95912175371404E-11  1.95443843655869E-01
 cg2d: Sum(rhs),rhsMax =  -1.95676808090184E-11  1.94963085529834E-01
 cg2d: Sum(rhs),rhsMax =  -1.95247151779654E-11  1.94427893350768E-01
 cg2d: Sum(rhs),rhsMax =  -1.95485849729948E-11  1.93837035317243E-01
 cg2d: Sum(rhs),rhsMax =  -1.96023197673867E-11  1.93189467621072E-01
 cg2d: Sum(rhs),rhsMax =  -1.95579108464017E-11  1.92484380462529E-01
 cg2d: Sum(rhs),rhsMax =  -1.95515825751613E-11  1.91721232557430E-01
 cg2d: Sum(rhs),rhsMax =  -1.95753413478883E-11  1.90899772731059E-01
 cg2d: Sum(rhs),rhsMax =  -1.96566096732909E-11  1.90020047946722E-01
 cg2d: Sum(rhs),rhsMax =  -1.96846983158139E-11  1.89082397890205E-01
 cg2d: Sum(rhs),rhsMax =  -1.97896143916410E-11  1.88087436907512E-01
 cg2d: Sum(rhs),rhsMax =  -1.97910576815730E-11  1.87036025038522E-01
 cg2d: Sum(rhs),rhsMax =  -1.99112948351399E-11  1.85929230183270E-01
 cg2d: Sum(rhs),rhsMax =  -1.99673610978834E-11  1.84768283915868E-01
 cg2d: Sum(rhs),rhsMax =  -2.00598426758347E-11  1.83554533595038E-01
 cg2d: Sum(rhs),rhsMax =  -2.01096916896404E-11  1.82289393644876E-01
 cg2d: Sum(rhs),rhsMax =  -2.01906269481356E-11  1.80974298779441E-01
 cg2d: Sum(rhs),rhsMax =  -2.02646788238781E-11  1.79610661683652E-01
 cg2d: Sum(rhs),rhsMax =  -2.03493888406570E-11  1.78199837260387E-01
 cg2d: Sum(rhs),rhsMax =  -2.04435357531452E-11  1.76743095071625E-01
 cg2d: Sum(rhs),rhsMax =  -2.05561123678422E-11  1.75241601142349E-01
 cg2d: Sum(rhs),rhsMax =  -2.06369366040349E-11  1.73696409296227E-01
 cg2d: Sum(rhs),rhsMax =  -2.07376338323684E-11  1.72108462144581E-01
 cg2d: Sum(rhs),rhsMax =  -2.08220107822399E-11  1.70478600985282E-01
 cg2d: Sum(rhs),rhsMax =  -2.09180450738700E-11  1.68807583445423E-01
 cg2d: Sum(rhs),rhsMax =  -2.09798844963416E-11  1.67096107215685E-01
 cg2d: Sum(rhs),rhsMax =  -2.11365369651162E-11  1.65344837742411E-01
 cg2d: Sum(rhs),rhsMax =  -2.12880824079775E-11  1.63554437786737E-01
 cg2d: Sum(rhs),rhsMax =  -2.14044337809582E-11  1.61725596590978E-01
 cg2d: Sum(rhs),rhsMax =  -2.16042739253908E-11  1.59859056461688E-01
 cg2d: Sum(rhs),rhsMax =  -2.18473017454812E-11  1.57955634807782E-01
 cg2d: Sum(rhs),rhsMax =  -2.20438112208399E-11  1.56016240031715E-01
 cg2d: Sum(rhs),rhsMax =  -2.22750706768693E-11  1.54041880134808E-01
 cg2d: Sum(rhs),rhsMax =  -2.25213181437312E-11  1.52033663430700E-01
 cg2d: Sum(rhs),rhsMax =  -2.28043139927081E-11  1.49992791331594E-01
 cg2d: Sum(rhs),rhsMax =  -2.30756524999265E-11  1.47920543742747E-01
 cg2d: Sum(rhs),rhsMax =  -2.33425501150464E-11  1.45818258130971E-01
 cg2d: Sum(rhs),rhsMax =  -2.36383135288065E-11  1.43687303789231E-01
 cg2d: Sum(rhs),rhsMax =  -2.39456232620228E-11  1.41529053142212E-01
 cg2d: Sum(rhs),rhsMax =  -2.42721398535650E-11  1.39344852151509E-01
 cg2d: Sum(rhs),rhsMax =  -2.46161979688964E-11  1.37135991982974E-01
 cg2d: Sum(rhs),rhsMax =  -2.49577025712711E-11  1.34903683946560E-01
 cg2d: Sum(rhs),rhsMax =  -2.53497223212662E-11  1.32649039388974E-01
 cg2d: Sum(rhs),rhsMax =  -2.57446286511254E-11  1.30373056306009E-01
 cg2d: Sum(rhs),rhsMax =  -2.61576316162859E-11  1.28076613375884E-01
 cg2d: Sum(rhs),rhsMax =  -2.65979460678523E-11  1.25760471902712E-01
 cg2d: Sum(rhs),rhsMax =  -2.70368172294866E-11  1.23425285613167E-01
 cg2d: Sum(rhs),rhsMax =  -2.74932299149100E-11  1.21071617704744E-01
 cg2d: Sum(rhs),rhsMax =  -2.79845036033066E-11  1.18699964036206E-01
 cg2d: Sum(rhs),rhsMax =  -2.85084178486272E-11  1.16310780918644E-01
 cg2d: Sum(rhs),rhsMax =  -2.90870105779106E-11  1.13904515656713E-01
 cg2d: Sum(rhs),rhsMax =  -2.96782043385235E-11  1.11481637786239E-01
 cg2d: Sum(rhs),rhsMax =  -3.03229663600746E-11  1.09042668903187E-01
 cg2d: Sum(rhs),rhsMax =  -3.09016146005092E-11  1.06588209079530E-01
 cg2d: Sum(rhs),rhsMax =  -3.16033865743748E-11  1.04118958090691E-01
 cg2d: Sum(rhs),rhsMax =  -3.22711302125356E-11  1.01635729931473E-01
 cg2d: Sum(rhs),rhsMax =  -3.30296345829595E-11  9.91394596995091E-02
 cg2d: Sum(rhs),rhsMax =  -3.38472583294447E-11  9.66312023363672E-02
 cg2d: Sum(rhs),rhsMax =  -3.46452866395452E-11  9.41121232439623E-02
 cg2d: Sum(rhs),rhsMax =  -3.54842821792545E-11  9.15834813180327E-02
 cg2d: Sum(rhs),rhsMax =  -3.64441810063454E-11  8.90466054236523E-02
 cg2d: Sum(rhs),rhsMax =  -3.74787423318423E-11  8.65028657676674E-02
 cg2d: Sum(rhs),rhsMax =  -3.85989573636891E-11  8.39536418642233E-02
 cg2d: Sum(rhs),rhsMax =  -3.97798460838317E-11  8.14002890417964E-02
 cg2d: Sum(rhs),rhsMax =  -4.10202427580941E-11  7.88441055536119E-02
 cg2d: Sum(rhs),rhsMax =  -4.23464041610089E-11  7.62863022282302E-02
 cg2d: Sum(rhs),rhsMax =  -4.37492264637740E-11  7.37279764321142E-02
 cg2d: Sum(rhs),rhsMax =  -4.52547443963169E-11  7.11700918621080E-02
 cg2d: Sum(rhs),rhsMax =  -4.68589056445978E-11  6.86134653568993E-02
 cg2d: Sum(rhs),rhsMax =  -4.86156392920378E-11  6.60587615317581E-02
 cg2d: Sum(rhs),rhsMax =  -5.05011588103343E-11  6.35064956243911E-02
 cg2d: Sum(rhs),rhsMax =  -5.25478827118064E-11  6.09570445169670E-02
 cg2d: Sum(rhs),rhsMax =  -5.47359935154645E-11  5.84106654933682E-02
 cg2d: Sum(rhs),rhsMax =  -5.71284408668049E-11  5.58675219206299E-02
 cg2d: Sum(rhs),rhsMax =  -5.98178728772325E-11  5.33277147241061E-02
 cg2d: Sum(rhs),rhsMax =  -6.26925733548944E-11  5.07913182698770E-02
 cg2d: Sum(rhs),rhsMax =  -6.59056385854395E-11  4.82584191069742E-02
 cg2d: Sum(rhs),rhsMax =  -6.95106888715102E-11  4.57291557720935E-02
 cg2d: Sum(rhs),rhsMax =  -7.35076166602511E-11  4.32037580079199E-02
 cg2d: Sum(rhs),rhsMax =  -7.79932229910685E-11  4.06825837412777E-02
 cg2d: Sum(rhs),rhsMax =  -8.30332191892325E-11  3.81661521636150E-02
 cg2d: Sum(rhs),rhsMax =  -8.87602213950345E-11  3.56551715002267E-02
 cg2d: Sum(rhs),rhsMax =  -9.54358259086519E-11  3.31505602863806E-02
 cg2d: Sum(rhs),rhsMax =  -9.68413682578273E-11  3.26305980226229E-02
 cg2d: Sum(rhs),rhsMax =  -9.24619825148909E-11  3.41487574335173E-02
 cg2d: Sum(rhs),rhsMax =  -8.84434747661089E-11  3.56609181179465E-02
 cg2d: Sum(rhs),rhsMax =  -8.47748538035376E-11  3.71665436458672E-02
 cg2d: Sum(rhs),rhsMax =  -8.14011080763066E-11  3.86648569092150E-02
 cg2d: Sum(rhs),rhsMax =  -7.82827136447395E-11  4.01548468732071E-02
 cg2d: Sum(rhs),rhsMax =  -7.53549445065005E-11  4.16617082537257E-02
 cg2d: Sum(rhs),rhsMax =  -7.25955962010971E-11  4.32065695657195E-02
 cg2d: Sum(rhs),rhsMax =  -7.00230984307382E-11  4.47382387143480E-02
 cg2d: Sum(rhs),rhsMax =  -6.76496636486945E-11  4.62550570681161E-02
 cg2d: Sum(rhs),rhsMax =  -6.54852838621878E-11  4.77552522246868E-02
 cg2d: Sum(rhs),rhsMax =  -6.34664543142094E-11  4.92369422527235E-02
 cg2d: Sum(rhs),rhsMax =  -6.15436590578611E-11  5.06982618891950E-02
 cg2d: Sum(rhs),rhsMax =  -5.97726312889790E-11  5.21374521818896E-02
 cg2d: Sum(rhs),rhsMax =  -5.81186210268925E-11  5.35529183196528E-02
 cg2d: Sum(rhs),rhsMax =  -5.66362512444130E-11  5.49432760630339E-02
 cg2d: Sum(rhs),rhsMax =  -5.51885204203018E-11  5.63073722284876E-02
 cg2d: Sum(rhs),rhsMax =  -5.38522559878629E-11  5.76442952817166E-02
 cg2d: Sum(rhs),rhsMax =  -5.26491072960766E-11  5.89533818590973E-02
 cg2d: Sum(rhs),rhsMax =  -5.14787101835168E-11  6.02342442152843E-02
 cg2d: Sum(rhs),rhsMax =  -5.03955766006925E-11  6.14866977146706E-02
 cg2d: Sum(rhs),rhsMax =  -4.93345364560582E-11  6.27106804090665E-02
 cg2d: Sum(rhs),rhsMax =  -4.84076112527987E-11  6.39061878374996E-02
 cg2d: Sum(rhs),rhsMax =  -4.74422723328871E-11  6.50732188901937E-02
 cg2d: Sum(rhs),rhsMax =  -4.65736338384204E-11  6.62117312782084E-02
 cg2d: Sum(rhs),rhsMax =  -4.57328619418718E-11  6.73216290254415E-02
 cg2d: Sum(rhs),rhsMax =  -4.49064119223408E-11  6.84027203806749E-02
 cg2d: Sum(rhs),rhsMax =  -4.41494618641514E-11  6.94547290726661E-02
 cg2d: Sum(rhs),rhsMax =  -4.34556834960631E-11  7.04773125829415E-02
 cg2d: Sum(rhs),rhsMax =  -4.27679003323078E-11  7.14700511219607E-02
 cg2d: Sum(rhs),rhsMax =  -4.21351842305739E-11  7.24325356769518E-02
 cg2d: Sum(rhs),rhsMax =  -4.15868450787116E-11  7.33644180152339E-02
 cg2d: Sum(rhs),rhsMax =  -4.10766975988963E-11  7.42653949347803E-02
 cg2d: Sum(rhs),rhsMax =  -4.04790645447406E-11  7.51352083575596E-02
 cg2d: Sum(rhs),rhsMax =  -3.99795752059617E-11  7.59736329680839E-02
 cg2d: Sum(rhs),rhsMax =  -3.94912991197316E-11  7.67804711941543E-02
 cg2d: Sum(rhs),rhsMax =  -3.90472099098815E-11  7.75918113943699E-02
 cg2d: Sum(rhs),rhsMax =  -3.85715903661321E-11  7.83969133081564E-02
 cg2d: Sum(rhs),rhsMax =  -3.81300546692387E-11  7.91694014114550E-02
 cg2d: Sum(rhs),rhsMax =  -3.77132769457944E-11  7.99088864822376E-02
 cg2d: Sum(rhs),rhsMax =  -3.73592268232414E-11  8.06150000703112E-02
 cg2d: Sum(rhs),rhsMax =  -3.70308228525573E-11  8.12873291447514E-02
 cg2d: Sum(rhs),rhsMax =  -3.66525698680675E-11  8.19254009453883E-02
 cg2d: Sum(rhs),rhsMax =  -3.63288288340868E-11  8.25286982191653E-02
 cg2d: Sum(rhs),rhsMax =  -3.60819152334102E-11  8.30966834549284E-02
 cg2d: Sum(rhs),rhsMax =  -3.58584273385532E-11  8.36287784698282E-02
 cg2d: Sum(rhs),rhsMax =  -3.56494833653187E-11  8.41243817570569E-02
 cg2d: Sum(rhs),rhsMax =  -3.54349882769611E-11  8.45829466191048E-02
 cg2d: Sum(rhs),rhsMax =  -3.51915163676608E-11  8.50040026974701E-02
 cg2d: Sum(rhs),rhsMax =  -3.49039686042829E-11  8.53871676312932E-02
 cg2d: Sum(rhs),rhsMax =  -3.47410988865704E-11  8.57321053711351E-02
 cg2d: Sum(rhs),rhsMax =  -3.46305206733177E-11  8.60385308200943E-02
 cg2d: Sum(rhs),rhsMax =  -3.45805606372096E-11  8.63062338003046E-02
 cg2d: Sum(rhs),rhsMax =  -3.45118378319853E-11  8.65351080790303E-02
 cg2d: Sum(rhs),rhsMax =  -3.44296813281630E-11  8.67251319709226E-02
 cg2d: Sum(rhs),rhsMax =  -3.43584050099821E-11  8.68763691084216E-02
 cg2d: Sum(rhs),rhsMax =  -3.43146622228119E-11  8.69889794497422E-02
 cg2d: Sum(rhs),rhsMax =  -3.42860184687765E-11  8.70632198546794E-02
 cg2d: Sum(rhs),rhsMax =  -3.42302852729404E-11  8.70994273132462E-02
 cg2d: Sum(rhs),rhsMax =  -3.41942030246400E-11  8.70980191618082E-02
 cg2d: Sum(rhs),rhsMax =  -3.41343620036128E-11  8.70594615481685E-02
 cg2d: Sum(rhs),rhsMax =  -3.41725536756599E-11  8.69842473022055E-02
 cg2d: Sum(rhs),rhsMax =  -3.42043060541641E-11  8.68729321531389E-02
 cg2d: Sum(rhs),rhsMax =  -3.42107453477070E-11  8.67260993420618E-02
 cg2d: Sum(rhs),rhsMax =  -3.42802453090485E-11  8.65442747148710E-02
 cg2d: Sum(rhs),rhsMax =  -3.44891892822830E-11  8.63279660042335E-02
 cg2d: Sum(rhs),rhsMax =  -3.45746764551791E-11  8.60776008945063E-02
 cg2d: Sum(rhs),rhsMax =  -3.47248896304109E-11  8.57934923367046E-02
 cg2d: Sum(rhs),rhsMax =  -3.49474893468482E-11  8.54758183380498E-02
 cg2d: Sum(rhs),rhsMax =  -3.51545459409408E-11  8.51246245185732E-02
 cg2d: Sum(rhs),rhsMax =  -3.53336249148128E-11  8.47398234027331E-02
 cg2d: Sum(rhs),rhsMax =  -3.55743212665516E-11  8.43211998516940E-02
 cg2d: Sum(rhs),rhsMax =  -3.58696405911019E-11  8.38684277089956E-02
 cg2d: Sum(rhs),rhsMax =  -3.62242458251671E-11  8.33810954693437E-02
 cg2d: Sum(rhs),rhsMax =  -3.64818175668802E-11  8.28587319658064E-02
 cg2d: Sum(rhs),rhsMax =  -3.67454955352287E-11  8.23008423943805E-02
 cg2d: Sum(rhs),rhsMax =  -3.70574682051483E-11  8.17069308486312E-02
 cg2d: Sum(rhs),rhsMax =  -3.74331676766815E-11  8.10765282159765E-02
 cg2d: Sum(rhs),rhsMax =  -3.77177178378929E-11  8.04092482881325E-02
 cg2d: Sum(rhs),rhsMax =  -3.80946385547531E-11  7.97048065101332E-02
 cg2d: Sum(rhs),rhsMax =  -3.85099729882654E-11  7.89630491625946E-02
 cg2d: Sum(rhs),rhsMax =  -3.89166476821856E-11  7.81839788444550E-02
 cg2d: Sum(rhs),rhsMax =  -3.93621801819677E-11  7.73678154041650E-02
 cg2d: Sum(rhs),rhsMax =  -3.98152621983172E-11  7.65149653876190E-02
 cg2d: Sum(rhs),rhsMax =  -4.03344024846319E-11  7.56259354921232E-02
 cg2d: Sum(rhs),rhsMax =  -4.09434708359413E-11  7.47014608437110E-02
 cg2d: Sum(rhs),rhsMax =  -4.15062428871238E-11  7.37425654393957E-02
 cg2d: Sum(rhs),rhsMax =  -4.21618295831649E-11  7.27505364211466E-02
(PID.TID 0000.0001)      cg2d_init_res =   1.09932272676269E-01
(PID.TID 0000.0001)      cg2d_iters(min,last) =      -1      37
(PID.TID 0000.0001)      cg2d_last_res =   7.03077044656482E-14
(PID.TID 0000.0001) // =======================================================
(PID.TID 0000.0001) // Begin MONITOR dynamic field statistics
(PID.TID 0000.0001) // =======================================================
(PID.TID 0000.0001) %MON time_tsnumber                =                  4800
(PID.TID 0000.0001) %MON time_secondsf                =   7.2000000000000E+04
(PID.TID 0000.0001) %MON dynstat_eta_max              =   1.7207940913007E-02
(PID.TID 0000.0001) %MON dynstat_eta_min              =  -1.7217751234362E-02
(PID.TID 0000.0001) %MON dynstat_eta_mean             =   6.5261409636773E-15
(PID.TID 0000.0001) %MON dynstat_eta_sd               =   1.1266814654725E-02
(PID.TID 0000.0001) %MON dynstat_eta_del2             =   2.0043824972110E-05
(PID.TID 0000.0001) %MON dynstat_uvel_max             =   1.2153479678476E+00
(PID.TID 0000.0001) %MON dynstat_uvel_min             =  -3.7553588918332E-01
(PID.TID 0000.0001) %MON dynstat_uvel_mean            =   2.8467385000383E-01
(PID.TID 0000.0001) %MON dynstat_uvel_sd              =   1.3505696154503E-01
(PID.TID 0000.0001) %MON dynstat_uvel_del2            =   7.1622293437509E-04
(PID.TID 0000.0001) %MON dynstat_vvel_max             =   0.0000000000000E+00
(PID.TID 0000.0001) %MON dynstat_vvel_min             =   0.0000000000000E+00
(PID.TID 0000.0001) %MON dynstat_vvel_mean            =   0.0000000000000E+00
(PID.TID 0000.0001) %MON dynstat_vvel_sd              =   0.0000000000000E+00
(PID.TID 0000.0001) %MON dynstat_vvel_del2            =   0.0000000000000E+00
(PID.TID 0000.0001) %MON dynstat_wvel_max             =   2.8263916464148E-02
(PID.TID 0000.0001) %MON dynstat_wvel_min             =  -3.1084893254289E-02
(PID.TID 0000.0001) %MON dynstat_wvel_mean            =  -5.0369582483567E-21
(PID.TID 0000.0001) %MON dynstat_wvel_sd              =   2.3605815148892E-03
(PID.TID 0000.0001) %MON dynstat_wvel_del2            =   7.8870011975736E-05
(PID.TID 0000.0001) %MON dynstat_theta_max            =   1.5000000000008E+01
(PID.TID 0000.0001) %MON dynstat_theta_min            =   9.9999999999936E+00
(PID.TID 0000.0001) %MON dynstat_theta_mean           =   1.2483634149677E+01
(PID.TID 0000.0001) %MON dynstat_theta_sd             =   2.4001131492342E+00
(PID.TID 0000.0001) %MON dynstat_theta_del2           =   1.3465051682712E-03
(PID.TID 0000.0001) %MON dynstat_salt_max             =   3.5000000000000E+01
(PID.TID 0000.0001) %MON dynstat_salt_min             =   3.5000000000000E+01
(PID.TID 0000.0001) %MON dynstat_salt_mean            =   3.5000000000000E+01
(PID.TID 0000.0001) %MON dynstat_salt_sd              =   3.1974423109205E-13
(PID.TID 0000.0001) %MON dynstat_salt_del2            =   0.0000000000000E+00
(PID.TID 0000.0001) %MON dynstat_sst_max              =   1.5000000000000E+01
(PID.TID 0000.0001) %MON dynstat_sst_min              =   1.4997489651590E+01
(PID.TID 0000.0001) %MON dynstat_sst_mean             =   1.4999903351563E+01
(PID.TID 0000.0001) %MON dynstat_sst_sd               =   3.9139320931334E-04
(PID.TID 0000.0001) %MON dynstat_sst_del2             =   8.3906842875490E-06
(PID.TID 0000.0001) %MON dynstat_sss_max              =   3.5000000000000E+01
(PID.TID 0000.0001) %MON dynstat_sss_min              =   3.5000000000000E+01
(PID.TID 0000.0001) %MON dynstat_sss_mean             =   3.5000000000000E+01
(PID.TID 0000.0001) %MON dynstat_sss_sd               =   5.6843418860808E-14
(PID.TID 0000.0001) %MON dynstat_sss_del2             =   0.0000000000000E+00
(PID.TID 0000.0001) %MON forcing_qnet_max             =   0.0000000000000E+00
(PID.TID 0000.0001) %MON forcing_qnet_min             =   0.0000000000000E+00
(PID.TID 0000.0001) %MON forcing_qnet_mean            =   0.0000000000000E+00
(PID.TID 0000.0001) %MON forcing_qnet_sd              =   0.0000000000000E+00
(PID.TID 0000.0001) %MON forcing_qnet_del2            =   0.0000000000000E+00
(PID.TID 0000.0001) %MON forcing_qsw_max              =   0.0000000000000E+00
(PID.TID 0000.0001) %MON forcing_qsw_min              =   0.0000000000000E+00
(PID.TID 0000.0001) %MON forcing_qsw_mean             =   0.0000000000000E+00
(PID.TID 0000.0001) %MON forcing_qsw_sd               =   0.0000000000000E+00
(PID.TID 0000.0001) %MON forcing_qsw_del2             =   0.0000000000000E+00
(PID.TID 0000.0001) %MON forcing_empmr_max            =   0.0000000000000E+00
(PID.TID 0000.0001) %MON forcing_empmr_min            =   0.0000000000000E+00
(PID.TID 0000.0001) %MON forcing_empmr_mean           =   0.0000000000000E+00
(PID.TID 0000.0001) %MON forcing_empmr_sd             =   0.0000000000000E+00
(PID.TID 0000.0001) %MON forcing_empmr_del2           =   0.0000000000000E+00
(PID.TID 0000.0001) %MON forcing_fu_max               =   0.0000000000000E+00
(PID.TID 0000.0001) %MON forcing_fu_min               =   0.0000000000000E+00
(PID.TID 0000.0001) %MON forcing_fu_mean              =   0.0000000000000E+00
(PID.TID 0000.0001) %MON forcing_fu_sd                =   0.0000000000000E+00
(PID.TID 0000.0001) %MON forcing_fu_del2              =   0.0000000000000E+00
(PID.TID 0000.0001) %MON forcing_fv_max               =   0.0000000000000E+00
(PID.TID 0000.0001) %MON forcing_fv_min               =   0.0000000000000E+00
(PID.TID 0000.0001) %MON forcing_fv_mean              =   0.0000000000000E+00
(PID.TID 0000.0001) %MON forcing_fv_sd                =   0.0000000000000E+00
(PID.TID 0000.0001) %MON forcing_fv_del2              =   0.0000000000000E+00
(PID.TID 0000.0001) %MON advcfl_uvel_max              =   9.1151097588569E-02
(PID.TID 0000.0001) %MON advcfl_vvel_max              =   0.0000000000000E+00
(PID.TID 0000.0001) %MON advcfl_wvel_max              =   4.5114514438789E-01
(PID.TID 0000.0001) %MON advcfl_W_hf_max              =   4.5114514438789E-01
(PID.TID 0000.0001) %MON pe_b_mean                    =   3.1798652454159E-06
(PID.TID 0000.0001) %MON ke_max                       =   6.8773249616490E-01
(PID.TID 0000.0001) %MON ke_mean                      =   4.9726910500805E-02
(PID.TID 0000.0001) %MON ke_vol                       =   9.5633499295324E+10
(PID.TID 0000.0001) %MON vort_r_min                   =   0.0000000000000E+00
(PID.TID 0000.0001) %MON vort_r_max                   =   0.0000000000000E+00
(PID.TID 0000.0001) %MON vort_a_mean                  =   0.0000000000000E+00
(PID.TID 0000.0001) %MON vort_a_sd                    =   0.0000000000000E+00
(PID.TID 0000.0001) %MON vort_p_mean                  =   0.0000000000000E+00
(PID.TID 0000.0001) %MON vort_p_sd                    =   0.0000000000000E+00
(PID.TID 0000.0001) %MON surfExpan_theta_mean         =   1.0022057347697E-09
(PID.TID 0000.0001) %MON surfExpan_salt_mean          =  -9.1247043527753E-20
(PID.TID 0000.0001) // =======================================================
(PID.TID 0000.0001) // End MONITOR dynamic field statistics
(PID.TID 0000.0001) // =======================================================
(PID.TID 0000.0001) // =======================================================
(PID.TID 0000.0001) // Begin OBCS MONITOR field statistics
(PID.TID 0000.0001) // =======================================================
(PID.TID 0000.0001) %MON obc_E_uVel_max               =   2.8014282071829E-01
(PID.TID 0000.0001) %MON obc_E_uVel_min               =   2.8014282071829E-01
(PID.TID 0000.0001) %MON obc_E_uVel_mean              =   2.8014282071829E-01
(PID.TID 0000.0001) %MON obc_E_uVel_sd                =   3.7252902984619E-09
(PID.TID 0000.0001) %MON obc_E_uVel_Int               =   2.8014282071829E+05
(PID.TID 0000.0001) %MON obc_W_uVel_max               =   2.8014282071829E-01
(PID.TID 0000.0001) %MON obc_W_uVel_min               =   2.8014282071829E-01
(PID.TID 0000.0001) %MON obc_W_uVel_mean              =   2.8014282071829E-01
(PID.TID 0000.0001) %MON obc_W_uVel_sd                =   3.7252902984619E-09
(PID.TID 0000.0001) %MON obc_W_uVel_Int               =   2.8014282071829E+05
(PID.TID 0000.0001) // =======================================================
(PID.TID 0000.0001) // End OBCS MONITOR field statistics
(PID.TID 0000.0001) // =======================================================
 cg2d: Sum(rhs),rhsMax =  -4.28505009253399E-11  7.17268694007237E-02
 cg2d: Sum(rhs),rhsMax =  -4.35133040710411E-11  7.06732200297579E-02
 cg2d: Sum(rhs),rhsMax =  -4.42934577904452E-11  6.95913723081100E-02
 cg2d: Sum(rhs),rhsMax =  -4.50725012868247E-11  6.84831825074571E-02
 cg2d: Sum(rhs),rhsMax =  -4.59106086481142E-11  6.73504998749748E-02
 cg2d: Sum(rhs),rhsMax =  -4.68035610268203E-11  6.61951140618064E-02
 cg2d: Sum(rhs),rhsMax =  -4.77179407099015E-11  6.50186945214274E-02
 cg2d: Sum(rhs),rhsMax =  -4.86711781988447E-11  6.38227262396909E-02
 cg2d: Sum(rhs),rhsMax =  -4.96593877130636E-11  6.26084531778947E-02
 cg2d: Sum(rhs),rhsMax =  -5.07426323181903E-11  6.13768388139073E-02
 cg2d: Sum(rhs),rhsMax =  -5.18238785218728E-11  6.01285355843017E-02
 cg2d: Sum(rhs),rhsMax =  -5.29595256537618E-11  5.88638892317828E-02
 cg2d: Sum(rhs),rhsMax =  -5.42065281550208E-11  5.75829517214051E-02
 cg2d: Sum(rhs),rhsMax =  -5.54557511023290E-11  5.62855376516815E-02
 cg2d: Sum(rhs),rhsMax =  -5.68787239529911E-11  5.49712917445715E-02
 cg2d: Sum(rhs),rhsMax =  -5.83330050929476E-11  5.36397483705387E-02
 cg2d: Sum(rhs),rhsMax =  -5.98863181267006E-11  5.22903732829172E-02
 cg2d: Sum(rhs),rhsMax =  -6.15982820306726E-11  5.09226483669257E-02
 cg2d: Sum(rhs),rhsMax =  -6.33898489255103E-11  4.95361469439313E-02
 cg2d: Sum(rhs),rhsMax =  -6.52790044242124E-11  4.81305941712798E-02
 cg2d: Sum(rhs),rhsMax =  -6.73666677997176E-11  4.67059058887629E-02
 cg2d: Sum(rhs),rhsMax =  -6.95927759863935E-11  4.52622321668568E-02
 cg2d: Sum(rhs),rhsMax =  -7.20615789262524E-11  4.37999430719600E-02
 cg2d: Sum(rhs),rhsMax =  -7.46716022348437E-11  4.23196293823867E-02
 cg2d: Sum(rhs),rhsMax =  -7.75230990512910E-11  4.08220946794838E-02
 cg2d: Sum(rhs),rhsMax =  -8.05214783738961E-11  3.93083426169765E-02
 cg2d: Sum(rhs),rhsMax =  -8.38958902349418E-11  3.77795232681827E-02
 cg2d: Sum(rhs),rhsMax =  -8.76022587803504E-11  3.62368378585187E-02
 cg2d: Sum(rhs),rhsMax =  -9.16749454127341E-11  3.46815122805692E-02
 cg2d: Sum(rhs),rhsMax =  -9.60780899283975E-11  3.31147387933711E-02
 cg2d: Sum(rhs),rhsMax =  -1.00986663476021E-10  3.15376470511723E-02
 cg2d: Sum(rhs),rhsMax =  -1.00046360085315E-10  3.18681662215626E-02
 cg2d: Sum(rhs),rhsMax =  -9.38019106833110E-11  3.40042544174695E-02
 cg2d: Sum(rhs),rhsMax =  -8.82382777955826E-11  3.61975512323415E-02
 cg2d: Sum(rhs),rhsMax =  -8.31292534808625E-11  3.84573821768284E-02
 cg2d: Sum(rhs),rhsMax =  -7.84165926637215E-11  4.08286701518076E-02
 cg2d: Sum(rhs),rhsMax =  -7.39685986073102E-11  4.33247684202188E-02
 cg2d: Sum(rhs),rhsMax =  -7.00185083524207E-11  4.58295381302878E-02
 cg2d: Sum(rhs),rhsMax =  -6.64781285575344E-11  4.83403414181000E-02
 cg2d: Sum(rhs),rhsMax =  -6.32534025157838E-11  5.08546206995289E-02
 cg2d: Sum(rhs),rhsMax =  -6.03555816436341E-11  5.33699482160511E-02
 cg2d: Sum(rhs),rhsMax =  -5.76846903577177E-11  5.58840682620202E-02
 cg2d: Sum(rhs),rhsMax =  -5.52675127885038E-11  5.83949300454747E-02
 cg2d: Sum(rhs),rhsMax =  -5.30473165394341E-11  6.09007097425818E-02
 cg2d: Sum(rhs),rhsMax =  -5.10073649984122E-11  6.33998209351679E-02
 cg2d: Sum(rhs),rhsMax =  -4.91387486256656E-11  6.58909134998518E-02
 cg2d: Sum(rhs),rhsMax =  -4.74395522864768E-11  6.83728618071289E-02
 cg2d: Sum(rhs),rhsMax =  -4.58336146813565E-11  7.08447437979904E-02
 cg2d: Sum(rhs),rhsMax =  -4.43491354751302E-11  7.33058130763602E-02
 cg2d: Sum(rhs),rhsMax =  -4.29671298540768E-11  7.57554665406261E-02
 cg2d: Sum(rhs),rhsMax =  -4.16809364800486E-11  7.81932102432079E-02
 cg2d: Sum(rhs),rhsMax =  -4.04532518594181E-11  8.06186260996520E-02
 cg2d: Sum(rhs),rhsMax =  -3.93171051271679E-11  8.30313417778721E-02
 cg2d: Sum(rhs),rhsMax =  -3.82995302139477E-11  8.54310056173188E-02
 cg2d: Sum(rhs),rhsMax =  -3.73442388124090E-11  8.78172678108143E-02
 cg2d: Sum(rhs),rhsMax =  -3.64227537019701E-11  9.01897683669430E-02
 cg2d: Sum(rhs),rhsMax =  -3.55829254949924E-11  9.25481317974151E-02
 cg2d: Sum(rhs),rhsMax =  -3.47966655489529E-11  9.48919677569319E-02
 cg2d: Sum(rhs),rhsMax =  -3.40317218849862E-11  9.72208764333124E-02
 cg2d: Sum(rhs),rhsMax =  -3.33055250045788E-11  9.95344571573663E-02
 cg2d: Sum(rhs),rhsMax =  -3.26068616551822E-11  1.01832318732512E-01
 cg2d: Sum(rhs),rhsMax =  -3.19523851821657E-11  1.04114090046671E-01
 cg2d: Sum(rhs),rhsMax =  -3.13169490340215E-11  1.06379429799100E-01
 cg2d: Sum(rhs),rhsMax =  -3.07352476802691E-11  1.08628034548260E-01
 cg2d: Sum(rhs),rhsMax =  -3.01563218840784E-11  1.10859644731453E-01
 cg2d: Sum(rhs),rhsMax =  -2.96008773048584E-11  1.13074048714284E-01
 cg2d: Sum(rhs),rhsMax =  -2.91083823711347E-11  1.15271085262675E-01
 cg2d: Sum(rhs),rhsMax =  -2.86147772143863E-11  1.17450644992632E-01
 cg2d: Sum(rhs),rhsMax =  -2.81836776139244E-11  1.19612671364906E-01
 cg2d: Sum(rhs),rhsMax =  -2.77325939990192E-11  1.21757161640341E-01
 cg2d: Sum(rhs),rhsMax =  -2.73238098813522E-11  1.23884167918689E-01
 cg2d: Sum(rhs),rhsMax =  -2.68987054852232E-11  1.25993797997097E-01
 cg2d: Sum(rhs),rhsMax =  -2.65119037834438E-11  1.28086215371032E-01
 cg2d: Sum(rhs),rhsMax =  -2.61722865602110E-11  1.30161637334808E-01
 cg2d: Sum(rhs),rhsMax =  -2.58010279807763E-11  1.32220329890849E-01
 cg2d: Sum(rhs),rhsMax =  -2.54579690661672E-11  1.34262598101246E-01
 cg2d: Sum(rhs),rhsMax =  -2.51139109508358E-11  1.36288770643730E-01
 cg2d: Sum(rhs),rhsMax =  -2.47450948620553E-11  1.38299177670707E-01
 cg2d: Sum(rhs),rhsMax =  -2.44263498316855E-11  1.40294121590349E-01
 cg2d: Sum(rhs),rhsMax =  -2.41173747639323E-11  1.42273841043191E-01
 cg2d: Sum(rhs),rhsMax =  -2.38173925026786E-11  1.44238469068192E-01
 cg2d: Sum(rhs),rhsMax =  -2.36581865209473E-11  1.46187987160831E-01
 cg2d: Sum(rhs),rhsMax =  -2.33637553748167E-11  1.48122177546642E-01
 cg2d: Sum(rhs),rhsMax =  -2.31105135028997E-11  1.50040576447188E-01
 cg2d: Sum(rhs),rhsMax =  -2.28159713344667E-11  1.51942431369685E-01
 cg2d: Sum(rhs),rhsMax =  -2.25414131804769E-11  1.53826665489803E-01
 cg2d: Sum(rhs),rhsMax =  -2.23419061029517E-11  1.55691851935814E-01
 cg2d: Sum(rhs),rhsMax =  -2.22092344515090E-11  1.57536200352737E-01
 cg2d: Sum(rhs),rhsMax =  -2.20297113884271E-11  1.59357557495919E-01
 cg2d: Sum(rhs),rhsMax =  -2.18467466339689E-11  1.61153422838129E-01
 cg2d: Sum(rhs),rhsMax =  -2.16917594997312E-11  1.62920979334853E-01
 cg2d: Sum(rhs),rhsMax =  -2.15494289079743E-11  1.64657138639369E-01
 cg2d: Sum(rhs),rhsMax =  -2.13731254916638E-11  1.66358599245202E-01
 cg2d: Sum(rhs),rhsMax =  -2.11495265745043E-11  1.68021915306990E-01
 cg2d: Sum(rhs),rhsMax =  -2.09744444035209E-11  1.69643573287866E-01
 cg2d: Sum(rhs),rhsMax =  -2.08287831426901E-11  1.71220073130289E-01
 cg2d: Sum(rhs),rhsMax =  -2.07260875129123E-11  1.72748010369469E-01
 cg2d: Sum(rhs),rhsMax =  -2.06277217529305E-11  1.74224155517397E-01
 cg2d: Sum(rhs),rhsMax =  -2.06130668090054E-11  1.75645527146299E-01
 cg2d: Sum(rhs),rhsMax =  -2.05532257879781E-11  1.77009455391120E-01
 cg2d: Sum(rhs),rhsMax =  -2.04650740798229E-11  1.78313633059765E-01
 cg2d: Sum(rhs),rhsMax =  -2.03548289334776E-11  1.79556152180701E-01
 cg2d: Sum(rhs),rhsMax =  -2.02312611108368E-11  1.80735524585924E-01
 cg2d: Sum(rhs),rhsMax =  -2.01436645141939E-11  1.81850685983025E-01
 cg2d: Sum(rhs),rhsMax =  -2.00979233255794E-11  1.82900983896393E-01
 cg2d: Sum(rhs),rhsMax =  -2.00601757427421E-11  1.83886150765477E-01
 cg2d: Sum(rhs),rhsMax =  -2.00324201671265E-11  1.84806264344897E-01
 cg2d: Sum(rhs),rhsMax =  -2.00535144045944E-11  1.85661698194828E-01
 cg2d: Sum(rhs),rhsMax =  -1.99928962274498E-11  1.86453065606280E-01
 cg2d: Sum(rhs),rhsMax =  -1.99840144432528E-11  1.87181160634282E-01
 cg2d: Sum(rhs),rhsMax =  -1.99981142756656E-11  1.87846899899770E-01
 cg2d: Sum(rhs),rhsMax =  -1.99730232353090E-11  1.88451268590910E-01
 cg2d: Sum(rhs),rhsMax =  -1.99604777151308E-11  1.88995273625841E-01
 cg2d: Sum(rhs),rhsMax =  -1.99612548712480E-11  1.89479906271765E-01
 cg2d: Sum(rhs),rhsMax =  -1.99574801129643E-11  1.89906115706528E-01
 cg2d: Sum(rhs),rhsMax =  -1.99977812087582E-11  1.90274794128121E-01
 cg2d: Sum(rhs),rhsMax =  -2.00216510037876E-11  1.90586773139121E-01
 cg2d: Sum(rhs),rhsMax =  -2.00188754462260E-11  1.90842830233547E-01
 cg2d: Sum(rhs),rhsMax =  -1.99591454475012E-11  1.91043703896336E-01
 cg2d: Sum(rhs),rhsMax =  -1.99100735898128E-11  1.91190114915096E-01
 cg2d: Sum(rhs),rhsMax =  -1.98790983674257E-11  1.91282791212572E-01
 cg2d: Sum(rhs),rhsMax =  -1.98814298357775E-11  1.91322493661130E-01
 cg2d: Sum(rhs),rhsMax =  -1.98580041299579E-11  1.91310040325255E-01
 cg2d: Sum(rhs),rhsMax =  -1.98407956730762E-11  1.91246326871122E-01
 cg2d: Sum(rhs),rhsMax =  -1.98622229774514E-11  1.91132341059994E-01
 cg2d: Sum(rhs),rhsMax =  -1.99114058574423E-11  1.90969169737985E-01
 cg2d: Sum(rhs),rhsMax =  -1.99138483480965E-11  1.90757997440645E-01
 cg2d: Sum(rhs),rhsMax =  -1.99494865071870E-11  1.90500096067340E-01
 cg2d: Sum(rhs),rhsMax =  -1.99485983287673E-11  1.90196805579850E-01
 cg2d: Sum(rhs),rhsMax =  -2.00301997210772E-11  1.89849506181096E-01
 cg2d: Sum(rhs),rhsMax =  -2.00344185685708E-11  1.89459582919795E-01
 cg2d: Sum(rhs),rhsMax =  -2.00196526023433E-11  1.89028384152648E-01
 cg2d: Sum(rhs),rhsMax =  -1.99865679562095E-11  1.88557175664218E-01
 cg2d: Sum(rhs),rhsMax =  -2.00155447771522E-11  1.88047092724877E-01
 cg2d: Sum(rhs),rhsMax =  -2.01235694774482E-11  1.87499092680922E-01
 cg2d: Sum(rhs),rhsMax =  -2.01075822658936E-11  1.86913910888097E-01
 cg2d: Sum(rhs),rhsMax =  -2.01204608529792E-11  1.86292022913303E-01
 cg2d: Sum(rhs),rhsMax =  -2.00958139018326E-11  1.85633615880077E-01
 cg2d: Sum(rhs),rhsMax =  -2.00827132701420E-11  1.84938571584509E-01
 cg2d: Sum(rhs),rhsMax =  -2.00233163383245E-11  1.84206463536460E-01
 cg2d: Sum(rhs),rhsMax =  -1.99705807446549E-11  1.83436569383579E-01
 cg2d: Sum(rhs),rhsMax =  -1.99857908000922E-11  1.82627899275164E-01
 cg2d: Sum(rhs),rhsMax =  -2.00364169700151E-11  1.81779239499783E-01
 cg2d: Sum(rhs),rhsMax =  -1.99563698899397E-11  1.80889210256924E-01
 cg2d: Sum(rhs),rhsMax =  -2.00056637922330E-11  1.79956334424240E-01
 cg2d: Sum(rhs),rhsMax =  -2.00353067469905E-11  1.78979113546246E-01
 cg2d: Sum(rhs),rhsMax =  -2.01051397752394E-11  1.77956106547403E-01
 cg2d: Sum(rhs),rhsMax =  -2.01579863912116E-11  1.76886006211724E-01
 cg2d: Sum(rhs),rhsMax =  -2.02305949770221E-11  1.75767708387281E-01
 cg2d: Sum(rhs),rhsMax =  -2.02813321692474E-11  1.74600369204440E-01
 cg2d: Sum(rhs),rhsMax =  -2.03437267032314E-11  1.73383446370449E-01
 cg2d: Sum(rhs),rhsMax =  -2.04082306609621E-11  1.72116721755527E-01
 cg2d: Sum(rhs),rhsMax =  -2.04700700834337E-11  1.70800303923701E-01
 cg2d: Sum(rhs),rhsMax =  -2.06017425341543E-11  1.69434610865469E-01
 cg2d: Sum(rhs),rhsMax =  -2.07037720301173E-11  1.68020334923493E-01
 cg2d: Sum(rhs),rhsMax =  -2.08032480131237E-11  1.66558393015365E-01
 cg2d: Sum(rhs),rhsMax =  -2.09147144047961E-11  1.65049866860328E-01
 cg2d: Sum(rhs),rhsMax =  -2.10241823950241E-11  1.63495938730308E-01
 cg2d: Sum(rhs),rhsMax =  -2.11878292688539E-11  1.61897828502488E-01
 cg2d: Sum(rhs),rhsMax =  -2.13188355857596E-11  1.60256737545749E-01
 cg2d: Sum(rhs),rhsMax =  -2.14697148948062E-11  1.58573804303390E-01
 cg2d: Sum(rhs),rhsMax =  -2.16476836456536E-11  1.56850075327198E-01
 cg2d: Sum(rhs),rhsMax =  -2.18927098671884E-11  1.55086494049544E-01
 cg2d: Sum(rhs),rhsMax =  -2.21153095836257E-11  1.53283907903503E-01
 cg2d: Sum(rhs),rhsMax =  -2.23369100993409E-11  1.51443092667618E-01
 cg2d: Sum(rhs),rhsMax =  -2.26086926957692E-11  1.49564791292438E-01
 cg2d: Sum(rhs),rhsMax =  -2.28334018359533E-11  1.47649763113232E-01
 cg2d: Sum(rhs),rhsMax =  -2.31062946554061E-11  1.45698838392973E-01
 cg2d: Sum(rhs),rhsMax =  -2.33899566381979E-11  1.43712972636861E-01
 cg2d: Sum(rhs),rhsMax =  -2.36505259820774E-11  1.41693295152933E-01
 cg2d: Sum(rhs),rhsMax =  -2.39938069412915E-11  1.39641146869488E-01
 cg2d: Sum(rhs),rhsMax =  -2.43119968601491E-11  1.37558103399254E-01
 cg2d: Sum(rhs),rhsMax =  -2.46236364631613E-11  1.35445980581686E-01
 cg2d: Sum(rhs),rhsMax =  -2.49558151921292E-11  1.33306821312088E-01
 cg2d: Sum(rhs),rhsMax =  -2.53090881585649E-11  1.31142864055886E-01
 cg2d: Sum(rhs),rhsMax =  -2.56876742099621E-11  1.28956494920124E-01
 cg2d: Sum(rhs),rhsMax =  -2.60672594620814E-11  1.26750186651744E-01
 cg2d: Sum(rhs),rhsMax =  -2.64760435797484E-11  1.24526428821435E-01
 cg2d: Sum(rhs),rhsMax =  -2.68924327251341E-11  1.22287653926938E-01
 cg2d: Sum(rhs),rhsMax =  -2.72999400863227E-11  1.20036164500744E-01
 cg2d: Sum(rhs),rhsMax =  -2.78204126402670E-11  1.17774066103971E-01
 cg2d: Sum(rhs),rhsMax =  -2.83228440700611E-11  1.15503210496997E-01
 cg2d: Sum(rhs),rhsMax =  -2.88106205559302E-11  1.13225152399375E-01
 cg2d: Sum(rhs),rhsMax =  -2.93076674040549E-11  1.10941122180711E-01
 cg2d: Sum(rhs),rhsMax =  -2.98621127825527E-11  1.08652015662948E-01
 cg2d: Sum(rhs),rhsMax =  -3.04075098433998E-11  1.06358401059722E-01
 cg2d: Sum(rhs),rhsMax =  -3.10019787619353E-11  1.04060542046118E-01
 cg2d: Sum(rhs),rhsMax =  -3.16206505424077E-11  1.01758434955981E-01
 cg2d: Sum(rhs),rhsMax =  -3.22698534560573E-11  9.94518575103261E-02
 cg2d: Sum(rhs),rhsMax =  -3.29112292973832E-11  9.71404260275941E-02
 cg2d: Sum(rhs),rhsMax =  -3.35781957794268E-11  9.48236577986811E-02
 cg2d: Sum(rhs),rhsMax =  -3.43081674181178E-11  9.25010352892088E-02
 cg2d: Sum(rhs),rhsMax =  -3.50792173087200E-11  9.01720689928798E-02
 cg2d: Sum(rhs),rhsMax =  -3.59096086199884E-11  8.78363560623057E-02
 cg2d: Sum(rhs),rhsMax =  -3.68071684242466E-11  8.54936322505700E-02
 cg2d: Sum(rhs),rhsMax =  -3.77795572603645E-11  8.31438151931195E-02
 cg2d: Sum(rhs),rhsMax =  -3.88345466895146E-11  8.07870374404348E-02
 cg2d: Sum(rhs),rhsMax =  -3.99522082084047E-11  7.84236684013149E-02
 cg2d: Sum(rhs),rhsMax =  -4.11348732853867E-11  7.60543247570974E-02
 cg2d: Sum(rhs),rhsMax =  -4.23845958330560E-11  7.36798694245634E-02
 cg2d: Sum(rhs),rhsMax =  -4.37262448471643E-11  7.13013996516835E-02
 cg2d: Sum(rhs),rhsMax =  -4.51603476836482E-11  6.89202253072888E-02
 cg2d: Sum(rhs),rhsMax =  -4.66863214754198E-11  6.65378388515720E-02
 cg2d: Sum(rhs),rhsMax =  -4.83519613236894E-11  6.41558788294863E-02
 cg2d: Sum(rhs),rhsMax =  -5.01464425539666E-11  6.17760889950236E-02
 cg2d: Sum(rhs),rhsMax =  -5.20836429540594E-11  5.94002753328553E-02
 cg2d: Sum(rhs),rhsMax =  -5.41962308364674E-11  5.70302632789970E-02
 cg2d: Sum(rhs),rhsMax =  -5.64376878564588E-11  5.46678573431685E-02
 cg2d: Sum(rhs),rhsMax =  -5.89025911379437E-11  5.23148051094764E-02
 cg2d: Sum(rhs),rhsMax =  -6.15757683557205E-11  4.99727672182935E-02
 cg2d: Sum(rhs),rhsMax =  -6.45195077919603E-11  4.76432944150224E-02
 cg2d: Sum(rhs),rhsMax =  -6.77471551080444E-11  4.53278123136810E-02
 cg2d: Sum(rhs),rhsMax =  -7.12518655188177E-11  4.30276139257409E-02
 cg2d: Sum(rhs),rhsMax =  -7.51481377125884E-11  4.07438594219782E-02
 cg2d: Sum(rhs),rhsMax =  -7.94792287539536E-11  3.84775820880296E-02
 cg2d: Sum(rhs),rhsMax =  -8.43384251325574E-11  3.62296990904282E-02
 cg2d: Sum(rhs),rhsMax =  -8.72326100243015E-11  3.49976185909474E-02
 cg2d: Sum(rhs),rhsMax =  -8.35468361159997E-11  3.64824627354883E-02
 cg2d: Sum(rhs),rhsMax =  -8.02251598486237E-11  3.79538750416423E-02
 cg2d: Sum(rhs),rhsMax =  -7.71847030733852E-11  3.94111647197855E-02
 cg2d: Sum(rhs),rhsMax =  -7.43828332261387E-11  4.08536571371414E-02
 cg2d: Sum(rhs),rhsMax =  -7.17617076873012E-11  4.22807826599711E-02
 cg2d: Sum(rhs),rhsMax =  -6.93649582217404E-11  4.36920457061278E-02
 cg2d: Sum(rhs),rhsMax =  -6.71448452393975E-11  4.50869533071017E-02
 cg2d: Sum(rhs),rhsMax =  -6.50989262496182E-11  4.64650222097656E-02
 cg2d: Sum(rhs),rhsMax =  -6.31469321277223E-11  4.78257284758039E-02
 cg2d: Sum(rhs),rhsMax =  -6.13501471846689E-11  4.91685731892174E-02
 cg2d: Sum(rhs),rhsMax =  -5.96751537074169E-11  5.04930152337286E-02
 cg2d: Sum(rhs),rhsMax =  -5.81483750039524E-11  5.17984494921379E-02
 cg2d: Sum(rhs),rhsMax =  -5.66899860388048E-11  5.30842180671125E-02
 cg2d: Sum(rhs),rhsMax =  -5.52938805853387E-11  5.43495736058229E-02
 cg2d: Sum(rhs),rhsMax =  -5.40205657983961E-11  5.55937640337968E-02
 cg2d: Sum(rhs),rhsMax =  -5.28109778130670E-11  5.68160410070964E-02
 cg2d: Sum(rhs),rhsMax =  -5.16457987487229E-11  5.80156871648132E-02
 cg2d: Sum(rhs),rhsMax =  -5.06145125811486E-11  5.91920100568490E-02
 cg2d: Sum(rhs),rhsMax =  -4.96693797202852E-11  6.03444059423729E-02
 cg2d: Sum(rhs),rhsMax =  -4.87160312090396E-11  6.14723760951506E-02
 cg2d: Sum(rhs),rhsMax =  -4.77621275862816E-11  6.25755030258657E-02
 cg2d: Sum(rhs),rhsMax =  -4.68622918248229E-11  6.36534659600055E-02
 cg2d: Sum(rhs),rhsMax =  -4.60186333484103E-11  6.47060392618275E-02
 cg2d: Sum(rhs),rhsMax =  -4.52090587188536E-11  6.57330116768151E-02
 cg2d: Sum(rhs),rhsMax =  -4.45125047932038E-11  6.67341805533434E-02
 cg2d: Sum(rhs),rhsMax =  -4.38036273919806E-11  6.77093155926647E-02
 cg2d: Sum(rhs),rhsMax =  -4.30978586152264E-11  6.86581065375266E-02
 cg2d: Sum(rhs),rhsMax =  -4.24901225315466E-11  6.95801774329854E-02
 cg2d: Sum(rhs),rhsMax =  -4.19029255738224E-11  7.04750541320548E-02
 cg2d: Sum(rhs),rhsMax =  -4.13342693406094E-11  7.13421822749841E-02
 cg2d: Sum(rhs),rhsMax =  -4.08000300211597E-11  7.21809084624861E-02
 cg2d: Sum(rhs),rhsMax =  -4.02852196046410E-11  7.29905323422206E-02
 cg2d: Sum(rhs),rhsMax =  -3.98097110831941E-11  7.37703031300266E-02
 cg2d: Sum(rhs),rhsMax =  -3.93860499769971E-11  7.45194637794237E-02
 cg2d: Sum(rhs),rhsMax =  -3.89441812131963E-11  7.52372675520887E-02
 cg2d: Sum(rhs),rhsMax =  -3.85180776163452E-11  7.59230157931199E-02
 cg2d: Sum(rhs),rhsMax =  -3.81685794081932E-11  7.65760871518579E-02
 cg2d: Sum(rhs),rhsMax =  -3.78241882259545E-11  7.71959764738191E-02
 cg2d: Sum(rhs),rhsMax =  -3.74765773969443E-11  7.77822813863809E-02
 cg2d: Sum(rhs),rhsMax =  -3.71873642990295E-11  7.83347071399149E-02
 cg2d: Sum(rhs),rhsMax =  -3.68837183017945E-11  7.88530710527026E-02
 cg2d: Sum(rhs),rhsMax =  -3.66162655751623E-11  7.93373035871969E-02
 cg2d: Sum(rhs),rhsMax =  -3.63999941299653E-11  7.97874402838343E-02
 cg2d: Sum(rhs),rhsMax =  -3.61820573502314E-11  8.02036175975027E-02
 cg2d: Sum(rhs),rhsMax =  -3.59234864077962E-11  8.05860368817433E-02
 cg2d: Sum(rhs),rhsMax =  -3.57492924152325E-11  8.09349876509136E-02
 cg2d: Sum(rhs),rhsMax =  -3.55655505046570E-11  8.12508406047101E-02
 cg2d: Sum(rhs),rhsMax =  -3.54040130545741E-11  8.15340234499697E-02
 cg2d: Sum(rhs),rhsMax =  -3.53045370715677E-11  8.17849963971948E-02
 cg2d: Sum(rhs),rhsMax =  -3.51800810705072E-11  8.20042366886824E-02
 cg2d: Sum(rhs),rhsMax =  -3.51277895660473E-11  8.21922240075053E-02
 cg2d: Sum(rhs),rhsMax =  -3.50632856083166E-11  8.23494249539840E-02
 cg2d: Sum(rhs),rhsMax =  -3.49900108886914E-11  8.24762779627955E-02
 cg2d: Sum(rhs),rhsMax =  -3.49681394951062E-11  8.25731723660530E-02
 cg2d: Sum(rhs),rhsMax =  -3.49055229165174E-11  8.26404291171374E-02
 cg2d: Sum(rhs),rhsMax =  -3.49796858145623E-11  8.26782882919658E-02
 cg2d: Sum(rhs),rhsMax =  -3.50274254046212E-11  8.26868909172609E-02
 cg2d: Sum(rhs),rhsMax =  -3.50457440845275E-11  8.26662682365735E-02
 cg2d: Sum(rhs),rhsMax =  -3.50283135830409E-11  8.26163378497205E-02
 cg2d: Sum(rhs),rhsMax =  -3.50401929694044E-11  8.25369071401763E-02
 cg2d: Sum(rhs),rhsMax =  -3.50549589356319E-11  8.24276721424012E-02
 cg2d: Sum(rhs),rhsMax =  -3.52479156973118E-11  8.22882295140379E-02
 cg2d: Sum(rhs),rhsMax =  -3.53324036694858E-11  8.21181085693224E-02
 cg2d: Sum(rhs),rhsMax =  -3.54803963986683E-11  8.19168029387606E-02
 cg2d: Sum(rhs),rhsMax =  -3.56151774738578E-11  8.16837953708618E-02
 cg2d: Sum(rhs),rhsMax =  -3.57692764296758E-11  8.14186055431183E-02
 cg2d: Sum(rhs),rhsMax =  -3.60055318893160E-11  8.11207978196798E-02
 cg2d: Sum(rhs),rhsMax =  -3.61854990416077E-11  8.07900376330504E-02
 cg2d: Sum(rhs),rhsMax =  -3.64352992221484E-11  8.04261066882476E-02
 cg2d: Sum(rhs),rhsMax =  -3.67019747926633E-11  8.00289025072021E-02
 cg2d: Sum(rhs),rhsMax =  -3.69355657170445E-11  7.95984744073956E-02
 cg2d: Sum(rhs),rhsMax =  -3.72019082206521E-11  7.91350002877587E-02
 cg2d: Sum(rhs),rhsMax =  -3.74401620817366E-11  7.86387245932424E-02
 cg2d: Sum(rhs),rhsMax =  -3.77275988228121E-11  7.81099904758749E-02
 cg2d: Sum(rhs),rhsMax =  -3.79978271070058E-11  7.75492253583016E-02
 cg2d: Sum(rhs),rhsMax =  -3.82878173610379E-11  7.69568923518878E-02
 cg2d: Sum(rhs),rhsMax =  -3.86706222599287E-11  7.63334528493505E-02
 cg2d: Sum(rhs),rhsMax =  -3.90302234976048E-11  7.56793388643015E-02
 cg2d: Sum(rhs),rhsMax =  -3.94266841396984E-11  7.49949207735288E-02
 cg2d: Sum(rhs),rhsMax =  -3.99067445755463E-11  7.42804994007480E-02
 cg2d: Sum(rhs),rhsMax =  -4.03895805689558E-11  7.35363319924057E-02
 cg2d: Sum(rhs),rhsMax =  -4.08464373435891E-11  7.27626454267784E-02
 cg2d: Sum(rhs),rhsMax =  -4.13731271464712E-11  7.19596444492177E-02
 cg2d: Sum(rhs),rhsMax =  -4.19195789191917E-11  7.11275298454711E-02
 cg2d: Sum(rhs),rhsMax =  -4.25224300215632E-11  7.02665102602884E-02
 cg2d: Sum(rhs),rhsMax =  -4.31126245814539E-11  6.93768258935899E-02
 cg2d: Sum(rhs),rhsMax =  -4.37259117802569E-11  6.84587424533742E-02
 cg2d: Sum(rhs),rhsMax =  -4.44321246462209E-11  6.75125815342908E-02
 cg2d: Sum(rhs),rhsMax =  -4.51463311179623E-11  6.65387123579353E-02
 cg2d: Sum(rhs),rhsMax =  -4.59505766770008E-11  6.55375430985990E-02
 cg2d: Sum(rhs),rhsMax =  -4.67503813439407E-11  6.45095188380876E-02
 cg2d: Sum(rhs),rhsMax =  -4.76541028859856E-11  6.34551157377681E-02
 cg2d: Sum(rhs),rhsMax =  -4.85099738156691E-11  6.23748287019984E-02
 cg2d: Sum(rhs),rhsMax =  -4.94937424377895E-11  6.12691675813224E-02
 cg2d: Sum(rhs),rhsMax =  -5.04692954095276E-11  6.01386432325051E-02
 cg2d: Sum(rhs),rhsMax =  -5.14995823763797E-11  5.89837642178810E-02
 cg2d: Sum(rhs),rhsMax =  -5.25711696397479E-11  5.78050517065558E-02
 cg2d: Sum(rhs),rhsMax =  -5.37812017142869E-11  5.66030477128359E-02
 cg2d: Sum(rhs),rhsMax =  -5.50017809075598E-11  5.53782964783938E-02
 cg2d: Sum(rhs),rhsMax =  -5.63099566974756E-11  5.41313377906382E-02
 cg2d: Sum(rhs),rhsMax =  -5.77526915179760E-11  5.28627198195657E-02
 cg2d: Sum(rhs),rhsMax =  -5.92690341250091E-11  5.15730350756991E-02
 cg2d: Sum(rhs),rhsMax =  -6.08624262099511E-11  5.02629327633023E-02
 cg2d: Sum(rhs),rhsMax =  -6.25777207829969E-11  4.89331393490823E-02
 cg2d: Sum(rhs),rhsMax =  -6.43768371944020E-11  4.75843877384274E-02
 cg2d: Sum(rhs),rhsMax =  -6.63243904241995E-11  4.62174058181868E-02
 cg2d: Sum(rhs),rhsMax =  -6.84264866990247E-11  4.48329562024542E-02
 cg2d: Sum(rhs),rhsMax =  -7.07013336764817E-11  4.34318218315336E-02
 cg2d: Sum(rhs),rhsMax =  -7.31283922306147E-11  4.20147973298994E-02
 cg2d: Sum(rhs),rhsMax =  -7.58119123034362E-11  4.05826702530764E-02
 cg2d: Sum(rhs),rhsMax =  -7.86908316285917E-11  3.91361612369241E-02
 cg2d: Sum(rhs),rhsMax =  -8.18094481047638E-11  3.76759505733042E-02
 cg2d: Sum(rhs),rhsMax =  -8.52063974932094E-11  3.62027009380894E-02
 cg2d: Sum(rhs),rhsMax =  -8.89106566148712E-11  3.47170557935533E-02
 cg2d: Sum(rhs),rhsMax =  -9.30069909976794E-11  3.32196538826697E-02
 cg2d: Sum(rhs),rhsMax =  -9.59939905342821E-11  3.22014072795271E-02
 cg2d: Sum(rhs),rhsMax =  -9.06393848865150E-11  3.41393977899188E-02
 cg2d: Sum(rhs),rhsMax =  -8.56608117771884E-11  3.61421983574886E-02
 cg2d: Sum(rhs),rhsMax =  -8.09339539831200E-11  3.82732214168632E-02
 cg2d: Sum(rhs),rhsMax =  -7.65790209023010E-11  4.04961107237167E-02
 cg2d: Sum(rhs),rhsMax =  -7.26734367129112E-11  4.27345554728691E-02
 cg2d: Sum(rhs),rhsMax =  -6.90846060913408E-11  4.49870864656105E-02
 cg2d: Sum(rhs),rhsMax =  -6.58425766165982E-11  4.72522059734150E-02
 cg2d: Sum(rhs),rhsMax =  -6.28899779475667E-11  4.95284051427300E-02
 cg2d: Sum(rhs),rhsMax =  -6.01878824557645E-11  5.18141810598313E-02
 cg2d: Sum(rhs),rhsMax =  -5.76920039518924E-11  5.41080525347848E-02
 cg2d: Sum(rhs),rhsMax =  -5.53725121310578E-11  5.64085737697671E-02
 cg2d: Sum(rhs),rhsMax =  -5.32452137935735E-11  5.87143452631030E-02
 cg2d: Sum(rhs),rhsMax =  -5.12875297786763E-11  6.10240215472654E-02
 cg2d: Sum(rhs),rhsMax =  -4.94564111885865E-11  6.33363156399085E-02
 cg2d: Sum(rhs),rhsMax =  -4.77350103889052E-11  6.56500003379327E-02
 cg2d: Sum(rhs),rhsMax =  -4.61449212174614E-11  6.79639068620816E-02
 cg2d: Sum(rhs),rhsMax =  -4.46795378472586E-11  7.02769213559971E-02
 cg2d: Sum(rhs),rhsMax =  -4.33014180067914E-11  7.25879799543567E-02
 cg2d: Sum(rhs),rhsMax =  -4.19917434157924E-11  7.48960631668344E-02
 cg2d: Sum(rhs),rhsMax =  -4.07634481724983E-11  7.72001902517843E-02
 cg2d: Sum(rhs),rhsMax =  -3.96397359381240E-11  7.94994141027478E-02
 cg2d: Sum(rhs),rhsMax =  -3.85612097808519E-11  8.17928169728556E-02
 cg2d: Sum(rhs),rhsMax =  -3.75464659363445E-11  8.40795071499885E-02
 cg2d: Sum(rhs),rhsMax =  -3.65901753340836E-11  8.63586165011637E-02
 cg2d: Sum(rhs),rhsMax =  -3.56837337456284E-11  8.86292986562367E-02
 cg2d: Sum(rhs),rhsMax =  -3.48159834295814E-11  9.08907275195696E-02
 cg2d: Sum(rhs),rhsMax =  -3.39929195902755E-11  9.31420957934005E-02
 cg2d: Sum(rhs),rhsMax =  -3.32313621065339E-11  9.53826132709344E-02
 cg2d: Sum(rhs),rhsMax =  -3.25308113779954E-11  9.76115047503153E-02
 cg2d: Sum(rhs),rhsMax =  -3.18652326747326E-11  9.98280077233589E-02
 cg2d: Sum(rhs),rhsMax =  -3.12443959593622E-11  1.02031369982869E-01
 cg2d: Sum(rhs),rhsMax =  -3.06325520504913E-11  1.04220847481789E-01
 cg2d: Sum(rhs),rhsMax =  -3.00868219227368E-11  1.06395702849670E-01
 cg2d: Sum(rhs),rhsMax =  -2.95234392488908E-11  1.08555204997366E-01
 cg2d: Sum(rhs),rhsMax =  -2.90372725864074E-11  1.10698630084805E-01
 cg2d: Sum(rhs),rhsMax =  -2.85346191120084E-11  1.12825263924839E-01
 cg2d: Sum(rhs),rhsMax =  -2.80555023657314E-11  1.14934405639754E-01
 cg2d: Sum(rhs),rhsMax =  -2.76003664367863E-11  1.17025372111611E-01
 cg2d: Sum(rhs),rhsMax =  -2.71869193824159E-11  1.19097502513237E-01
 cg2d: Sum(rhs),rhsMax =  -2.68050026619449E-11  1.21150162036808E-01
 cg2d: Sum(rhs),rhsMax =  -2.63978838788148E-11  1.23182743847700E-01
 cg2d: Sum(rhs),rhsMax =  -2.60114152439428E-11  1.25194668355552E-01
 cg2d: Sum(rhs),rhsMax =  -2.56424881328599E-11  1.27185379106405E-01
 cg2d: Sum(rhs),rhsMax =  -2.52849963189306E-11  1.29154334943227E-01
 cg2d: Sum(rhs),rhsMax =  -2.49412712705066E-11  1.31100998522842E-01
 cg2d: Sum(rhs),rhsMax =  -2.46237474854638E-11  1.33024821766005E-01
 cg2d: Sum(rhs),rhsMax =  -2.43087772133777E-11  1.34925229294448E-01
 cg2d: Sum(rhs),rhsMax =  -2.40067965506796E-11  1.36801601310889E-01
 cg2d: Sum(rhs),rhsMax =  -2.37445618722631E-11  1.38653257646684E-01
 cg2d: Sum(rhs),rhsMax =  -2.34963160039570E-11  1.40479444791820E-01
 cg2d: Sum(rhs),rhsMax =  -2.32250885190410E-11  1.42279327607935E-01
 cg2d: Sum(rhs),rhsMax =  -2.30130359213376E-11  1.44051987106379E-01
 cg2d: Sum(rhs),rhsMax =  -2.27845520228698E-11  1.45796425174426E-01
 cg2d: Sum(rhs),rhsMax =  -2.25721663582590E-11  1.47511576501207E-01
 cg2d: Sum(rhs),rhsMax =  -2.23908669383377E-11  1.49196327255827E-01
 cg2d: Sum(rhs),rhsMax =  -2.21906937269978E-11  1.50849539374033E-01
 cg2d: Sum(rhs),rhsMax =  -2.19707585458195E-11  1.52470078723026E-01
 cg2d: Sum(rhs),rhsMax =  -2.18677298491343E-11  1.54056844927328E-01
 cg2d: Sum(rhs),rhsMax =  -2.17531548329930E-11  1.55608800407245E-01
 cg2d: Sum(rhs),rhsMax =  -2.16499040917029E-11  1.57124996172188E-01
 cg2d: Sum(rhs),rhsMax =  -2.15463202835053E-11  1.58604592138401E-01
 cg2d: Sum(rhs),rhsMax =  -2.14326334457837E-11  1.60046870188505E-01
 cg2d: Sum(rhs),rhsMax =  -2.13168371843153E-11  1.61451238814573E-01
 cg2d: Sum(rhs),rhsMax =  -2.12013739897543E-11  1.62817228923930E-01
 cg2d: Sum(rhs),rhsMax =  -2.11273221140118E-11  1.64144481162483E-01
 cg2d: Sum(rhs),rhsMax =  -2.10095274510991E-11  1.65432725846745E-01
 cg2d: Sum(rhs),rhsMax =  -2.09062767098089E-11  1.66681757221138E-01
 cg2d: Sum(rhs),rhsMax =  -2.07971417864883E-11  1.67891404213879E-01
 cg2d: Sum(rhs),rhsMax =  -2.07281969366591E-11  1.69061500115744E-01
 cg2d: Sum(rhs),rhsMax =  -2.06521466594722E-11  1.70191853631701E-01
 cg2d: Sum(rhs),rhsMax =  -2.05844230549701E-11  1.71282223559972E-01
 cg2d: Sum(rhs),rhsMax =  -2.05401251562876E-11  1.72332298989566E-01
 cg2d: Sum(rhs),rhsMax =  -2.04795069791430E-11  1.73341686387479E-01
 cg2d: Sum(rhs),rhsMax =  -2.04209982257453E-11  1.74309904259453E-01
 cg2d: Sum(rhs),rhsMax =  -2.03623784500451E-11  1.75236385533407E-01
 cg2d: Sum(rhs),rhsMax =  -2.03367322981762E-11  1.76120487184893E-01
 cg2d: Sum(rhs),rhsMax =  -2.02974304031045E-11  1.76961506089954E-01
 cg2d: Sum(rhs),rhsMax =  -2.02895478196297E-11  1.77758699693701E-01
 cg2d: Sum(rhs),rhsMax =  -2.02327044007689E-11  1.78511309835137E-01
 cg2d: Sum(rhs),rhsMax =  -2.02603489540820E-11  1.79218587976475E-01
 cg2d: Sum(rhs),rhsMax =  -2.02670102922298E-11  1.79879820139059E-01
 cg2d: Sum(rhs),rhsMax =  -2.02624583778288E-11  1.80494350027033E-01
 cg2d: Sum(rhs),rhsMax =  -2.02420302741757E-11  1.81061599094125E-01
 cg2d: Sum(rhs),rhsMax =  -2.01793026732844E-11  1.81581082643702E-01
 cg2d: Sum(rhs),rhsMax =  -2.01004768385360E-11  1.82052421412047E-01
 cg2d: Sum(rhs),rhsMax =  -2.00663929916800E-11  1.82475348428720E-01
 cg2d: Sum(rhs),rhsMax =  -1.99950056511966E-11  1.82849711225051E-01
 cg2d: Sum(rhs),rhsMax =  -1.99480432172550E-11  1.83175469964558E-01
 cg2d: Sum(rhs),rhsMax =  -1.98923100214188E-11  1.83452691899342E-01
 cg2d: Sum(rhs),rhsMax =  -1.98259186845462E-11  1.83681542866426E-01
 cg2d: Sum(rhs),rhsMax =  -1.98394634054466E-11  1.83862276608016E-01
 cg2d: Sum(rhs),rhsMax =  -1.98153715658123E-11  1.83995222702853E-01
 cg2d: Sum(rhs),rhsMax =  -1.97866167894745E-11  1.84080773802089E-01
 cg2d: Sum(rhs),rhsMax =  -1.97841742988203E-11  1.84119372918369E-01
 cg2d: Sum(rhs),rhsMax =  -1.97665217527287E-11  1.84111501067659E-01
 cg2d: Sum(rhs),rhsMax =  -1.96918037431715E-11  1.84057665913286E-01
 cg2d: Sum(rhs),rhsMax =  -1.97067917540039E-11  1.83958391702775E-01
 cg2d: Sum(rhs),rhsMax =  -1.96368477034525E-11  1.83814210662977E-01
 cg2d: Sum(rhs),rhsMax =  -1.95922167378626E-11  1.83625655901907E-01
 cg2d: Sum(rhs),rhsMax =  -1.95461424823407E-11  1.83393255752677E-01
 cg2d: Sum(rhs),rhsMax =  -1.94938509778808E-11  1.83117529407435E-01
 cg2d: Sum(rhs),rhsMax =  -1.95177207729103E-11  1.82798983520836E-01
 cg2d: Sum(rhs),rhsMax =  -1.95385929657732E-11  1.82438109423682E-01
 cg2d: Sum(rhs),rhsMax =  -1.95383709211683E-11  1.82035380482896E-01
 cg2d: Sum(rhs),rhsMax =  -1.94925187102513E-11  1.81591249052919E-01
 cg2d: Sum(rhs),rhsMax =  -1.93890459243562E-11  1.81106142430864E-01
 cg2d: Sum(rhs),rhsMax =  -1.92863502945784E-11  1.80580457248841E-01
 cg2d: Sum(rhs),rhsMax =  -1.92139637533728E-11  1.80014551823557E-01
 cg2d: Sum(rhs),rhsMax =  -1.91586746467465E-11  1.79408736144195E-01
 cg2d: Sum(rhs),rhsMax =  -1.90807369904178E-11  1.78763259418982E-01
 cg2d: Sum(rhs),rhsMax =  -1.91346938294146E-11  1.78078295413766E-01
 cg2d: Sum(rhs),rhsMax =  -1.90736315630602E-11  1.77353926095738E-01
 cg2d: Sum(rhs),rhsMax =  -1.91082705214285E-11  1.76590124854079E-01
 cg2d: Sum(rhs),rhsMax =  -1.91581195352342E-11  1.75786740473765E-01
 cg2d: Sum(rhs),rhsMax =  -1.92054150360832E-11  1.74943483578522E-01
 cg2d: Sum(rhs),rhsMax =  -1.92806881571528E-11  1.74059917444893E-01
 cg2d: Sum(rhs),rhsMax =  -1.93188798291999E-11  1.73135455387134E-01
 cg2d: Sum(rhs),rhsMax =  -1.93612903487406E-11  1.72169366477466E-01
 cg2d: Sum(rhs),rhsMax =  -1.93978166862507E-11  1.71160791111016E-01
 cg2d: Sum(rhs),rhsMax =  -1.94249061280516E-11  1.70108767386830E-01
 cg2d: Sum(rhs),rhsMax =  -1.94873006620355E-11  1.69012268535605E-01
 cg2d: Sum(rhs),rhsMax =  -1.95251592671752E-11  1.67870250737870E-01
 cg2d: Sum(rhs),rhsMax =  -1.95725657903267E-11  1.66681709725229E-01
 cg2d: Sum(rhs),rhsMax =  -1.96990201928315E-11  1.65445743633727E-01
 cg2d: Sum(rhs),rhsMax =  -1.97474259167052E-11  1.64161618807974E-01
 cg2d: Sum(rhs),rhsMax =  -1.98109306737138E-11  1.62828834530092E-01
 cg2d: Sum(rhs),rhsMax =  -1.99095184783005E-11  1.61447182631368E-01
 cg2d: Sum(rhs),rhsMax =  -1.99936733835671E-11  1.60016797553204E-01
 cg2d: Sum(rhs),rhsMax =  -2.01113570241773E-11  1.58538193094786E-01
 cg2d: Sum(rhs),rhsMax =  -2.02757810541243E-11  1.57012282813188E-01
 cg2d: Sum(rhs),rhsMax =  -2.03879135796114E-11  1.55440381917000E-01
 cg2d: Sum(rhs),rhsMax =  -2.05188088742148E-11  1.53824189691890E-01
 cg2d: Sum(rhs),rhsMax =  -2.06868966401430E-11  1.52165752811351E-01
 cg2d: Sum(rhs),rhsMax =  -2.08936201673282E-11  1.50467411199861E-01
 cg2d: Sum(rhs),rhsMax =  -2.10662598476574E-11  1.48731729305788E-01
 cg2d: Sum(rhs),rhsMax =  -2.12563300294732E-11  1.46961416624813E-01
 cg2d: Sum(rhs),rhsMax =  -2.14782636120958E-11  1.45159242005305E-01
 cg2d: Sum(rhs),rhsMax =  -2.17139639602237E-11  1.43327946619249E-01
 cg2d: Sum(rhs),rhsMax =  -2.19229079334582E-11  1.41470160455190E-01
 cg2d: Sum(rhs),rhsMax =  -2.21347384865567E-11  1.39588326885195E-01
 cg2d: Sum(rhs),rhsMax =  -2.23995266779298E-11  1.37684639128719E-01
 cg2d: Sum(rhs),rhsMax =  -2.26647589585127E-11  1.35760991564458E-01
 cg2d: Sum(rhs),rhsMax =  -2.29185559419420E-11  1.33818947813838E-01
 cg2d: Sum(rhs),rhsMax =  -2.31968333430643E-11  1.31859726416517E-01
 cg2d: Sum(rhs),rhsMax =  -2.34786634578654E-11  1.29884203839993E-01
 cg2d: Sum(rhs),rhsMax =  -2.37919128842634E-11  1.27892933597654E-01
 cg2d: Sum(rhs),rhsMax =  -2.40901187886777E-11  1.25886179438892E-01
(PID.TID 0000.0001)      cg2d_init_res =   8.70263315290490E-02
(PID.TID 0000.0001)      cg2d_iters(min,last) =      -1      37
(PID.TID 0000.0001)      cg2d_last_res =   5.41523089829578E-14
(PID.TID 0000.0001) // =======================================================
(PID.TID 0000.0001) // Begin MONITOR dynamic field statistics
(PID.TID 0000.0001) // =======================================================
(PID.TID 0000.0001) %MON time_tsnumber                =                  5280
(PID.TID 0000.0001) %MON time_secondsf                =   7.9200000000000E+04
(PID.TID 0000.0001) %MON dynstat_eta_max              =   2.1063091918042E-02
(PID.TID 0000.0001) %MON dynstat_eta_min              =  -1.2189662068201E-02
(PID.TID 0000.0001) %MON dynstat_eta_mean             =   6.4200458287410E-15
(PID.TID 0000.0001) %MON dynstat_eta_sd               =   1.1027114788577E-02
(PID.TID 0000.0001) %MON dynstat_eta_del2             =   2.3664092418701E-05
(PID.TID 0000.0001) %MON dynstat_uvel_max             =   1.1682203226348E+00
(PID.TID 0000.0001) %MON dynstat_uvel_min             =  -6.1128561995231E-01
(PID.TID 0000.0001) %MON dynstat_uvel_mean            =   2.8864060456482E-01
(PID.TID 0000.0001) %MON dynstat_uvel_sd              =   1.4065009796744E-01
(PID.TID 0000.0001) %MON dynstat_uvel_del2            =   6.8544433819630E-04
(PID.TID 0000.0001) %MON dynstat_vvel_max             =   0.0000000000000E+00
(PID.TID 0000.0001) %MON dynstat_vvel_min             =   0.0000000000000E+00
(PID.TID 0000.0001) %MON dynstat_vvel_mean            =   0.0000000000000E+00
(PID.TID 0000.0001) %MON dynstat_vvel_sd              =   0.0000000000000E+00
(PID.TID 0000.0001) %MON dynstat_vvel_del2            =   0.0000000000000E+00
(PID.TID 0000.0001) %MON dynstat_wvel_max             =   3.3332825876045E-02
(PID.TID 0000.0001) %MON dynstat_wvel_min             =  -2.6205464705443E-02
(PID.TID 0000.0001) %MON dynstat_wvel_mean            =   1.1851655454761E-21
(PID.TID 0000.0001) %MON dynstat_wvel_sd              =   2.3441009492069E-03
(PID.TID 0000.0001) %MON dynstat_wvel_del2            =   7.3365801725966E-05
(PID.TID 0000.0001) %MON dynstat_theta_max            =   1.5000000000007E+01
(PID.TID 0000.0001) %MON dynstat_theta_min            =   9.9999999999932E+00
(PID.TID 0000.0001) %MON dynstat_theta_mean           =   1.2467375478756E+01
(PID.TID 0000.0001) %MON dynstat_theta_sd             =   2.3920057794174E+00
(PID.TID 0000.0001) %MON dynstat_theta_del2           =   1.2628982730869E-03
(PID.TID 0000.0001) %MON dynstat_salt_max             =   3.5000000000000E+01
(PID.TID 0000.0001) %MON dynstat_salt_min             =   3.5000000000000E+01
(PID.TID 0000.0001) %MON dynstat_salt_mean            =   3.5000000000000E+01
(PID.TID 0000.0001) %MON dynstat_salt_sd              =   3.1974423109205E-13
(PID.TID 0000.0001) %MON dynstat_salt_del2            =   0.0000000000000E+00
(PID.TID 0000.0001) %MON dynstat_sst_max              =   1.5000000000000E+01
(PID.TID 0000.0001) %MON dynstat_sst_min              =   1.4997650899117E+01
(PID.TID 0000.0001) %MON dynstat_sst_mean             =   1.4999906577654E+01
(PID.TID 0000.0001) %MON dynstat_sst_sd               =   3.6444312601882E-04
(PID.TID 0000.0001) %MON dynstat_sst_del2             =   8.5745755197263E-06
(PID.TID 0000.0001) %MON dynstat_sss_max              =   3.5000000000000E+01
(PID.TID 0000.0001) %MON dynstat_sss_min              =   3.5000000000000E+01
(PID.TID 0000.0001) %MON dynstat_sss_mean             =   3.5000000000000E+01
(PID.TID 0000.0001) %MON dynstat_sss_sd               =   5.6843418860808E-14
(PID.TID 0000.0001) %MON dynstat_sss_del2             =   0.0000000000000E+00
(PID.TID 0000.0001) %MON forcing_qnet_max             =   0.0000000000000E+00
(PID.TID 0000.0001) %MON forcing_qnet_min             =   0.0000000000000E+00
(PID.TID 0000.0001) %MON forcing_qnet_mean            =   0.0000000000000E+00
(PID.TID 0000.0001) %MON forcing_qnet_sd              =   0.0000000000000E+00
(PID.TID 0000.0001) %MON forcing_qnet_del2            =   0.0000000000000E+00
(PID.TID 0000.0001) %MON forcing_qsw_max              =   0.0000000000000E+00
(PID.TID 0000.0001) %MON forcing_qsw_min              =   0.0000000000000E+00
(PID.TID 0000.0001) %MON forcing_qsw_mean             =   0.0000000000000E+00
(PID.TID 0000.0001) %MON forcing_qsw_sd               =   0.0000000000000E+00
(PID.TID 0000.0001) %MON forcing_qsw_del2             =   0.0000000000000E+00
(PID.TID 0000.0001) %MON forcing_empmr_max            =   0.0000000000000E+00
(PID.TID 0000.0001) %MON forcing_empmr_min            =   0.0000000000000E+00
(PID.TID 0000.0001) %MON forcing_empmr_mean           =   0.0000000000000E+00
(PID.TID 0000.0001) %MON forcing_empmr_sd             =   0.0000000000000E+00
(PID.TID 0000.0001) %MON forcing_empmr_del2           =   0.0000000000000E+00
(PID.TID 0000.0001) %MON forcing_fu_max               =   0.0000000000000E+00
(PID.TID 0000.0001) %MON forcing_fu_min               =   0.0000000000000E+00
(PID.TID 0000.0001) %MON forcing_fu_mean              =   0.0000000000000E+00
(PID.TID 0000.0001) %MON forcing_fu_sd                =   0.0000000000000E+00
(PID.TID 0000.0001) %MON forcing_fu_del2              =   0.0000000000000E+00
(PID.TID 0000.0001) %MON forcing_fv_max               =   0.0000000000000E+00
(PID.TID 0000.0001) %MON forcing_fv_min               =   0.0000000000000E+00
(PID.TID 0000.0001) %MON forcing_fv_mean              =   0.0000000000000E+00
(PID.TID 0000.0001) %MON forcing_fv_sd                =   0.0000000000000E+00
(PID.TID 0000.0001) %MON forcing_fv_del2              =   0.0000000000000E+00
(PID.TID 0000.0001) %MON advcfl_uvel_max              =   8.7616524197610E-02
(PID.TID 0000.0001) %MON advcfl_vvel_max              =   0.0000000000000E+00
(PID.TID 0000.0001) %MON advcfl_wvel_max              =   3.2923601741101E-01
(PID.TID 0000.0001) %MON advcfl_W_hf_max              =   3.3364532204266E-01
(PID.TID 0000.0001) %MON pe_b_mean                    =   3.0460021602840E-06
(PID.TID 0000.0001) %MON ke_max                       =   5.5857792402132E-01
(PID.TID 0000.0001) %MON ke_mean                      =   5.1656497768131E-02
(PID.TID 0000.0001) %MON ke_vol                       =   9.5633499295324E+10
(PID.TID 0000.0001) %MON vort_r_min                   =   0.0000000000000E+00
(PID.TID 0000.0001) %MON vort_r_max                   =   0.0000000000000E+00
(PID.TID 0000.0001) %MON vort_a_mean                  =   0.0000000000000E+00
(PID.TID 0000.0001) %MON vort_a_sd                    =   0.0000000000000E+00
(PID.TID 0000.0001) %MON vort_p_mean                  =   0.0000000000000E+00
(PID.TID 0000.0001) %MON vort_p_sd                    =   0.0000000000000E+00
(PID.TID 0000.0001) %MON surfExpan_theta_mean         =  -1.6105314138481E-09
(PID.TID 0000.0001) %MON surfExpan_salt_mean          =   1.6573442599939E-19
(PID.TID 0000.0001) // =======================================================
(PID.TID 0000.0001) // End MONITOR dynamic field statistics
(PID.TID 0000.0001) // =======================================================
(PID.TID 0000.0001) // =======================================================
(PID.TID 0000.0001) // Begin OBCS MONITOR field statistics
(PID.TID 0000.0001) // =======================================================
(PID.TID 0000.0001) %MON obc_E_uVel_max               =   2.8014282071829E-01
(PID.TID 0000.0001) %MON obc_E_uVel_min               =   2.8014282071829E-01
(PID.TID 0000.0001) %MON obc_E_uVel_mean              =   2.8014282071829E-01
(PID.TID 0000.0001) %MON obc_E_uVel_sd                =   3.7252902984619E-09
(PID.TID 0000.0001) %MON obc_E_uVel_Int               =   2.8014282071829E+05
(PID.TID 0000.0001) %MON obc_W_uVel_max               =   2.8014282071829E-01
(PID.TID 0000.0001) %MON obc_W_uVel_min               =   2.8014282071829E-01
(PID.TID 0000.0001) %MON obc_W_uVel_mean              =   2.8014282071829E-01
(PID.TID 0000.0001) %MON obc_W_uVel_sd                =   3.7252902984619E-09
(PID.TID 0000.0001) %MON obc_W_uVel_Int               =   2.8014282071829E+05
(PID.TID 0000.0001) // =======================================================
(PID.TID 0000.0001) // End OBCS MONITOR field statistics
(PID.TID 0000.0001) // =======================================================
 cg2d: Sum(rhs),rhsMax =  -2.44126940884826E-11  1.23863959947332E-01
 cg2d: Sum(rhs),rhsMax =  -2.47652454099523E-11  1.21826101764462E-01
 cg2d: Sum(rhs),rhsMax =  -2.51250131810821E-11  1.19772298330564E-01
 cg2d: Sum(rhs),rhsMax =  -2.54821719281040E-11  1.17702171097598E-01
 cg2d: Sum(rhs),rhsMax =  -2.58521537510603E-11  1.15615330551729E-01
 cg2d: Sum(rhs),rhsMax =  -2.62652122273721E-11  1.13511434767409E-01
 cg2d: Sum(rhs),rhsMax =  -2.66873745324858E-11  1.11390243643558E-01
 cg2d: Sum(rhs),rhsMax =  -2.71384581473910E-11  1.09251667394982E-01
 cg2d: Sum(rhs),rhsMax =  -2.75949818551169E-11  1.07095808260075E-01
 cg2d: Sum(rhs),rhsMax =  -2.80867551438746E-11  1.04922994665129E-01
 cg2d: Sum(rhs),rhsMax =  -2.85926282650451E-11  1.02733807253826E-01
 cg2d: Sum(rhs),rhsMax =  -2.92236235210908E-11  1.00529096423967E-01
 cg2d: Sum(rhs),rhsMax =  -2.98517877084237E-11  9.83099910007067E-02
 cg2d: Sum(rhs),rhsMax =  -3.04286040808677E-11  9.60778976994636E-02
 cg2d: Sum(rhs),rhsMax =  -3.10550474225124E-11  9.38344910696595E-02
 cg2d: Sum(rhs),rhsMax =  -3.17146864325935E-11  9.15816937038983E-02
 cg2d: Sum(rhs),rhsMax =  -3.24288373931836E-11  8.93216466776825E-02
 cg2d: Sum(rhs),rhsMax =  -3.31874527859100E-11  8.70566704706006E-02
 cg2d: Sum(rhs),rhsMax =  -3.39773209567795E-11  8.47892170100594E-02
 cg2d: Sum(rhs),rhsMax =  -3.48367446001419E-11  8.25218139608124E-02
 cg2d: Sum(rhs),rhsMax =  -3.57120999439076E-11  8.02570029328452E-02
 cg2d: Sum(rhs),rhsMax =  -3.66893737613339E-11  7.79972737029366E-02
 cg2d: Sum(rhs),rhsMax =  -3.76579600835925E-11  7.57449972073574E-02
 cg2d: Sum(rhs),rhsMax =  -3.87376797306160E-11  7.35023603074825E-02
 cg2d: Sum(rhs),rhsMax =  -3.99096866665616E-11  7.12713055158390E-02
 cg2d: Sum(rhs),rhsMax =  -4.10997069710817E-11  6.90534788574583E-02
 cg2d: Sum(rhs),rhsMax =  -4.23965862417219E-11  6.68501888053333E-02
 cg2d: Sum(rhs),rhsMax =  -4.36281011317874E-11  6.46623787654234E-02
 cg2d: Sum(rhs),rhsMax =  -4.50713633082245E-11  6.24906149186167E-02
 cg2d: Sum(rhs),rhsMax =  -4.66554017641840E-11  6.03350903989434E-02
 cg2d: Sum(rhs),rhsMax =  -4.83124720784822E-11  5.81956458598860E-02
 cg2d: Sum(rhs),rhsMax =  -5.00943800330056E-11  5.60718055199905E-02
 cg2d: Sum(rhs),rhsMax =  -5.19836283394137E-11  5.39628268658510E-02
 cg2d: Sum(rhs),rhsMax =  -5.39981878655560E-11  5.18677614018540E-02
 cg2d: Sum(rhs),rhsMax =  -5.61852231406590E-11  4.97855230646827E-02
 cg2d: Sum(rhs),rhsMax =  -5.85450854462266E-11  4.77149606957066E-02
 cg2d: Sum(rhs),rhsMax =  -6.11170003494976E-11  4.56549306770011E-02
 cg2d: Sum(rhs),rhsMax =  -6.39075736774686E-11  4.36043659518170E-02
 cg2d: Sum(rhs),rhsMax =  -6.69682087561796E-11  4.15623379761599E-02
 cg2d: Sum(rhs),rhsMax =  -7.03466174201139E-11  3.95281086925095E-02
 cg2d: Sum(rhs),rhsMax =  -7.40499883633561E-11  3.75011704191194E-02
 cg2d: Sum(rhs),rhsMax =  -7.81824605056158E-11  3.54812724431476E-02
 cg2d: Sum(rhs),rhsMax =  -7.51719797520423E-11  3.68462883561392E-02
 cg2d: Sum(rhs),rhsMax =  -7.24095228221699E-11  3.82184596689623E-02
 cg2d: Sum(rhs),rhsMax =  -6.98481272820572E-11  3.95753979881948E-02
 cg2d: Sum(rhs),rhsMax =  -6.74894584662411E-11  4.09165129037507E-02
 cg2d: Sum(rhs),rhsMax =  -6.52832232717060E-11  4.22413084810573E-02
 cg2d: Sum(rhs),rhsMax =  -6.32588426086045E-11  4.35493823420259E-02
 cg2d: Sum(rhs),rhsMax =  -6.13644690616866E-11  4.48404408709048E-02
 cg2d: Sum(rhs),rhsMax =  -5.96284133180802E-11  4.61142894451464E-02
 cg2d: Sum(rhs),rhsMax =  -5.79712944315247E-11  4.73708204743813E-02
 cg2d: Sum(rhs),rhsMax =  -5.64636115640837E-11  4.86099768496919E-02
 cg2d: Sum(rhs),rhsMax =  -5.50595125048403E-11  4.98317025671653E-02
 cg2d: Sum(rhs),rhsMax =  -5.37053734817050E-11  5.10358975664539E-02
 cg2d: Sum(rhs),rhsMax =  -5.24328358508797E-11  5.22223702825648E-02
 cg2d: Sum(rhs),rhsMax =  -5.12251352446924E-11  5.33907970769261E-02
 cg2d: Sum(rhs),rhsMax =  -5.01054753243579E-11  5.45407069098151E-02
 cg2d: Sum(rhs),rhsMax =  -4.90633089711423E-11  5.56714595417310E-02
 cg2d: Sum(rhs),rhsMax =  -4.80400164093453E-11  5.67822551098964E-02
 cg2d: Sum(rhs),rhsMax =  -4.70493644044723E-11  5.78721653021743E-02
 cg2d: Sum(rhs),rhsMax =  -4.61295446285703E-11  5.89400378934520E-02
 cg2d: Sum(rhs),rhsMax =  -4.52536896844435E-11  5.99849424356885E-02
 cg2d: Sum(rhs),rhsMax =  -4.44493331031026E-11  6.10057497526076E-02
 cg2d: Sum(rhs),rhsMax =  -4.36860547736728E-11  6.20013976738876E-02
 cg2d: Sum(rhs),rhsMax =  -4.29558610903769E-11  6.29709457111612E-02
 cg2d: Sum(rhs),rhsMax =  -4.23340251742843E-11  6.39134693681790E-02
 cg2d: Sum(rhs),rhsMax =  -4.16238155054316E-11  6.48283915308551E-02
 cg2d: Sum(rhs),rhsMax =  -4.10341760570532E-11  6.57150817767723E-02
 cg2d: Sum(rhs),rhsMax =  -4.04434263856501E-11  6.65730001090505E-02
 cg2d: Sum(rhs),rhsMax =  -3.99085209323857E-11  6.74017174648212E-02
 cg2d: Sum(rhs),rhsMax =  -3.93768351258927E-11  6.82008255015385E-02
 cg2d: Sum(rhs),rhsMax =  -3.88975518461621E-11  6.89702021955655E-02
 cg2d: Sum(rhs),rhsMax =  -3.84816623011375E-11  6.97096198741286E-02
 cg2d: Sum(rhs),rhsMax =  -3.80447895409475E-11  7.04188990154593E-02
 cg2d: Sum(rhs),rhsMax =  -3.76605413521247E-11  7.10978994281009E-02
 cg2d: Sum(rhs),rhsMax =  -3.72918362856467E-11  7.17464206666153E-02
 cg2d: Sum(rhs),rhsMax =  -3.69145825018791E-11  7.23644723729736E-02
 cg2d: Sum(rhs),rhsMax =  -3.65889540887565E-11  7.29519256176381E-02
 cg2d: Sum(rhs),rhsMax =  -3.62780916418615E-11  7.35086369507730E-02
 cg2d: Sum(rhs),rhsMax =  -3.59574592323497E-11  7.40344759458929E-02
 cg2d: Sum(rhs),rhsMax =  -3.56945584201185E-11  7.45292677475478E-02
 cg2d: Sum(rhs),rhsMax =  -3.54404283697818E-11  7.49930111541090E-02
 cg2d: Sum(rhs),rhsMax =  -3.52029516648145E-11  7.54256044579547E-02
 cg2d: Sum(rhs),rhsMax =  -3.49547057965083E-11  7.58269712148189E-02
 cg2d: Sum(rhs),rhsMax =  -3.47817330492717E-11  7.61970011914675E-02
 cg2d: Sum(rhs),rhsMax =  -3.46986883670297E-11  7.65358120395403E-02
 cg2d: Sum(rhs),rhsMax =  -3.45132811219173E-11  7.68434037482557E-02
 cg2d: Sum(rhs),rhsMax =  -3.43414185977053E-11  7.71197644248416E-02
 cg2d: Sum(rhs),rhsMax =  -3.41976447160164E-11  7.73651286004160E-02
 cg2d: Sum(rhs),rhsMax =  -3.40477646076920E-11  7.75796515373371E-02
 cg2d: Sum(rhs),rhsMax =  -3.38492567308890E-11  7.77634789537105E-02
 cg2d: Sum(rhs),rhsMax =  -3.36224381669581E-11  7.79169902277321E-02
 cg2d: Sum(rhs),rhsMax =  -3.35167449350138E-11  7.80405019363907E-02
 cg2d: Sum(rhs),rhsMax =  -3.34228200671305E-11  7.81343536300833E-02
 cg2d: Sum(rhs),rhsMax =  -3.34249294908773E-11  7.81988365076418E-02
 cg2d: Sum(rhs),rhsMax =  -3.34164917958901E-11  7.82343820592754E-02
 cg2d: Sum(rhs),rhsMax =  -3.34137162383286E-11  7.82412814850070E-02
 cg2d: Sum(rhs),rhsMax =  -3.34814398428307E-11  7.82197227712493E-02
 cg2d: Sum(rhs),rhsMax =  -3.35758087999238E-11  7.81699637812706E-02
 cg2d: Sum(rhs),rhsMax =  -3.35920180560834E-11  7.80920950448315E-02
 cg2d: Sum(rhs),rhsMax =  -3.36883854146208E-11  7.79860721680115E-02
 cg2d: Sum(rhs),rhsMax =  -3.37503358593949E-11  7.78519180020562E-02
 cg2d: Sum(rhs),rhsMax =  -3.38199468430389E-11  7.76894918537528E-02
 cg2d: Sum(rhs),rhsMax =  -3.38524763776604E-11  7.74985455215696E-02
 cg2d: Sum(rhs),rhsMax =  -3.39849259844982E-11  7.72789142981495E-02
 cg2d: Sum(rhs),rhsMax =  -3.40665273768082E-11  7.70303285815082E-02
 cg2d: Sum(rhs),rhsMax =  -3.42580408485560E-11  7.67526347118285E-02
 cg2d: Sum(rhs),rhsMax =  -3.43554074078156E-11  7.64455960329987E-02
 cg2d: Sum(rhs),rhsMax =  -3.44930750628691E-11  7.61089434792627E-02
 cg2d: Sum(rhs),rhsMax =  -3.46732642597658E-11  7.57425611529081E-02
 cg2d: Sum(rhs),rhsMax =  -3.49290596446394E-11  7.53462748676956E-02
 cg2d: Sum(rhs),rhsMax =  -3.51553230970580E-11  7.49200241069630E-02
 cg2d: Sum(rhs),rhsMax =  -3.54180018646844E-11  7.44636805495421E-02
 cg2d: Sum(rhs),rhsMax =  -3.57910368009584E-11  7.39772385215811E-02
 cg2d: Sum(rhs),rhsMax =  -3.61998209186254E-11  7.34606217718612E-02
 cg2d: Sum(rhs),rhsMax =  -3.64830388122073E-11  7.29138225871638E-02
 cg2d: Sum(rhs),rhsMax =  -3.68114427828914E-11  7.23367674171592E-02
 cg2d: Sum(rhs),rhsMax =  -3.71703778867527E-11  7.17294704619726E-02
 cg2d: Sum(rhs),rhsMax =  -3.75778297367901E-11  7.10918883160969E-02
 cg2d: Sum(rhs),rhsMax =  -3.79595244126563E-11  7.04240653109792E-02
 cg2d: Sum(rhs),rhsMax =  -3.83585385677065E-11  6.97260038201790E-02
 cg2d: Sum(rhs),rhsMax =  -3.88634679993061E-11  6.89978066786272E-02
 cg2d: Sum(rhs),rhsMax =  -3.93254317998526E-11  6.82395842720912E-02
 cg2d: Sum(rhs),rhsMax =  -3.97848420874425E-11  6.74515959363809E-02
 cg2d: Sum(rhs),rhsMax =  -4.03088673550656E-11  6.66340546640809E-02
 cg2d: Sum(rhs),rhsMax =  -4.08741929192047E-11  6.57877200907232E-02
 cg2d: Sum(rhs),rhsMax =  -4.14850376273534E-11  6.49132361249629E-02
 cg2d: Sum(rhs),rhsMax =  -4.20279366863952E-11  6.40113747710091E-02
 cg2d: Sum(rhs),rhsMax =  -4.26598756320118E-11  6.30829276841085E-02
 cg2d: Sum(rhs),rhsMax =  -4.33317826065149E-11  6.21292707559601E-02
 cg2d: Sum(rhs),rhsMax =  -4.40806280366246E-11  6.11516309957155E-02
 cg2d: Sum(rhs),rhsMax =  -4.48123760321550E-11  6.01513097280545E-02
 cg2d: Sum(rhs),rhsMax =  -4.56394921855008E-11  5.91295088710760E-02
 cg2d: Sum(rhs),rhsMax =  -4.65273375382935E-11  5.80877070052203E-02
 cg2d: Sum(rhs),rhsMax =  -4.74302819242212E-11  5.70271990960410E-02
 cg2d: Sum(rhs),rhsMax =  -4.84157158808785E-11  5.59491775605262E-02
 cg2d: Sum(rhs),rhsMax =  -4.94148055807386E-11  5.48542380872784E-02
 cg2d: Sum(rhs),rhsMax =  -5.04558617109296E-11  5.37437989535887E-02
 cg2d: Sum(rhs),rhsMax =  -5.15620879326661E-11  5.26183813723915E-02
 cg2d: Sum(rhs),rhsMax =  -5.27761168100938E-11  5.14782027896458E-02
 cg2d: Sum(rhs),rhsMax =  -5.40525402215053E-11  5.03233381792662E-02
 cg2d: Sum(rhs),rhsMax =  -5.54497558979961E-11  4.91537145015966E-02
 cg2d: Sum(rhs),rhsMax =  -5.68789459975960E-11  4.79691268854948E-02
 cg2d: Sum(rhs),rhsMax =  -5.83882941995739E-11  4.67692560507344E-02
 cg2d: Sum(rhs),rhsMax =  -6.00188787558409E-11  4.55537619931405E-02
 cg2d: Sum(rhs),rhsMax =  -6.17098594446475E-11  4.43223799524463E-02
 cg2d: Sum(rhs),rhsMax =  -6.36151131772067E-11  4.30749528260113E-02
 cg2d: Sum(rhs),rhsMax =  -6.55899778934099E-11  4.18114674110425E-02
 cg2d: Sum(rhs),rhsMax =  -6.77485845201886E-11  4.05320891822732E-02
 cg2d: Sum(rhs),rhsMax =  -7.00374203077558E-11  3.92371491038002E-02
 cg2d: Sum(rhs),rhsMax =  -7.24537096985500E-11  3.79271578154594E-02
 cg2d: Sum(rhs),rhsMax =  -7.51069206827992E-11  3.66027694971367E-02
 cg2d: Sum(rhs),rhsMax =  -7.80990827564665E-11  3.52647694666573E-02
 cg2d: Sum(rhs),rhsMax =  -8.12295786190020E-11  3.39139904676588E-02
 cg2d: Sum(rhs),rhsMax =  -8.05757682798003E-11  3.42097937338983E-02
 cg2d: Sum(rhs),rhsMax =  -7.65261187751776E-11  3.60310864644815E-02
 cg2d: Sum(rhs),rhsMax =  -7.26823601304716E-11  3.79827921891247E-02
 cg2d: Sum(rhs),rhsMax =  -6.89994728020338E-11  4.00408739904742E-02
 cg2d: Sum(rhs),rhsMax =  -6.56558696299214E-11  4.21222813296561E-02
 cg2d: Sum(rhs),rhsMax =  -6.25885177019114E-11  4.42254039346550E-02
 cg2d: Sum(rhs),rhsMax =  -5.98049387789956E-11  4.63484025175522E-02
 cg2d: Sum(rhs),rhsMax =  -5.72501906992429E-11  4.84892353421579E-02
 cg2d: Sum(rhs),rhsMax =  -5.48879830475357E-11  5.06456935821350E-02
 cg2d: Sum(rhs),rhsMax =  -5.26877742823562E-11  5.28154442045284E-02
 cg2d: Sum(rhs),rhsMax =  -5.06310479653216E-11  5.49960785273187E-02
 cg2d: Sum(rhs),rhsMax =  -4.87398871262812E-11  5.71851641023392E-02
 cg2d: Sum(rhs),rhsMax =  -4.69908695288623E-11  5.93802972185104E-02
 cg2d: Sum(rhs),rhsMax =  -4.53633797192765E-11  6.15791531489962E-02
 cg2d: Sum(rhs),rhsMax =  -4.38247493850241E-11  6.37795313102606E-02
 cg2d: Sum(rhs),rhsMax =  -4.24089374728709E-11  6.59793927734453E-02
 cg2d: Sum(rhs),rhsMax =  -4.10707579057146E-11  6.81768880610760E-02
 cg2d: Sum(rhs),rhsMax =  -3.98388821931661E-11  7.03703738324004E-02
 cg2d: Sum(rhs),rhsMax =  -3.87036513949113E-11  7.25584178786182E-02
 cg2d: Sum(rhs),rhsMax =  -3.76241260369170E-11  7.47397927714661E-02
 cg2d: Sum(rhs),rhsMax =  -3.66022212539008E-11  7.69134592407617E-02
 cg2d: Sum(rhs),rhsMax =  -3.56844553905944E-11  7.90785412052617E-02
 cg2d: Sum(rhs),rhsMax =  -3.47759043783924E-11  8.12342949779858E-02
 cg2d: Sum(rhs),rhsMax =  -3.39157035789128E-11  8.33800755361199E-02
 cg2d: Sum(rhs),rhsMax =  -3.31122906871428E-11  8.55153028601654E-02
 cg2d: Sum(rhs),rhsMax =  -3.23648330358139E-11  8.76394312021589E-02
 cg2d: Sum(rhs),rhsMax =  -3.16403014899436E-11  8.97519237771440E-02
 cg2d: Sum(rhs),rhsMax =  -3.09774428330911E-11  9.18522347849370E-02
 cg2d: Sum(rhs),rhsMax =  -3.03363445475213E-11  9.39397999589060E-02
 cg2d: Sum(rhs),rhsMax =  -2.97322721998228E-11  9.60140360539167E-02
 cg2d: Sum(rhs),rhsMax =  -2.91885404735126E-11  9.80743488951664E-02
 cg2d: Sum(rhs),rhsMax =  -2.86868306886845E-11  1.00120148863794E-01
 cg2d: Sum(rhs),rhsMax =  -2.81758505416008E-11  1.02150872192957E-01
 cg2d: Sum(rhs),rhsMax =  -2.77137757187518E-11  1.04166005828144E-01
 cg2d: Sum(rhs),rhsMax =  -2.72278866120246E-11  1.06165113421570E-01
 cg2d: Sum(rhs),rhsMax =  -2.67809663334617E-11  1.08147859896133E-01
 cg2d: Sum(rhs),rhsMax =  -2.63705168812578E-11  1.10114032145761E-01
 cg2d: Sum(rhs),rhsMax =  -2.59693933024607E-11  1.12063553684460E-01
 cg2d: Sum(rhs),rhsMax =  -2.55833132456473E-11  1.13996491415540E-01
 cg2d: Sum(rhs),rhsMax =  -2.52264875655328E-11  1.15913053185174E-01
 cg2d: Sum(rhs),rhsMax =  -2.48804865599084E-11  1.17813575361358E-01
 cg2d: Sum(rhs),rhsMax =  -2.45201636772663E-11  1.19698500307611E-01
 cg2d: Sum(rhs),rhsMax =  -2.42161291019727E-11  1.21568344264234E-01
 cg2d: Sum(rhs),rhsMax =  -2.39240849353450E-11  1.23423656794457E-01
 cg2d: Sum(rhs),rhsMax =  -2.36329844582883E-11  1.25264973526590E-01
 cg2d: Sum(rhs),rhsMax =  -2.33265073923405E-11  1.27092764431810E-01
 cg2d: Sum(rhs),rhsMax =  -2.30765406783462E-11  1.28907380279523E-01
 cg2d: Sum(rhs),rhsMax =  -2.27852181566846E-11  1.30709000174338E-01
 cg2d: Sum(rhs),rhsMax =  -2.25164331624228E-11  1.32497583174456E-01
 cg2d: Sum(rhs),rhsMax =  -2.22712959185856E-11  1.34272826904379E-01
 cg2d: Sum(rhs),rhsMax =  -2.20005125228795E-11  1.36034135799812E-01
 cg2d: Sum(rhs),rhsMax =  -2.17692530668501E-11  1.37780601166022E-01
 cg2d: Sum(rhs),rhsMax =  -2.15183426632848E-11  1.39510994612206E-01
 cg2d: Sum(rhs),rhsMax =  -2.13146167382661E-11  1.41223775675890E-01
 cg2d: Sum(rhs),rhsMax =  -2.10917949772238E-11  1.42917113618390E-01
 cg2d: Sum(rhs),rhsMax =  -2.08932871004208E-11  1.44588922510319E-01
 cg2d: Sum(rhs),rhsMax =  -2.07044381639321E-11  1.46236907893430E-01
 cg2d: Sum(rhs),rhsMax =  -2.05221395432886E-11  1.47858622590529E-01
 cg2d: Sum(rhs),rhsMax =  -2.03286276700965E-11  1.49451528645147E-01
 cg2d: Sum(rhs),rhsMax =  -2.01461070048481E-11  1.51013062013774E-01
 cg2d: Sum(rhs),rhsMax =  -2.00108818404487E-11  1.52540696521384E-01
 cg2d: Sum(rhs),rhsMax =  -1.98595584421923E-11  1.54032003725733E-01
 cg2d: Sum(rhs),rhsMax =  -1.97052374417694E-11  1.55484705727904E-01
 cg2d: Sum(rhs),rhsMax =  -1.95925498047700E-11  1.56896718574504E-01
 cg2d: Sum(rhs),rhsMax =  -1.95061744534542E-11  1.58266184664634E-01
 cg2d: Sum(rhs),rhsMax =  -1.94311233769895E-11  1.59591493436005E-01
 cg2d: Sum(rhs),rhsMax =  -1.93762783595730E-11  1.60871290481087E-01
 cg2d: Sum(rhs),rhsMax =  -1.93106641788177E-11  1.62104476055304E-01
 cg2d: Sum(rhs),rhsMax =  -1.92704741053262E-11  1.63290194611028E-01
 cg2d: Sum(rhs),rhsMax =  -1.92245108721067E-11  1.64427817464821E-01
 cg2d: Sum(rhs),rhsMax =  -1.91353599632293E-11  1.65516920944495E-01
 cg2d: Sum(rhs),rhsMax =  -1.90951698897379E-11  1.66557262357042E-01
 cg2d: Sum(rhs),rhsMax =  -1.90315541104269E-11  1.67548755884584E-01
 cg2d: Sum(rhs),rhsMax =  -1.90004678657374E-11  1.68491450093638E-01
 cg2d: Sum(rhs),rhsMax =  -1.89154247820511E-11  1.69385508216703E-01
 cg2d: Sum(rhs),rhsMax =  -1.88870030726207E-11  1.70231191724585E-01
 cg2d: Sum(rhs),rhsMax =  -1.88623561214740E-11  1.71028847143976E-01
 cg2d: Sum(rhs),rhsMax =  -1.88101756393166E-11  1.71778895632359E-01
 cg2d: Sum(rhs),rhsMax =  -1.88068449702428E-11  1.72481824440959E-01
 cg2d: Sum(rhs),rhsMax =  -1.87384552319259E-11  1.73138179220550E-01
 cg2d: Sum(rhs),rhsMax =  -1.87645454730045E-11  1.73748556129416E-01
 cg2d: Sum(rhs),rhsMax =  -1.87831972198182E-11  1.74313592870936E-01
 cg2d: Sum(rhs),rhsMax =  -1.87703186327326E-11  1.74833958083055E-01
 cg2d: Sum(rhs),rhsMax =  -1.88403737055864E-11  1.75310338872967E-01
 cg2d: Sum(rhs),rhsMax =  -1.88998816597064E-11  1.75743426681077E-01
 cg2d: Sum(rhs),rhsMax =  -1.88831172920345E-11  1.76133901977370E-01
 cg2d: Sum(rhs),rhsMax =  -1.88788984445409E-11  1.76482418663888E-01
 cg2d: Sum(rhs),rhsMax =  -1.88955517899103E-11  1.76789589203178E-01
 cg2d: Sum(rhs),rhsMax =  -1.88502546905056E-11  1.77055971357093E-01
 cg2d: Sum(rhs),rhsMax =  -1.89123161575822E-11  1.77282057438251E-01
 cg2d: Sum(rhs),rhsMax =  -1.88749016416523E-11  1.77468266765906E-01
 cg2d: Sum(rhs),rhsMax =  -1.88323800998091E-11  1.77614941728262E-01
 cg2d: Sum(rhs),rhsMax =  -1.88298265868525E-11  1.77722347509943E-01
 cg2d: Sum(rhs),rhsMax =  -1.88179472004890E-11  1.77790675079360E-01
 cg2d: Sum(rhs),rhsMax =  -1.88328241890190E-11  1.77820046942809E-01
 cg2d: Sum(rhs),rhsMax =  -1.88740134632326E-11  1.77810524966620E-01
 cg2d: Sum(rhs),rhsMax =  -1.88673521250848E-11  1.77762119392823E-01
 cg2d: Sum(rhs),rhsMax =  -1.89279703022294E-11  1.77674798200119E-01
 cg2d: Sum(rhs),rhsMax =  -1.89962490182438E-11  1.77548496101836E-01
 cg2d: Sum(rhs),rhsMax =  -1.90057969362556E-11  1.77383122699835E-01
 cg2d: Sum(rhs),rhsMax =  -1.90153448542674E-11  1.77178569597884E-01
 cg2d: Sum(rhs),rhsMax =  -1.89750437584735E-11  1.76934716526827E-01
 cg2d: Sum(rhs),rhsMax =  -1.90137905420329E-11  1.76651436805934E-01
 cg2d: Sum(rhs),rhsMax =  -1.90377713593648E-11  1.76328602671244E-01
 cg2d: Sum(rhs),rhsMax =  -1.91304749819210E-11  1.75966091046654E-01
 cg2d: Sum(rhs),rhsMax =  -1.91964222295837E-11  1.75563790295070E-01
 cg2d: Sum(rhs),rhsMax =  -1.92372784368899E-11  1.75121608337417E-01
 cg2d: Sum(rhs),rhsMax =  -1.93339788623348E-11  1.74639482279920E-01
 cg2d: Sum(rhs),rhsMax =  -1.94404492503963E-11  1.74117389374301E-01
 cg2d: Sum(rhs),rhsMax =  -1.95102822786453E-11  1.73555358792922E-01
 cg2d: Sum(rhs),rhsMax =  -1.95592431140312E-11  1.72953483364656E-01
 cg2d: Sum(rhs),rhsMax =  -1.95876648234616E-11  1.72311930152238E-01
 cg2d: Sum(rhs),rhsMax =  -1.96356264581254E-11  1.71630948832122E-01
 cg2d: Sum(rhs),rhsMax =  -1.96573868294081E-11  1.70910876444803E-01
 cg2d: Sum(rhs),rhsMax =  -1.96700433718888E-11  1.70152137444956E-01
 cg2d: Sum(rhs),rhsMax =  -1.96904714755419E-11  1.69355238275348E-01
 cg2d: Sum(rhs),rhsMax =  -1.97120098022197E-11  1.68520756092996E-01
 cg2d: Sum(rhs),rhsMax =  -1.97769578491602E-11  1.67649321701398E-01
 cg2d: Sum(rhs),rhsMax =  -1.97650784627967E-11  1.66741597443951E-01
 cg2d: Sum(rhs),rhsMax =  -1.98066008039177E-11  1.65798251080922E-01
 cg2d: Sum(rhs),rhsMax =  -1.98382421601195E-11  1.64819927150734E-01
 cg2d: Sum(rhs),rhsMax =  -1.98924210437212E-11  1.63807217675473E-01
 cg2d: Sum(rhs),rhsMax =  -1.99494865071870E-11  1.62760634240513E-01
 cg2d: Sum(rhs),rhsMax =  -1.99918970267277E-11  1.61680583489448E-01
 cg2d: Sum(rhs),rhsMax =  -2.01034744407025E-11  1.60567347927015E-01
 cg2d: Sum(rhs),rhsMax =  -2.01646477293593E-11  1.59421073547553E-01
 cg2d: Sum(rhs),rhsMax =  -2.02398098281265E-11  1.58241765547925E-01
 cg2d: Sum(rhs),rhsMax =  -2.03046468527646E-11  1.57029292790578E-01
 cg2d: Sum(rhs),rhsMax =  -2.03788097508095E-11  1.55783401169196E-01
 cg2d: Sum(rhs),rhsMax =  -2.04741779086248E-11  1.54503735450428E-01
 cg2d: Sum(rhs),rhsMax =  -2.05641059736195E-11  1.53189868490733E-01
 cg2d: Sum(rhs),rhsMax =  -2.07163175502956E-11  1.51841336665740E-01
 cg2d: Sum(rhs),rhsMax =  -2.08670858370397E-11  1.50457679763303E-01
 cg2d: Sum(rhs),rhsMax =  -2.10211847928576E-11  1.49038483331233E-01
 cg2d: Sum(rhs),rhsMax =  -2.11975992314706E-11  1.47583421340754E-01
 cg2d: Sum(rhs),rhsMax =  -2.13964401751809E-11  1.46092297009132E-01
 cg2d: Sum(rhs),rhsMax =  -2.15617523835476E-11  1.44565079749465E-01
 cg2d: Sum(rhs),rhsMax =  -2.17613149722240E-11  1.43001936420217E-01
 cg2d: Sum(rhs),rhsMax =  -2.19732565476249E-11  1.41403255346859E-01
 cg2d: Sum(rhs),rhsMax =  -2.21988538662288E-11  1.39769661971748E-01
 cg2d: Sum(rhs),rhsMax =  -2.24049667707504E-11  1.38102025343851E-01
 cg2d: Sum(rhs),rhsMax =  -2.26607066444728E-11  1.36401455149646E-01
 cg2d: Sum(rhs),rhsMax =  -2.29039009980170E-11  1.34669289444434E-01
 cg2d: Sum(rhs),rhsMax =  -2.31291652497134E-11  1.32907073683574E-01
 cg2d: Sum(rhs),rhsMax =  -2.34107733199096E-11  1.31116532055359E-01
 cg2d: Sum(rhs),rhsMax =  -2.36651254148512E-11  1.29299532467488E-01
 cg2d: Sum(rhs),rhsMax =  -2.39696040793547E-11  1.27458046814055E-01
 cg2d: Sum(rhs),rhsMax =  -2.42719733201113E-11  1.25594108359435E-01
 cg2d: Sum(rhs),rhsMax =  -2.45938824861014E-11  1.23709768171746E-01
 cg2d: Sum(rhs),rhsMax =  -2.49280596165136E-11  1.21807052549969E-01
 cg2d: Sum(rhs),rhsMax =  -2.52542431411484E-11  1.19887923277914E-01
 cg2d: Sum(rhs),rhsMax =  -2.55869769816286E-11  1.17954242398432E-01
 cg2d: Sum(rhs),rhsMax =  -2.59419152826013E-11  1.16007743010149E-01
 cg2d: Sum(rhs),rhsMax =  -2.63217780904768E-11  1.14050006945017E-01
 cg2d: Sum(rhs),rhsMax =  -2.67179611768142E-11  1.12082449930364E-01
 cg2d: Sum(rhs),rhsMax =  -2.71447864186314E-11  1.10106314369123E-01
 cg2d: Sum(rhs),rhsMax =  -2.75667266791402E-11  1.08122669388067E-01
 cg2d: Sum(rhs),rhsMax =  -2.79922751644790E-11  1.06132417334141E-01
 cg2d: Sum(rhs),rhsMax =  -2.84371970415975E-11  1.04136305421248E-01
 cg2d: Sum(rhs),rhsMax =  -2.89177015666553E-11  1.02134941056484E-01
 cg2d: Sum(rhs),rhsMax =  -2.94131385913943E-11  1.00128809150114E-01
 cg2d: Sum(rhs),rhsMax =  -2.99630320554911E-11  9.81182897189783E-02
 cg2d: Sum(rhs),rhsMax =  -3.05345193574169E-11  9.61036742734826E-02
 cg2d: Sum(rhs),rhsMax =  -3.11753400872306E-11  9.40851798257809E-02
 cg2d: Sum(rhs),rhsMax =  -3.18540749333351E-11  9.20629598410883E-02
 cg2d: Sum(rhs),rhsMax =  -3.25149351887433E-11  9.00371120278063E-02
 cg2d: Sum(rhs),rhsMax =  -3.31437655098910E-11  8.80076834627696E-02
 cg2d: Sum(rhs),rhsMax =  -3.38133965271936E-11  8.59746741043945E-02
 cg2d: Sum(rhs),rhsMax =  -3.45334039142386E-11  8.39380401826760E-02
 cg2d: Sum(rhs),rhsMax =  -3.53512219497532E-11  8.18976992095274E-02
 cg2d: Sum(rhs),rhsMax =  -3.62131713504965E-11  7.98535383880580E-02
 cg2d: Sum(rhs),rhsMax =  -3.71069841520466E-11  7.78054279444724E-02
 cg2d: Sum(rhs),rhsMax =  -3.80737663618902E-11  7.57532404205824E-02
 cg2d: Sum(rhs),rhsMax =  -3.90674159689297E-11  7.36968763803157E-02
 cg2d: Sum(rhs),rhsMax =  -4.01218225309918E-11  7.16362961083080E-02
 cg2d: Sum(rhs),rhsMax =  -4.12547773720462E-11  6.95715560308496E-02
 cg2d: Sum(rhs),rhsMax =  -4.24822399480718E-11  6.75028478132608E-02
 cg2d: Sum(rhs),rhsMax =  -4.37574837475196E-11  6.54305374794170E-02
 cg2d: Sum(rhs),rhsMax =  -4.51326823136533E-11  6.33552015255159E-02
 cg2d: Sum(rhs),rhsMax =  -4.66307895075069E-11  6.12776569262494E-02
 cg2d: Sum(rhs),rhsMax =  -4.81960010095817E-11  5.91989821774298E-02
 cg2d: Sum(rhs),rhsMax =  -4.99063151915280E-11  5.71205270691581E-02
 cg2d: Sum(rhs),rhsMax =  -5.17141329758886E-11  5.50439096846854E-02
 cg2d: Sum(rhs),rhsMax =  -5.36882760471258E-11  5.29710000956064E-02
 cg2d: Sum(rhs),rhsMax =  -5.58185442312009E-11  5.09038912484384E-02
 cg2d: Sum(rhs),rhsMax =  -5.80828718454995E-11  4.88448584910108E-02
 cg2d: Sum(rhs),rhsMax =  -6.05324956826081E-11  4.67963101140894E-02
 cg2d: Sum(rhs),rhsMax =  -6.32289776092421E-11  4.47607318400467E-02
 cg2d: Sum(rhs),rhsMax =  -6.61361521103743E-11  4.27406285841885E-02
 cg2d: Sum(rhs),rhsMax =  -6.93190504996721E-11  4.07384667863163E-02
 cg2d: Sum(rhs),rhsMax =  -7.27711779724416E-11  3.87566203997774E-02
 cg2d: Sum(rhs),rhsMax =  -7.65753016551685E-11  3.67973231617161E-02
 cg2d: Sum(rhs),rhsMax =  -7.73412445198574E-11  3.63952475070974E-02
 cg2d: Sum(rhs),rhsMax =  -7.47151229774090E-11  3.76153575382169E-02
 cg2d: Sum(rhs),rhsMax =  -7.23342497011004E-11  3.88200308824136E-02
 cg2d: Sum(rhs),rhsMax =  -7.01586566620449E-11  4.00087055693498E-02
 cg2d: Sum(rhs),rhsMax =  -6.80842049405328E-11  4.11809261161667E-02
 cg2d: Sum(rhs),rhsMax =  -6.61017907077621E-11  4.23715287912658E-02
 cg2d: Sum(rhs),rhsMax =  -6.42242925508185E-11  4.35465797098675E-02
 cg2d: Sum(rhs),rhsMax =  -6.24932328108230E-11  4.47048080210282E-02
 cg2d: Sum(rhs),rhsMax =  -6.08191275119907E-11  4.58460837490911E-02
 cg2d: Sum(rhs),rhsMax =  -5.92721427494780E-11  4.69703543445865E-02
 cg2d: Sum(rhs),rhsMax =  -5.78739278722651E-11  4.80776335023042E-02
 cg2d: Sum(rhs),rhsMax =  -5.65097968419082E-11  4.91679527020430E-02
 cg2d: Sum(rhs),rhsMax =  -5.51940715354249E-11  5.02413258179044E-02
 cg2d: Sum(rhs),rhsMax =  -5.40147926386680E-11  5.12976979561375E-02
 cg2d: Sum(rhs),rhsMax =  -5.28309618275102E-11  5.23368886058073E-02
 cg2d: Sum(rhs),rhsMax =  -5.17876852512700E-11  5.33585434781068E-02
 cg2d: Sum(rhs),rhsMax =  -5.07626163326336E-11  5.43620980486965E-02
 cg2d: Sum(rhs),rhsMax =  -4.98053820408018E-11  5.53467627906276E-02
 cg2d: Sum(rhs),rhsMax =  -4.88314944036006E-11  5.63115413645187E-02
 cg2d: Sum(rhs),rhsMax =  -4.79115636053962E-11  5.72552543628745E-02
 cg2d: Sum(rhs),rhsMax =  -4.71139793845055E-11  5.81765854449441E-02
 cg2d: Sum(rhs),rhsMax =  -4.63625804414391E-11  5.90741429189994E-02
 cg2d: Sum(rhs),rhsMax =  -4.56032989148980E-11  5.99465299805097E-02
 cg2d: Sum(rhs),rhsMax =  -4.49954518089157E-11  6.07924235255869E-02
 cg2d: Sum(rhs),rhsMax =  -4.42582637205646E-11  6.16106264346034E-02
 cg2d: Sum(rhs),rhsMax =  -4.36387592728238E-11  6.24001171329481E-02
 cg2d: Sum(rhs),rhsMax =  -4.30220303826445E-11  6.31600944687973E-02
 cg2d: Sum(rhs),rhsMax =  -4.24310586666365E-11  6.38899130127607E-02
 cg2d: Sum(rhs),rhsMax =  -4.18537426938315E-11  6.45894127933039E-02
 cg2d: Sum(rhs),rhsMax =  -4.13701295443047E-11  6.52584894052988E-02
 cg2d: Sum(rhs),rhsMax =  -4.08851841271485E-11  6.58972354857415E-02
 cg2d: Sum(rhs),rhsMax =  -4.04248856611389E-11  6.65059536205531E-02
 cg2d: Sum(rhs),rhsMax =  -4.00295352420699E-11  6.70850825900570E-02
 cg2d: Sum(rhs),rhsMax =  -3.96701560489987E-11  6.76351202037322E-02
 cg2d: Sum(rhs),rhsMax =  -3.92973431573296E-11  6.81565820769422E-02
 cg2d: Sum(rhs),rhsMax =  -3.90506516012579E-11  6.86499768484828E-02
 cg2d: Sum(rhs),rhsMax =  -3.86597420742874E-11  6.91157790050474E-02
 cg2d: Sum(rhs),rhsMax =  -3.83859610764148E-11  6.95543857100491E-02
 cg2d: Sum(rhs),rhsMax =  -3.81175091490604E-11  6.99661188645158E-02
 cg2d: Sum(rhs),rhsMax =  -3.78413966828361E-11  7.03512156453605E-02
 cg2d: Sum(rhs),rhsMax =  -3.76139119850905E-11  7.07098156816254E-02
 cg2d: Sum(rhs),rhsMax =  -3.73966413391713E-11  7.10419684766878E-02
 cg2d: Sum(rhs),rhsMax =  -3.72287756178480E-11  7.13476274491483E-02
 cg2d: Sum(rhs),rhsMax =  -3.70861119591837E-11  7.16266621607392E-02
 cg2d: Sum(rhs),rhsMax =  -3.68957087104604E-11  7.18788739477572E-02
 cg2d: Sum(rhs),rhsMax =  -3.67698094194679E-11  7.21040017949860E-02
 cg2d: Sum(rhs),rhsMax =  -3.66009444974225E-11  7.23017440665702E-02
 cg2d: Sum(rhs),rhsMax =  -3.64723806711709E-11  7.24717916450697E-02
 cg2d: Sum(rhs),rhsMax =  -3.63511443168818E-11  7.26138195728884E-02
 cg2d: Sum(rhs),rhsMax =  -3.63130636671372E-11  7.27274957323467E-02
 cg2d: Sum(rhs),rhsMax =  -3.62909702289471E-11  7.28125146242507E-02
 cg2d: Sum(rhs),rhsMax =  -3.63029606376131E-11  7.28686197928732E-02
 cg2d: Sum(rhs),rhsMax =  -3.62908592066447E-11  7.28956212309232E-02
 cg2d: Sum(rhs),rhsMax =  -3.63291619009942E-11  7.28934074134177E-02
 cg2d: Sum(rhs),rhsMax =  -3.63614693910108E-11  7.28619530243817E-02
 cg2d: Sum(rhs),rhsMax =  -3.63715724205349E-11  7.28013219146929E-02
 cg2d: Sum(rhs),rhsMax =  -3.63920005241880E-11  7.27116594697667E-02
 cg2d: Sum(rhs),rhsMax =  -3.64998031798791E-11  7.25931902093446E-02
 cg2d: Sum(rhs),rhsMax =  -3.66222607794953E-11  7.24462098791019E-02
 cg2d: Sum(rhs),rhsMax =  -3.67399444201055E-11  7.22710659403271E-02
 cg2d: Sum(rhs),rhsMax =  -3.68972630226949E-11  7.20681361589093E-02
 cg2d: Sum(rhs),rhsMax =  -3.70795616433384E-11  7.18378098960704E-02
 cg2d: Sum(rhs),rhsMax =  -3.72051278674235E-11  7.15804754517788E-02
 cg2d: Sum(rhs),rhsMax =  -3.73420183663598E-11  7.12965059227046E-02
 cg2d: Sum(rhs),rhsMax =  -3.75404152208603E-11  7.09862379510020E-02
 cg2d: Sum(rhs),rhsMax =  -3.77181619271028E-11  7.06499773436966E-02
 cg2d: Sum(rhs),rhsMax =  -3.79201114952821E-11  7.02879887899432E-02
 cg2d: Sum(rhs),rhsMax =  -3.81876752442167E-11  6.99005098976095E-02
 cg2d: Sum(rhs),rhsMax =  -3.84743348291749E-11  6.94877614473967E-02
 cg2d: Sum(rhs),rhsMax =  -3.86940479657483E-11  6.90499562608610E-02
 cg2d: Sum(rhs),rhsMax =  -3.89931420485823E-11  6.85873115342344E-02
 cg2d: Sum(rhs),rhsMax =  -3.93480803495549E-11  6.81000631780566E-02
 cg2d: Sum(rhs),rhsMax =  -3.96938037994232E-11  6.75884820552588E-02
 cg2d: Sum(rhs),rhsMax =  -4.00335320449585E-11  6.70528868053070E-02
 cg2d: Sum(rhs),rhsMax =  -4.03682642868830E-11  6.64936057862948E-02
 cg2d: Sum(rhs),rhsMax =  -4.07958111736662E-11  6.59109907690233E-02
 cg2d: Sum(rhs),rhsMax =  -4.11869427452416E-11  6.53054310863040E-02
 cg2d: Sum(rhs),rhsMax =  -4.16239265277341E-11  6.46773119327124E-02
 cg2d: Sum(rhs),rhsMax =  -4.21094270564026E-11  6.40269870352321E-02
 cg2d: Sum(rhs),rhsMax =  -4.26048085699904E-11  6.33755713495757E-02
 cg2d: Sum(rhs),rhsMax =  -4.31126245814539E-11  6.27077971758497E-02
 cg2d: Sum(rhs),rhsMax =  -4.36375380274967E-11  6.20191702683142E-02
 cg2d: Sum(rhs),rhsMax =  -4.42444969550593E-11  6.13096303265404E-02
 cg2d: Sum(rhs),rhsMax =  -4.48224790616791E-11  6.05790052467781E-02
 cg2d: Sum(rhs),rhsMax =  -4.54498660928948E-11  5.98270702530385E-02
 cg2d: Sum(rhs),rhsMax =  -4.60850246852829E-11  5.90535618235171E-02
 cg2d: Sum(rhs),rhsMax =  -4.67816896332351E-11  5.82582022295986E-02
 cg2d: Sum(rhs),rhsMax =  -4.74279504558694E-11  5.74407507312037E-02
 cg2d: Sum(rhs),rhsMax =  -4.82116568889523E-11  5.66010432771629E-02
 cg2d: Sum(rhs),rhsMax =  -4.89719376162157E-11  5.57390408710248E-02
 cg2d: Sum(rhs),rhsMax =  -4.97790697551181E-11  5.48547614556902E-02
 cg2d: Sum(rhs),rhsMax =  -5.06259478783022E-11  5.39482816997953E-02
 cg2d: Sum(rhs),rhsMax =  -5.15207876361501E-11  5.30197959203011E-02
 cg2d: Sum(rhs),rhsMax =  -5.25496313130702E-11  5.20695880413079E-02
 cg2d: Sum(rhs),rhsMax =  -5.35812505475519E-11  5.10980319294387E-02
 cg2d: Sum(rhs),rhsMax =  -5.47097922520834E-11  5.01055254243356E-02
 cg2d: Sum(rhs),rhsMax =  -5.58952883977781E-11  4.90925079627243E-02
 cg2d: Sum(rhs),rhsMax =  -5.71588332221040E-11  4.80594891271913E-02
 cg2d: Sum(rhs),rhsMax =  -5.84848836027163E-11  4.70070074895820E-02
 cg2d: Sum(rhs),rhsMax =  -5.98955329778050E-11  4.59356694430909E-02
 cg2d: Sum(rhs),rhsMax =  -6.14290840417198E-11  4.48461530300569E-02
 cg2d: Sum(rhs),rhsMax =  -6.28943563896200E-11  4.37391931548383E-02
 cg2d: Sum(rhs),rhsMax =  -6.45856701453340E-11  4.26155979284965E-02
 cg2d: Sum(rhs),rhsMax =  -6.64307497899586E-11  4.14761991183929E-02
 cg2d: Sum(rhs),rhsMax =  -6.83973988557796E-11  4.03218236550211E-02
 cg2d: Sum(rhs),rhsMax =  -7.04861724543093E-11  3.91532788896350E-02
 cg2d: Sum(rhs),rhsMax =  -7.27312654547063E-11  3.79713527077990E-02
 cg2d: Sum(rhs),rhsMax =  -7.52103934686943E-11  3.67768163032775E-02
 cg2d: Sum(rhs),rhsMax =  -7.78127562384157E-11  3.55703934178529E-02
 cg2d: Sum(rhs),rhsMax =  -7.89808218826238E-11  3.50736640678270E-02
 cg2d: Sum(rhs),rhsMax =  -7.52158335615150E-11  3.68586729489574E-02
 cg2d: Sum(rhs),rhsMax =  -7.17766401869824E-11  3.86610599243563E-02
 cg2d: Sum(rhs),rhsMax =  -6.85929091304160E-11  4.04801827817873E-02
 cg2d: Sum(rhs),rhsMax =  -6.56804055587656E-11  4.23154538650733E-02
 cg2d: Sum(rhs),rhsMax =  -6.29843954769171E-11  4.41663414236216E-02
 cg2d: Sum(rhs),rhsMax =  -6.04813699123241E-11  4.60323664780294E-02
 cg2d: Sum(rhs),rhsMax =  -5.81764358908998E-11  4.79130951611042E-02
 cg2d: Sum(rhs),rhsMax =  -5.60244906022689E-11  4.98081268247734E-02
 cg2d: Sum(rhs),rhsMax =  -5.40147371275168E-11  5.17170784995610E-02
 cg2d: Sum(rhs),rhsMax =  -5.21341303461043E-11  5.36395665360434E-02
 cg2d: Sum(rhs),rhsMax =  -5.03699304488237E-11  5.55751864333210E-02
 cg2d: Sum(rhs),rhsMax =  -4.86990543377419E-11  5.75234919619552E-02
 cg2d: Sum(rhs),rhsMax =  -4.71339252350322E-11  5.94839747179974E-02
 cg2d: Sum(rhs),rhsMax =  -4.56409424143267E-11  6.14560452059611E-02
 cg2d: Sum(rhs),rhsMax =  -4.42555297963665E-11  6.34390164514288E-02
 cg2d: Sum(rhs),rhsMax =  -4.29563606907379E-11  6.54320910008290E-02
 cg2d: Sum(rhs),rhsMax =  -4.17183232404028E-11  6.74343519903383E-02
 cg2d: Sum(rhs),rhsMax =  -4.05404598780024E-11  6.94447587703128E-02
 cg2d: Sum(rhs),rhsMax =  -3.94880794729602E-11  7.14621473687380E-02
 cg2d: Sum(rhs),rhsMax =  -3.84190457225486E-11  7.34852358732298E-02
 cg2d: Sum(rhs),rhsMax =  -3.74912045852938E-11  7.55126346109465E-02
 cg2d: Sum(rhs),rhsMax =  -3.65939500923673E-11  7.75428607883326E-02
 cg2d: Sum(rhs),rhsMax =  -3.57490148594763E-11  7.95743571800728E-02
 cg2d: Sum(rhs),rhsMax =  -3.49490991702339E-11  8.16055141222659E-02
(PID.TID 0000.0001)      cg2d_init_res =   1.31790448777882E-01
(PID.TID 0000.0001)      cg2d_iters(min,last) =      -1      37
(PID.TID 0000.0001)      cg2d_last_res =   9.14707876665946E-14
(PID.TID 0000.0001) // =======================================================
(PID.TID 0000.0001) // Begin MONITOR dynamic field statistics
(PID.TID 0000.0001) // =======================================================
(PID.TID 0000.0001) %MON time_tsnumber                =                  5760
(PID.TID 0000.0001) %MON time_secondsf                =   8.6400000000000E+04
(PID.TID 0000.0001) %MON dynstat_eta_max              =   1.4210641960414E-02
(PID.TID 0000.0001) %MON dynstat_eta_min              =  -1.1925509248152E-02
(PID.TID 0000.0001) %MON dynstat_eta_mean             =   6.0685596169397E-15
(PID.TID 0000.0001) %MON dynstat_eta_sd               =   7.4991532545348E-03
(PID.TID 0000.0001) %MON dynstat_eta_del2             =   2.1965662790131E-05
(PID.TID 0000.0001) %MON dynstat_uvel_max             =   1.3284928486752E+00
(PID.TID 0000.0001) %MON dynstat_uvel_min             =  -7.0494699307729E-01
(PID.TID 0000.0001) %MON dynstat_uvel_mean            =   2.8407911086255E-01
(PID.TID 0000.0001) %MON dynstat_uvel_sd              =   1.4728452672052E-01
(PID.TID 0000.0001) %MON dynstat_uvel_del2            =   6.7243548415233E-04
(PID.TID 0000.0001) %MON dynstat_vvel_max             =   0.0000000000000E+00
(PID.TID 0000.0001) %MON dynstat_vvel_min             =   0.0000000000000E+00
(PID.TID 0000.0001) %MON dynstat_vvel_mean            =   0.0000000000000E+00
(PID.TID 0000.0001) %MON dynstat_vvel_sd              =   0.0000000000000E+00
(PID.TID 0000.0001) %MON dynstat_vvel_del2            =   0.0000000000000E+00
(PID.TID 0000.0001) %MON dynstat_wvel_max             =   3.0377459272986E-02
(PID.TID 0000.0001) %MON dynstat_wvel_min             =  -2.9949889088077E-02
(PID.TID 0000.0001) %MON dynstat_wvel_mean            =  -4.8143528997047E-20
(PID.TID 0000.0001) %MON dynstat_wvel_sd              =   2.2195445324992E-03
(PID.TID 0000.0001) %MON dynstat_wvel_del2            =   6.7769200596752E-05
(PID.TID 0000.0001) %MON dynstat_theta_max            =   1.5000000000007E+01
(PID.TID 0000.0001) %MON dynstat_theta_min            =   9.9999999999926E+00
(PID.TID 0000.0001) %MON dynstat_theta_mean           =   1.2451107276619E+01
(PID.TID 0000.0001) %MON dynstat_theta_sd             =   2.3835849294636E+00
(PID.TID 0000.0001) %MON dynstat_theta_del2           =   1.3346531280556E-03
(PID.TID 0000.0001) %MON dynstat_salt_max             =   3.5000000000000E+01
(PID.TID 0000.0001) %MON dynstat_salt_min             =   3.5000000000000E+01
(PID.TID 0000.0001) %MON dynstat_salt_mean            =   3.5000000000000E+01
(PID.TID 0000.0001) %MON dynstat_salt_sd              =   3.1974423109205E-13
(PID.TID 0000.0001) %MON dynstat_salt_del2            =   0.0000000000000E+00
(PID.TID 0000.0001) %MON dynstat_sst_max              =   1.5000000000000E+01
(PID.TID 0000.0001) %MON dynstat_sst_min              =   1.4997850809900E+01
(PID.TID 0000.0001) %MON dynstat_sst_mean             =   1.4999909193603E+01
(PID.TID 0000.0001) %MON dynstat_sst_sd               =   3.4020235352543E-04
(PID.TID 0000.0001) %MON dynstat_sst_del2             =   7.4593089105270E-06
(PID.TID 0000.0001) %MON dynstat_sss_max              =   3.5000000000000E+01
(PID.TID 0000.0001) %MON dynstat_sss_min              =   3.5000000000000E+01
(PID.TID 0000.0001) %MON dynstat_sss_mean             =   3.5000000000000E+01
(PID.TID 0000.0001) %MON dynstat_sss_sd               =   5.6843418860808E-14
(PID.TID 0000.0001) %MON dynstat_sss_del2             =   0.0000000000000E+00
(PID.TID 0000.0001) %MON forcing_qnet_max             =   0.0000000000000E+00
(PID.TID 0000.0001) %MON forcing_qnet_min             =   0.0000000000000E+00
(PID.TID 0000.0001) %MON forcing_qnet_mean            =   0.0000000000000E+00
(PID.TID 0000.0001) %MON forcing_qnet_sd              =   0.0000000000000E+00
(PID.TID 0000.0001) %MON forcing_qnet_del2            =   0.0000000000000E+00
(PID.TID 0000.0001) %MON forcing_qsw_max              =   0.0000000000000E+00
(PID.TID 0000.0001) %MON forcing_qsw_min              =   0.0000000000000E+00
(PID.TID 0000.0001) %MON forcing_qsw_mean             =   0.0000000000000E+00
(PID.TID 0000.0001) %MON forcing_qsw_sd               =   0.0000000000000E+00
(PID.TID 0000.0001) %MON forcing_qsw_del2             =   0.0000000000000E+00
(PID.TID 0000.0001) %MON forcing_empmr_max            =   0.0000000000000E+00
(PID.TID 0000.0001) %MON forcing_empmr_min            =   0.0000000000000E+00
(PID.TID 0000.0001) %MON forcing_empmr_mean           =   0.0000000000000E+00
(PID.TID 0000.0001) %MON forcing_empmr_sd             =   0.0000000000000E+00
(PID.TID 0000.0001) %MON forcing_empmr_del2           =   0.0000000000000E+00
(PID.TID 0000.0001) %MON forcing_fu_max               =   0.0000000000000E+00
(PID.TID 0000.0001) %MON forcing_fu_min               =   0.0000000000000E+00
(PID.TID 0000.0001) %MON forcing_fu_mean              =   0.0000000000000E+00
(PID.TID 0000.0001) %MON forcing_fu_sd                =   0.0000000000000E+00
(PID.TID 0000.0001) %MON forcing_fu_del2              =   0.0000000000000E+00
(PID.TID 0000.0001) %MON forcing_fv_max               =   0.0000000000000E+00
(PID.TID 0000.0001) %MON forcing_fv_min               =   0.0000000000000E+00
(PID.TID 0000.0001) %MON forcing_fv_mean              =   0.0000000000000E+00
(PID.TID 0000.0001) %MON forcing_fv_sd                =   0.0000000000000E+00
(PID.TID 0000.0001) %MON forcing_fv_del2              =   0.0000000000000E+00
(PID.TID 0000.0001) %MON advcfl_uvel_max              =   9.9636963650640E-02
(PID.TID 0000.0001) %MON advcfl_vvel_max              =   0.0000000000000E+00
(PID.TID 0000.0001) %MON advcfl_wvel_max              =   3.7170603339216E-01
(PID.TID 0000.0001) %MON advcfl_W_hf_max              =   3.7170603339216E-01
(PID.TID 0000.0001) %MON pe_b_mean                    =   1.4087400907111E-06
(PID.TID 0000.0001) %MON ke_max                       =   6.4209765702523E-01
(PID.TID 0000.0001) %MON ke_mean                      =   5.1301462369199E-02
(PID.TID 0000.0001) %MON ke_vol                       =   9.5633499295324E+10
(PID.TID 0000.0001) %MON vort_r_min                   =   0.0000000000000E+00
(PID.TID 0000.0001) %MON vort_r_max                   =   0.0000000000000E+00
(PID.TID 0000.0001) %MON vort_a_mean                  =   0.0000000000000E+00
(PID.TID 0000.0001) %MON vort_a_sd                    =   0.0000000000000E+00
(PID.TID 0000.0001) %MON vort_p_mean                  =   0.0000000000000E+00
(PID.TID 0000.0001) %MON vort_p_sd                    =   0.0000000000000E+00
(PID.TID 0000.0001) %MON surfExpan_theta_mean         =   1.4803418306729E-09
(PID.TID 0000.0001) %MON surfExpan_salt_mean          =  -2.5735390643950E-18
(PID.TID 0000.0001) // =======================================================
(PID.TID 0000.0001) // End MONITOR dynamic field statistics
(PID.TID 0000.0001) // =======================================================
(PID.TID 0000.0001) // =======================================================
(PID.TID 0000.0001) // Begin OBCS MONITOR field statistics
(PID.TID 0000.0001) // =======================================================
(PID.TID 0000.0001) %MON obc_E_uVel_max               =   2.8014282071829E-01
(PID.TID 0000.0001) %MON obc_E_uVel_min               =   2.8014282071829E-01
(PID.TID 0000.0001) %MON obc_E_uVel_mean              =   2.8014282071829E-01
(PID.TID 0000.0001) %MON obc_E_uVel_sd                =   3.7252902984619E-09
(PID.TID 0000.0001) %MON obc_E_uVel_Int               =   2.8014282071829E+05
(PID.TID 0000.0001) %MON obc_W_uVel_max               =   2.8014282071829E-01
(PID.TID 0000.0001) %MON obc_W_uVel_min               =   2.8014282071829E-01
(PID.TID 0000.0001) %MON obc_W_uVel_mean              =   2.8014282071829E-01
(PID.TID 0000.0001) %MON obc_W_uVel_sd                =   3.7252902984619E-09
(PID.TID 0000.0001) %MON obc_W_uVel_Int               =   2.8014282071829E+05
(PID.TID 0000.0001) // =======================================================
(PID.TID 0000.0001) // End OBCS MONITOR field statistics
(PID.TID 0000.0001) // =======================================================
(PID.TID 0000.0001) %CHECKPOINT      5760 0000005760
 cg2d: Sum(rhs),rhsMax =  -3.41789929692027E-11  8.36346939997762E-02
 cg2d: Sum(rhs),rhsMax =  -3.34547389790885E-11  8.56602572940353E-02
 cg2d: Sum(rhs),rhsMax =  -3.27685656387189E-11  8.76805891514795E-02
 cg2d: Sum(rhs),rhsMax =  -3.21342397135993E-11  8.96941253607566E-02
 cg2d: Sum(rhs),rhsMax =  -3.15300008324471E-11  9.16993766038257E-02
 cg2d: Sum(rhs),rhsMax =  -3.09363645811800E-11  9.36949498815391E-02
 cg2d: Sum(rhs),rhsMax =  -3.04007374829496E-11  9.56795661120761E-02
 cg2d: Sum(rhs),rhsMax =  -2.98467361936616E-11  9.76520730593973E-02
 cg2d: Sum(rhs),rhsMax =  -2.93378099591735E-11  9.96114529624952E-02
 cg2d: Sum(rhs),rhsMax =  -2.88392087988143E-11  1.01556824493948E-01
 cg2d: Sum(rhs),rhsMax =  -2.83830181579958E-11  1.03487438952166E-01
 cg2d: Sum(rhs),rhsMax =  -2.79506418010556E-11  1.05402670917311E-01
 cg2d: Sum(rhs),rhsMax =  -2.75244826930532E-11  1.07302003903029E-01
 cg2d: Sum(rhs),rhsMax =  -2.71319078315457E-11  1.09185011732241E-01
 cg2d: Sum(rhs),rhsMax =  -2.67398325703994E-11  1.11051336639854E-01
 cg2d: Sum(rhs),rhsMax =  -2.63630228758416E-11  1.12900665208936E-01
 cg2d: Sum(rhs),rhsMax =  -2.60035881716192E-11  1.14732703420438E-01
 cg2d: Sum(rhs),rhsMax =  -2.56554777422480E-11  1.16547152054435E-01
 cg2d: Sum(rhs),rhsMax =  -2.53281839945885E-11  1.18343683611512E-01
 cg2d: Sum(rhs),rhsMax =  -2.50174325699959E-11  1.20121921790804E-01
 cg2d: Sum(rhs),rhsMax =  -2.47142306619708E-11  1.21881424379073E-01
 cg2d: Sum(rhs),rhsMax =  -2.44135267557510E-11  1.23621670188376E-01
 cg2d: Sum(rhs),rhsMax =  -2.41351938434775E-11  1.25342050444120E-01
 cg2d: Sum(rhs),rhsMax =  -2.38664643603670E-11  1.27041864800628E-01
 cg2d: Sum(rhs),rhsMax =  -2.36324293467760E-11  1.28720321937822E-01
 cg2d: Sum(rhs),rhsMax =  -2.33588703935084E-11  1.30376544500476E-01
 cg2d: Sum(rhs),rhsMax =  -2.31322183630311E-11  1.32009577986574E-01
 cg2d: Sum(rhs),rhsMax =  -2.29088414904766E-11  1.33618403069240E-01
 cg2d: Sum(rhs),rhsMax =  -2.26989538276712E-11  1.35201950744134E-01
 cg2d: Sum(rhs),rhsMax =  -2.24973928375505E-11  1.36759119627490E-01
 cg2d: Sum(rhs),rhsMax =  -2.22707963182245E-11  1.38288794686126E-01
 cg2d: Sum(rhs),rhsMax =  -2.20662932370885E-11  1.39789866656309E-01
 cg2d: Sum(rhs),rhsMax =  -2.18539630836290E-11  1.41261251401135E-01
 cg2d: Sum(rhs),rhsMax =  -2.16759943327816E-11  1.42701908464693E-01
 cg2d: Sum(rhs),rhsMax =  -2.14805950804475E-11  1.44110858101562E-01
 cg2d: Sum(rhs),rhsMax =  -2.13137285598464E-11  1.45487196130597E-01
 cg2d: Sum(rhs),rhsMax =  -2.11228812219133E-11  1.46830105993021E-01
 cg2d: Sum(rhs),rhsMax =  -2.09839923215327E-11  1.48138867505511E-01
 cg2d: Sum(rhs),rhsMax =  -2.08412176405659E-11  1.49412861921835E-01
 cg2d: Sum(rhs),rhsMax =  -2.07098782567527E-11  1.50651573064311E-01
 cg2d: Sum(rhs),rhsMax =  -2.05963024413336E-11  1.51854584456856E-01
 cg2d: Sum(rhs),rhsMax =  -2.04960493022099E-11  1.53021572581371E-01
 cg2d: Sum(rhs),rhsMax =  -2.04050110141907E-11  1.54152296572355E-01
 cg2d: Sum(rhs),rhsMax =  -2.02957650685676E-11  1.55246584865381E-01
 cg2d: Sum(rhs),rhsMax =  -2.02311500885344E-11  1.56304319501140E-01
 cg2d: Sum(rhs),rhsMax =  -2.01485494955023E-11  1.57325418943217E-01
 cg2d: Sum(rhs),rhsMax =  -2.00857108723085E-11  1.58309820385686E-01
 cg2d: Sum(rhs),rhsMax =  -1.99714689230746E-11  1.59257462595237E-01
 cg2d: Sum(rhs),rhsMax =  -1.99321670280028E-11  1.60168270362043E-01
 cg2d: Sum(rhs),rhsMax =  -1.98494554126682E-11  1.61042141514642E-01
 cg2d: Sum(rhs),rhsMax =  -1.97755145592282E-11  1.61878937405009E-01
 cg2d: Sum(rhs),rhsMax =  -1.96898053417272E-11  1.62678477587770E-01
 cg2d: Sum(rhs),rhsMax =  -1.96189731127561E-11  1.63440539143444E-01
 cg2d: Sum(rhs),rhsMax =  -1.95692351212529E-11  1.64164860801495E-01
 cg2d: Sum(rhs),rhsMax =  -1.95005123160286E-11  1.64851151703887E-01
 cg2d: Sum(rhs),rhsMax =  -1.94637639339135E-11  1.65499104315447E-01
 cg2d: Sum(rhs),rhsMax =  -1.94150251431324E-11  1.66108410665544E-01
 cg2d: Sum(rhs),rhsMax =  -1.93600691034135E-11  1.66678780821344E-01
 cg2d: Sum(rhs),rhsMax =  -1.93107752011201E-11  1.67209962273365E-01
 cg2d: Sum(rhs),rhsMax =  -1.93104421342127E-11  1.67701758782991E-01
 cg2d: Sum(rhs),rhsMax =  -1.93212112975516E-11  1.68154047191683E-01
 cg2d: Sum(rhs),rhsMax =  -1.93060012421142E-11  1.68566790835790E-01
 cg2d: Sum(rhs),rhsMax =  -1.92971194579172E-11  1.68940048453276E-01
 cg2d: Sum(rhs),rhsMax =  -1.92936777665409E-11  1.69273977599626E-01
 cg2d: Sum(rhs),rhsMax =  -1.92632576556662E-11  1.69568832088723E-01
 cg2d: Sum(rhs),rhsMax =  -1.92538207599569E-11  1.69824953412250E-01
 cg2d: Sum(rhs),rhsMax =  -1.92780236218937E-11  1.70042756540039E-01
 cg2d: Sum(rhs),rhsMax =  -1.93820515193011E-11  1.70222710970466E-01
 cg2d: Sum(rhs),rhsMax =  -1.94690930044317E-11  1.70365318134501E-01
 cg2d: Sum(rhs),rhsMax =  -1.95135019254167E-11  1.70471086606120E-01
 cg2d: Sum(rhs),rhsMax =  -1.95551352888401E-11  1.70540506782418E-01
 cg2d: Sum(rhs),rhsMax =  -1.95976568306833E-11  1.70574026731368E-01
 cg2d: Sum(rhs),rhsMax =  -1.96260785401137E-11  1.70572030746283E-01
 cg2d: Sum(rhs),rhsMax =  -1.96794802675981E-11  1.70534821930117E-01
 cg2d: Sum(rhs),rhsMax =  -1.97297733706137E-11  1.70462609821015E-01
 cg2d: Sum(rhs),rhsMax =  -1.97295513260087E-11  1.70355503693249E-01
 cg2d: Sum(rhs),rhsMax =  -1.97023508619054E-11  1.70213511740775E-01
 cg2d: Sum(rhs),rhsMax =  -1.96399563279215E-11  1.70036545897470E-01
 cg2d: Sum(rhs),rhsMax =  -1.96257454732063E-11  1.69824431728350E-01
 cg2d: Sum(rhs),rhsMax =  -1.96712646172159E-11  1.69576922460037E-01
 cg2d: Sum(rhs),rhsMax =  -1.97085681108433E-11  1.69293715990671E-01
 cg2d: Sum(rhs),rhsMax =  -1.97960536851838E-11  1.68974473603402E-01
 cg2d: Sum(rhs),rhsMax =  -1.98949745566779E-11  1.68618839107014E-01
 cg2d: Sum(rhs),rhsMax =  -1.99330552064225E-11  1.68226457229373E-01
 cg2d: Sum(rhs),rhsMax =  -1.98937533113508E-11  1.67796990287774E-01
 cg2d: Sum(rhs),rhsMax =  -1.98163707665344E-11  1.67330132402837E-01
 cg2d: Sum(rhs),rhsMax =  -1.98216998370526E-11  1.66825620824195E-01
 cg2d: Sum(rhs),rhsMax =  -1.97671878865435E-11  1.66283244409970E-01
 cg2d: Sum(rhs),rhsMax =  -1.98301375320398E-11  1.65702849267867E-01
 cg2d: Sum(rhs),rhsMax =  -1.97177829619477E-11  1.65084341990805E-01
 cg2d: Sum(rhs),rhsMax =  -1.97685201541731E-11  1.64427691101160E-01
 cg2d: Sum(rhs),rhsMax =  -1.97619698383278E-11  1.63732927412823E-01
 cg2d: Sum(rhs),rhsMax =  -1.98091543168744E-11  1.63000144023926E-01
 cg2d: Sum(rhs),rhsMax =  -1.98002725326774E-11  1.62229496574151E-01
 cg2d: Sum(rhs),rhsMax =  -1.98506766579953E-11  1.61421204240547E-01
 cg2d: Sum(rhs),rhsMax =  -1.99352756524718E-11  1.60575551735145E-01
 cg2d: Sum(rhs),rhsMax =  -1.99877892015365E-11  1.59692892256902E-01
 cg2d: Sum(rhs),rhsMax =  -2.00635064118160E-11  1.58773651321258E-01
 cg2d: Sum(rhs),rhsMax =  -2.01381133990708E-11  1.57818330840509E-01
 cg2d: Sum(rhs),rhsMax =  -2.02180494568438E-11  1.56827512689408E-01
 cg2d: Sum(rhs),rhsMax =  -2.02811101246425E-11  1.55801860939830E-01
 cg2d: Sum(rhs),rhsMax =  -2.03552730226875E-11  1.54742121903682E-01
 cg2d: Sum(rhs),rhsMax =  -2.04742889309273E-11  1.53649121134923E-01
 cg2d: Sum(rhs),rhsMax =  -2.05440109368737E-11  1.52523756696974E-01
 cg2d: Sum(rhs),rhsMax =  -2.06528683044382E-11  1.51366988257565E-01
 cg2d: Sum(rhs),rhsMax =  -2.07593386924998E-11  1.50179821905308E-01
 cg2d: Sum(rhs),rhsMax =  -2.09214867652463E-11  1.48963290963929E-01
 cg2d: Sum(rhs),rhsMax =  -2.10377271159246E-11  1.47718433550179E-01
 cg2d: Sum(rhs),rhsMax =  -2.11949346962115E-11  1.46446267618878E-01
 cg2d: Sum(rhs),rhsMax =  -2.13088435785380E-11  1.45147765036827E-01
 cg2d: Sum(rhs),rhsMax =  -2.14325224234813E-11  1.43823826215132E-01
 cg2d: Sum(rhs),rhsMax =  -2.16138218434025E-11  1.42475256885530E-01
 cg2d: Sum(rhs),rhsMax =  -2.18023932241351E-11  1.41102748546082E-01
 cg2d: Sum(rhs),rhsMax =  -2.19840812221150E-11  1.39706863955987E-01
 cg2d: Sum(rhs),rhsMax =  -2.21988538662288E-11  1.38288028748085E-01
 cg2d: Sum(rhs),rhsMax =  -2.23859819570293E-11  1.36846529831534E-01
 cg2d: Sum(rhs),rhsMax =  -2.25758300942402E-11  1.35382520842345E-01
 cg2d: Sum(rhs),rhsMax =  -2.27707297462132E-11  1.33896034445049E-01
 cg2d: Sum(rhs),rhsMax =  -2.29849472788146E-11  1.32387000855322E-01
 cg2d: Sum(rhs),rhsMax =  -2.32326380356085E-11  1.30855271586657E-01
 cg2d: Sum(rhs),rhsMax =  -2.34797736808900E-11  1.29300647138543E-01
 cg2d: Sum(rhs),rhsMax =  -2.36968777933555E-11  1.27722907165233E-01
 cg2d: Sum(rhs),rhsMax =  -2.39553377134882E-11  1.26121841600213E-01
 cg2d: Sum(rhs),rhsMax =  -2.42439956998908E-11  1.24497281254162E-01
 cg2d: Sum(rhs),rhsMax =  -2.45304887513953E-11  1.22849126539202E-01
 cg2d: Sum(rhs),rhsMax =  -2.48279174996924E-11  1.21177373180995E-01
 cg2d: Sum(rhs),rhsMax =  -2.51363929670845E-11  1.19482134038405E-01
 cg2d: Sum(rhs),rhsMax =  -2.54558596424204E-11  1.17763656431012E-01
 cg2d: Sum(rhs),rhsMax =  -2.58087440307975E-11  1.16022334672332E-01
 cg2d: Sum(rhs),rhsMax =  -2.61541899249096E-11  1.14258717734334E-01
 cg2d: Sum(rhs),rhsMax =  -2.65833466350784E-11  1.12473512356663E-01
 cg2d: Sum(rhs),rhsMax =  -2.70085620535099E-11  1.10667582013270E-01
 cg2d: Sum(rhs),rhsMax =  -2.74229527974512E-11  1.08841942125301E-01
 cg2d: Sum(rhs),rhsMax =  -2.78448375468088E-11  1.06997752228749E-01
 cg2d: Sum(rhs),rhsMax =  -2.82876500001805E-11  1.05136305777487E-01
 cg2d: Sum(rhs),rhsMax =  -2.87426749068231E-11  1.03259018231717E-01
 cg2d: Sum(rhs),rhsMax =  -2.92271207236183E-11  1.01367414003369E-01
 cg2d: Sum(rhs),rhsMax =  -2.97254443282213E-11  9.94631127141785E-02
 cg2d: Sum(rhs),rhsMax =  -3.02387004325055E-11  9.75478150770666E-02
 cg2d: Sum(rhs),rhsMax =  -3.07815439803960E-11  9.56232885452252E-02
 cg2d: Sum(rhs),rhsMax =  -3.13457038103593E-11  9.36913526970761E-02
 cg2d: Sum(rhs),rhsMax =  -3.19267945414481E-11  9.17538641537479E-02
 cg2d: Sum(rhs),rhsMax =  -3.25266480416531E-11  8.98127006775079E-02
 cg2d: Sum(rhs),rhsMax =  -3.31722427304726E-11  8.78697439957642E-02
 cg2d: Sum(rhs),rhsMax =  -3.38448991055174E-11  8.59268608566669E-02
 cg2d: Sum(rhs),rhsMax =  -3.45341810703559E-11  8.39858818673138E-02
 cg2d: Sum(rhs),rhsMax =  -3.52779472301279E-11  8.20485778070192E-02
 cg2d: Sum(rhs),rhsMax =  -3.60933782861395E-11  8.01166333470751E-02
 cg2d: Sum(rhs),rhsMax =  -3.69904662456122E-11  7.81916184383373E-02
 cg2d: Sum(rhs),rhsMax =  -3.78869435824214E-11  7.62749580336704E-02
 cg2d: Sum(rhs),rhsMax =  -3.88176712995403E-11  7.43679012826330E-02
 cg2d: Sum(rhs),rhsMax =  -3.97692295761587E-11  7.24714916644111E-02
 cg2d: Sum(rhs),rhsMax =  -4.08018202557869E-11  7.05865400854406E-02
 cg2d: Sum(rhs),rhsMax =  -4.18708401284107E-11  6.87136031449249E-02
 cg2d: Sum(rhs),rhsMax =  -4.29877036745019E-11  6.68529688806853E-02
 cg2d: Sum(rhs),rhsMax =  -4.41434631903714E-11  6.50046522175397E-02
 cg2d: Sum(rhs),rhsMax =  -4.53767420773715E-11  6.31684020210391E-02
 cg2d: Sum(rhs),rhsMax =  -4.67051293473464E-11  6.13437211049757E-02
 cg2d: Sum(rhs),rhsMax =  -4.80907952349341E-11  5.95298997759185E-02
 cg2d: Sum(rhs),rhsMax =  -4.95550267487488E-11  5.77260625744203E-02
 cg2d: Sum(rhs),rhsMax =  -5.11125725077832E-11  5.59312268644754E-02
 cg2d: Sum(rhs),rhsMax =  -5.27158872110078E-11  5.41443709421178E-02
 cg2d: Sum(rhs),rhsMax =  -5.44494727083844E-11  5.23645083389454E-02
 cg2d: Sum(rhs),rhsMax =  -5.62833668560359E-11  5.05907643719820E-02
 cg2d: Sum(rhs),rhsMax =  -5.82824344341759E-11  4.88224505181131E-02
 cg2d: Sum(rhs),rhsMax =  -6.04304939422207E-11  4.70591320332133E-02
 cg2d: Sum(rhs),rhsMax =  -6.26994012264959E-11  4.53006844451517E-02
 cg2d: Sum(rhs),rhsMax =  -6.51969589426926E-11  4.35473351616514E-02
 cg2d: Sum(rhs),rhsMax =  -6.78141431897927E-11  4.17996872942989E-02
 cg2d: Sum(rhs),rhsMax =  -7.06736891231685E-11  4.00587239464538E-02
 cg2d: Sum(rhs),rhsMax =  -7.38097361008272E-11  3.83257925506829E-02
 cg2d: Sum(rhs),rhsMax =  -7.20429271794387E-11  3.92267812550039E-02
 cg2d: Sum(rhs),rhsMax =  -6.99820201788270E-11  4.03388739280811E-02
 cg2d: Sum(rhs),rhsMax =  -6.80414613540847E-11  4.14391685007623E-02
 cg2d: Sum(rhs),rhsMax =  -6.62471189016856E-11  4.25270490690871E-02
 cg2d: Sum(rhs),rhsMax =  -6.45025144407896E-11  4.36017748829860E-02
 cg2d: Sum(rhs),rhsMax =  -6.28920249212683E-11  4.46624791774591E-02
 cg2d: Sum(rhs),rhsMax =  -6.14134298970725E-11  4.57081843289865E-02
 cg2d: Sum(rhs),rhsMax =  -5.99995608752124E-11  4.67378515357846E-02
 cg2d: Sum(rhs),rhsMax =  -5.86849457917538E-11  4.77503900576429E-02
 cg2d: Sum(rhs),rhsMax =  -5.74152947407924E-11  4.87447797301068E-02
 cg2d: Sum(rhs),rhsMax =  -5.62431212713932E-11  4.97477895110223E-02
 cg2d: Sum(rhs),rhsMax =  -5.50967049761653E-11  5.07377729149889E-02
 cg2d: Sum(rhs),rhsMax =  -5.40919531388795E-11  5.17070586457283E-02
 cg2d: Sum(rhs),rhsMax =  -5.30517851871082E-11  5.26548647908911E-02
 cg2d: Sum(rhs),rhsMax =  -5.20953280513936E-11  5.35805375967220E-02
 cg2d: Sum(rhs),rhsMax =  -5.11735098740473E-11  5.44835610695643E-02
 cg2d: Sum(rhs),rhsMax =  -5.03903585524768E-11  5.53635629778510E-02
 cg2d: Sum(rhs),rhsMax =  -4.95486984775084E-11  5.62203392566738E-02
 cg2d: Sum(rhs),rhsMax =  -4.88044049617997E-11  5.70538315314670E-02
 cg2d: Sum(rhs),rhsMax =  -4.81321649203892E-11  5.78640853043889E-02
 cg2d: Sum(rhs),rhsMax =  -4.74058570176794E-11  5.86512315252571E-02
 cg2d: Sum(rhs),rhsMax =  -4.67343941323861E-11  5.94154668405336E-02
 cg2d: Sum(rhs),rhsMax =  -4.60993465623005E-11  6.01570187950091E-02
 cg2d: Sum(rhs),rhsMax =  -4.55636639529189E-11  6.08761339702539E-02
 cg2d: Sum(rhs),rhsMax =  -4.50176562694082E-11  6.15730169394967E-02
 cg2d: Sum(rhs),rhsMax =  -4.44529968390839E-11  6.22477917903344E-02
 cg2d: Sum(rhs),rhsMax =  -4.39400738017071E-11  6.29005014733389E-02
 cg2d: Sum(rhs),rhsMax =  -4.34087210621215E-11  6.35311277398389E-02
 cg2d: Sum(rhs),rhsMax =  -4.29805080415235E-11  6.41395775300861E-02
 cg2d: Sum(rhs),rhsMax =  -4.25491863964567E-11  6.47256709804046E-02
 cg2d: Sum(rhs),rhsMax =  -4.21452872600980E-11  6.52891544732274E-02
 cg2d: Sum(rhs),rhsMax =  -4.17436085697886E-11  6.58297064639276E-02
 cg2d: Sum(rhs),rhsMax =  -4.12477829669911E-11  6.63469367954166E-02
 cg2d: Sum(rhs),rhsMax =  -4.09093869890853E-11  6.68403704104654E-02
 cg2d: Sum(rhs),rhsMax =  -4.05960820515361E-11  6.73094703222501E-02
 cg2d: Sum(rhs),rhsMax =  -4.03044264629671E-11  6.77536486641973E-02
 cg2d: Sum(rhs),rhsMax =  -4.00518507248648E-11  6.81722729735492E-02
 cg2d: Sum(rhs),rhsMax =  -3.98295840753349E-11  6.85646792858994E-02
 cg2d: Sum(rhs),rhsMax =  -3.96079835596197E-11  6.89301863533548E-02
 cg2d: Sum(rhs),rhsMax =  -3.94287935634452E-11  6.92681072503232E-02
 cg2d: Sum(rhs),rhsMax =  -3.91798815613242E-11  6.95777773531513E-02
 cg2d: Sum(rhs),rhsMax =  -3.89943632939094E-11  6.98585939242706E-02
 cg2d: Sum(rhs),rhsMax =  -3.88052923128157E-11  7.01100478981174E-02
 cg2d: Sum(rhs),rhsMax =  -3.86638498994785E-11  7.03317188012499E-02
 cg2d: Sum(rhs),rhsMax =  -3.84945408882231E-11  7.05233028908128E-02
 cg2d: Sum(rhs),rhsMax =  -3.83399978431953E-11  7.06846328688461E-02
 cg2d: Sum(rhs),rhsMax =  -3.81771281254828E-11  7.08156747490943E-02
 cg2d: Sum(rhs),rhsMax =  -3.80184772552639E-11  7.09165390052116E-02
 cg2d: Sum(rhs),rhsMax =  -3.78901354736172E-11  7.09874539797584E-02
 cg2d: Sum(rhs),rhsMax =  -3.77972098064561E-11  7.10287434081541E-02
 cg2d: Sum(rhs),rhsMax =  -3.77544662200080E-11  7.10408188242933E-02
 cg2d: Sum(rhs),rhsMax =  -3.77092801429058E-11  7.10241417639729E-02
 cg2d: Sum(rhs),rhsMax =  -3.77187170386151E-11  7.09792119428734E-02
 cg2d: Sum(rhs),rhsMax =  -3.77411435437125E-11  7.09065454625761E-02
 cg2d: Sum(rhs),rhsMax =  -3.78226339137200E-11  7.08066354770011E-02
 cg2d: Sum(rhs),rhsMax =  -3.78956865887403E-11  7.06799649335823E-02
 cg2d: Sum(rhs),rhsMax =  -3.79499764946445E-11  7.05269686689246E-02
 cg2d: Sum(rhs),rhsMax =  -3.80612208417119E-11  7.03480197280443E-02
 cg2d: Sum(rhs),rhsMax =  -3.82398557263741E-11  7.01434310875203E-02
 cg2d: Sum(rhs),rhsMax =  -3.84186016333388E-11  6.99134716382977E-02
 cg2d: Sum(rhs),rhsMax =  -3.85541598646455E-11  6.96583670146171E-02
 cg2d: Sum(rhs),rhsMax =  -3.87767595810828E-11  6.93782758411436E-02
 cg2d: Sum(rhs),rhsMax =  -3.89747123463735E-11  6.90732779610866E-02
 cg2d: Sum(rhs),rhsMax =  -3.93045596069896E-11  6.87434225853104E-02
 cg2d: Sum(rhs),rhsMax =  -3.95726784674366E-11  6.83887220108918E-02
 cg2d: Sum(rhs),rhsMax =  -3.98251431832364E-11  6.80091745345672E-02
 cg2d: Sum(rhs),rhsMax =  -4.01244593106753E-11  6.76047820415354E-02
 cg2d: Sum(rhs),rhsMax =  -4.03708177998396E-11  6.71755479837454E-02
 cg2d: Sum(rhs),rhsMax =  -4.06930045215859E-11  6.67214846996666E-02
 cg2d: Sum(rhs),rhsMax =  -4.10285139196276E-11  6.62426703885313E-02
 cg2d: Sum(rhs),rhsMax =  -4.14307477214493E-11  6.57392650925840E-02
 cg2d: Sum(rhs),rhsMax =  -4.17692547216575E-11  6.52114663157908E-02
 cg2d: Sum(rhs),rhsMax =  -4.22284429646425E-11  6.46595271820310E-02
 cg2d: Sum(rhs),rhsMax =  -4.26997326385958E-11  6.40837874875874E-02
 cg2d: Sum(rhs),rhsMax =  -4.31279456591938E-11  6.34846896804365E-02
 cg2d: Sum(rhs),rhsMax =  -4.36291003325096E-11  6.28627772741444E-02
 cg2d: Sum(rhs),rhsMax =  -4.40889547093093E-11  6.22186728757836E-02
 cg2d: Sum(rhs),rhsMax =  -4.46406245302455E-11  6.15530292955416E-02
 cg2d: Sum(rhs),rhsMax =  -4.52143877893718E-11  6.08665114793715E-02
 cg2d: Sum(rhs),rhsMax =  -4.57528459563150E-11  6.01597723284444E-02
 cg2d: Sum(rhs),rhsMax =  -4.63524774119151E-11  5.94334178395696E-02
 cg2d: Sum(rhs),rhsMax =  -4.69889682719327E-11  5.86879686531315E-02
 cg2d: Sum(rhs),rhsMax =  -4.77182737768089E-11  5.79238386671752E-02
 cg2d: Sum(rhs),rhsMax =  -4.83949547103180E-11  5.71413012125932E-02
 cg2d: Sum(rhs),rhsMax =  -4.91522378354148E-11  5.63405124475946E-02
 cg2d: Sum(rhs),rhsMax =  -4.99116303842584E-11  5.55215079395136E-02
 cg2d: Sum(rhs),rhsMax =  -5.07701658492010E-11  5.46842076647775E-02
 cg2d: Sum(rhs),rhsMax =  -5.16571230235741E-11  5.38427268834002E-02
 cg2d: Sum(rhs),rhsMax =  -5.25731680411923E-11  5.29950599038800E-02
 cg2d: Sum(rhs),rhsMax =  -5.35445021654368E-11  5.21278187339904E-02
 cg2d: Sum(rhs),rhsMax =  -5.45479217350930E-11  5.12408631914871E-02
 cg2d: Sum(rhs),rhsMax =  -5.55434587212744E-11  5.03341397879860E-02
 cg2d: Sum(rhs),rhsMax =  -5.65996138846003E-11  4.94076992720420E-02
 cg2d: Sum(rhs),rhsMax =  -5.77898839893010E-11  4.84617150524280E-02
 cg2d: Sum(rhs),rhsMax =  -5.89758242242056E-11  4.74964921148589E-02
 cg2d: Sum(rhs),rhsMax =  -6.02682348471717E-11  4.65124701193160E-02
 cg2d: Sum(rhs),rhsMax =  -6.17106366007647E-11  4.55101914854082E-02
 cg2d: Sum(rhs),rhsMax =  -6.31279473140012E-11  4.44902958688420E-02
 cg2d: Sum(rhs),rhsMax =  -6.46622755340331E-11  4.34535180780196E-02
 cg2d: Sum(rhs),rhsMax =  -6.63082921903424E-11  4.24006772378277E-02
 cg2d: Sum(rhs),rhsMax =  -6.80796530261318E-11  4.13326396823571E-02
 cg2d: Sum(rhs),rhsMax =  -6.99627022981986E-11  4.02503119811359E-02
 cg2d: Sum(rhs),rhsMax =  -7.20445925139757E-11  3.91546337763524E-02
 cg2d: Sum(rhs),rhsMax =  -7.41929850889278E-11  3.80465649339158E-02
 cg2d: Sum(rhs),rhsMax =  -7.64774910066990E-11  3.69270615302553E-02
 cg2d: Sum(rhs),rhsMax =  -7.84555753696736E-11  3.59992351574234E-02
 cg2d: Sum(rhs),rhsMax =  -7.51878559412944E-11  3.76006923831995E-02
 cg2d: Sum(rhs),rhsMax =  -7.21400716940934E-11  3.92144516805596E-02
 cg2d: Sum(rhs),rhsMax =  -6.92971235949358E-11  4.08399995215283E-02
 cg2d: Sum(rhs),rhsMax =  -6.66656174708180E-11  4.24769057066237E-02
 cg2d: Sum(rhs),rhsMax =  -6.42050301813413E-11  4.41248432915834E-02
 cg2d: Sum(rhs),rhsMax =  -6.19148066149933E-11  4.57836048332788E-02
 cg2d: Sum(rhs),rhsMax =  -5.97646931943530E-11  4.74531131890198E-02
 cg2d: Sum(rhs),rhsMax =  -5.77851377858707E-11  4.91334253568535E-02
 cg2d: Sum(rhs),rhsMax =  -5.59188528814758E-11  5.08247282716213E-02
 cg2d: Sum(rhs),rhsMax =  -5.41206524040660E-11  5.25273260331899E-02
 cg2d: Sum(rhs),rhsMax =  -5.24645465960205E-11  5.42416186673694E-02
 cg2d: Sum(rhs),rhsMax =  -5.08996039760845E-11  5.59680731484953E-02
 cg2d: Sum(rhs),rhsMax =  -4.94223759139878E-11  5.77071879890664E-02
 cg2d: Sum(rhs),rhsMax =  -4.80257153490093E-11  5.94594531780054E-02
 cg2d: Sum(rhs),rhsMax =  -4.66620934599926E-11  6.12253075878675E-02
 cg2d: Sum(rhs),rhsMax =  -4.53859554105929E-11  6.30050961487765E-02
 cg2d: Sum(rhs),rhsMax =  -4.42291481217438E-11  6.47990290936702E-02
 cg2d: Sum(rhs),rhsMax =  -4.30592089761817E-11  6.66071454211156E-02
 cg2d: Sum(rhs),rhsMax =  -4.19347612190535E-11  6.84292824180794E-02
 cg2d: Sum(rhs),rhsMax =  -4.08762884651637E-11  7.02650526659120E-02
 cg2d: Sum(rhs),rhsMax =  -3.98610311425074E-11  7.21138294611506E-02
 cg2d: Sum(rhs),rhsMax =  -3.89160370595221E-11  7.39747410531300E-02
 cg2d: Sum(rhs),rhsMax =  -3.79936637706635E-11  7.58466735817350E-02
 cg2d: Sum(rhs),rhsMax =  -3.71041808389094E-11  7.77282821283440E-02
 cg2d: Sum(rhs),rhsMax =  -3.62964103217678E-11  7.96180089003917E-02
 cg2d: Sum(rhs),rhsMax =  -3.54883900044456E-11  8.15141072606266E-02
 cg2d: Sum(rhs),rhsMax =  -3.47694928404252E-11  8.34146701895630E-02
 cg2d: Sum(rhs),rhsMax =  -3.40681927113451E-11  8.53176616267310E-02
 cg2d: Sum(rhs),rhsMax =  -3.34146599278995E-11  8.72209491787815E-02
 cg2d: Sum(rhs),rhsMax =  -3.27963767254857E-11  8.91223368376253E-02
 cg2d: Sum(rhs),rhsMax =  -3.22045168310581E-11  9.10195965423308E-02
 cg2d: Sum(rhs),rhsMax =  -3.16195403193831E-11  9.29104976517909E-02
 cg2d: Sum(rhs),rhsMax =  -3.10593772923085E-11  9.47928336541328E-02
 cg2d: Sum(rhs),rhsMax =  -3.05042102688446E-11  9.66644457066449E-02
 cg2d: Sum(rhs),rhsMax =  -2.99724689512004E-11  9.85232428600904E-02
 cg2d: Sum(rhs),rhsMax =  -2.94813062851063E-11  1.00367219059015E-01
 cg2d: Sum(rhs),rhsMax =  -2.89967494460086E-11  1.02194467212853E-01
 cg2d: Sum(rhs),rhsMax =  -2.85405588051901E-11  1.04003190791744E-01
 cg2d: Sum(rhs),rhsMax =  -2.81126788514996E-11  1.05791713508043E-01
 cg2d: Sum(rhs),rhsMax =  -2.76819678290963E-11  1.07558487673021E-01
 cg2d: Sum(rhs),rhsMax =  -2.72699640646579E-11  1.09302101907457E-01
 cg2d: Sum(rhs),rhsMax =  -2.68916000578656E-11  1.11021288679876E-01
 cg2d: Sum(rhs),rhsMax =  -2.65242272590172E-11  1.12714932084343E-01
 cg2d: Sum(rhs),rhsMax =  -2.61854982142040E-11  1.14382076083957E-01
 cg2d: Sum(rhs),rhsMax =  -2.58329468927343E-11  1.16021933188791E-01
 cg2d: Sum(rhs),rhsMax =  -2.55241938695860E-11  1.17633893330958E-01
 cg2d: Sum(rhs),rhsMax =  -2.52144971568669E-11  1.19217532391380E-01
 cg2d: Sum(rhs),rhsMax =  -2.49491538539814E-11  1.20772619581377E-01
 cg2d: Sum(rhs),rhsMax =  -2.46905829115462E-11  1.22299122686882E-01
 cg2d: Sum(rhs),rhsMax =  -2.44392839299223E-11  1.23797210073543E-01
 cg2d: Sum(rhs),rhsMax =  -2.41985875781836E-11  1.25267248349509E-01
 cg2d: Sum(rhs),rhsMax =  -2.39529507339853E-11  1.26709794702002E-01
 cg2d: Sum(rhs),rhsMax =  -2.37274644376839E-11  1.28125583161015E-01
 cg2d: Sum(rhs),rhsMax =  -2.35149122396194E-11  1.29515504398889E-01
 cg2d: Sum(rhs),rhsMax =  -2.33089103574002E-11  1.30880579088333E-01
 cg2d: Sum(rhs),rhsMax =  -2.30989671834436E-11  1.32221925305966E-01
 cg2d: Sum(rhs),rhsMax =  -2.29263830142656E-11  1.33540720930313E-01
 cg2d: Sum(rhs),rhsMax =  -2.27270979813454E-11  1.34838162392003E-01
 cg2d: Sum(rhs),rhsMax =  -2.25576779477876E-11  1.36115421444232E-01
 cg2d: Sum(rhs),rhsMax =  -2.24148477556696E-11  1.37373601796806E-01
 cg2d: Sum(rhs),rhsMax =  -2.22434293206675E-11  1.38613697504529E-01
 cg2d: Sum(rhs),rhsMax =  -2.20569673636817E-11  1.39836554841601E-01
 cg2d: Sum(rhs),rhsMax =  -2.19582130256413E-11  1.41042839141214E-01
 cg2d: Sum(rhs),rhsMax =  -2.18501328141940E-11  1.42233007713757E-01
 cg2d: Sum(rhs),rhsMax =  -2.17365569987749E-11  1.43407289529748E-01
 cg2d: Sum(rhs),rhsMax =  -2.16468509783851E-11  1.44565671920793E-01
 cg2d: Sum(rhs),rhsMax =  -2.15409357018359E-11  1.45707894165861E-01
 cg2d: Sum(rhs),rhsMax =  -2.14210316151764E-11  1.46833447533105E-01
 cg2d: Sum(rhs),rhsMax =  -2.13055684206154E-11  1.47941581165076E-01
 cg2d: Sum(rhs),rhsMax =  -2.11689554774352E-11  1.49031313132959E-01
 cg2d: Sum(rhs),rhsMax =  -2.10808592804312E-11  1.50101446028797E-01
 cg2d: Sum(rhs),rhsMax =  -2.09883777024800E-11  1.51150586582897E-01
 cg2d: Sum(rhs),rhsMax =  -2.09048334198769E-11  1.52177168935254E-01
 cg2d: Sum(rhs),rhsMax =  -2.07966421861272E-11  1.53179481328500E-01
 cg2d: Sum(rhs),rhsMax =  -2.07015515840681E-11  1.54155696074348E-01
 cg2d: Sum(rhs),rhsMax =  -2.06021866233641E-11  1.55103902607675E-01
 cg2d: Sum(rhs),rhsMax =  -2.05507832973240E-11  1.56022143354326E-01
 cg2d: Sum(rhs),rhsMax =  -2.04769534661864E-11  1.56908451949297E-01
 cg2d: Sum(rhs),rhsMax =  -2.03792538400194E-11  1.57760893036829E-01
 cg2d: Sum(rhs),rhsMax =  -2.02945438232405E-11  1.58577602564688E-01
 cg2d: Sum(rhs),rhsMax =  -2.02114991409985E-11  1.59356827180292E-01
 cg2d: Sum(rhs),rhsMax =  -2.01249017450778E-11  1.60096961089722E-01
 cg2d: Sum(rhs),rhsMax =  -2.00831573593518E-11  1.60796578603807E-01
 cg2d: Sum(rhs),rhsMax =  -2.00043315246035E-11  1.61454460609656E-01
 cg2d: Sum(rhs),rhsMax =  -1.99598115813160E-11  1.62069613396439E-01
 cg2d: Sum(rhs),rhsMax =  -1.99037453185724E-11  1.62641278633624E-01
 cg2d: Sum(rhs),rhsMax =  -1.99299465819536E-11  1.63168933826458E-01
 cg2d: Sum(rhs),rhsMax =  -1.99138483480965E-11  1.63652283212368E-01
 cg2d: Sum(rhs),rhsMax =  -1.99055216754118E-11  1.64091239728059E-01
 cg2d: Sum(rhs),rhsMax =  -1.99767979935928E-11  1.64485899397186E-01
 cg2d: Sum(rhs),rhsMax =  -2.00105487735414E-11  1.64836510108467E-01
 cg2d: Sum(rhs),rhsMax =  -2.00572891628781E-11  1.65143437024733E-01
 cg2d: Sum(rhs),rhsMax =  -2.01163530277881E-11  1.65407127208021E-01
 cg2d: Sum(rhs),rhsMax =  -2.01691996437603E-11  1.65628076070231E-01
 cg2d: Sum(rhs),rhsMax =  -2.02383665381944E-11  1.65806798101744E-01
 cg2d: Sum(rhs),rhsMax =  -2.02817762584573E-11  1.65943803781821E-01
 cg2d: Sum(rhs),rhsMax =  -2.03282946031891E-11  1.66039584053328E-01
 cg2d: Sum(rhs),rhsMax =  -2.03388417219230E-11  1.66094603162309E-01
 cg2d: Sum(rhs),rhsMax =  -2.03598249370884E-11  1.66109299786626E-01
 cg2d: Sum(rhs),rhsMax =  -2.03906891371730E-11  1.66084095609348E-01
 cg2d: Sum(rhs),rhsMax =  -2.03905781148706E-11  1.66019409777485E-01
 cg2d: Sum(rhs),rhsMax =  -2.05879757686489E-11  1.65915677235471E-01
 cg2d: Sum(rhs),rhsMax =  -2.06095140953266E-11  1.65773368526431E-01
 cg2d: Sum(rhs),rhsMax =  -2.06515915479599E-11  1.65593008496086E-01
 cg2d: Sum(rhs),rhsMax =  -2.07507344640590E-11  1.65375191432548E-01
 cg2d: Sum(rhs),rhsMax =  -2.07523997985959E-11  1.65120590520069E-01
 cg2d: Sum(rhs),rhsMax =  -2.07867056900568E-11  1.64829959957957E-01
 cg2d: Sum(rhs),rhsMax =  -2.08435491089176E-11  1.64504128744522E-01
 cg2d: Sum(rhs),rhsMax =  -2.08221218045423E-11  1.64143985858712E-01
 cg2d: Sum(rhs),rhsMax =  -2.07956984965563E-11  1.63750457326541E-01
 cg2d: Sum(rhs),rhsMax =  -2.07523997985959E-11  1.63324476370216E-01
 cg2d: Sum(rhs),rhsMax =  -2.07937000951119E-11  1.62866948405892E-01
 cg2d: Sum(rhs),rhsMax =  -2.08396633283314E-11  1.62378713244505E-01
 cg2d: Sum(rhs),rhsMax =  -2.08922878996987E-11  1.61860507050749E-01
 cg2d: Sum(rhs),rhsMax =  -2.09152695163084E-11  1.61312926608157E-01
 cg2d: Sum(rhs),rhsMax =  -2.08854045169460E-11  1.60736398442003E-01
 cg2d: Sum(rhs),rhsMax =  -2.08916217658839E-11  1.60131155071606E-01
 cg2d: Sum(rhs),rhsMax =  -2.08660866363175E-11  1.59497220239419E-01
 cg2d: Sum(rhs),rhsMax =  -2.09026684849789E-11  1.58834404418412E-01
 cg2d: Sum(rhs),rhsMax =  -2.09352535307517E-11  1.58142311290746E-01
 cg2d: Sum(rhs),rhsMax =  -2.09838812992302E-11  1.57420355255037E-01
 cg2d: Sum(rhs),rhsMax =  -2.10296779989960E-11  1.56667789397720E-01
 cg2d: Sum(rhs),rhsMax =  -2.10660933142037E-11  1.55883742792145E-01
 cg2d: Sum(rhs),rhsMax =  -2.11150541495897E-11  1.55067265466681E-01
 cg2d: Sum(rhs),rhsMax =  -2.11763939717002E-11  1.54217378987399E-01
 cg2d: Sum(rhs),rhsMax =  -2.12140305322350E-11  1.53333130296599E-01
 cg2d: Sum(rhs),rhsMax =  -2.12741491090185E-11  1.52413646174989E-01
 cg2d: Sum(rhs),rhsMax =  -2.13330464404748E-11  1.51458185646428E-01
 cg2d: Sum(rhs),rhsMax =  -2.13769002499475E-11  1.50466187694594E-01
 cg2d: Sum(rhs),rhsMax =  -2.14468998116502E-11  1.49437311841890E-01
 cg2d: Sum(rhs),rhsMax =  -2.15114592805321E-11  1.48371469446385E-01
 cg2d: Sum(rhs),rhsMax =  -2.15921724944224E-11  1.47268843997330E-01
 cg2d: Sum(rhs),rhsMax =  -2.16761608662353E-11  1.46129899208606E-01
 cg2d: Sum(rhs),rhsMax =  -2.17661444423811E-11  1.44955374336423E-01
 cg2d: Sum(rhs),rhsMax =  -2.18676743379831E-11  1.43746266826109E-01
 cg2d: Sum(rhs),rhsMax =  -2.19555484903822E-11  1.42503803189848E-01
 cg2d: Sum(rhs),rhsMax =  -2.20690687946501E-11  1.41229399323808E-01
 cg2d: Sum(rhs),rhsMax =  -2.21810902978348E-11  1.39924612652335E-01
 cg2d: Sum(rhs),rhsMax =  -2.22885043754673E-11  1.38591088810861E-01
 cg2d: Sum(rhs),rhsMax =  -2.24159579786942E-11  1.37230505900153E-01
 cg2d: Sum(rhs),rhsMax =  -2.25445773160970E-11  1.35844519589426E-01
 cg2d: Sum(rhs),rhsMax =  -2.27302066058144E-11  1.34434712357208E-01
 cg2d: Sum(rhs),rhsMax =  -2.28573271421340E-11  1.33002549936238E-01
 cg2d: Sum(rhs),rhsMax =  -2.29631313963807E-11  1.31549347585700E-01
 cg2d: Sum(rhs),rhsMax =  -2.31691887897512E-11  1.30076248177282E-01
 cg2d: Sum(rhs),rhsMax =  -2.33896790824417E-11  1.28584213292284E-01
 cg2d: Sum(rhs),rhsMax =  -2.35093611244963E-11  1.27074027640799E-01
 cg2d: Sum(rhs),rhsMax =  -2.36310970791465E-11  1.25546316195065E-01
 cg2d: Sum(rhs),rhsMax =  -2.38841724176098E-11  1.24001572544864E-01
 cg2d: Sum(rhs),rhsMax =  -2.41475173190508E-11  1.22440196197041E-01
 cg2d: Sum(rhs),rhsMax =  -2.44472775356996E-11  1.20862535912998E-01
 cg2d: Sum(rhs),rhsMax =  -2.47271647602076E-11  1.19268935754250E-01
 cg2d: Sum(rhs),rhsMax =  -2.50225395959092E-11  1.17659780318314E-01
 cg2d: Sum(rhs),rhsMax =  -2.53209120337772E-11  1.16035535712715E-01
 cg2d: Sum(rhs),rhsMax =  -2.56431542666746E-11  1.14396783131371E-01
 cg2d: Sum(rhs),rhsMax =  -2.59726129492321E-11  1.12744242443180E-01
 cg2d: Sum(rhs),rhsMax =  -2.63265520494826E-11  1.11078783958577E-01
 cg2d: Sum(rhs),rhsMax =  -2.66737743004342E-11  1.09401427380773E-01
 cg2d: Sum(rhs),rhsMax =  -2.70474198593718E-11  1.07713328148008E-01
 cg2d: Sum(rhs),rhsMax =  -2.74156808366399E-11  1.06015752025591E-01
 cg2d: Sum(rhs),rhsMax =  -2.77972644902036E-11  1.04310039919030E-01
 cg2d: Sum(rhs),rhsMax =  -2.82043832733336E-11  1.02597565659931E-01
 cg2d: Sum(rhs),rhsMax =  -2.86241030877932E-11  1.00879690102957E-01
 cg2d: Sum(rhs),rhsMax =  -2.90510948630640E-11  9.91577151966681E-02
 cg2d: Sum(rhs),rhsMax =  -2.94988478088953E-11  9.74328417212044E-02
 cg2d: Sum(rhs),rhsMax =  -2.99615332544079E-11  9.57061341075080E-02
 cg2d: Sum(rhs),rhsMax =  -3.04724023791891E-11  9.39784951761140E-02
 cg2d: Sum(rhs),rhsMax =  -3.09674508258695E-11  9.22506528017753E-02
 cg2d: Sum(rhs),rhsMax =  -3.15149850660390E-11  9.05231594916393E-02
 cg2d: Sum(rhs),rhsMax =  -3.20918291940586E-11  8.87964047509800E-02
 cg2d: Sum(rhs),rhsMax =  -3.26918769832929E-11  8.70706390076425E-02
 cg2d: Sum(rhs),rhsMax =  -3.33157668119810E-11  8.53460068776624E-02
 cg2d: Sum(rhs),rhsMax =  -3.39464845122706E-11  8.36225867890420E-02
 cg2d: Sum(rhs),rhsMax =  -3.46012940521945E-11  8.19004334989187E-02
 cg2d: Sum(rhs),rhsMax =  -3.52826379224069E-11  8.01796198970249E-02
 cg2d: Sum(rhs),rhsMax =  -3.60004942523418E-11  7.84602746933248E-02
 cg2d: Sum(rhs),rhsMax =  -3.67563618430822E-11  7.67426131127639E-02
 cg2d: Sum(rhs),rhsMax =  -3.75292436016750E-11  7.50269585046011E-02
 cg2d: Sum(rhs),rhsMax =  -3.83589410235530E-11  7.33137537482415E-02
 cg2d: Sum(rhs),rhsMax =  -3.91927462706221E-11  7.16035622674164E-02
 cg2d: Sum(rhs),rhsMax =  -4.00973490521928E-11  6.98970595630969E-02
 cg2d: Sum(rhs),rhsMax =  -4.10237087355991E-11  6.81950169363353E-02
 cg2d: Sum(rhs),rhsMax =  -4.19991871142278E-11  6.64982796521608E-02
 cg2d: Sum(rhs),rhsMax =  -4.30113653027142E-11  6.48077421120683E-02
 cg2d: Sum(rhs),rhsMax =  -4.41274031204308E-11  6.31243226272622E-02
 cg2d: Sum(rhs),rhsMax =  -4.53108384146361E-11  6.14489401341143E-02
 cg2d: Sum(rhs),rhsMax =  -4.65176092090402E-11  5.97824947183585E-02
 cg2d: Sum(rhs),rhsMax =  -4.77925199415807E-11  5.81258531944760E-02
 cg2d: Sum(rhs),rhsMax =  -4.91257035051262E-11  5.64798403116488E-02
 cg2d: Sum(rhs),rhsMax =  -5.05462616207097E-11  5.48452354293382E-02
 cg2d: Sum(rhs),rhsMax =  -5.20178067286992E-11  5.32227740514389E-02
 cg2d: Sum(rhs),rhsMax =  -5.36303224052403E-11  5.16131531347919E-02
 cg2d: Sum(rhs),rhsMax =  -5.52908274720210E-11  5.00170388429864E-02
 cg2d: Sum(rhs),rhsMax =  -5.70608560401809E-11  4.84350753497690E-02
 cg2d: Sum(rhs),rhsMax =  -5.89196469391595E-11  4.68678933932192E-02
 cg2d: Sum(rhs),rhsMax =  -6.09407524443384E-11  4.53161174982754E-02
 cg2d: Sum(rhs),rhsMax =  -6.30581697969035E-11  4.37803711536147E-02
 cg2d: Sum(rhs),rhsMax =  -6.52689013946883E-11  4.22612795186829E-02
 cg2d: Sum(rhs),rhsMax =  -6.74116318322149E-11  4.08756553338727E-02
 cg2d: Sum(rhs),rhsMax =  -6.57555121463815E-11  4.18792937205093E-02
 cg2d: Sum(rhs),rhsMax =  -6.42093045399861E-11  4.28688728719838E-02
 cg2d: Sum(rhs),rhsMax =  -6.27311536050001E-11  4.38436600459930E-02
 cg2d: Sum(rhs),rhsMax =  -6.13634698609644E-11  4.48029683975898E-02
(PID.TID 0000.0001)      cg2d_init_res =   1.71752318822866E-01
(PID.TID 0000.0001)      cg2d_iters(min,last) =      -1      38
(PID.TID 0000.0001)      cg2d_last_res =   4.41160622510037E-14
(PID.TID 0000.0001) // =======================================================
(PID.TID 0000.0001) // Begin MONITOR dynamic field statistics
(PID.TID 0000.0001) // =======================================================
(PID.TID 0000.0001) %MON time_tsnumber                =                  6240
(PID.TID 0000.0001) %MON time_secondsf                =   9.3600000000000E+04
(PID.TID 0000.0001) %MON dynstat_eta_max              =   1.0465223968895E-02
(PID.TID 0000.0001) %MON dynstat_eta_min              =  -1.4040746816959E-02
(PID.TID 0000.0001) %MON dynstat_eta_mean             =   5.8339087456171E-15
(PID.TID 0000.0001) %MON dynstat_eta_sd               =   8.2370386398161E-03
(PID.TID 0000.0001) %MON dynstat_eta_del2             =   1.7052973419647E-05
(PID.TID 0000.0001) %MON dynstat_uvel_max             =   1.3084183011449E+00
(PID.TID 0000.0001) %MON dynstat_uvel_min             =  -4.6470320929546E-01
(PID.TID 0000.0001) %MON dynstat_uvel_mean            =   2.8793843545985E-01
(PID.TID 0000.0001) %MON dynstat_uvel_sd              =   1.5147242626144E-01
(PID.TID 0000.0001) %MON dynstat_uvel_del2            =   6.9661531113785E-04
(PID.TID 0000.0001) %MON dynstat_vvel_max             =   0.0000000000000E+00
(PID.TID 0000.0001) %MON dynstat_vvel_min             =   0.0000000000000E+00
(PID.TID 0000.0001) %MON dynstat_vvel_mean            =   0.0000000000000E+00
(PID.TID 0000.0001) %MON dynstat_vvel_sd              =   0.0000000000000E+00
(PID.TID 0000.0001) %MON dynstat_vvel_del2            =   0.0000000000000E+00
(PID.TID 0000.0001) %MON dynstat_wvel_max             =   3.1568585656669E-02
(PID.TID 0000.0001) %MON dynstat_wvel_min             =  -3.0675109421446E-02
(PID.TID 0000.0001) %MON dynstat_wvel_mean            =   1.4847198858418E-20
(PID.TID 0000.0001) %MON dynstat_wvel_sd              =   2.2221801028780E-03
(PID.TID 0000.0001) %MON dynstat_wvel_del2            =   6.3817721057531E-05
(PID.TID 0000.0001) %MON dynstat_theta_max            =   1.5000000000008E+01
(PID.TID 0000.0001) %MON dynstat_theta_min            =   9.9999999999922E+00
(PID.TID 0000.0001) %MON dynstat_theta_mean           =   1.2435344150040E+01
(PID.TID 0000.0001) %MON dynstat_theta_sd             =   2.3775048905535E+00
(PID.TID 0000.0001) %MON dynstat_theta_del2           =   1.4069263370527E-03
(PID.TID 0000.0001) %MON dynstat_salt_max             =   3.5000000000000E+01
(PID.TID 0000.0001) %MON dynstat_salt_min             =   3.5000000000000E+01
(PID.TID 0000.0001) %MON dynstat_salt_mean            =   3.5000000000000E+01
(PID.TID 0000.0001) %MON dynstat_salt_sd              =   3.1974423109205E-13
(PID.TID 0000.0001) %MON dynstat_salt_del2            =   0.0000000000000E+00
(PID.TID 0000.0001) %MON dynstat_sst_max              =   1.5000000000000E+01
(PID.TID 0000.0001) %MON dynstat_sst_min              =   1.4998069268373E+01
(PID.TID 0000.0001) %MON dynstat_sst_mean             =   1.4999914825266E+01
(PID.TID 0000.0001) %MON dynstat_sst_sd               =   3.1630667771103E-04
(PID.TID 0000.0001) %MON dynstat_sst_del2             =   6.5106107387110E-06
(PID.TID 0000.0001) %MON dynstat_sss_max              =   3.5000000000000E+01
(PID.TID 0000.0001) %MON dynstat_sss_min              =   3.5000000000000E+01
(PID.TID 0000.0001) %MON dynstat_sss_mean             =   3.5000000000000E+01
(PID.TID 0000.0001) %MON dynstat_sss_sd               =   5.6843418860808E-14
(PID.TID 0000.0001) %MON dynstat_sss_del2             =   0.0000000000000E+00
(PID.TID 0000.0001) %MON forcing_qnet_max             =   0.0000000000000E+00
(PID.TID 0000.0001) %MON forcing_qnet_min             =   0.0000000000000E+00
(PID.TID 0000.0001) %MON forcing_qnet_mean            =   0.0000000000000E+00
(PID.TID 0000.0001) %MON forcing_qnet_sd              =   0.0000000000000E+00
(PID.TID 0000.0001) %MON forcing_qnet_del2            =   0.0000000000000E+00
(PID.TID 0000.0001) %MON forcing_qsw_max              =   0.0000000000000E+00
(PID.TID 0000.0001) %MON forcing_qsw_min              =   0.0000000000000E+00
(PID.TID 0000.0001) %MON forcing_qsw_mean             =   0.0000000000000E+00
(PID.TID 0000.0001) %MON forcing_qsw_sd               =   0.0000000000000E+00
(PID.TID 0000.0001) %MON forcing_qsw_del2             =   0.0000000000000E+00
(PID.TID 0000.0001) %MON forcing_empmr_max            =   0.0000000000000E+00
(PID.TID 0000.0001) %MON forcing_empmr_min            =   0.0000000000000E+00
(PID.TID 0000.0001) %MON forcing_empmr_mean           =   0.0000000000000E+00
(PID.TID 0000.0001) %MON forcing_empmr_sd             =   0.0000000000000E+00
(PID.TID 0000.0001) %MON forcing_empmr_del2           =   0.0000000000000E+00
(PID.TID 0000.0001) %MON forcing_fu_max               =   0.0000000000000E+00
(PID.TID 0000.0001) %MON forcing_fu_min               =   0.0000000000000E+00
(PID.TID 0000.0001) %MON forcing_fu_mean              =   0.0000000000000E+00
(PID.TID 0000.0001) %MON forcing_fu_sd                =   0.0000000000000E+00
(PID.TID 0000.0001) %MON forcing_fu_del2              =   0.0000000000000E+00
(PID.TID 0000.0001) %MON forcing_fv_max               =   0.0000000000000E+00
(PID.TID 0000.0001) %MON forcing_fv_min               =   0.0000000000000E+00
(PID.TID 0000.0001) %MON forcing_fv_mean              =   0.0000000000000E+00
(PID.TID 0000.0001) %MON forcing_fv_sd                =   0.0000000000000E+00
(PID.TID 0000.0001) %MON forcing_fv_del2              =   0.0000000000000E+00
(PID.TID 0000.0001) %MON advcfl_uvel_max              =   9.8131372585865E-02
(PID.TID 0000.0001) %MON advcfl_vvel_max              =   0.0000000000000E+00
(PID.TID 0000.0001) %MON advcfl_wvel_max              =   2.8390395930458E-01
(PID.TID 0000.0001) %MON advcfl_W_hf_max              =   2.8770615279650E-01
(PID.TID 0000.0001) %MON pe_b_mean                    =   1.6996074363607E-06
(PID.TID 0000.0001) %MON ke_max                       =   6.7596427270677E-01
(PID.TID 0000.0001) %MON ke_mean                      =   5.3050290081257E-02
(PID.TID 0000.0001) %MON ke_vol                       =   9.5633499295324E+10
(PID.TID 0000.0001) %MON vort_r_min                   =   0.0000000000000E+00
(PID.TID 0000.0001) %MON vort_r_max                   =   0.0000000000000E+00
(PID.TID 0000.0001) %MON vort_a_mean                  =   0.0000000000000E+00
(PID.TID 0000.0001) %MON vort_a_sd                    =   0.0000000000000E+00
(PID.TID 0000.0001) %MON vort_p_mean                  =   0.0000000000000E+00
(PID.TID 0000.0001) %MON vort_p_sd                    =   0.0000000000000E+00
(PID.TID 0000.0001) %MON surfExpan_theta_mean         =  -1.1079632216094E-09
(PID.TID 0000.0001) %MON surfExpan_salt_mean          =   8.3239649912052E-19
(PID.TID 0000.0001) // =======================================================
(PID.TID 0000.0001) // End MONITOR dynamic field statistics
(PID.TID 0000.0001) // =======================================================
(PID.TID 0000.0001) // =======================================================
(PID.TID 0000.0001) // Begin OBCS MONITOR field statistics
(PID.TID 0000.0001) // =======================================================
(PID.TID 0000.0001) %MON obc_E_uVel_max               =   2.8014282071829E-01
(PID.TID 0000.0001) %MON obc_E_uVel_min               =   2.8014282071829E-01
(PID.TID 0000.0001) %MON obc_E_uVel_mean              =   2.8014282071829E-01
(PID.TID 0000.0001) %MON obc_E_uVel_sd                =   3.7252902984619E-09
(PID.TID 0000.0001) %MON obc_E_uVel_Int               =   2.8014282071829E+05
(PID.TID 0000.0001) %MON obc_W_uVel_max               =   2.8014282071829E-01
(PID.TID 0000.0001) %MON obc_W_uVel_min               =   2.8014282071829E-01
(PID.TID 0000.0001) %MON obc_W_uVel_mean              =   2.8014282071829E-01
(PID.TID 0000.0001) %MON obc_W_uVel_sd                =   3.7252902984619E-09
(PID.TID 0000.0001) %MON obc_W_uVel_Int               =   2.8014282071829E+05
(PID.TID 0000.0001) // =======================================================
(PID.TID 0000.0001) // End OBCS MONITOR field statistics
(PID.TID 0000.0001) // =======================================================
 cg2d: Sum(rhs),rhsMax =  -6.00327565436487E-11  4.57461781016031E-02
 cg2d: Sum(rhs),rhsMax =  -5.88393778144791E-11  4.66727601646644E-02
 cg2d: Sum(rhs),rhsMax =  -5.77561332093524E-11  4.75822873114898E-02
 cg2d: Sum(rhs),rhsMax =  -5.66533486789922E-11  4.84744508208387E-02
 cg2d: Sum(rhs),rhsMax =  -5.56025225861845E-11  4.93490650737999E-02
 cg2d: Sum(rhs),rhsMax =  -5.46380718446926E-11  5.02060734119070E-02
 cg2d: Sum(rhs),rhsMax =  -5.36897193370578E-11  5.10455424543165E-02
 cg2d: Sum(rhs),rhsMax =  -5.27826671259390E-11  5.18676517193815E-02
 cg2d: Sum(rhs),rhsMax =  -5.19788656561104E-11  5.26726656740784E-02
 cg2d: Sum(rhs),rhsMax =  -5.11749531639794E-11  5.34608835028080E-02
 cg2d: Sum(rhs),rhsMax =  -5.03960206899023E-11  5.42326016989794E-02
 cg2d: Sum(rhs),rhsMax =  -4.95805618783152E-11  5.49880895347795E-02
 cg2d: Sum(rhs),rhsMax =  -4.88936668929796E-11  5.57275546507505E-02
 cg2d: Sum(rhs),rhsMax =  -4.82025530601504E-11  5.64511127010665E-02
 cg2d: Sum(rhs),rhsMax =  -4.75230965690798E-11  5.71587533692436E-02
 cg2d: Sum(rhs),rhsMax =  -4.69198013774985E-11  5.78503265322739E-02
 cg2d: Sum(rhs),rhsMax =  -4.62585525440318E-11  5.85255277135225E-02
 cg2d: Sum(rhs),rhsMax =  -4.56854554187203E-11  5.91838933432591E-02
 cg2d: Sum(rhs),rhsMax =  -4.51448878280303E-11  5.98248136617605E-02
 cg2d: Sum(rhs),rhsMax =  -4.46276349208574E-11  6.04475488049268E-02
 cg2d: Sum(rhs),rhsMax =  -4.41491287972440E-11  6.10512526114996E-02
 cg2d: Sum(rhs),rhsMax =  -4.37150315946155E-11  6.16350084208101E-02
 cg2d: Sum(rhs),rhsMax =  -4.32983648934737E-11  6.21978626037964E-02
 cg2d: Sum(rhs),rhsMax =  -4.28601598656542E-11  6.27388619248501E-02
 cg2d: Sum(rhs),rhsMax =  -4.24901225315466E-11  6.32570995562305E-02
 cg2d: Sum(rhs),rhsMax =  -4.21338519629444E-11  6.37517538118322E-02
 cg2d: Sum(rhs),rhsMax =  -4.17532675101029E-11  6.42221386317244E-02
 cg2d: Sum(rhs),rhsMax =  -4.14808187798599E-11  6.46677174635969E-02
 cg2d: Sum(rhs),rhsMax =  -4.11849443437973E-11  6.50881351439100E-02
 cg2d: Sum(rhs),rhsMax =  -4.09448031035708E-11  6.54832518407154E-02
 cg2d: Sum(rhs),rhsMax =  -4.06861211388332E-11  6.58531867741342E-02
 cg2d: Sum(rhs),rhsMax =  -4.04175581891764E-11  6.61982601502494E-02
 cg2d: Sum(rhs),rhsMax =  -4.01777500158573E-11  6.65189683141744E-02
 cg2d: Sum(rhs),rhsMax =  -3.99086319546882E-11  6.68159657085515E-02
 cg2d: Sum(rhs),rhsMax =  -3.96934707325158E-11  6.70900266626936E-02
 cg2d: Sum(rhs),rhsMax =  -3.94674293247022E-11  6.73420045283818E-02
 cg2d: Sum(rhs),rhsMax =  -3.92652577119179E-11  6.75728033129825E-02
 cg2d: Sum(rhs),rhsMax =  -3.91181531611551E-11  6.77833039199449E-02
 cg2d: Sum(rhs),rhsMax =  -3.89968057845635E-11  6.79742595199518E-02
 cg2d: Sum(rhs),rhsMax =  -3.88729048950154E-11  6.81462455175041E-02
 cg2d: Sum(rhs),rhsMax =  -3.87541110313805E-11  6.82996271665080E-02
 cg2d: Sum(rhs),rhsMax =  -3.85483867049174E-11  6.84345385898176E-02
 cg2d: Sum(rhs),rhsMax =  -3.85032006278152E-11  6.85508712054210E-02
 cg2d: Sum(rhs),rhsMax =  -3.84275944398382E-11  6.86482651806929E-02
 cg2d: Sum(rhs),rhsMax =  -3.83604259468484E-11  6.87261135824076E-02
 cg2d: Sum(rhs),rhsMax =  -3.83202358733570E-11  6.87835845085215E-02
 cg2d: Sum(rhs),rhsMax =  -3.82889275840625E-11  6.88196639831294E-02
 cg2d: Sum(rhs),rhsMax =  -3.83251208546653E-11  6.88331979702335E-02
 cg2d: Sum(rhs),rhsMax =  -3.83377773971461E-11  6.88229820744630E-02
 cg2d: Sum(rhs),rhsMax =  -3.83117981783698E-11  6.87877893030079E-02
 cg2d: Sum(rhs),rhsMax =  -3.83955089944266E-11  6.87264205738437E-02
 cg2d: Sum(rhs),rhsMax =  -3.83315601482082E-11  6.86377779049608E-02
 cg2d: Sum(rhs),rhsMax =  -3.83376663748436E-11  6.85209322639801E-02
 cg2d: Sum(rhs),rhsMax =  -3.83612031029656E-11  6.83751744287527E-02
 cg2d: Sum(rhs),rhsMax =  -3.84614562420893E-11  6.82000495703388E-02
 cg2d: Sum(rhs),rhsMax =  -3.85915743805754E-11  6.79953758294006E-02
 cg2d: Sum(rhs),rhsMax =  -3.86637388771760E-11  6.77612383795326E-02
 cg2d: Sum(rhs),rhsMax =  -3.88251653049565E-11  6.74979754266141E-02
 cg2d: Sum(rhs),rhsMax =  -3.90183441112413E-11  6.72061516270618E-02
 cg2d: Sum(rhs),rhsMax =  -3.91990884196503E-11  6.68865238764444E-02
 cg2d: Sum(rhs),rhsMax =  -3.93783894381272E-11  6.65400030488150E-02
 cg2d: Sum(rhs),rhsMax =  -3.96032096006138E-11  6.61676051920724E-02
 cg2d: Sum(rhs),rhsMax =  -3.99100752446202E-11  6.57704131116957E-02
 cg2d: Sum(rhs),rhsMax =  -4.01967348295784E-11  6.53495627098264E-02
 cg2d: Sum(rhs),rhsMax =  -4.05013800275356E-11  6.49061461195174E-02
 cg2d: Sum(rhs),rhsMax =  -4.08231226600719E-11  6.44411663004837E-02
 cg2d: Sum(rhs),rhsMax =  -4.11418676904418E-11  6.39555142512216E-02
 cg2d: Sum(rhs),rhsMax =  -4.14924761216184E-11  6.34499531171106E-02
 cg2d: Sum(rhs),rhsMax =  -4.18545198499487E-11  6.29251002983521E-02
 cg2d: Sum(rhs),rhsMax =  -4.22372137265370E-11  6.23814094667945E-02
 cg2d: Sum(rhs),rhsMax =  -4.26426671751301E-11  6.18191569103058E-02
 cg2d: Sum(rhs),rhsMax =  -4.30465663114887E-11  6.12384349790142E-02
 cg2d: Sum(rhs),rhsMax =  -4.35089742012451E-11  6.06391540515706E-02
 cg2d: Sum(rhs),rhsMax =  -4.40394387624110E-11  6.00211002300532E-02
 cg2d: Sum(rhs),rhsMax =  -4.45444792163130E-11  5.93838994779563E-02
 cg2d: Sum(rhs),rhsMax =  -4.50770532012257E-11  5.87270372365006E-02
 cg2d: Sum(rhs),rhsMax =  -4.56268356430201E-11  5.80499143944704E-02
 cg2d: Sum(rhs),rhsMax =  -4.62276883439472E-11  5.73519123207462E-02
 cg2d: Sum(rhs),rhsMax =  -4.68713956536249E-11  5.66324087580463E-02
 cg2d: Sum(rhs),rhsMax =  -4.75670614008550E-11  5.58909084219576E-02
 cg2d: Sum(rhs),rhsMax =  -4.82641704380171E-11  5.51271297589623E-02
 cg2d: Sum(rhs),rhsMax =  -4.90157914256883E-11  5.43410433120658E-02
 cg2d: Sum(rhs),rhsMax =  -4.98076024868510E-11  5.35328930965335E-02
 cg2d: Sum(rhs),rhsMax =  -5.06806818734162E-11  5.27031928183305E-02
 cg2d: Sum(rhs),rhsMax =  -5.15434361858524E-11  5.18527380091868E-02
 cg2d: Sum(rhs),rhsMax =  -5.24221777098433E-11  5.09825485664302E-02
 cg2d: Sum(rhs),rhsMax =  -5.34452482270353E-11  5.00938336576575E-02
 cg2d: Sum(rhs),rhsMax =  -5.45316014566311E-11  4.91879551455411E-02
 cg2d: Sum(rhs),rhsMax =  -5.55920864897530E-11  4.82663435705412E-02
 cg2d: Sum(rhs),rhsMax =  -5.67301761122962E-11  4.73304096153492E-02
 cg2d: Sum(rhs),rhsMax =  -5.79239989306757E-11  4.63814407325939E-02
 cg2d: Sum(rhs),rhsMax =  -5.92318416536841E-11  4.54205213170124E-02
 cg2d: Sum(rhs),rhsMax =  -6.06247274603788E-11  4.44484898332043E-02
 cg2d: Sum(rhs),rhsMax =  -6.20085094382716E-11  4.34659159295390E-02
 cg2d: Sum(rhs),rhsMax =  -6.34832186818812E-11  4.24731138150255E-02
 cg2d: Sum(rhs),rhsMax =  -6.50425269199673E-11  4.14701781972311E-02
 cg2d: Sum(rhs),rhsMax =  -6.67120803043986E-11  4.04570239615131E-02
 cg2d: Sum(rhs),rhsMax =  -6.85004275524648E-11  3.94334382860891E-02
 cg2d: Sum(rhs),rhsMax =  -6.73924249738889E-11  4.00948400913409E-02
 cg2d: Sum(rhs),rhsMax =  -6.49636455740676E-11  4.16182585910969E-02
 cg2d: Sum(rhs),rhsMax =  -6.26523277702518E-11  4.31590732954179E-02
 cg2d: Sum(rhs),rhsMax =  -6.05421823784980E-11  4.47163948499802E-02
 cg2d: Sum(rhs),rhsMax =  -5.85460013802219E-11  4.62894400436045E-02
 cg2d: Sum(rhs),rhsMax =  -5.66460212070297E-11  4.78775304073660E-02
 cg2d: Sum(rhs),rhsMax =  -5.48071033001918E-11  4.94800822630770E-02
 cg2d: Sum(rhs),rhsMax =  -5.31069632714321E-11  5.10965886179206E-02
 cg2d: Sum(rhs),rhsMax =  -5.14873421675333E-11  5.27265938938549E-02
 cg2d: Sum(rhs),rhsMax =  -4.99680852250606E-11  5.43696630244395E-02
 cg2d: Sum(rhs),rhsMax =  -4.85252671378333E-11  5.60253468000090E-02
 cg2d: Sum(rhs),rhsMax =  -4.71507000110449E-11  5.76931460968218E-02
 cg2d: Sum(rhs),rhsMax =  -4.58699883632008E-11  5.93724777016843E-02
 cg2d: Sum(rhs),rhsMax =  -4.46147632726657E-11  6.10626444860179E-02
 cg2d: Sum(rhs),rhsMax =  -4.34973584928500E-11  6.27628125018582E-02
 cg2d: Sum(rhs),rhsMax =  -4.24135327553588E-11  6.44719971640509E-02
 cg2d: Sum(rhs),rhsMax =  -4.13494568446415E-11  6.61890600633405E-02
 cg2d: Sum(rhs),rhsMax =  -4.03239039381553E-11  6.79127171655450E-02
 cg2d: Sum(rhs),rhsMax =  -3.93409055332583E-11  6.96415582587215E-02
 cg2d: Sum(rhs),rhsMax =  -3.84251935825475E-11  7.13740765883943E-02
 cg2d: Sum(rhs),rhsMax =  -3.75885572667656E-11  7.31087067611415E-02
 cg2d: Sum(rhs),rhsMax =  -3.67821606506169E-11  7.48438682845958E-02
 cg2d: Sum(rhs),rhsMax =  -3.60389079689938E-11  7.65780116187817E-02
 cg2d: Sum(rhs),rhsMax =  -3.53211904169370E-11  7.83096633935832E-02
 cg2d: Sum(rhs),rhsMax =  -3.46168371745392E-11  8.00374675267649E-02
 cg2d: Sum(rhs),rhsMax =  -3.39436811991334E-11  8.17602193461351E-02
 cg2d: Sum(rhs),rhsMax =  -3.33153227227712E-11  8.34768904408704E-02
 cg2d: Sum(rhs),rhsMax =  -3.27158578006248E-11  8.51866427741018E-02
 cg2d: Sum(rhs),rhsMax =  -3.21634385791469E-11  8.68888314951942E-02
 cg2d: Sum(rhs),rhsMax =  -3.15963089025928E-11  8.85829967992921E-02
 cg2d: Sum(rhs),rhsMax =  -3.11072001490942E-11  9.02688459905873E-02
 cg2d: Sum(rhs),rhsMax =  -3.06148439932485E-11  9.19462276454098E-02
 cg2d: Sum(rhs),rhsMax =  -3.01370595146011E-11  9.36151000759250E-02
 cg2d: Sum(rhs),rhsMax =  -2.96933033716584E-11  9.52754965638359E-02
 cg2d: Sum(rhs),rhsMax =  -2.92743607133161E-11  9.69274897775920E-02
 cg2d: Sum(rhs),rhsMax =  -2.88604140585846E-11  9.85711575055323E-02
 cg2d: Sum(rhs),rhsMax =  -2.84699486208240E-11  1.00206551395911E-01
 cg2d: Sum(rhs),rhsMax =  -2.80663270402215E-11  1.01833669868108E-01
 cg2d: Sum(rhs),rhsMax =  -2.76995093528853E-11  1.03452435820318E-01
 cg2d: Sum(rhs),rhsMax =  -2.73367994907403E-11  1.05062679263298E-01
 cg2d: Sum(rhs),rhsMax =  -2.69893551951839E-11  1.06664124640699E-01
 cg2d: Sum(rhs),rhsMax =  -2.66574540219722E-11  1.08256382369255E-01
 cg2d: Sum(rhs),rhsMax =  -2.63229993358038E-11  1.09838943955463E-01
 cg2d: Sum(rhs),rhsMax =  -2.60245713867846E-11  1.11411180129076E-01
 cg2d: Sum(rhs),rhsMax =  -2.57182608542905E-11  1.12972341586336E-01
 cg2d: Sum(rhs),rhsMax =  -2.54247733977309E-11  1.14521562159627E-01
 cg2d: Sum(rhs),rhsMax =  -2.51356158109672E-11  1.16057864477279E-01
 cg2d: Sum(rhs),rhsMax =  -2.48792653145813E-11  1.17580168385272E-01
 cg2d: Sum(rhs),rhsMax =  -2.46171971696185E-11  1.19087302515667E-01
 cg2d: Sum(rhs),rhsMax =  -2.43713937919665E-11  1.20578019457848E-01
 cg2d: Sum(rhs),rhsMax =  -2.41200948103426E-11  1.22051014847313E-01
 cg2d: Sum(rhs),rhsMax =  -2.38856712186930E-11  1.23504950450968E-01
 cg2d: Sum(rhs),rhsMax =  -2.36286545884923E-11  1.24938480990953E-01
 cg2d: Sum(rhs),rhsMax =  -2.34054442493914E-11  1.26350284049656E-01
 cg2d: Sum(rhs),rhsMax =  -2.31774044401334E-11  1.27739091986629E-01
 cg2d: Sum(rhs),rhsMax =  -2.29435914711473E-11  1.29103724429173E-01
 cg2d: Sum(rhs),rhsMax =  -2.27655116979975E-11  1.30443119625281E-01
 cg2d: Sum(rhs),rhsMax =  -2.26292873328759E-11  1.31756362810382E-01
 cg2d: Sum(rhs),rhsMax =  -2.24635310352994E-11  1.33042709775630E-01
 cg2d: Sum(rhs),rhsMax =  -2.22777352121284E-11  1.34301604020729E-01
 cg2d: Sum(rhs),rhsMax =  -2.20992668609199E-11  1.35532686223092E-01
 cg2d: Sum(rhs),rhsMax =  -2.19355089647877E-11  1.36735795238145E-01
 cg2d: Sum(rhs),rhsMax =  -2.18133844320789E-11  1.37910960401286E-01
 cg2d: Sum(rhs),rhsMax =  -2.17149631609459E-11  1.39058385463741E-01
 cg2d: Sum(rhs),rhsMax =  -2.16490159132832E-11  1.40178425042707E-01
 cg2d: Sum(rhs),rhsMax =  -2.15082951449119E-11  1.41271554918183E-01
 cg2d: Sum(rhs),rhsMax =  -2.13545292560013E-11  1.42338337834506E-01
 cg2d: Sum(rhs),rhsMax =  -2.13008499727607E-11  1.43379386642597E-01
 cg2d: Sum(rhs),rhsMax =  -2.12211359595926E-11  1.44395326647157E-01
 cg2d: Sum(rhs),rhsMax =  -2.11266559801970E-11  1.45386758917647E-01
 cg2d: Sum(rhs),rhsMax =  -2.10478856565999E-11  1.46354226112444E-01
 cg2d: Sum(rhs),rhsMax =  -2.09646189297530E-11  1.47298182089656E-01
 cg2d: Sum(rhs),rhsMax =  -2.08916772770351E-11  1.48218966274903E-01
 cg2d: Sum(rhs),rhsMax =  -2.08286721203876E-11  1.49116783460901E-01
 cg2d: Sum(rhs),rhsMax =  -2.07434069920964E-11  1.49991689469528E-01
 cg2d: Sum(rhs),rhsMax =  -2.06739070307549E-11  1.50843582832166E-01
 cg2d: Sum(rhs),rhsMax =  -2.06005767999784E-11  1.51672202570690E-01
 cg2d: Sum(rhs),rhsMax =  -2.05203076752980E-11  1.52477132013562E-01
 cg2d: Sum(rhs),rhsMax =  -2.04206096476867E-11  1.53257808493697E-01
 cg2d: Sum(rhs),rhsMax =  -2.03472794169102E-11  1.54013538685880E-01
 cg2d: Sum(rhs),rhsMax =  -2.03007055610271E-11  1.54743519236798E-01
 cg2d: Sum(rhs),rhsMax =  -2.02527439263633E-11  1.55446862175990E-01
 cg2d: Sum(rhs),rhsMax =  -2.00984229259404E-11  1.56122624371740E-01
 cg2d: Sum(rhs),rhsMax =  -1.99265048905772E-11  1.56769840031369E-01
 cg2d: Sum(rhs),rhsMax =  -1.98441263421500E-11  1.57387554940535E-01
 cg2d: Sum(rhs),rhsMax =  -1.97759031372868E-11  1.57974860834954E-01
 cg2d: Sum(rhs),rhsMax =  -1.96966332133286E-11  1.58530928048941E-01
 cg2d: Sum(rhs),rhsMax =  -1.96171967559167E-11  1.59055034415724E-01
 cg2d: Sum(rhs),rhsMax =  -1.95539140435130E-11  1.59546588474022E-01
 cg2d: Sum(rhs),rhsMax =  -1.95102822786453E-11  1.60005145188168E-01
 cg2d: Sum(rhs),rhsMax =  -1.94830818145419E-11  1.60430412706823E-01
 cg2d: Sum(rhs),rhsMax =  -1.94411708953623E-11  1.60822249314169E-01
 cg2d: Sum(rhs),rhsMax =  -1.95090610333182E-11  1.61180650439361E-01
 cg2d: Sum(rhs),rhsMax =  -1.94722571400519E-11  1.61505726382510E-01
 cg2d: Sum(rhs),rhsMax =  -1.94593785529662E-11  1.61797672259627E-01
 cg2d: Sum(rhs),rhsMax =  -1.94391169827668E-11  1.62056732220664E-01
 cg2d: Sum(rhs),rhsMax =  -1.94029237121640E-11  1.62283160711937E-01
 cg2d: Sum(rhs),rhsMax =  -1.93319804608905E-11  1.62477183881936E-01
 cg2d: Sum(rhs),rhsMax =  -1.92480476002288E-11  1.62638964213870E-01
 cg2d: Sum(rhs),rhsMax =  -1.92306170987422E-11  1.62768571221189E-01
 cg2d: Sum(rhs),rhsMax =  -1.92025284562192E-11  1.62865960528497E-01
 cg2d: Sum(rhs),rhsMax =  -1.91913707148217E-11  1.62930962928757E-01
 cg2d: Sum(rhs),rhsMax =  -1.91786031500385E-11  1.62963284132671E-01
 cg2d: Sum(rhs),rhsMax =  -1.91981985864231E-11  1.62962515023692E-01
 cg2d: Sum(rhs),rhsMax =  -1.92009741439847E-11  1.62928151233118E-01
 cg2d: Sum(rhs),rhsMax =  -1.91339166732973E-11  1.62859620263098E-01
 cg2d: Sum(rhs),rhsMax =  -1.90398252719604E-11  1.62756313767463E-01
 cg2d: Sum(rhs),rhsMax =  -1.89664950411839E-11  1.62617622303941E-01
 cg2d: Sum(rhs),rhsMax =  -1.89163684716220E-11  1.62442969856404E-01
 cg2d: Sum(rhs),rhsMax =  -1.88769000430966E-11  1.62231845666463E-01
 cg2d: Sum(rhs),rhsMax =  -1.88315474325407E-11  1.61983831364721E-01
 cg2d: Sum(rhs),rhsMax =  -1.87911908255955E-11  1.61698621972761E-01
 cg2d: Sum(rhs),rhsMax =  -1.87660442740878E-11  1.61376040008328E-01
 cg2d: Sum(rhs),rhsMax =  -1.87174720167604E-11  1.61016042711500E-01
 cg2d: Sum(rhs),rhsMax =  -1.86566317950110E-11  1.60618722714138E-01
 cg2d: Sum(rhs),rhsMax =  -1.85878534786355E-11  1.60184303051828E-01
 cg2d: Sum(rhs),rhsMax =  -1.86005100211162E-11  1.59713127684003E-01
 cg2d: Sum(rhs),rhsMax =  -1.86058390916344E-11  1.59205648777391E-01
 cg2d: Sum(rhs),rhsMax =  -1.86184956341151E-11  1.58662411943698E-01
 cg2d: Sum(rhs),rhsMax =  -1.86366477805677E-11  1.58084040443166E-01
 cg2d: Sum(rhs),rhsMax =  -1.87110882343688E-11  1.57471219135165E-01
 cg2d: Sum(rhs),rhsMax =  -1.87889148683951E-11  1.56824678719734E-01
 cg2d: Sum(rhs),rhsMax =  -1.88789539556922E-11  1.56145180604963E-01
 cg2d: Sum(rhs),rhsMax =  -1.88902227193921E-11  1.55433502601833E-01
 cg2d: Sum(rhs),rhsMax =  -1.88842275150591E-11  1.54690425485118E-01
 cg2d: Sum(rhs),rhsMax =  -1.89367410641239E-11  1.53916720550906E-01
 cg2d: Sum(rhs),rhsMax =  -1.90073512484901E-11  1.53113138273003E-01
 cg2d: Sum(rhs),rhsMax =  -1.90966131796699E-11  1.52280398190783E-01
 cg2d: Sum(rhs),rhsMax =  -1.91719418118907E-11  1.51419180141050E-01
 cg2d: Sum(rhs),rhsMax =  -1.92488802674973E-11  1.50530117178469E-01
 cg2d: Sum(rhs),rhsMax =  -1.93332572173688E-11  1.49613790190739E-01
 cg2d: Sum(rhs),rhsMax =  -1.93918769930690E-11  1.48670724255180E-01
 cg2d: Sum(rhs),rhsMax =  -1.94436133860165E-11  1.47701386661726E-01
 cg2d: Sum(rhs),rhsMax =  -1.94803617681316E-11  1.46706186381669E-01
 cg2d: Sum(rhs),rhsMax =  -1.95405913672175E-11  1.45685474628332E-01
 cg2d: Sum(rhs),rhsMax =  -1.96118121742472E-11  1.44639546062159E-01
 cg2d: Sum(rhs),rhsMax =  -1.97247218558516E-11  1.43568640180382E-01
 cg2d: Sum(rhs),rhsMax =  -1.97852290106937E-11  1.42472942515537E-01
 cg2d: Sum(rhs),rhsMax =  -1.98507876802978E-11  1.41352585411564E-01
 cg2d: Sum(rhs),rhsMax =  -1.98985272703567E-11  1.40207648387136E-01
 cg2d: Sum(rhs),rhsMax =  -1.99564809122421E-11  1.39038158191111E-01
 cg2d: Sum(rhs),rhsMax =  -2.00484628898323E-11  1.37844089046489E-01
 cg2d: Sum(rhs),rhsMax =  -2.01181293846275E-11  1.36625363843843E-01
 cg2d: Sum(rhs),rhsMax =  -2.02641237123657E-11  1.35381857052145E-01
 cg2d: Sum(rhs),rhsMax =  -2.03711492119396E-11  1.34113400117318E-01
 cg2d: Sum(rhs),rhsMax =  -2.04979366813518E-11  1.32819790009170E-01
 cg2d: Sum(rhs),rhsMax =  -2.06666905810948E-11  1.31500801358765E-01
 cg2d: Sum(rhs),rhsMax =  -2.08675299262495E-11  1.30156202320352E-01
 cg2d: Sum(rhs),rhsMax =  -2.10605421990806E-11  1.28785773937156E-01
 cg2d: Sum(rhs),rhsMax =  -2.12269646304719E-11  1.27389332431264E-01
 cg2d: Sum(rhs),rhsMax =  -2.14300799328271E-11  1.25966753523641E-01
 cg2d: Sum(rhs),rhsMax =  -2.16313633671916E-11  1.24517997667958E-01
 cg2d: Sum(rhs),rhsMax =  -2.18610129998353E-11  1.23043134974167E-01
 cg2d: Sum(rhs),rhsMax =  -2.20866103184392E-11  1.21542368610844E-01
 cg2d: Sum(rhs),rhsMax =  -2.23452922831768E-11  1.20016055597221E-01
 cg2d: Sum(rhs),rhsMax =  -2.26012542015042E-11  1.18464724099705E-01
 cg2d: Sum(rhs),rhsMax =  -2.28606578112078E-11  1.16889086596418E-01
 cg2d: Sum(rhs),rhsMax =  -2.31427099706139E-11  1.15290048528656E-01
 cg2d: Sum(rhs),rhsMax =  -2.34350872041489E-11  1.13668712273857E-01
 cg2d: Sum(rhs),rhsMax =  -2.37310171513627E-11  1.12026376457937E-01
 cg2d: Sum(rhs),rhsMax =  -2.40509279159085E-11  1.10364530701225E-01
 cg2d: Sum(rhs),rhsMax =  -2.43896014495704E-11  1.08684845928610E-01
 cg2d: Sum(rhs),rhsMax =  -2.47264431152416E-11  1.06989160400623E-01
 cg2d: Sum(rhs),rhsMax =  -2.50806597712483E-11  1.05279461743784E-01
 cg2d: Sum(rhs),rhsMax =  -2.54493093265751E-11  1.03557864971662E-01
 cg2d: Sum(rhs),rhsMax =  -2.58139620790132E-11  1.01826586712140E-01
 cg2d: Sum(rhs),rhsMax =  -2.62205257506309E-11  1.00087915983061E-01
 cg2d: Sum(rhs),rhsMax =  -2.66451027908232E-11  9.83441820483070E-02
 cg2d: Sum(rhs),rhsMax =  -2.70661826284879E-11  9.65977201189857E-02
 cg2d: Sum(rhs),rhsMax =  -2.75243716707507E-11  9.48508359200408E-02
 cg2d: Sum(rhs),rhsMax =  -2.79828382687697E-11  9.31057703824226E-02
 cg2d: Sum(rhs),rhsMax =  -2.85045875791923E-11  9.13646658996783E-02
 cg2d: Sum(rhs),rhsMax =  -2.90036050731857E-11  8.96295356625401E-02
 cg2d: Sum(rhs),rhsMax =  -2.94922142263232E-11  8.79022375240611E-02
 cg2d: Sum(rhs),rhsMax =  -3.00124092245113E-11  8.61844536376539E-02
 cg2d: Sum(rhs),rhsMax =  -3.05444558534873E-11  8.44776767591166E-02
 cg2d: Sum(rhs),rhsMax =  -3.11181080903111E-11  8.27832036404194E-02
 cg2d: Sum(rhs),rhsMax =  -3.16996567883976E-11  8.11021354139149E-02
 cg2d: Sum(rhs),rhsMax =  -3.23207849373119E-11  7.94353843283482E-02
 cg2d: Sum(rhs),rhsMax =  -3.29761773443238E-11  7.77836857136719E-02
 cg2d: Sum(rhs),rhsMax =  -3.36229932784704E-11  7.61476136757864E-02
 cg2d: Sum(rhs),rhsMax =  -3.43048783824074E-11  7.45275987975521E-02
 cg2d: Sum(rhs),rhsMax =  -3.50316789465843E-11  7.29239460847360E-02
 cg2d: Sum(rhs),rhsMax =  -3.57868561173813E-11  7.13368514965943E-02
 cg2d: Sum(rhs),rhsMax =  -3.65243876809807E-11  6.97664157295665E-02
 cg2d: Sum(rhs),rhsMax =  -3.72756148864228E-11  6.82126544119541E-02
 cg2d: Sum(rhs),rhsMax =  -3.80698458868345E-11  6.66755043672031E-02
 cg2d: Sum(rhs),rhsMax =  -3.88587009791941E-11  6.51548261858523E-02
 cg2d: Sum(rhs),rhsMax =  -3.96970789573459E-11  6.36504039024808E-02
 cg2d: Sum(rhs),rhsMax =  -4.05468020270305E-11  6.21619430367538E-02
 cg2d: Sum(rhs),rhsMax =  -4.14427797634787E-11  6.06890685895913E-02
 cg2d: Sum(rhs),rhsMax =  -4.23246715453018E-11  5.92313246677336E-02
 cg2d: Sum(rhs),rhsMax =  -4.33499069973919E-11  5.77881773805679E-02
 cg2d: Sum(rhs),rhsMax =  -4.44087266959770E-11  5.63590224489618E-02
 cg2d: Sum(rhs),rhsMax =  -4.55081250461120E-11  5.49431985192106E-02
 cg2d: Sum(rhs),rhsMax =  -4.66379157515462E-11  5.35400066478743E-02
 cg2d: Sum(rhs),rhsMax =  -4.78386219526783E-11  5.21487358257001E-02
 cg2d: Sum(rhs),rhsMax =  -4.90970597510909E-11  5.07686937959104E-02
 cg2d: Sum(rhs),rhsMax =  -5.03910246862915E-11  4.93992418501227E-02
 cg2d: Sum(rhs),rhsMax =  -5.17480502892909E-11  4.80398317948099E-02
 cg2d: Sum(rhs),rhsMax =  -5.31880095522297E-11  4.66900430045696E-02
 cg2d: Sum(rhs),rhsMax =  -5.47027423358770E-11  4.53496172314092E-02
 cg2d: Sum(rhs),rhsMax =  -5.62873081477733E-11  4.40184889129960E-02
 cg2d: Sum(rhs),rhsMax =  -5.79910564013630E-11  4.26968089364065E-02
 cg2d: Sum(rhs),rhsMax =  -5.97514260292087E-11  4.13849601856742E-02
 cg2d: Sum(rhs),rhsMax =  -5.85073101078137E-11  4.21950522761375E-02
 cg2d: Sum(rhs),rhsMax =  -5.72940583865034E-11  4.30539230737734E-02
 cg2d: Sum(rhs),rhsMax =  -5.61168889134933E-11  4.38999610820758E-02
 cg2d: Sum(rhs),rhsMax =  -5.50451906278226E-11  4.47323857091397E-02
 cg2d: Sum(rhs),rhsMax =  -5.39951416911322E-11  4.55504548702268E-02
 cg2d: Sum(rhs),rhsMax =  -5.29858379394454E-11  4.63534867659041E-02
 cg2d: Sum(rhs),rhsMax =  -5.20539167325751E-11  4.71408756464647E-02
 cg2d: Sum(rhs),rhsMax =  -5.11992670482186E-11  4.79121017716255E-02
 cg2d: Sum(rhs),rhsMax =  -5.03783681438108E-11  4.86667484028687E-02
 cg2d: Sum(rhs),rhsMax =  -4.95985474913141E-11  4.94045122631264E-02
 cg2d: Sum(rhs),rhsMax =  -4.88795670605668E-11  5.01252166615553E-02
 cg2d: Sum(rhs),rhsMax =  -4.81594764067950E-11  5.08288113592119E-02
 cg2d: Sum(rhs),rhsMax =  -4.75054440229883E-11  5.15153625122470E-02
 cg2d: Sum(rhs),rhsMax =  -4.67915706181543E-11  5.21850366038376E-02
 cg2d: Sum(rhs),rhsMax =  -4.61324312084344E-11  5.28380808712886E-02
 cg2d: Sum(rhs),rhsMax =  -4.55644411090361E-11  5.34747980873500E-02
 cg2d: Sum(rhs),rhsMax =  -4.49876802477434E-11  5.40955145196086E-02
 cg2d: Sum(rhs),rhsMax =  -4.44854153514029E-11  5.47005356677488E-02
 cg2d: Sum(rhs),rhsMax =  -4.39512870542558E-11  5.52900994267425E-02
 cg2d: Sum(rhs),rhsMax =  -4.34787761349753E-11  5.58643332963031E-02
 cg2d: Sum(rhs),rhsMax =  -4.30313562560514E-11  5.64232173544248E-02
 cg2d: Sum(rhs),rhsMax =  -4.25954826965835E-11  5.69665616529780E-02
 cg2d: Sum(rhs),rhsMax =  -4.21430668140488E-11  5.74940014327634E-02
 cg2d: Sum(rhs),rhsMax =  -4.17096357452351E-11  5.80050056715686E-02
 cg2d: Sum(rhs),rhsMax =  -4.13565848234043E-11  5.84989111904048E-02
 cg2d: Sum(rhs),rhsMax =  -4.09713374338594E-11  5.89749588055820E-02
 cg2d: Sum(rhs),rhsMax =  -4.05789846169569E-11  5.94323365451423E-02
 cg2d: Sum(rhs),rhsMax =  -4.02602395865870E-11  5.98702216570022E-02
 cg2d: Sum(rhs),rhsMax =  -3.99653643512465E-11  6.02878314840242E-02
 cg2d: Sum(rhs),rhsMax =  -3.96860322382508E-11  6.06844631747576E-02
 cg2d: Sum(rhs),rhsMax =  -3.94302368533772E-11  6.10595177577000E-02
 cg2d: Sum(rhs),rhsMax =  -3.91189303172723E-11  6.14125170505405E-02
 cg2d: Sum(rhs),rhsMax =  -3.88981069576744E-11  6.17430930302325E-02
 cg2d: Sum(rhs),rhsMax =  -3.86739529290026E-11  6.20509691593937E-02
 cg2d: Sum(rhs),rhsMax =  -3.85279586012643E-11  6.23359542383529E-02
 cg2d: Sum(rhs),rhsMax =  -3.83716391993971E-11  6.25979004294760E-02
 cg2d: Sum(rhs),rhsMax =  -3.82632814321937E-11  6.28366716133124E-02
 cg2d: Sum(rhs),rhsMax =  -3.81413789440899E-11  6.30521298249656E-02
 cg2d: Sum(rhs),rhsMax =  -3.80231401919673E-11  6.32441324080484E-02
 cg2d: Sum(rhs),rhsMax =  -3.79444253795214E-11  6.34125389464443E-02
 cg2d: Sum(rhs),rhsMax =  -3.78708175929887E-11  6.35572236012639E-02
 cg2d: Sum(rhs),rhsMax =  -3.77992082079004E-11  6.36780941983545E-02
 cg2d: Sum(rhs),rhsMax =  -3.77574638221745E-11  6.37751162292682E-02
 cg2d: Sum(rhs),rhsMax =  -3.77320397149106E-11  6.38483363464654E-02
 cg2d: Sum(rhs),rhsMax =  -3.76899622622773E-11  6.38979024440770E-02
 cg2d: Sum(rhs),rhsMax =  -3.76932929313512E-11  6.39240749320198E-02
 cg2d: Sum(rhs),rhsMax =  -3.77282649566268E-11  6.39272246064190E-02
 cg2d: Sum(rhs),rhsMax =  -3.77313735810958E-11  6.39078260679736E-02
 cg2d: Sum(rhs),rhsMax =  -3.77069486745540E-11  6.38664287012536E-02
 cg2d: Sum(rhs),rhsMax =  -3.78043152338137E-11  6.38036221186734E-02
 cg2d: Sum(rhs),rhsMax =  -3.79558606766750E-11  6.37199969329807E-02
 cg2d: Sum(rhs),rhsMax =  -3.80723230719582E-11  6.36161018861297E-02
 cg2d: Sum(rhs),rhsMax =  -3.81110698555176E-11  6.34924008231121E-02
 cg2d: Sum(rhs),rhsMax =  -3.82943676768832E-11  6.33492441827349E-02
 cg2d: Sum(rhs),rhsMax =  -3.83956200167290E-11  6.31868425881129E-02
 cg2d: Sum(rhs),rhsMax =  -3.85277365566594E-11  6.30052428199520E-02
 cg2d: Sum(rhs),rhsMax =  -3.86616294534292E-11  6.28043334552774E-02
 cg2d: Sum(rhs),rhsMax =  -3.87961884840138E-11  6.25838616872004E-02
 cg2d: Sum(rhs),rhsMax =  -3.89982490744956E-11  6.23434547833610E-02
 cg2d: Sum(rhs),rhsMax =  -3.91993104642552E-11  6.20826461911751E-02
 cg2d: Sum(rhs),rhsMax =  -3.94468901987466E-11  6.18009048894125E-02
 cg2d: Sum(rhs),rhsMax =  -3.97244459549029E-11  6.14976666283573E-02
 cg2d: Sum(rhs),rhsMax =  -3.99498212289018E-11  6.11723641097039E-02
 cg2d: Sum(rhs),rhsMax =  -4.01860766885420E-11  6.08244552134587E-02
 cg2d: Sum(rhs),rhsMax =  -4.05236955103305E-11  6.04534443146297E-02
 cg2d: Sum(rhs),rhsMax =  -4.08971745358144E-11  6.00589175140961E-02
 cg2d: Sum(rhs),rhsMax =  -4.11852774107047E-11  5.96405524553246E-02
 cg2d: Sum(rhs),rhsMax =  -4.15253387231473E-11  5.91981378845828E-02
 cg2d: Sum(rhs),rhsMax =  -4.18759471543240E-11  5.87315948375278E-02
 cg2d: Sum(rhs),rhsMax =  -4.22544221834187E-11  5.82409994322037E-02
 cg2d: Sum(rhs),rhsMax =  -4.26614299442463E-11  5.77265863486814E-02
 cg2d: Sum(rhs),rhsMax =  -4.31104041354047E-11  5.71887498680615E-02
 cg2d: Sum(rhs),rhsMax =  -4.35821378985679E-11  5.66280390223177E-02
 cg2d: Sum(rhs),rhsMax =  -4.41345848756214E-11  5.60451420709030E-02
 cg2d: Sum(rhs),rhsMax =  -4.46083170402289E-11  5.54408645578243E-02
 cg2d: Sum(rhs),rhsMax =  -4.50990356171133E-11  5.48160924888784E-02
 cg2d: Sum(rhs),rhsMax =  -4.56593651776416E-11  5.41717390255844E-02
 cg2d: Sum(rhs),rhsMax =  -4.62240246079659E-11  5.35087135578510E-02
 cg2d: Sum(rhs),rhsMax =  -4.68475258585954E-11  5.28278571774385E-02
 cg2d: Sum(rhs),rhsMax =  -4.75224304352651E-11  5.21299061301173E-02
 cg2d: Sum(rhs),rhsMax =  -4.82861528539047E-11  5.14154632119509E-02
 cg2d: Sum(rhs),rhsMax =  -4.90493201610320E-11  5.06849717606377E-02
 cg2d: Sum(rhs),rhsMax =  -4.98435737128489E-11  4.99387145693305E-02
 cg2d: Sum(rhs),rhsMax =  -5.06272801459318E-11  4.91767992702766E-02
 cg2d: Sum(rhs),rhsMax =  -5.14277509466865E-11  4.83991807355969E-02
 cg2d: Sum(rhs),rhsMax =  -5.23344700908979E-11  4.76056902878294E-02
 cg2d: Sum(rhs),rhsMax =  -5.32325294955172E-11  4.67960689763450E-02
 cg2d: Sum(rhs),rhsMax =  -5.42110800694218E-11  4.59700209232498E-02
 cg2d: Sum(rhs),rhsMax =  -5.52621282068344E-11  4.51272329061543E-02
 cg2d: Sum(rhs),rhsMax =  -5.64264190927588E-11  4.42674148326554E-02
 cg2d: Sum(rhs),rhsMax =  -5.75853809081650E-11  4.33903334653235E-02
 cg2d: Sum(rhs),rhsMax =  -5.88029624992714E-11  4.24958393227601E-02
 cg2d: Sum(rhs),rhsMax =  -6.01391159094078E-11  4.15838823480906E-02
 cg2d: Sum(rhs),rhsMax =  -6.15691941874275E-11  4.06545412468547E-02
 cg2d: Sum(rhs),rhsMax =  -6.07277561570641E-11  4.12320045304892E-02
 cg2d: Sum(rhs),rhsMax =  -5.88146198410300E-11  4.26154088154876E-02
 cg2d: Sum(rhs),rhsMax =  -5.69824187834911E-11  4.40106397764891E-02
 cg2d: Sum(rhs),rhsMax =  -5.53061485497608E-11  4.54170938068923E-02
 cg2d: Sum(rhs),rhsMax =  -5.37070388162419E-11  4.68341934588200E-02
 cg2d: Sum(rhs),rhsMax =  -5.21555021393283E-11  4.82613716480729E-02
 cg2d: Sum(rhs),rhsMax =  -5.06871766781103E-11  4.96980592598660E-02
 cg2d: Sum(rhs),rhsMax =  -4.92965668286161E-11  5.11436769533031E-02
 cg2d: Sum(rhs),rhsMax =  -4.79948858433943E-11  5.25976317032946E-02
 cg2d: Sum(rhs),rhsMax =  -4.67233474132911E-11  5.40593183342237E-02
 cg2d: Sum(rhs),rhsMax =  -4.55183668535142E-11  5.55281259799151E-02
 cg2d: Sum(rhs),rhsMax =  -4.43724224030717E-11  5.70034491624730E-02
 cg2d: Sum(rhs),rhsMax =  -4.32684166273845E-11  5.84847028198316E-02
 cg2d: Sum(rhs),rhsMax =  -4.22223367380070E-11  5.99713403228789E-02
 cg2d: Sum(rhs),rhsMax =  -4.12255091175595E-11  6.14628733585692E-02
 cg2d: Sum(rhs),rhsMax =  -4.03175826058089E-11  6.29588921691427E-02
 cg2d: Sum(rhs),rhsMax =  -3.94572291506634E-11  6.44590847697563E-02
 cg2d: Sum(rhs),rhsMax =  -3.86314244482655E-11  6.59632536631021E-02
 cg2d: Sum(rhs),rhsMax =  -3.78241951648484E-11  6.74713285980838E-02
 cg2d: Sum(rhs),rhsMax =  -3.70510601366281E-11  6.89833740855036E-02
 cg2d: Sum(rhs),rhsMax =  -3.63211093146187E-11  7.04995906515813E-02
 cg2d: Sum(rhs),rhsMax =  -3.56197432660466E-11  7.20203091489563E-02
 cg2d: Sum(rhs),rhsMax =  -3.49333548199660E-11  7.35459778335893E-02
 cg2d: Sum(rhs),rhsMax =  -3.42552375354188E-11  7.50771423244425E-02
 cg2d: Sum(rhs),rhsMax =  -3.36090183461479E-11  7.66144189620182E-02
 cg2d: Sum(rhs),rhsMax =  -3.30119820368679E-11  7.81584624463548E-02
 cg2d: Sum(rhs),rhsMax =  -3.24213988989186E-11  7.97099289424368E-02
 cg2d: Sum(rhs),rhsMax =  -3.18207959981720E-11  8.12694360738301E-02
 cg2d: Sum(rhs),rhsMax =  -3.12663506196742E-11  8.28375213731028E-02
 cg2d: Sum(rhs),rhsMax =  -3.07075753713804E-11  8.44146008172722E-02
 cg2d: Sum(rhs),rhsMax =  -3.01815517023130E-11  8.60009290527733E-02
 cg2d: Sum(rhs),rhsMax =  -2.96677959976677E-11  8.75965628179071E-02
 cg2d: Sum(rhs),rhsMax =  -2.91943968999675E-11  8.92013289157375E-02
 cg2d: Sum(rhs),rhsMax =  -2.87217194472333E-11  9.08147978928407E-02
 cg2d: Sum(rhs),rhsMax =  -2.82626144709752E-11  9.24362643550732E-02
 cg2d: Sum(rhs),rhsMax =  -2.78205514181451E-11  9.40647346156777E-02
 cg2d: Sum(rhs),rhsMax =  -2.73820410789938E-11  9.56989221209305E-02
 cg2d: Sum(rhs),rhsMax =  -2.69441136069304E-11  9.73372509441965E-02
 cg2d: Sum(rhs),rhsMax =  -2.65427124723772E-11  9.89778673381675E-02
 cg2d: Sum(rhs),rhsMax =  -2.61388133360185E-11  1.00618659192822E-01
 cg2d: Sum(rhs),rhsMax =  -2.57516230561805E-11  1.02257283088429E-01
 cg2d: Sum(rhs),rhsMax =  -2.53783105641503E-11  1.03891198463998E-01
 cg2d: Sum(rhs),rhsMax =  -2.50341969376677E-11  1.05517708246889E-01
 cg2d: Sum(rhs),rhsMax =  -2.47026288313634E-11  1.07134005107600E-01
 cg2d: Sum(rhs),rhsMax =  -2.43533526678164E-11  1.08737222316066E-01
 cg2d: Sum(rhs),rhsMax =  -2.40557573860656E-11  1.10324487986174E-01
 cg2d: Sum(rhs),rhsMax =  -2.37620478849010E-11  1.11892981311361E-01
 cg2d: Sum(rhs),rhsMax =  -2.34751107441866E-11  1.13439989224308E-01
 cg2d: Sum(rhs),rhsMax =  -2.31992203225673E-11  1.14962961778088E-01
 cg2d: Sum(rhs),rhsMax =  -2.29559149467207E-11  1.16459564509299E-01
 cg2d: Sum(rhs),rhsMax =  -2.27096674798588E-11  1.17927725955497E-01
 cg2d: Sum(rhs),rhsMax =  -2.24737450871260E-11  1.19365678621826E-01
 cg2d: Sum(rhs),rhsMax =  -2.22464269228340E-11  1.20771991849317E-01
 cg2d: Sum(rhs),rhsMax =  -2.20450879773182E-11  1.22145595296741E-01
 cg2d: Sum(rhs),rhsMax =  -2.18086659842243E-11  1.23485792095515E-01
 cg2d: Sum(rhs),rhsMax =  -2.15995554775361E-11  1.24792261127496E-01
 cg2d: Sum(rhs),rhsMax =  -2.13929429726534E-11  1.26065048332166E-01
 cg2d: Sum(rhs),rhsMax =  -2.12041495473159E-11  1.27304547416536E-01
 cg2d: Sum(rhs),rhsMax =  -2.10453321436432E-11  1.28511470770489E-01
 cg2d: Sum(rhs),rhsMax =  -2.08809081136963E-11  1.29686811790451E-01
 cg2d: Sum(rhs),rhsMax =  -2.07163175502956E-11  1.30831800151835E-01
 cg2d: Sum(rhs),rhsMax =  -2.05742090031436E-11  1.31947851831946E-01
 cg2d: Sum(rhs),rhsMax =  -2.04629646560761E-11  1.33036515860806E-01
 cg2d: Sum(rhs),rhsMax =  -2.03651540076066E-11  1.34099419862948E-01
 cg2d: Sum(rhs),rhsMax =  -2.02958205797188E-11  1.35138216447733E-01
 cg2d: Sum(rhs),rhsMax =  -2.02320937781053E-11  1.36154532409151E-01
 cg2d: Sum(rhs),rhsMax =  -2.01833549873243E-11  1.37149922520279E-01
 cg2d: Sum(rhs),rhsMax =  -2.01124117360507E-11  1.38125829454319E-01
 cg2d: Sum(rhs),rhsMax =  -2.00201522027044E-11  1.39083551017748E-01
 cg2d: Sum(rhs),rhsMax =  -1.98772109882839E-11  1.40024215507328E-01
 cg2d: Sum(rhs),rhsMax =  -1.97715177563396E-11  1.40948765573120E-01
 cg2d: Sum(rhs),rhsMax =  -1.96834215593356E-11  1.41857950511431E-01
 cg2d: Sum(rhs),rhsMax =  -1.96052063472507E-11  1.42752326444769E-01
 cg2d: Sum(rhs),rhsMax =  -1.95261029567462E-11  1.43632263408981E-01
 cg2d: Sum(rhs),rhsMax =  -1.94428917410505E-11  1.44497957949641E-01
 cg2d: Sum(rhs),rhsMax =  -1.93727256458942E-11  1.45349449524594E-01
 cg2d: Sum(rhs),rhsMax =  -1.93051685748458E-11  1.46186638837118E-01
 cg2d: Sum(rhs),rhsMax =  -1.92557636502499E-11  1.47009306138581E-01
 cg2d: Sum(rhs),rhsMax =  -1.91824334194735E-11  1.47817127637738E-01
 cg2d: Sum(rhs),rhsMax =  -1.91288651585353E-11  1.48609688419061E-01
 cg2d: Sum(rhs),rhsMax =  -1.91506810409692E-11  1.49386490695597E-01
 cg2d: Sum(rhs),rhsMax =  -1.91188176401624E-11  1.50146956775382E-01
 cg2d: Sum(rhs),rhsMax =  -1.90595872417987E-11  1.50890426760744E-01
(PID.TID 0000.0001)      cg2d_init_res =   4.78119709724822E-02
(PID.TID 0000.0001)      cg2d_iters(min,last) =      -1      37
(PID.TID 0000.0001)      cg2d_last_res =   4.60322179411876E-14
(PID.TID 0000.0001) // =======================================================
(PID.TID 0000.0001) // Begin MONITOR dynamic field statistics
(PID.TID 0000.0001) // =======================================================
(PID.TID 0000.0001) %MON time_tsnumber                =                  6720
(PID.TID 0000.0001) %MON time_secondsf                =   1.0080000000000E+05
(PID.TID 0000.0001) %MON dynstat_eta_max              =   2.5331006685563E-02
(PID.TID 0000.0001) %MON dynstat_eta_min              =  -1.3692572593139E-02
(PID.TID 0000.0001) %MON dynstat_eta_mean             =   6.1115120614137E-15
(PID.TID 0000.0001) %MON dynstat_eta_sd               =   1.1435438952386E-02
(PID.TID 0000.0001) %MON dynstat_eta_del2             =   2.5611170238590E-05
(PID.TID 0000.0001) %MON dynstat_uvel_max             =   1.5798058310262E+00
(PID.TID 0000.0001) %MON dynstat_uvel_min             =  -8.2889649556729E-01
(PID.TID 0000.0001) %MON dynstat_uvel_mean            =   2.8556989978313E-01
(PID.TID 0000.0001) %MON dynstat_uvel_sd              =   1.5478118135873E-01
(PID.TID 0000.0001) %MON dynstat_uvel_del2            =   7.0183032891394E-04
(PID.TID 0000.0001) %MON dynstat_vvel_max             =   0.0000000000000E+00
(PID.TID 0000.0001) %MON dynstat_vvel_min             =   0.0000000000000E+00
(PID.TID 0000.0001) %MON dynstat_vvel_mean            =   0.0000000000000E+00
(PID.TID 0000.0001) %MON dynstat_vvel_sd              =   0.0000000000000E+00
(PID.TID 0000.0001) %MON dynstat_vvel_del2            =   0.0000000000000E+00
(PID.TID 0000.0001) %MON dynstat_wvel_max             =   3.3378621644922E-02
(PID.TID 0000.0001) %MON dynstat_wvel_min             =  -2.6983232566972E-02
(PID.TID 0000.0001) %MON dynstat_wvel_mean            =  -3.4079284655089E-20
(PID.TID 0000.0001) %MON dynstat_wvel_sd              =   2.0049466955924E-03
(PID.TID 0000.0001) %MON dynstat_wvel_del2            =   5.5014296491682E-05
(PID.TID 0000.0001) %MON dynstat_theta_max            =   1.5000000000008E+01
(PID.TID 0000.0001) %MON dynstat_theta_min            =   9.9999999999919E+00
(PID.TID 0000.0001) %MON dynstat_theta_mean           =   1.2419761221116E+01
(PID.TID 0000.0001) %MON dynstat_theta_sd             =   2.3732575080981E+00
(PID.TID 0000.0001) %MON dynstat_theta_del2           =   1.2173053469828E-03
(PID.TID 0000.0001) %MON dynstat_salt_max             =   3.5000000000000E+01
(PID.TID 0000.0001) %MON dynstat_salt_min             =   3.5000000000000E+01
(PID.TID 0000.0001) %MON dynstat_salt_mean            =   3.5000000000000E+01
(PID.TID 0000.0001) %MON dynstat_salt_sd              =   3.1974423109205E-13
(PID.TID 0000.0001) %MON dynstat_salt_del2            =   0.0000000000000E+00
(PID.TID 0000.0001) %MON dynstat_sst_max              =   1.5000000000000E+01
(PID.TID 0000.0001) %MON dynstat_sst_min              =   1.4998251376993E+01
(PID.TID 0000.0001) %MON dynstat_sst_mean             =   1.4999918499085E+01
(PID.TID 0000.0001) %MON dynstat_sst_sd               =   2.9666817352628E-04
(PID.TID 0000.0001) %MON dynstat_sst_del2             =   5.5971221202419E-06
(PID.TID 0000.0001) %MON dynstat_sss_max              =   3.5000000000000E+01
(PID.TID 0000.0001) %MON dynstat_sss_min              =   3.5000000000000E+01
(PID.TID 0000.0001) %MON dynstat_sss_mean             =   3.5000000000000E+01
(PID.TID 0000.0001) %MON dynstat_sss_sd               =   5.6843418860808E-14
(PID.TID 0000.0001) %MON dynstat_sss_del2             =   0.0000000000000E+00
(PID.TID 0000.0001) %MON forcing_qnet_max             =   0.0000000000000E+00
(PID.TID 0000.0001) %MON forcing_qnet_min             =   0.0000000000000E+00
(PID.TID 0000.0001) %MON forcing_qnet_mean            =   0.0000000000000E+00
(PID.TID 0000.0001) %MON forcing_qnet_sd              =   0.0000000000000E+00
(PID.TID 0000.0001) %MON forcing_qnet_del2            =   0.0000000000000E+00
(PID.TID 0000.0001) %MON forcing_qsw_max              =   0.0000000000000E+00
(PID.TID 0000.0001) %MON forcing_qsw_min              =   0.0000000000000E+00
(PID.TID 0000.0001) %MON forcing_qsw_mean             =   0.0000000000000E+00
(PID.TID 0000.0001) %MON forcing_qsw_sd               =   0.0000000000000E+00
(PID.TID 0000.0001) %MON forcing_qsw_del2             =   0.0000000000000E+00
(PID.TID 0000.0001) %MON forcing_empmr_max            =   0.0000000000000E+00
(PID.TID 0000.0001) %MON forcing_empmr_min            =   0.0000000000000E+00
(PID.TID 0000.0001) %MON forcing_empmr_mean           =   0.0000000000000E+00
(PID.TID 0000.0001) %MON forcing_empmr_sd             =   0.0000000000000E+00
(PID.TID 0000.0001) %MON forcing_empmr_del2           =   0.0000000000000E+00
(PID.TID 0000.0001) %MON forcing_fu_max               =   0.0000000000000E+00
(PID.TID 0000.0001) %MON forcing_fu_min               =   0.0000000000000E+00
(PID.TID 0000.0001) %MON forcing_fu_mean              =   0.0000000000000E+00
(PID.TID 0000.0001) %MON forcing_fu_sd                =   0.0000000000000E+00
(PID.TID 0000.0001) %MON forcing_fu_del2              =   0.0000000000000E+00
(PID.TID 0000.0001) %MON forcing_fv_max               =   0.0000000000000E+00
(PID.TID 0000.0001) %MON forcing_fv_min               =   0.0000000000000E+00
(PID.TID 0000.0001) %MON forcing_fv_mean              =   0.0000000000000E+00
(PID.TID 0000.0001) %MON forcing_fv_sd                =   0.0000000000000E+00
(PID.TID 0000.0001) %MON forcing_fv_del2              =   0.0000000000000E+00
(PID.TID 0000.0001) %MON advcfl_uvel_max              =   1.1848543732697E-01
(PID.TID 0000.0001) %MON advcfl_vvel_max              =   0.0000000000000E+00
(PID.TID 0000.0001) %MON advcfl_wvel_max              =   2.7830654822287E-01
(PID.TID 0000.0001) %MON advcfl_W_hf_max              =   2.8203377819530E-01
(PID.TID 0000.0001) %MON pe_b_mean                    =   3.2757601520759E-06
(PID.TID 0000.0001) %MON ke_max                       =   6.6330338611046E-01
(PID.TID 0000.0001) %MON ke_mean                      =   5.2875821809635E-02
(PID.TID 0000.0001) %MON ke_vol                       =   9.5633499295324E+10
(PID.TID 0000.0001) %MON vort_r_min                   =   0.0000000000000E+00
(PID.TID 0000.0001) %MON vort_r_max                   =   0.0000000000000E+00
(PID.TID 0000.0001) %MON vort_a_mean                  =   0.0000000000000E+00
(PID.TID 0000.0001) %MON vort_a_sd                    =   0.0000000000000E+00
(PID.TID 0000.0001) %MON vort_p_mean                  =   0.0000000000000E+00
(PID.TID 0000.0001) %MON vort_p_sd                    =   0.0000000000000E+00
(PID.TID 0000.0001) %MON surfExpan_theta_mean         =   5.0365060519313E-10
(PID.TID 0000.0001) %MON surfExpan_salt_mean          =  -2.2104130748458E-18
(PID.TID 0000.0001) // =======================================================
(PID.TID 0000.0001) // End MONITOR dynamic field statistics
(PID.TID 0000.0001) // =======================================================
(PID.TID 0000.0001) // =======================================================
(PID.TID 0000.0001) // Begin OBCS MONITOR field statistics
(PID.TID 0000.0001) // =======================================================
(PID.TID 0000.0001) %MON obc_E_uVel_max               =   2.8014282071829E-01
(PID.TID 0000.0001) %MON obc_E_uVel_min               =   2.8014282071829E-01
(PID.TID 0000.0001) %MON obc_E_uVel_mean              =   2.8014282071829E-01
(PID.TID 0000.0001) %MON obc_E_uVel_sd                =   3.7252902984619E-09
(PID.TID 0000.0001) %MON obc_E_uVel_Int               =   2.8014282071829E+05
(PID.TID 0000.0001) %MON obc_W_uVel_max               =   2.8014282071829E-01
(PID.TID 0000.0001) %MON obc_W_uVel_min               =   2.8014282071829E-01
(PID.TID 0000.0001) %MON obc_W_uVel_mean              =   2.8014282071829E-01
(PID.TID 0000.0001) %MON obc_W_uVel_sd                =   3.7252902984619E-09
(PID.TID 0000.0001) %MON obc_W_uVel_Int               =   2.8014282071829E+05
(PID.TID 0000.0001) // =======================================================
(PID.TID 0000.0001) // End OBCS MONITOR field statistics
(PID.TID 0000.0001) // =======================================================
 cg2d: Sum(rhs),rhsMax =  -1.90001347988300E-11  1.51616151668410E-01
 cg2d: Sum(rhs),rhsMax =  -1.89634419278661E-11  1.52323283293825E-01
 cg2d: Sum(rhs),rhsMax =  -1.89849247433926E-11  1.53010862675703E-01
 cg2d: Sum(rhs),rhsMax =  -1.89392390659293E-11  1.53677809364726E-01
 cg2d: Sum(rhs),rhsMax =  -1.89464555155894E-11  1.54322913857098E-01
 cg2d: Sum(rhs),rhsMax =  -1.89366300418214E-11  1.54944835458616E-01
 cg2d: Sum(rhs),rhsMax =  -1.88558613167800E-11  1.55542107485422E-01
 cg2d: Sum(rhs),rhsMax =  -1.88156157321373E-11  1.56113151204263E-01
 cg2d: Sum(rhs),rhsMax =  -1.87741489021676E-11  1.56656299139291E-01
 cg2d: Sum(rhs),rhsMax =  -1.87347914959446E-11  1.57169827499957E-01
 cg2d: Sum(rhs),rhsMax =  -1.86903825749596E-11  1.57651996661079E-01
 cg2d: Sum(rhs),rhsMax =  -1.86580750849430E-11  1.58101097826424E-01
 cg2d: Sum(rhs),rhsMax =  -1.86370363586263E-11  1.58515503347113E-01
 cg2d: Sum(rhs),rhsMax =  -1.86217152808865E-11  1.58893717712761E-01
 cg2d: Sum(rhs),rhsMax =  -1.86232695931210E-11  1.59234426086727E-01
 cg2d: Sum(rhs),rhsMax =  -1.86525239698199E-11  1.59536537125691E-01
 cg2d: Sum(rhs),rhsMax =  -1.86068382923565E-11  1.59799217422096E-01
 cg2d: Sum(rhs),rhsMax =  -1.85284565468180E-11  1.60021915375633E-01
 cg2d: Sum(rhs),rhsMax =  -1.84454118645760E-11  1.60204373022074E-01
 cg2d: Sum(rhs),rhsMax =  -1.83889015126226E-11  1.60346625203533E-01
 cg2d: Sum(rhs),rhsMax =  -1.84026127669767E-11  1.60448986349546E-01
 cg2d: Sum(rhs),rhsMax =  -1.83067450088004E-11  1.60512025978461E-01
 cg2d: Sum(rhs),rhsMax =  -1.82916459756655E-11  1.60536534754920E-01
 cg2d: Sum(rhs),rhsMax =  -1.82809323234778E-11  1.60523483502924E-01
 cg2d: Sum(rhs),rhsMax =  -1.83069670534053E-11  1.60473977879860E-01
 cg2d: Sum(rhs),rhsMax =  -1.83255077779165E-11  1.60389211613674E-01
 cg2d: Sum(rhs),rhsMax =  -1.83457138369647E-11  1.60270421050714E-01
 cg2d: Sum(rhs),rhsMax =  -1.83765225258981E-11  1.60118843430142E-01
 cg2d: Sum(rhs),rhsMax =  -1.84001702763226E-11  1.59935680879841E-01
 cg2d: Sum(rhs),rhsMax =  -1.83872916892369E-11  1.59722071474919E-01
 cg2d: Sum(rhs),rhsMax =  -1.83737469683365E-11  1.59479067984922E-01
 cg2d: Sum(rhs),rhsMax =  -1.83977277856684E-11  1.59207624264247E-01
 cg2d: Sum(rhs),rhsMax =  -1.84266490954599E-11  1.58908588604807E-01
 cg2d: Sum(rhs),rhsMax =  -1.84610104980720E-11  1.58582702626072E-01
 cg2d: Sum(rhs),rhsMax =  -1.84753323750897E-11  1.58230603956489E-01
 cg2d: Sum(rhs),rhsMax =  -1.85263471230712E-11  1.57852830726452E-01
 cg2d: Sum(rhs),rhsMax =  -1.84829929139596E-11  1.57449825878341E-01
 cg2d: Sum(rhs),rhsMax =  -1.85069182201403E-11  1.57021939517302E-01
 cg2d: Sum(rhs),rhsMax =  -1.85291226806328E-11  1.56569427970815E-01
 cg2d: Sum(rhs),rhsMax =  -1.85517157191839E-11  1.56092448860500E-01
 cg2d: Sum(rhs),rhsMax =  -1.85845783207128E-11  1.55591052253369E-01
 cg2d: Sum(rhs),rhsMax =  -1.86606841090509E-11  1.55065168781244E-01
 cg2d: Sum(rhs),rhsMax =  -1.87100335224955E-11  1.54514596313474E-01
 cg2d: Sum(rhs),rhsMax =  -1.87412307894874E-11  1.53938987444399E-01
 cg2d: Sum(rhs),rhsMax =  -1.87732052125966E-11  1.53337840400252E-01
 cg2d: Sum(rhs),rhsMax =  -1.87915238925029E-11  1.52710496014204E-01
 cg2d: Sum(rhs),rhsMax =  -1.88536963818819E-11  1.52056143154836E-01
 cg2d: Sum(rhs),rhsMax =  -1.88987159255305E-11  1.51373834412627E-01
 cg2d: Sum(rhs),rhsMax =  -1.89486204504874E-11  1.50662512996475E-01
 cg2d: Sum(rhs),rhsMax =  -1.89844251430316E-11  1.49921050751059E-01
 cg2d: Sum(rhs),rhsMax =  -1.90334414895688E-11  1.49148296088628E-01
 cg2d: Sum(rhs),rhsMax =  -1.90936155775034E-11  1.48343129555170E-01
 cg2d: Sum(rhs),rhsMax =  -1.91566207341509E-11  1.47504523848142E-01
 cg2d: Sum(rhs),rhsMax =  -1.92144078425827E-11  1.46631604613344E-01
 cg2d: Sum(rhs),rhsMax =  -1.92845184265877E-11  1.45723707882589E-01
 cg2d: Sum(rhs),rhsMax =  -1.93588478580864E-11  1.44780430281267E-01
 cg2d: Sum(rhs),rhsMax =  -1.94426141852944E-11  1.43801668574723E-01
 cg2d: Sum(rhs),rhsMax =  -1.95227722876723E-11  1.42787645945085E-01
 cg2d: Sum(rhs),rhsMax =  -1.95987670537079E-11  1.41738923411591E-01
 cg2d: Sum(rhs),rhsMax =  -1.96789806672371E-11  1.40656395927934E-01
 cg2d: Sum(rhs),rhsMax =  -1.97639682397721E-11  1.39541273795538E-01
 cg2d: Sum(rhs),rhsMax =  -1.98758232095031E-11  1.38395051010883E-01
 cg2d: Sum(rhs),rhsMax =  -2.00133798422542E-11  1.37219462974923E-01
 cg2d: Sum(rhs),rhsMax =  -2.01595407034461E-11  1.36016436419093E-01
 cg2d: Sum(rhs),rhsMax =  -2.03138617038690E-11  1.34788034557405E-01
 cg2d: Sum(rhs),rhsMax =  -2.04455341545895E-11  1.33536400601945E-01
 cg2d: Sum(rhs),rhsMax =  -2.06083483611508E-11  1.32263702330996E-01
 cg2d: Sum(rhs),rhsMax =  -2.07793782180943E-11  1.30972079874473E-01
 cg2d: Sum(rhs),rhsMax =  -2.09489092739545E-11  1.29663598280048E-01
 cg2d: Sum(rhs),rhsMax =  -2.11163864172192E-11  1.28340205808214E-01
 cg2d: Sum(rhs),rhsMax =  -2.13016826400292E-11  1.27003698343503E-01
 cg2d: Sum(rhs),rhsMax =  -2.14934181563819E-11  1.25655689858968E-01
 cg2d: Sum(rhs),rhsMax =  -2.16617834780664E-11  1.24297588571015E-01
 cg2d: Sum(rhs),rhsMax =  -2.18748907876432E-11  1.22930578288642E-01
 cg2d: Sum(rhs),rhsMax =  -2.20950480134263E-11  1.21555604487929E-01
 cg2d: Sum(rhs),rhsMax =  -2.23152607503607E-11  1.20173364801031E-01
 cg2d: Sum(rhs),rhsMax =  -2.25425234035015E-11  1.18784303854803E-01
 cg2d: Sum(rhs),rhsMax =  -2.27670660102319E-11  1.17388612674070E-01
 cg2d: Sum(rhs),rhsMax =  -2.30069296947022E-11  1.15986233122866E-01
 cg2d: Sum(rhs),rhsMax =  -2.32586727655359E-11  1.14576868058809E-01
 cg2d: Sum(rhs),rhsMax =  -2.34940400467565E-11  1.13159997911437E-01
 cg2d: Sum(rhs),rhsMax =  -2.37371233779982E-11  1.11734904364200E-01
 cg2d: Sum(rhs),rhsMax =  -2.39829267556502E-11  1.10300701659605E-01
 cg2d: Sum(rhs),rhsMax =  -2.42543762851710E-11  1.08856375691214E-01
 cg2d: Sum(rhs),rhsMax =  -2.45294895506731E-11  1.07400830593393E-01
 cg2d: Sum(rhs),rhsMax =  -2.48203679831249E-11  1.05932941996173E-01
 cg2d: Sum(rhs),rhsMax =  -2.51090814806787E-11  1.04451615724131E-01
 cg2d: Sum(rhs),rhsMax =  -2.54186116599442E-11  1.02955849879466E-01
 cg2d: Sum(rhs),rhsMax =  -2.57364962674700E-11  1.01444797918962E-01
 cg2d: Sum(rhs),rhsMax =  -2.60647614602760E-11  9.99178299608210E-02
 cg2d: Sum(rhs),rhsMax =  -2.63964128333072E-11  9.83745893299599E-02
 cg2d: Sum(rhs),rhsMax =  -2.67350863669691E-11  9.68150413029784E-02
 cg2d: Sum(rhs),rhsMax =  -2.71247191374613E-11  9.52395111722135E-02
 cg2d: Sum(rhs),rhsMax =  -2.75113543057870E-11  9.36487091201407E-02
 cg2d: Sum(rhs),rhsMax =  -2.79493095334260E-11  9.20437399706998E-02
 cg2d: Sum(rhs),rhsMax =  -2.83713053050860E-11  9.04260966359294E-02
 cg2d: Sum(rhs),rhsMax =  -2.88019053051869E-11  8.87976369622084E-02
 cg2d: Sum(rhs),rhsMax =  -2.93240293158803E-11  8.71605446445099E-02
 cg2d: Sum(rhs),rhsMax =  -2.98791685837685E-11  8.55172758527674E-02
 cg2d: Sum(rhs),rhsMax =  -3.03937985890457E-11  8.38704941284521E-02
 cg2d: Sum(rhs),rhsMax =  -3.09058750813662E-11  8.22229968873660E-02
 cg2d: Sum(rhs),rhsMax =  -3.14351877861441E-11  8.05776374376485E-02
 cg2d: Sum(rhs),rhsMax =  -3.20145368548630E-11  7.89372467341580E-02
 cg2d: Sum(rhs),rhsMax =  -3.26037322140316E-11  7.73045591058651E-02
 cg2d: Sum(rhs),rhsMax =  -3.31999098351909E-11  7.56821459010520E-02
 cg2d: Sum(rhs),rhsMax =  -3.38162002740117E-11  7.40723604132234E-02
 cg2d: Sum(rhs),rhsMax =  -3.44542276653481E-11  7.24772966287962E-02
 cg2d: Sum(rhs),rhsMax =  -3.51122741992782E-11  7.08987633170869E-02
 cg2d: Sum(rhs),rhsMax =  -3.57799137540304E-11  6.93382738679884E-02
 cg2d: Sum(rhs),rhsMax =  -3.64637486871544E-11  6.77970512380811E-02
 cg2d: Sum(rhs),rhsMax =  -3.71980501956415E-11  6.62760463008681E-02
 cg2d: Sum(rhs),rhsMax =  -3.79411085882353E-11  6.47759670515317E-02
 cg2d: Sum(rhs),rhsMax =  -3.87093412879125E-11  6.32973155142346E-02
 cg2d: Sum(rhs),rhsMax =  -3.95821986298728E-11  6.18404288813568E-02
 cg2d: Sum(rhs),rhsMax =  -4.04799804787359E-11  6.04055213934514E-02
 cg2d: Sum(rhs),rhsMax =  -4.14252798730530E-11  5.89927237345299E-02
 cg2d: Sum(rhs),rhsMax =  -4.23801271853819E-11  5.76021172618204E-02
 cg2d: Sum(rhs),rhsMax =  -4.33881264250147E-11  5.62337609835995E-02
 cg2d: Sum(rhs),rhsMax =  -4.43725056697986E-11  5.48877101756484E-02
 cg2d: Sum(rhs),rhsMax =  -4.54152826456777E-11  5.35640263201040E-02
 cg2d: Sum(rhs),rhsMax =  -4.64544513967269E-11  5.22627788630297E-02
 cg2d: Sum(rhs),rhsMax =  -4.75742778505150E-11  5.09840399882997E-02
 cg2d: Sum(rhs),rhsMax =  -4.87192508558110E-11  4.97278741394765E-02
 cg2d: Sum(rhs),rhsMax =  -4.99140728749126E-11  4.84943243624132E-02
 cg2d: Sum(rhs),rhsMax =  -5.11337638897658E-11  4.72833976556834E-02
 cg2d: Sum(rhs),rhsMax =  -5.24144616598221E-11  4.60950514571183E-02
 cg2d: Sum(rhs),rhsMax =  -5.37470068451285E-11  4.49291831141126E-02
 cg2d: Sum(rhs),rhsMax =  -5.50876011473633E-11  4.37856237642500E-02
 cg2d: Sum(rhs),rhsMax =  -5.56763524173221E-11  4.33008249993934E-02
 cg2d: Sum(rhs),rhsMax =  -5.46090950237499E-11  4.40521825998272E-02
 cg2d: Sum(rhs),rhsMax =  -5.36179989296670E-11  4.47875458836079E-02
 cg2d: Sum(rhs),rhsMax =  -5.26770849162972E-11  4.55068361194169E-02
 cg2d: Sum(rhs),rhsMax =  -5.18590725917534E-11  4.62101062108450E-02
 cg2d: Sum(rhs),rhsMax =  -5.09831066253241E-11  4.68975462792678E-02
 cg2d: Sum(rhs),rhsMax =  -5.02186070505672E-11  4.75694790750488E-02
 cg2d: Sum(rhs),rhsMax =  -4.94658758398714E-11  4.82263357066825E-02
 cg2d: Sum(rhs),rhsMax =  -4.87044848895835E-11  4.88686232270975E-02
 cg2d: Sum(rhs),rhsMax =  -4.80283590675867E-11  4.94968852095879E-02
 cg2d: Sum(rhs),rhsMax =  -4.73584504945279E-11  5.01116527072681E-02
 cg2d: Sum(rhs),rhsMax =  -4.67433869388856E-11  5.07133875193185E-02
 cg2d: Sum(rhs),rhsMax =  -4.61709559473888E-11  5.13024176247148E-02
 cg2d: Sum(rhs),rhsMax =  -4.56323867581432E-11  5.18788903860617E-02
 cg2d: Sum(rhs),rhsMax =  -4.51357839992284E-11  5.24427360099598E-02
 cg2d: Sum(rhs),rhsMax =  -4.46052084157600E-11  5.29936408334131E-02
 cg2d: Sum(rhs),rhsMax =  -4.40909531107536E-11  5.35310430977706E-02
 cg2d: Sum(rhs),rhsMax =  -4.36750635657290E-11  5.40541539438884E-02
 cg2d: Sum(rhs),rhsMax =  -4.32052171817077E-11  5.45620013911442E-02
 cg2d: Sum(rhs),rhsMax =  -4.27937685287816E-11  5.50534909368267E-02
 cg2d: Sum(rhs),rhsMax =  -4.23936441507067E-11  5.55274767934432E-02
 cg2d: Sum(rhs),rhsMax =  -4.20771195663860E-11  5.59828276263881E-02
 cg2d: Sum(rhs),rhsMax =  -4.17097467675376E-11  5.64185037373086E-02
 cg2d: Sum(rhs),rhsMax =  -4.14360767919675E-11  5.68336215093528E-02
 cg2d: Sum(rhs),rhsMax =  -4.10917966320312E-11  5.72274987387906E-02
 cg2d: Sum(rhs),rhsMax =  -4.08806322127475E-11  5.75996826708666E-02
 cg2d: Sum(rhs),rhsMax =  -4.05835365313578E-11  5.79499660855868E-02
 cg2d: Sum(rhs),rhsMax =  -4.03432842688289E-11  5.82783872057040E-02
 cg2d: Sum(rhs),rhsMax =  -4.01378930092733E-11  5.85852155516458E-02
 cg2d: Sum(rhs),rhsMax =  -3.99343891288595E-11  5.88709237775755E-02
 cg2d: Sum(rhs),rhsMax =  -3.97719635003568E-11  5.91361527579289E-02
 cg2d: Sum(rhs),rhsMax =  -3.96292998416925E-11  5.93816641197149E-02
 cg2d: Sum(rhs),rhsMax =  -3.95010690823483E-11  5.96082967648225E-02
 cg2d: Sum(rhs),rhsMax =  -3.93387544761481E-11  5.98169210914145E-02
 cg2d: Sum(rhs),rhsMax =  -3.91797705390218E-11  6.00083847182637E-02
 cg2d: Sum(rhs),rhsMax =  -3.90995014143414E-11  6.01834571972680E-02
 cg2d: Sum(rhs),rhsMax =  -3.90396603933141E-11  6.03427796797550E-02
 cg2d: Sum(rhs),rhsMax =  -3.89528409527884E-11  6.04868213693046E-02
 cg2d: Sum(rhs),rhsMax =  -3.88965526454399E-11  6.06158386585574E-02
 cg2d: Sum(rhs),rhsMax =  -3.88216125912777E-11  6.07298387892753E-02
 cg2d: Sum(rhs),rhsMax =  -3.88370446913200E-11  6.08285545595012E-02
 cg2d: Sum(rhs),rhsMax =  -3.88505894122204E-11  6.09114382157521E-02
 cg2d: Sum(rhs),rhsMax =  -3.89691612312504E-11  6.09776640970684E-02
 cg2d: Sum(rhs),rhsMax =  -3.90403265271289E-11  6.10261492500958E-02
 cg2d: Sum(rhs),rhsMax =  -3.91424670453944E-11  6.10556065474133E-02
 cg2d: Sum(rhs),rhsMax =  -3.92105237168039E-11  6.10646103178701E-02
 cg2d: Sum(rhs),rhsMax =  -3.92884613731326E-11  6.10516684412030E-02
 cg2d: Sum(rhs),rhsMax =  -3.94467791764441E-11  6.10153063471873E-02
 cg2d: Sum(rhs),rhsMax =  -3.95227184313285E-11  6.09541633950689E-02
 cg2d: Sum(rhs),rhsMax =  -3.96613852871042E-11  6.08670888639236E-02
 cg2d: Sum(rhs),rhsMax =  -3.97736288348938E-11  6.07532273499597E-02
 cg2d: Sum(rhs),rhsMax =  -3.98659993905426E-11  6.06120859207512E-02
 cg2d: Sum(rhs),rhsMax =  -4.00965927127572E-11  6.04435728836911E-02
 cg2d: Sum(rhs),rhsMax =  -4.02022859447015E-11  6.02480054828822E-02
 cg2d: Sum(rhs),rhsMax =  -4.04694056044264E-11  6.00260899729128E-02
 cg2d: Sum(rhs),rhsMax =  -4.07366362864536E-11  5.97788743295385E-02
 cg2d: Sum(rhs),rhsMax =  -4.08636458004707E-11  5.95076758983046E-02
 cg2d: Sum(rhs),rhsMax =  -4.11489731177994E-11  5.92139889045549E-02
 cg2d: Sum(rhs),rhsMax =  -4.13578060687314E-11  5.88993833142459E-02
 cg2d: Sum(rhs),rhsMax =  -4.17617052050900E-11  5.85654031116214E-02
 cg2d: Sum(rhs),rhsMax =  -4.19878576352062E-11  5.82134716404449E-02
 cg2d: Sum(rhs),rhsMax =  -4.23511226088635E-11  5.78448176687889E-02
 cg2d: Sum(rhs),rhsMax =  -4.26263468966681E-11  5.74604187304860E-02
 cg2d: Sum(rhs),rhsMax =  -4.28965751808619E-11  5.70609665422696E-02
 cg2d: Sum(rhs),rhsMax =  -4.32978097819614E-11  5.66468666011020E-02
 cg2d: Sum(rhs),rhsMax =  -4.36894964650492E-11  5.62182592991617E-02
 cg2d: Sum(rhs),rhsMax =  -4.41290337604983E-11  5.57750591897249E-02
 cg2d: Sum(rhs),rhsMax =  -4.45534720228125E-11  5.53170037307205E-02
 cg2d: Sum(rhs),rhsMax =  -4.49995596341068E-11  5.48437078801487E-02
 cg2d: Sum(rhs),rhsMax =  -4.55301352175752E-11  5.43547173082739E-02
 cg2d: Sum(rhs),rhsMax =  -4.60450566563964E-11  5.38495575311976E-02
 cg2d: Sum(rhs),rhsMax =  -4.65401051030767E-11  5.33277717799665E-02
 cg2d: Sum(rhs),rhsMax =  -4.70919969686179E-11  5.27889403574348E-02
 cg2d: Sum(rhs),rhsMax =  -4.76348960276596E-11  5.22326996005054E-02
 cg2d: Sum(rhs),rhsMax =  -4.82384132638458E-11  5.16587538348912E-02
 cg2d: Sum(rhs),rhsMax =  -4.88400431208902E-11  5.10668838542068E-02
 cg2d: Sum(rhs),rhsMax =  -4.94375651527434E-11  5.04569519432075E-02
 cg2d: Sum(rhs),rhsMax =  -5.01209074244002E-11  4.98289053058334E-02
 cg2d: Sum(rhs),rhsMax =  -5.08018072054028E-11  4.91827751696997E-02
 cg2d: Sum(rhs),rhsMax =  -5.15407716505933E-11  4.85186925992185E-02
 cg2d: Sum(rhs),rhsMax =  -5.23496801463352E-11  4.78368871923421E-02
 cg2d: Sum(rhs),rhsMax =  -5.31509281032072E-11  4.71376962600142E-02
 cg2d: Sum(rhs),rhsMax =  -5.39954747580396E-11  4.64215704076251E-02
 cg2d: Sum(rhs),rhsMax =  -5.49419398865325E-11  4.56890730107681E-02
 cg2d: Sum(rhs),rhsMax =  -5.59630120022803E-11  4.49408567395033E-02
 cg2d: Sum(rhs),rhsMax =  -5.69907454561758E-11  4.41776331348478E-02
 cg2d: Sum(rhs),rhsMax =  -5.80404613259589E-11  4.34001262562016E-02
 cg2d: Sum(rhs),rhsMax =  -5.91789950377120E-11  4.26090864572234E-02
 cg2d: Sum(rhs),rhsMax =  -6.03275207566867E-11  4.18052303087992E-02
 cg2d: Sum(rhs),rhsMax =  -5.95558047322697E-11  4.23729340227451E-02
 cg2d: Sum(rhs),rhsMax =  -5.79164494141082E-11  4.36041033040466E-02
 cg2d: Sum(rhs),rhsMax =  -5.63458169011710E-11  4.48584229416095E-02
 cg2d: Sum(rhs),rhsMax =  -5.49003620342603E-11  4.61341554563078E-02
 cg2d: Sum(rhs),rhsMax =  -5.34675637098303E-11  4.74295631386412E-02
 cg2d: Sum(rhs),rhsMax =  -5.21246934503949E-11  4.87429550112730E-02
 cg2d: Sum(rhs),rhsMax =  -5.08214581529387E-11  5.00727256026737E-02
 cg2d: Sum(rhs),rhsMax =  -4.95836149916329E-11  5.14173839884511E-02
 cg2d: Sum(rhs),rhsMax =  -4.83370565795838E-11  5.27755724000370E-02
 cg2d: Sum(rhs),rhsMax =  -4.72198391499035E-11  5.41460745065984E-02
 cg2d: Sum(rhs),rhsMax =  -4.61343740987274E-11  5.55278141764876E-02
 cg2d: Sum(rhs),rhsMax =  -4.51102766252376E-11  5.69198460701264E-02
 cg2d: Sum(rhs),rhsMax =  -4.40759095887699E-11  5.83213397760682E-02
 cg2d: Sum(rhs),rhsMax =  -4.30989410826754E-11  5.97315593855407E-02
 cg2d: Sum(rhs),rhsMax =  -4.21591372923302E-11  6.11498404594837E-02
 cg2d: Sum(rhs),rhsMax =  -4.12492262569231E-11  6.25755661532823E-02
 cg2d: Sum(rhs),rhsMax =  -4.03626299050330E-11  6.40081441015462E-02
 cg2d: Sum(rhs),rhsMax =  -3.95252580664973E-11  6.54469854248204E-02
 cg2d: Sum(rhs),rhsMax =  -3.87212761854272E-11  6.68914869754651E-02
 cg2d: Sum(rhs),rhsMax =  -3.79617171031299E-11  6.83410176988078E-02
 cg2d: Sum(rhs),rhsMax =  -3.72197064835156E-11  6.97949098228096E-02
 cg2d: Sum(rhs),rhsMax =  -3.65081957720559E-11  7.12524551733933E-02
 cg2d: Sum(rhs),rhsMax =  -3.58327690436200E-11  7.27129070278522E-02
 cg2d: Sum(rhs),rhsMax =  -3.51817351293415E-11  7.41754875834740E-02
 cg2d: Sum(rhs),rhsMax =  -3.45657703848534E-11  7.56394008810462E-02
 cg2d: Sum(rhs),rhsMax =  -3.39362496437623E-11  7.71038507584102E-02
 cg2d: Sum(rhs),rhsMax =  -3.33417529696511E-11  7.85680631162919E-02
 cg2d: Sum(rhs),rhsMax =  -3.27920746112653E-11  8.00313114578846E-02
 cg2d: Sum(rhs),rhsMax =  -3.22624427173679E-11  8.14929443328196E-02
 cg2d: Sum(rhs),rhsMax =  -3.17462445220684E-11  8.29524130071721E-02
 cg2d: Sum(rhs),rhsMax =  -3.12650322298325E-11  8.44092974308438E-02
 cg2d: Sum(rhs),rhsMax =  -3.07888159412073E-11  8.58633284183156E-02
 cg2d: Sum(rhs),rhsMax =  -3.03347347241356E-11  8.73144039290476E-02
 cg2d: Sum(rhs),rhsMax =  -2.99943403447855E-11  8.87625974506870E-02
 cg2d: Sum(rhs),rhsMax =  -2.95774238434632E-11  9.02081567610607E-02
 cg2d: Sum(rhs),rhsMax =  -2.91506818683729E-11  9.16514917706689E-02
 cg2d: Sum(rhs),rhsMax =  -2.87214418914772E-11  9.30931507114747E-02
 cg2d: Sum(rhs),rhsMax =  -2.82944223606307E-11  9.45337846150742E-02
 cg2d: Sum(rhs),rhsMax =  -2.79239131817377E-11  9.59741007794098E-02
 cg2d: Sum(rhs),rhsMax =  -2.75513500902491E-11  9.74148067154974E-02
 cg2d: Sum(rhs),rhsMax =  -2.71877798052600E-11  9.88565468450568E-02
 cg2d: Sum(rhs),rhsMax =  -2.68171873596401E-11  1.00299834932756E-01
 cg2d: Sum(rhs),rhsMax =  -2.64604727018281E-11  1.01744985814562E-01
 cg2d: Sum(rhs),rhsMax =  -2.61322630201732E-11  1.03192050446085E-01
 cg2d: Sum(rhs),rhsMax =  -2.58282839560309E-11  1.04640758432153E-01
 cg2d: Sum(rhs),rhsMax =  -2.55211962674196E-11  1.06090472129336E-01
 cg2d: Sum(rhs),rhsMax =  -2.52194931604777E-11  1.07540156067864E-01
 cg2d: Sum(rhs),rhsMax =  -2.49248399697422E-11  1.08988364783919E-01
 cg2d: Sum(rhs),rhsMax =  -2.46306863793677E-11  1.10433251219194E-01
 cg2d: Sum(rhs),rhsMax =  -2.43232101126978E-11  1.11872596675338E-01
 cg2d: Sum(rhs),rhsMax =  -2.40463204903563E-11  1.13303861962068E-01
 cg2d: Sum(rhs),rhsMax =  -2.37885267040383E-11  1.14724258017613E-01
 cg2d: Sum(rhs),rhsMax =  -2.35232944234554E-11  1.16130832838482E-01
 cg2d: Sum(rhs),rhsMax =  -2.32807662037260E-11  1.17520570348991E-01
 cg2d: Sum(rhs),rhsMax =  -2.30301888670681E-11  1.18890495873142E-01
 cg2d: Sum(rhs),rhsMax =  -2.27952656750574E-11  1.20237782247884E-01
 cg2d: Sum(rhs),rhsMax =  -2.25719443136541E-11  1.21559850410017E-01
 cg2d: Sum(rhs),rhsMax =  -2.23520646436270E-11  1.22854458533896E-01
 cg2d: Sum(rhs),rhsMax =  -2.22037388475371E-11  1.24119774489417E-01
 cg2d: Sum(rhs),rhsMax =  -2.20438667319911E-11  1.25354427487266E-01
 cg2d: Sum(rhs),rhsMax =  -2.19229079334582E-11  1.26557536180174E-01
 cg2d: Sum(rhs),rhsMax =  -2.17583728812087E-11  1.27728712097616E-01
 cg2d: Sum(rhs),rhsMax =  -2.16427431531940E-11  1.28868038993930E-01
 cg2d: Sum(rhs),rhsMax =  -2.15188422636459E-11  1.29976030268457E-01
 cg2d: Sum(rhs),rhsMax =  -2.14095963180227E-11  1.31053568002713E-01
 cg2d: Sum(rhs),rhsMax =  -2.12749262651357E-11  1.32101828224652E-01
 cg2d: Sum(rhs),rhsMax =  -2.11750617040707E-11  1.33122197675536E-01
 cg2d: Sum(rhs),rhsMax =  -2.10845785275637E-11  1.34116187583248E-01
 cg2d: Sum(rhs),rhsMax =  -2.10074180273523E-11  1.35085349742705E-01
 cg2d: Sum(rhs),rhsMax =  -2.09098294234877E-11  1.36031199614336E-01
 cg2d: Sum(rhs),rhsMax =  -2.08334460793935E-11  1.36955150247831E-01
 cg2d: Sum(rhs),rhsMax =  -2.07321382283965E-11  1.37858459742619E-01
 cg2d: Sum(rhs),rhsMax =  -2.06564765292683E-11  1.38742193720453E-01
 cg2d: Sum(rhs),rhsMax =  -2.05614414383604E-11  1.39607203083570E-01
 cg2d: Sum(rhs),rhsMax =  -2.04590788754899E-11  1.40454116232081E-01
 cg2d: Sum(rhs),rhsMax =  -2.03515537755550E-11  1.41283343997720E-01
 cg2d: Sum(rhs),rhsMax =  -2.02425853856880E-11  1.42095094883401E-01
 cg2d: Sum(rhs),rhsMax =  -2.01676453315258E-11  1.42889397788864E-01
 cg2d: Sum(rhs),rhsMax =  -2.01113015130261E-11  1.43666129258426E-01
 cg2d: Sum(rhs),rhsMax =  -2.00461869326318E-11  1.44425042468889E-01
 cg2d: Sum(rhs),rhsMax =  -2.00000571659587E-11  1.45165795480509E-01
 cg2d: Sum(rhs),rhsMax =  -1.99375516096723E-11  1.45887976767466E-01
 cg2d: Sum(rhs),rhsMax =  -1.98888128188912E-11  1.46591126634173E-01
 cg2d: Sum(rhs),rhsMax =  -1.98152050323586E-11  1.47274753748794E-01
 cg2d: Sum(rhs),rhsMax =  -1.97790117617558E-11  1.47938346627400E-01
 cg2d: Sum(rhs),rhsMax =  -1.97353244857368E-11  1.48581380432148E-01
 cg2d: Sum(rhs),rhsMax =  -1.96692107046204E-11  1.49203319865152E-01
 cg2d: Sum(rhs),rhsMax =  -1.96262450735674E-11  1.49803619238555E-01
 cg2d: Sum(rhs),rhsMax =  -1.95626292942563E-11  1.50381720930226E-01
 cg2d: Sum(rhs),rhsMax =  -1.95367055866313E-11  1.50937053460824E-01
 cg2d: Sum(rhs),rhsMax =  -1.95031768512877E-11  1.51469030380296E-01
 cg2d: Sum(rhs),rhsMax =  -1.94577132184293E-11  1.51977050820405E-01
 cg2d: Sum(rhs),rhsMax =  -1.94679827814070E-11  1.52460502357356E-01
 cg2d: Sum(rhs),rhsMax =  -1.94377292039860E-11  1.52918766500550E-01
 cg2d: Sum(rhs),rhsMax =  -1.94160798550058E-11  1.53351226775631E-01
 cg2d: Sum(rhs),rhsMax =  -1.93770555156902E-11  1.53757279051889E-01
 cg2d: Sum(rhs),rhsMax =  -1.93434712691953E-11  1.54136343477187E-01
 cg2d: Sum(rhs),rhsMax =  -1.93067783982315E-11  1.54487877066225E-01
 cg2d: Sum(rhs),rhsMax =  -1.92693638823016E-11  1.54811386053534E-01
 cg2d: Sum(rhs),rhsMax =  -1.92434401746766E-11  1.55106436979546E-01
 cg2d: Sum(rhs),rhsMax =  -1.92359461692604E-11  1.55372665530585E-01
 cg2d: Sum(rhs),rhsMax =  -1.92200699800082E-11  1.55609782292001E-01
 cg2d: Sum(rhs),rhsMax =  -1.90592541748913E-11  1.55817574784773E-01
 cg2d: Sum(rhs),rhsMax =  -1.89594451249775E-11  1.55995905419782E-01
 cg2d: Sum(rhs),rhsMax =  -1.88958293456665E-11  1.56144705302572E-01
 cg2d: Sum(rhs),rhsMax =  -1.88780102661212E-11  1.56263964124043E-01
 cg2d: Sum(rhs),rhsMax =  -1.88425386404845E-11  1.56353716652376E-01
 cg2d: Sum(rhs),rhsMax =  -1.87946325169719E-11  1.56414026648299E-01
 cg2d: Sum(rhs),rhsMax =  -1.87111437455201E-11  1.56444969211825E-01
 cg2d: Sum(rhs),rhsMax =  -1.86728410511705E-11  1.56446612712723E-01
 cg2d: Sum(rhs),rhsMax =  -1.86375359589874E-11  1.56419001520956E-01
 cg2d: Sum(rhs),rhsMax =  -1.86153870096462E-11  1.56362140731736E-01
 cg2d: Sum(rhs),rhsMax =  -1.85423898457771E-11  1.56275983962108E-01
 cg2d: Sum(rhs),rhsMax =  -1.85135240471368E-11  1.56160425012367E-01
 cg2d: Sum(rhs),rhsMax =  -1.83741355463951E-11  1.56015294183287E-01
 cg2d: Sum(rhs),rhsMax =  -1.82330817111165E-11  1.55840359391054E-01
 cg2d: Sum(rhs),rhsMax =  -1.81845649649404E-11  1.55635332018100E-01
 cg2d: Sum(rhs),rhsMax =  -1.81591408576764E-11  1.55399877097367E-01
 cg2d: Sum(rhs),rhsMax =  -1.81796799836320E-11  1.55133627112516E-01
 cg2d: Sum(rhs),rhsMax =  -1.81986647973531E-11  1.54836198432946E-01
 cg2d: Sum(rhs),rhsMax =  -1.81879511451655E-11  1.54507209217049E-01
 cg2d: Sum(rhs),rhsMax =  -1.82042159124762E-11  1.54146297528296E-01
 cg2d: Sum(rhs),rhsMax =  -1.82351911348633E-11  1.53753138425129E-01
 cg2d: Sum(rhs),rhsMax =  -1.82600046194636E-11  1.53327458905870E-01
 cg2d: Sum(rhs),rhsMax =  -1.82753256972035E-11  1.52869049806825E-01
 cg2d: Sum(rhs),rhsMax =  -1.83302262257712E-11  1.52377774040080E-01
 cg2d: Sum(rhs),rhsMax =  -1.83810189291478E-11  1.51853570857272E-01
 cg2d: Sum(rhs),rhsMax =  -1.84242621159569E-11  1.51296456264171E-01
 cg2d: Sum(rhs),rhsMax =  -1.84685045034882E-11  1.50706520004529E-01
 cg2d: Sum(rhs),rhsMax =  -1.85891302351138E-11  1.50083919833783E-01
 cg2d: Sum(rhs),rhsMax =  -1.86714532723897E-11  1.49428874040142E-01
 cg2d: Sum(rhs),rhsMax =  -1.87512783078603E-11  1.48741653319896E-01
 cg2d: Sum(rhs),rhsMax =  -1.88344895235559E-11  1.48022573161552E-01
 cg2d: Sum(rhs),rhsMax =  -1.89195326072422E-11  1.47271987836944E-01
 cg2d: Sum(rhs),rhsMax =  -1.90021887114256E-11  1.46490286943730E-01
 cg2d: Sum(rhs),rhsMax =  -1.91394677884205E-11  1.45677895206981E-01
 cg2d: Sum(rhs),rhsMax =  -1.91887061795626E-11  1.44835275947292E-01
 cg2d: Sum(rhs),rhsMax =  -1.92389437714269E-11  1.43962938227279E-01
 cg2d: Sum(rhs),rhsMax =  -1.93632887501849E-11  1.43061447546200E-01
 cg2d: Sum(rhs),rhsMax =  -1.95239935329994E-11  1.42131439311631E-01
 cg2d: Sum(rhs),rhsMax =  -1.95921057155601E-11  1.41173634131023E-01
 cg2d: Sum(rhs),rhsMax =  -1.97165617166206E-11  1.40188853730407E-01
 cg2d: Sum(rhs),rhsMax =  -1.98656091576765E-11  1.39178036065938E-01
 cg2d: Sum(rhs),rhsMax =  -2.00016114781931E-11  1.38142248104281E-01
 cg2d: Sum(rhs),rhsMax =  -2.00984784370917E-11  1.37082694727060E-01
 cg2d: Sum(rhs),rhsMax =  -2.01901828589257E-11  1.36000722294199E-01
 cg2d: Sum(rhs),rhsMax =  -2.02786121228371E-11  1.34897815582588E-01
 cg2d: Sum(rhs),rhsMax =  -2.03673744536559E-11  1.33775587133393E-01
 cg2d: Sum(rhs),rhsMax =  -2.04650185686717E-11  1.32635758301806E-01
 cg2d: Sum(rhs),rhsMax =  -2.05274686138068E-11  1.31480131781650E-01
 cg2d: Sum(rhs),rhsMax =  -2.06266670410571E-11  1.30310555986975E-01
 cg2d: Sum(rhs),rhsMax =  -2.07746597702396E-11  1.29128882114521E-01
 cg2d: Sum(rhs),rhsMax =  -2.08615347219165E-11  1.27936915207249E-01
 cg2d: Sum(rhs),rhsMax =  -2.10336192907334E-11  1.26736361030200E-01
 cg2d: Sum(rhs),rhsMax =  -2.12155293333183E-11  1.25528770999960E-01
 cg2d: Sum(rhs),rhsMax =  -2.13872253240766E-11  1.24315487739939E-01
 cg2d: Sum(rhs),rhsMax =  -2.15408246795334E-11  1.23097594034124E-01
 cg2d: Sum(rhs),rhsMax =  -2.17332818408522E-11  1.21875867999579E-01
 cg2d: Sum(rhs),rhsMax =  -2.19097517906164E-11  1.20650747179955E-01
 cg2d: Sum(rhs),rhsMax =  -2.20866658295904E-11  1.19422303976131E-01
 cg2d: Sum(rhs),rhsMax =  -2.22911133995751E-11  1.18190234384366E-01
 cg2d: Sum(rhs),rhsMax =  -2.24973373263992E-11  1.16953861435683E-01
 cg2d: Sum(rhs),rhsMax =  -2.26902940880791E-11  1.15712154018970E-01
 cg2d: Sum(rhs),rhsMax =  -2.28942420577027E-11  1.14463760976800E-01
 cg2d: Sum(rhs),rhsMax =  -2.30976349158141E-11  1.13207059655197E-01
 cg2d: Sum(rhs),rhsMax =  -2.33032482199746E-11  1.11940217273550E-01
 cg2d: Sum(rhs),rhsMax =  -2.35310659846277E-11  1.10661262785185E-01
 cg2d: Sum(rhs),rhsMax =  -2.37589670160077E-11  1.09368166315546E-01
 cg2d: Sum(rhs),rhsMax =  -2.39908648502762E-11  1.08058922832539E-01
 cg2d: Sum(rhs),rhsMax =  -2.42320885579517E-11  1.06731636444311E-01
 cg2d: Sum(rhs),rhsMax =  -2.44980424835006E-11  1.05384601649067E-01
 cg2d: Sum(rhs),rhsMax =  -2.47685205678749E-11  1.04016377955671E-01
 cg2d: Sum(rhs),rhsMax =  -2.50411635871473E-11  1.02625854723555E-01
 cg2d: Sum(rhs),rhsMax =  -2.53281284834372E-11  1.01212303474960E-01
 cg2d: Sum(rhs),rhsMax =  -2.56201726500649E-11  9.97754155509917E-02
 cg2d: Sum(rhs),rhsMax =  -2.59280097392178E-11  9.83153238170889E-02
 cg2d: Sum(rhs),rhsMax =  -2.62478094814611E-11  9.68326079625299E-02
 cg2d: Sum(rhs),rhsMax =  -2.65755750739061E-11  9.53282837912348E-02
 cg2d: Sum(rhs),rhsMax =  -2.69544386810594E-11  9.38037777176460E-02
 cg2d: Sum(rhs),rhsMax =  -2.73304573417121E-11  9.22608884136388E-02
 cg2d: Sum(rhs),rhsMax =  -2.77475542542760E-11  9.07017381537273E-02
 cg2d: Sum(rhs),rhsMax =  -2.81701328930239E-11  8.91287168356044E-02
 cg2d: Sum(rhs),rhsMax =  -2.86216605971390E-11  8.75444218805609E-02
 cg2d: Sum(rhs),rhsMax =  -2.91070223479295E-11  8.59515972264653E-02
 cg2d: Sum(rhs),rhsMax =  -2.96146232536820E-11  8.43530744137229E-02
 cg2d: Sum(rhs),rhsMax =  -3.01351513187775E-11  8.27517183483704E-02
 cg2d: Sum(rhs),rhsMax =  -3.06640893232846E-11  8.11503797396233E-02
 cg2d: Sum(rhs),rhsMax =  -3.12767207966136E-11  7.95518555002529E-02
 cg2d: Sum(rhs),rhsMax =  -3.19192187871881E-11  7.79588576268476E-02
 cg2d: Sum(rhs),rhsMax =  -3.25046031757203E-11  7.63739903094899E-02
 cg2d: Sum(rhs),rhsMax =  -3.31131233544113E-11  7.47997343232714E-02
 cg2d: Sum(rhs),rhsMax =  -3.37350355983368E-11  7.32384371885919E-02
 cg2d: Sum(rhs),rhsMax =  -3.44011624742180E-11  7.16923072035182E-02
 cg2d: Sum(rhs),rhsMax =  -3.50880019484023E-11  7.01634092842349E-02
 cg2d: Sum(rhs),rhsMax =  -3.57831264619080E-11  6.86536606144831E-02
 cg2d: Sum(rhs),rhsMax =  -3.64917124295872E-11  6.71648243990144E-02
 cg2d: Sum(rhs),rhsMax =  -3.72226138800613E-11  6.56985005130194E-02
 cg2d: Sum(rhs),rhsMax =  -3.79536402306258E-11  6.42561124409655E-02
 cg2d: Sum(rhs),rhsMax =  -3.87172793825385E-11  6.28388907238833E-02
 cg2d: Sum(rhs),rhsMax =  -3.95079802206766E-11  6.14478538357094E-02
 cg2d: Sum(rhs),rhsMax =  -4.03116151570515E-11  6.00837880997285E-02
 cg2d: Sum(rhs),rhsMax =  -4.11561895674595E-11  5.87472288074048E-02
 cg2d: Sum(rhs),rhsMax =  -4.20526946598443E-11  5.74384450417576E-02
 cg2d: Sum(rhs),rhsMax =  -4.29901114706865E-11  5.61574308110055E-02
 cg2d: Sum(rhs),rhsMax =  -4.39635550186779E-11  5.49039047670770E-02
 cg2d: Sum(rhs),rhsMax =  -4.49189019313678E-11  5.36773204269333E-02
 cg2d: Sum(rhs),rhsMax =  -4.58690863069933E-11  5.24768879943252E-02
 cg2d: Sum(rhs),rhsMax =  -4.68453609236974E-11  5.13016079311496E-02
 cg2d: Sum(rhs),rhsMax =  -4.78730943775929E-11  5.01503153901122E-02
 cg2d: Sum(rhs),rhsMax =  -4.89219220689563E-11  4.90217335952615E-02
 cg2d: Sum(rhs),rhsMax =  -5.00117725010796E-11  4.79145333511903E-02
 cg2d: Sum(rhs),rhsMax =  -5.10994579983048E-11  4.68273951751615E-02
 cg2d: Sum(rhs),rhsMax =  -5.21911402984188E-11  4.57590701598348E-02
 cg2d: Sum(rhs),rhsMax =  -5.33254551626783E-11  4.47084356388746E-02
 cg2d: Sum(rhs),rhsMax =  -5.24813525970558E-11  4.53456109416811E-02
 cg2d: Sum(rhs),rhsMax =  -5.16122700133792E-11  4.60595706899828E-02
 cg2d: Sum(rhs),rhsMax =  -5.07605069088868E-11  4.67583501635156E-02
 cg2d: Sum(rhs),rhsMax =  -4.99918995089388E-11  4.74413573081089E-02
 cg2d: Sum(rhs),rhsMax =  -4.92733631674014E-11  4.81081565195007E-02
 cg2d: Sum(rhs),rhsMax =  -4.84809969947264E-11  4.87584158735959E-02
 cg2d: Sum(rhs),rhsMax =  -4.78260764325000E-11  4.93921458952980E-02
 cg2d: Sum(rhs),rhsMax =  -4.72502037496270E-11  5.00094299419118E-02
 cg2d: Sum(rhs),rhsMax =  -4.65514293779279E-11  5.06104968240162E-02
 cg2d: Sum(rhs),rhsMax =  -4.60022020476458E-11  5.11957031295186E-02
 cg2d: Sum(rhs),rhsMax =  -4.54324355914082E-11  5.17654994903365E-02
 cg2d: Sum(rhs),rhsMax =  -4.48631132243804E-11  5.23203842553903E-02
 cg2d: Sum(rhs),rhsMax =  -4.43310943509800E-11  5.28608520531533E-02
 cg2d: Sum(rhs),rhsMax =  -4.38714620187852E-11  5.33873397556848E-02
 cg2d: Sum(rhs),rhsMax =  -4.34089431067264E-11  5.39001704726624E-02
 cg2d: Sum(rhs),rhsMax =  -4.30143698437746E-11  5.43994419229620E-02
 cg2d: Sum(rhs),rhsMax =  -4.26051416368978E-11  5.48852135576417E-02
 cg2d: Sum(rhs),rhsMax =  -4.21891410695707E-11  5.53572327666499E-02
 cg2d: Sum(rhs),rhsMax =  -4.17741397029658E-11  5.58150135597322E-02
 cg2d: Sum(rhs),rhsMax =  -4.13891143580258E-11  5.62578746604861E-02
 cg2d: Sum(rhs),rhsMax =  -4.10694811492363E-11  5.66849851835344E-02
 cg2d: Sum(rhs),rhsMax =  -4.06492617344156E-11  5.70954175101778E-02
 cg2d: Sum(rhs),rhsMax =  -4.03359567968664E-11  5.74882086431064E-02
 cg2d: Sum(rhs),rhsMax =  -4.01050304077444E-11  5.78624316969260E-02
 cg2d: Sum(rhs),rhsMax =  -3.97774035931775E-11  5.82172689814999E-02
 cg2d: Sum(rhs),rhsMax =  -3.95184995838349E-11  5.85520747578460E-02
 cg2d: Sum(rhs),rhsMax =  -3.92857968378735E-11  5.88663612299591E-02
 cg2d: Sum(rhs),rhsMax =  -3.90800725114104E-11  5.91600396354900E-02
 cg2d: Sum(rhs),rhsMax =  -3.89172027936979E-11  5.94331863192065E-02
 cg2d: Sum(rhs),rhsMax =  -3.86459753087820E-11  5.96860957263948E-02
 cg2d: Sum(rhs),rhsMax =  -3.84914322637542E-11  5.99192600048941E-02
 cg2d: Sum(rhs),rhsMax =  -3.83322262820229E-11  6.01333245563000E-02
 cg2d: Sum(rhs),rhsMax =  -3.81432663232317E-11  6.03290253856039E-02
 cg2d: Sum(rhs),rhsMax =  -3.79757336688158E-11  6.05071164824368E-02
 cg2d: Sum(rhs),rhsMax =  -3.78342912554785E-11  6.06682974522815E-02
 cg2d: Sum(rhs),rhsMax =  -3.77204933954545E-11  6.08131550631242E-02
 cg2d: Sum(rhs),rhsMax =  -3.76286779513180E-11  6.09421179285991E-02
 cg2d: Sum(rhs),rhsMax =  -3.74591468954577E-11  6.10554267301886E-02
 cg2d: Sum(rhs),rhsMax =  -3.73495678829272E-11  6.11531189171035E-02
 cg2d: Sum(rhs),rhsMax =  -3.73298059130889E-11  6.12350269774673E-02
 cg2d: Sum(rhs),rhsMax =  -3.72483155430814E-11  6.13007920597387E-02
 cg2d: Sum(rhs),rhsMax =  -3.71599417903212E-11  6.13498866738337E-02
 cg2d: Sum(rhs),rhsMax =  -3.71648267716296E-11  6.13816532387592E-02
 cg2d: Sum(rhs),rhsMax =  -3.71446207125814E-11  6.13953489466075E-02
 cg2d: Sum(rhs),rhsMax =  -3.71351838168721E-11  6.13965887635672E-02
 cg2d: Sum(rhs),rhsMax =  -3.72281094840332E-11  6.13786339646248E-02
 cg2d: Sum(rhs),rhsMax =  -3.72515351898528E-11  6.13401236166715E-02
 cg2d: Sum(rhs),rhsMax =  -3.72544217697168E-11  6.12802853853787E-02
 cg2d: Sum(rhs),rhsMax =  -3.73400199649154E-11  6.11984543461057E-02
(PID.TID 0000.0001)      cg2d_init_res =   2.73682228569490E-02
(PID.TID 0000.0001)      cg2d_iters(min,last) =      -1      36
(PID.TID 0000.0001)      cg2d_last_res =   6.55750625762157E-14
(PID.TID 0000.0001) // =======================================================
(PID.TID 0000.0001) // Begin MONITOR dynamic field statistics
(PID.TID 0000.0001) // =======================================================
(PID.TID 0000.0001) %MON time_tsnumber                =                  7200
(PID.TID 0000.0001) %MON time_secondsf                =   1.0800000000000E+05
(PID.TID 0000.0001) %MON dynstat_eta_max              =   1.4470678943053E-02
(PID.TID 0000.0001) %MON dynstat_eta_min              =  -1.5207222342106E-02
(PID.TID 0000.0001) %MON dynstat_eta_mean             =   4.8518417764312E-15
(PID.TID 0000.0001) %MON dynstat_eta_sd               =   1.0440063800476E-02
(PID.TID 0000.0001) %MON dynstat_eta_del2             =   2.5010869437922E-05
(PID.TID 0000.0001) %MON dynstat_uvel_max             =   1.4668515346743E+00
(PID.TID 0000.0001) %MON dynstat_uvel_min             =  -1.0407694146062E+00
(PID.TID 0000.0001) %MON dynstat_uvel_mean            =   2.8614825476587E-01
(PID.TID 0000.0001) %MON dynstat_uvel_sd              =   1.5793294033381E-01
(PID.TID 0000.0001) %MON dynstat_uvel_del2            =   7.9661886878562E-04
(PID.TID 0000.0001) %MON dynstat_vvel_max             =   0.0000000000000E+00
(PID.TID 0000.0001) %MON dynstat_vvel_min             =   0.0000000000000E+00
(PID.TID 0000.0001) %MON dynstat_vvel_mean            =   0.0000000000000E+00
(PID.TID 0000.0001) %MON dynstat_vvel_sd              =   0.0000000000000E+00
(PID.TID 0000.0001) %MON dynstat_vvel_del2            =   0.0000000000000E+00
(PID.TID 0000.0001) %MON dynstat_wvel_max             =   3.8181860684963E-02
(PID.TID 0000.0001) %MON dynstat_wvel_min             =  -3.2980126570955E-02
(PID.TID 0000.0001) %MON dynstat_wvel_mean            =   2.4585422348427E-20
(PID.TID 0000.0001) %MON dynstat_wvel_sd              =   2.3874860059321E-03
(PID.TID 0000.0001) %MON dynstat_wvel_del2            =   7.2239280893126E-05
(PID.TID 0000.0001) %MON dynstat_theta_max            =   1.5000000000008E+01
(PID.TID 0000.0001) %MON dynstat_theta_min            =   9.9999999999911E+00
(PID.TID 0000.0001) %MON dynstat_theta_mean           =   1.2407074869695E+01
(PID.TID 0000.0001) %MON dynstat_theta_sd             =   2.3675745469842E+00
(PID.TID 0000.0001) %MON dynstat_theta_del2           =   1.4372039608504E-03
(PID.TID 0000.0001) %MON dynstat_salt_max             =   3.5000000000000E+01
(PID.TID 0000.0001) %MON dynstat_salt_min             =   3.5000000000000E+01
(PID.TID 0000.0001) %MON dynstat_salt_mean            =   3.5000000000000E+01
(PID.TID 0000.0001) %MON dynstat_salt_sd              =   3.1974423109205E-13
(PID.TID 0000.0001) %MON dynstat_salt_del2            =   0.0000000000000E+00
(PID.TID 0000.0001) %MON dynstat_sst_max              =   1.5000000000000E+01
(PID.TID 0000.0001) %MON dynstat_sst_min              =   1.4998369162369E+01
(PID.TID 0000.0001) %MON dynstat_sst_mean             =   1.4999921190147E+01
(PID.TID 0000.0001) %MON dynstat_sst_sd               =   2.8212761181413E-04
(PID.TID 0000.0001) %MON dynstat_sst_del2             =   4.7036455724414E-06
(PID.TID 0000.0001) %MON dynstat_sss_max              =   3.5000000000000E+01
(PID.TID 0000.0001) %MON dynstat_sss_min              =   3.5000000000000E+01
(PID.TID 0000.0001) %MON dynstat_sss_mean             =   3.5000000000000E+01
(PID.TID 0000.0001) %MON dynstat_sss_sd               =   5.6843418860808E-14
(PID.TID 0000.0001) %MON dynstat_sss_del2             =   0.0000000000000E+00
(PID.TID 0000.0001) %MON forcing_qnet_max             =   0.0000000000000E+00
(PID.TID 0000.0001) %MON forcing_qnet_min             =   0.0000000000000E+00
(PID.TID 0000.0001) %MON forcing_qnet_mean            =   0.0000000000000E+00
(PID.TID 0000.0001) %MON forcing_qnet_sd              =   0.0000000000000E+00
(PID.TID 0000.0001) %MON forcing_qnet_del2            =   0.0000000000000E+00
(PID.TID 0000.0001) %MON forcing_qsw_max              =   0.0000000000000E+00
(PID.TID 0000.0001) %MON forcing_qsw_min              =   0.0000000000000E+00
(PID.TID 0000.0001) %MON forcing_qsw_mean             =   0.0000000000000E+00
(PID.TID 0000.0001) %MON forcing_qsw_sd               =   0.0000000000000E+00
(PID.TID 0000.0001) %MON forcing_qsw_del2             =   0.0000000000000E+00
(PID.TID 0000.0001) %MON forcing_empmr_max            =   0.0000000000000E+00
(PID.TID 0000.0001) %MON forcing_empmr_min            =   0.0000000000000E+00
(PID.TID 0000.0001) %MON forcing_empmr_mean           =   0.0000000000000E+00
(PID.TID 0000.0001) %MON forcing_empmr_sd             =   0.0000000000000E+00
(PID.TID 0000.0001) %MON forcing_empmr_del2           =   0.0000000000000E+00
(PID.TID 0000.0001) %MON forcing_fu_max               =   0.0000000000000E+00
(PID.TID 0000.0001) %MON forcing_fu_min               =   0.0000000000000E+00
(PID.TID 0000.0001) %MON forcing_fu_mean              =   0.0000000000000E+00
(PID.TID 0000.0001) %MON forcing_fu_sd                =   0.0000000000000E+00
(PID.TID 0000.0001) %MON forcing_fu_del2              =   0.0000000000000E+00
(PID.TID 0000.0001) %MON forcing_fv_max               =   0.0000000000000E+00
(PID.TID 0000.0001) %MON forcing_fv_min               =   0.0000000000000E+00
(PID.TID 0000.0001) %MON forcing_fv_mean              =   0.0000000000000E+00
(PID.TID 0000.0001) %MON forcing_fv_sd                =   0.0000000000000E+00
(PID.TID 0000.0001) %MON forcing_fv_del2              =   0.0000000000000E+00
(PID.TID 0000.0001) %MON advcfl_uvel_max              =   1.1001386510057E-01
(PID.TID 0000.0001) %MON advcfl_vvel_max              =   0.0000000000000E+00
(PID.TID 0000.0001) %MON advcfl_wvel_max              =   4.2811735813543E-01
(PID.TID 0000.0001) %MON advcfl_W_hf_max              =   4.3385093450705E-01
(PID.TID 0000.0001) %MON pe_b_mean                    =   2.7303147890263E-06
(PID.TID 0000.0001) %MON ke_max                       =   8.0470209093040E-01
(PID.TID 0000.0001) %MON ke_mean                      =   5.3541349508637E-02
(PID.TID 0000.0001) %MON ke_vol                       =   9.5633499295324E+10
(PID.TID 0000.0001) %MON vort_r_min                   =   0.0000000000000E+00
(PID.TID 0000.0001) %MON vort_r_max                   =   0.0000000000000E+00
(PID.TID 0000.0001) %MON vort_a_mean                  =   0.0000000000000E+00
(PID.TID 0000.0001) %MON vort_a_sd                    =   0.0000000000000E+00
(PID.TID 0000.0001) %MON vort_p_mean                  =   0.0000000000000E+00
(PID.TID 0000.0001) %MON vort_p_sd                    =   0.0000000000000E+00
(PID.TID 0000.0001) %MON surfExpan_theta_mean         =   1.2657304941096E-10
(PID.TID 0000.0001) %MON surfExpan_salt_mean          =   1.0160544515271E-18
(PID.TID 0000.0001) // =======================================================
(PID.TID 0000.0001) // End MONITOR dynamic field statistics
(PID.TID 0000.0001) // =======================================================
(PID.TID 0000.0001) // =======================================================
(PID.TID 0000.0001) // Begin OBCS MONITOR field statistics
(PID.TID 0000.0001) // =======================================================
(PID.TID 0000.0001) %MON obc_E_uVel_max               =   2.8014282071829E-01
(PID.TID 0000.0001) %MON obc_E_uVel_min               =   2.8014282071829E-01
(PID.TID 0000.0001) %MON obc_E_uVel_mean              =   2.8014282071829E-01
(PID.TID 0000.0001) %MON obc_E_uVel_sd                =   3.7252902984619E-09
(PID.TID 0000.0001) %MON obc_E_uVel_Int               =   2.8014282071829E+05
(PID.TID 0000.0001) %MON obc_W_uVel_max               =   2.8014282071829E-01
(PID.TID 0000.0001) %MON obc_W_uVel_min               =   2.8014282071829E-01
(PID.TID 0000.0001) %MON obc_W_uVel_mean              =   2.8014282071829E-01
(PID.TID 0000.0001) %MON obc_W_uVel_sd                =   3.7252902984619E-09
(PID.TID 0000.0001) %MON obc_W_uVel_Int               =   2.8014282071829E+05
(PID.TID 0000.0001) // =======================================================
(PID.TID 0000.0001) // End OBCS MONITOR field statistics
(PID.TID 0000.0001) // =======================================================
(PID.TID 0000.0001) %CHECKPOINT      7200 0000007200
(PID.TID 0000.0001)   Seconds in section "ALL                    [THE_MODEL_MAIN]":
(PID.TID 0000.0001)           User time:   269.80000000000001
(PID.TID 0000.0001)         System time:  0.33000000000000002
(PID.TID 0000.0001)     Wall clock time:   270.84883499145508
(PID.TID 0000.0001)          No. starts:           1
(PID.TID 0000.0001)           No. stops:           1
(PID.TID 0000.0001)   Seconds in section "INITIALISE_FIXED       [THE_MODEL_MAIN]":
(PID.TID 0000.0001)           User time:   4.0000000000000001E-002
(PID.TID 0000.0001)         System time:   0.0000000000000000
(PID.TID 0000.0001)     Wall clock time:   6.2073945999145508E-002
(PID.TID 0000.0001)          No. starts:           1
(PID.TID 0000.0001)           No. stops:           1
(PID.TID 0000.0001)   Seconds in section "THE_MAIN_LOOP          [THE_MODEL_MAIN]":
(PID.TID 0000.0001)           User time:   269.75999999999999
(PID.TID 0000.0001)         System time:  0.33000000000000002
(PID.TID 0000.0001)     Wall clock time:   270.78672814369202
(PID.TID 0000.0001)          No. starts:           1
(PID.TID 0000.0001)           No. stops:           1
(PID.TID 0000.0001)   Seconds in section "INITIALISE_VARIA    [THE_MAIN_LOOP]":
(PID.TID 0000.0001)           User time:   1.9999999999999997E-002
(PID.TID 0000.0001)         System time:   0.0000000000000000
(PID.TID 0000.0001)     Wall clock time:   2.8028964996337891E-002
(PID.TID 0000.0001)          No. starts:           1
(PID.TID 0000.0001)           No. stops:           1
(PID.TID 0000.0001)   Seconds in section "MAIN LOOP           [THE_MAIN_LOOP]":
(PID.TID 0000.0001)           User time:   269.74000000000001
(PID.TID 0000.0001)         System time:  0.33000000000000002
(PID.TID 0000.0001)     Wall clock time:   270.75866413116455
(PID.TID 0000.0001)          No. starts:           1
(PID.TID 0000.0001)           No. stops:           1
(PID.TID 0000.0001)   Seconds in section "MAIN_DO_LOOP        [THE_MAIN_LOOP]":
(PID.TID 0000.0001)           User time:   269.69999999999220
(PID.TID 0000.0001)         System time:  0.33000000000000035
(PID.TID 0000.0001)     Wall clock time:   270.69390320777893
(PID.TID 0000.0001)          No. starts:        7200
(PID.TID 0000.0001)           No. stops:        7200
(PID.TID 0000.0001)   Seconds in section "FORWARD_STEP        [MAIN_DO_LOOP]":
(PID.TID 0000.0001)           User time:   269.51999999999214
(PID.TID 0000.0001)         System time:  0.33000000000000035
(PID.TID 0000.0001)     Wall clock time:   270.56209659576416
(PID.TID 0000.0001)          No. starts:        7200
(PID.TID 0000.0001)           No. stops:        7200
(PID.TID 0000.0001)   Seconds in section "LOAD_FIELDS_DRIVER  [FORWARD_STEP]":
(PID.TID 0000.0001)           User time:  0.16999999999995907
(PID.TID 0000.0001)         System time:   0.0000000000000000
(PID.TID 0000.0001)     Wall clock time:  0.19791507720947266
(PID.TID 0000.0001)          No. starts:        7200
(PID.TID 0000.0001)           No. stops:        7200
(PID.TID 0000.0001)   Seconds in section "EXTERNAL_FLDS_LOAD [LOAD_FLDS_DRIVER]":
(PID.TID 0000.0001)           User time:   5.9999999999945430E-002
(PID.TID 0000.0001)         System time:   0.0000000000000000
(PID.TID 0000.0001)     Wall clock time:   6.6126823425292969E-002
(PID.TID 0000.0001)          No. starts:        7200
(PID.TID 0000.0001)           No. stops:        7200
(PID.TID 0000.0001)   Seconds in section "DO_ATMOSPHERIC_PHYS [FORWARD_STEP]":
(PID.TID 0000.0001)           User time:  0.12000000000000455
(PID.TID 0000.0001)         System time:   0.0000000000000000
(PID.TID 0000.0001)     Wall clock time:   6.5888404846191406E-002
(PID.TID 0000.0001)          No. starts:        7200
(PID.TID 0000.0001)           No. stops:        7200
(PID.TID 0000.0001)   Seconds in section "DO_OCEANIC_PHYS     [FORWARD_STEP]":
(PID.TID 0000.0001)           User time:   89.439999999996189
(PID.TID 0000.0001)         System time:   9.0000000000000080E-002
(PID.TID 0000.0001)     Wall clock time:   89.763837814331055
(PID.TID 0000.0001)          No. starts:        7200
(PID.TID 0000.0001)           No. stops:        7200
(PID.TID 0000.0001)   Seconds in section "DYNAMICS            [FORWARD_STEP]":
(PID.TID 0000.0001)           User time:   85.829999999998790
(PID.TID 0000.0001)         System time:   8.0000000000000071E-002
(PID.TID 0000.0001)     Wall clock time:   85.843821763992310
(PID.TID 0000.0001)          No. starts:        7200
(PID.TID 0000.0001)           No. stops:        7200
(PID.TID 0000.0001)   Seconds in section "SOLVE_FOR_PRESSURE  [FORWARD_STEP]":
(PID.TID 0000.0001)           User time:   3.2899999999985994
(PID.TID 0000.0001)         System time:   0.0000000000000000
(PID.TID 0000.0001)     Wall clock time:   3.1888246536254883
(PID.TID 0000.0001)          No. starts:        7200
(PID.TID 0000.0001)           No. stops:        7200
(PID.TID 0000.0001)   Seconds in section "MOM_CORRECTION_STEP [FORWARD_STEP]":
(PID.TID 0000.0001)           User time:   3.0799999999987904
(PID.TID 0000.0001)         System time:   0.0000000000000000
(PID.TID 0000.0001)     Wall clock time:   3.0456953048706055
(PID.TID 0000.0001)          No. starts:        7200
(PID.TID 0000.0001)           No. stops:        7200
(PID.TID 0000.0001)   Seconds in section "INTEGR_CONTINUITY   [FORWARD_STEP]":
(PID.TID 0000.0001)           User time:   1.2199999999995157
(PID.TID 0000.0001)         System time:   1.0000000000000009E-002
(PID.TID 0000.0001)     Wall clock time:   1.5132372379302979
(PID.TID 0000.0001)          No. starts:        7200
(PID.TID 0000.0001)           No. stops:        7200
(PID.TID 0000.0001)   Seconds in section "BLOCKING_EXCHANGES  [FORWARD_STEP]":
(PID.TID 0000.0001)           User time:   8.1399999999925399
(PID.TID 0000.0001)         System time:   2.0000000000000018E-002
(PID.TID 0000.0001)     Wall clock time:   8.0218942165374756
(PID.TID 0000.0001)          No. starts:       14400
(PID.TID 0000.0001)           No. stops:       14400
(PID.TID 0000.0001)   Seconds in section "THERMODYNAMICS      [FORWARD_STEP]":
(PID.TID 0000.0001)           User time:   76.689999999997212
(PID.TID 0000.0001)         System time:   4.0000000000000036E-002
(PID.TID 0000.0001)     Wall clock time:   76.667228698730469
(PID.TID 0000.0001)          No. starts:        7200
(PID.TID 0000.0001)           No. stops:        7200
(PID.TID 0000.0001)   Seconds in section "TRC_CORRECTION_STEP [FORWARD_STEP]":
(PID.TID 0000.0001)           User time:   6.0000000000059117E-002
(PID.TID 0000.0001)         System time:   0.0000000000000000
(PID.TID 0000.0001)     Wall clock time:   6.6454887390136719E-002
(PID.TID 0000.0001)          No. starts:        7200
(PID.TID 0000.0001)           No. stops:        7200
(PID.TID 0000.0001)   Seconds in section "MONITOR             [FORWARD_STEP]":
(PID.TID 0000.0001)           User time:  0.10999999999989996
(PID.TID 0000.0001)         System time:   0.0000000000000000
(PID.TID 0000.0001)     Wall clock time:  0.11461567878723145
(PID.TID 0000.0001)          No. starts:        7200
(PID.TID 0000.0001)           No. stops:        7200
(PID.TID 0000.0001)   Seconds in section "DO_THE_MODEL_IO     [FORWARD_STEP]":
(PID.TID 0000.0001)           User time:  0.24999999999988631
(PID.TID 0000.0001)         System time:   8.0000000000000016E-002
(PID.TID 0000.0001)     Wall clock time:  0.89466691017150879
(PID.TID 0000.0001)          No. starts:        7200
(PID.TID 0000.0001)           No. stops:        7200
(PID.TID 0000.0001)   Seconds in section "DO_WRITE_PICKUP     [FORWARD_STEP]":
(PID.TID 0000.0001)           User time:  0.13999999999987267
(PID.TID 0000.0001)         System time:   0.0000000000000000
(PID.TID 0000.0001)     Wall clock time:  0.17386603355407715
(PID.TID 0000.0001)          No. starts:        7200
(PID.TID 0000.0001)           No. stops:        7200
(PID.TID 0000.0001) // ======================================================
(PID.TID 0000.0001) // Tile <-> Tile communication statistics
(PID.TID 0000.0001) // ======================================================
(PID.TID 0000.0001) // o Tile number: 000001
(PID.TID 0000.0001) //         No. X exchanges =              0
(PID.TID 0000.0001) //            Max. X spins =              0
(PID.TID 0000.0001) //            Min. X spins =     1000000000
(PID.TID 0000.0001) //          Total. X spins =              0
(PID.TID 0000.0001) //            Avg. X spins =       0.00E+00
(PID.TID 0000.0001) //         No. Y exchanges =              0
(PID.TID 0000.0001) //            Max. Y spins =              0
(PID.TID 0000.0001) //            Min. Y spins =     1000000000
(PID.TID 0000.0001) //          Total. Y spins =              0
(PID.TID 0000.0001) //            Avg. Y spins =       0.00E+00
(PID.TID 0000.0001) // o Thread number: 000001
(PID.TID 0000.0001) //            No. barriers =        1678452
(PID.TID 0000.0001) //      Max. barrier spins =              1
(PID.TID 0000.0001) //      Min. barrier spins =              1
(PID.TID 0000.0001) //     Total barrier spins =        1678452
(PID.TID 0000.0001) //      Avg. barrier spins =       1.00E+00
PROGRAM MAIN: Execution ended Normally
