(PID.TID 0000.0001) 
(PID.TID 0000.0001) // ======================================================
(PID.TID 0000.0001) //                      MITgcm UV
(PID.TID 0000.0001) //                      =========
(PID.TID 0000.0001) // ======================================================
(PID.TID 0000.0001) // execution environment starting up...
(PID.TID 0000.0001) 
(PID.TID 0000.0001) // MITgcmUV version:  checkpoint65d
(PID.TID 0000.0001) // Build user:        hugke729
(PID.TID 0000.0001) // Build host:        hugke729
(PID.TID 0000.0001) // Build date:        Mon Apr 10 14:21:54 PDT 2017
(PID.TID 0000.0001) 
(PID.TID 0000.0001) // =======================================================
(PID.TID 0000.0001) // Execution Environment parameter file "eedata"
(PID.TID 0000.0001) // =======================================================
(PID.TID 0000.0001) ># Example "eedata" file
(PID.TID 0000.0001) ># Lines beginning "#" are comments
(PID.TID 0000.0001) ># nTx - No. threads per process in X
(PID.TID 0000.0001) ># nTy - No. threads per process in Y
(PID.TID 0000.0001) > &EEPARMS
(PID.TID 0000.0001) > /
(PID.TID 0000.0001) ># Note: Some systems use & as the
(PID.TID 0000.0001) ># namelist terminator. Other systems
(PID.TID 0000.0001) ># use a / character (as shown here).
(PID.TID 0000.0001) 
(PID.TID 0000.0001) // =======================================================
(PID.TID 0000.0001) // Computational Grid Specification ( see files "SIZE.h" )
(PID.TID 0000.0001) //                                  ( and "eedata"       )
(PID.TID 0000.0001) // =======================================================
(PID.TID 0000.0001)      nPx =    1 ; /* No. processes in X */
(PID.TID 0000.0001)      nPy =    1 ; /* No. processes in Y */
(PID.TID 0000.0001)      nSx =    1 ; /* No. tiles in X per process */
(PID.TID 0000.0001)      nSy =    1 ; /* No. tiles in Y per process */
(PID.TID 0000.0001)      sNx =  200 ; /* Tile size in X */
(PID.TID 0000.0001)      sNy =    1 ; /* Tile size in Y */
(PID.TID 0000.0001)      OLx =    2 ; /* Tile overlap distance in X */
(PID.TID 0000.0001)      OLy =    2 ; /* Tile overlap distance in Y */
(PID.TID 0000.0001)      nTx =    1 ; /* No. threads in X per process */
(PID.TID 0000.0001)      nTy =    1 ; /* No. threads in Y per process */
(PID.TID 0000.0001)       Nr =  100 ; /* No. levels in the vertical   */
(PID.TID 0000.0001)       Nx =  200 ; /* Total domain size in X ( = nPx*nSx*sNx ) */
(PID.TID 0000.0001)       Ny =    1 ; /* Total domain size in Y ( = nPy*nSy*sNy ) */
(PID.TID 0000.0001)   nTiles =    1 ; /* Total no. tiles per process ( = nSx*nSy ) */
(PID.TID 0000.0001)   nProcs =    1 ; /* Total no. processes ( = nPx*nPy ) */
(PID.TID 0000.0001) nThreads =    1 ; /* Total no. threads per process ( = nTx*nTy ) */
(PID.TID 0000.0001) usingMPI =    F ; /* Flag used to control whether MPI is in use */
(PID.TID 0000.0001)                   /*  note: To execute a program with MPI calls */
(PID.TID 0000.0001)                   /*  it must be launched appropriately e.g     */
(PID.TID 0000.0001)                   /*  "mpirun -np 64 ......"                    */
(PID.TID 0000.0001) useCoupler=    F ;/* Flag used to control communications with   */
(PID.TID 0000.0001)                   /*  other model components, through a coupler */
(PID.TID 0000.0001) debugMode =    F ; /* print debug msg. (sequence of S/R calls)  */
(PID.TID 0000.0001) printMapIncludesZeros=    F ; /* print zeros in Std.Output maps */
(PID.TID 0000.0001) maxLengthPrt1D=   65 /* maxLength of 1D array printed to StdOut */
(PID.TID 0000.0001) 
(PID.TID 0000.0001) // ======================================================
(PID.TID 0000.0001) // Mapping of tiles to threads
(PID.TID 0000.0001) // ======================================================
(PID.TID 0000.0001) // -o- Thread   1, tiles (   1:   1,   1:   1)
(PID.TID 0000.0001) 
(PID.TID 0000.0001) // ======================================================
(PID.TID 0000.0001) // Tile <-> Tile connectvity table
(PID.TID 0000.0001) // ======================================================
(PID.TID 0000.0001) // Tile number: 000001 (process no. = 000000)
(PID.TID 0000.0001) //        WEST: Tile = 000001, Process = 000000, Comm = put
(PID.TID 0000.0001) //                bi = 000001, bj = 000001
(PID.TID 0000.0001) //        EAST: Tile = 000001, Process = 000000, Comm = put
(PID.TID 0000.0001) //                bi = 000001, bj = 000001
(PID.TID 0000.0001) //       SOUTH: Tile = 000001, Process = 000000, Comm = put
(PID.TID 0000.0001) //                bi = 000001, bj = 000001
(PID.TID 0000.0001) //       NORTH: Tile = 000001, Process = 000000, Comm = put
(PID.TID 0000.0001) //                bi = 000001, bj = 000001
(PID.TID 0000.0001) 
(PID.TID 0000.0001)  INI_PARMS: opening model parameter file "data"
(PID.TID 0000.0001)  OPEN_COPY_DATA_FILE: opening file data
(PID.TID 0000.0001) // =======================================================
(PID.TID 0000.0001) // Parameter file "data"
(PID.TID 0000.0001) // =======================================================
(PID.TID 0000.0001) ># ====================
(PID.TID 0000.0001) ># | Model parameters |
(PID.TID 0000.0001) ># ====================
(PID.TID 0000.0001) >#
(PID.TID 0000.0001) ># See src/ini_parms.F for possible parameters.
(PID.TID 0000.0001) >#
(PID.TID 0000.0001) ># Continuous equation parameters
(PID.TID 0000.0001) > &PARM01
(PID.TID 0000.0001) > tRefFile='Tref.bin'
(PID.TID 0000.0001) > sRef= 25*35.,
(PID.TID 0000.0001) > viscAz=1.E-5,
(PID.TID 0000.0001) > viscAh=1.E-4,
(PID.TID 0000.0001) > no_slip_sides=.FALSE.,
(PID.TID 0000.0001) > no_slip_bottom=.FALSE.,
(PID.TID 0000.0001) > viscA4=0.E12,
(PID.TID 0000.0001) > diffKhT=1.E-4,
(PID.TID 0000.0001) > diffKzT=1.E-5,
(PID.TID 0000.0001) > diffKhS=1.E3,
(PID.TID 0000.0001) > diffKzS=1.E-5,
(PID.TID 0000.0001) > f0=0.E-4,
(PID.TID 0000.0001) > beta=0.0E-11,
(PID.TID 0000.0001) > tAlpha=2.E-4,
(PID.TID 0000.0001) > sBeta =0.E-4,
(PID.TID 0000.0001) > gravity=9.81,
(PID.TID 0000.0001) > gBaro=9.81,
(PID.TID 0000.0001) > rigidLid=.FALSE.,
(PID.TID 0000.0001) > implicitFreeSurface=.TRUE.,
(PID.TID 0000.0001) > eosType='LINEAR',
(PID.TID 0000.0001) > nonHydrostatic=.FALSE.,
(PID.TID 0000.0001) > readBinaryPrec=64,
(PID.TID 0000.0001) > useSingleCpuIO=.TRUE.
(PID.TID 0000.0001) > writeBinaryPrec=64,
(PID.TID 0000.0001) > writeStatePrec=64,
(PID.TID 0000.0001) > saltStepping=.FALSE.,
(PID.TID 0000.0001) ># minimum cell fraction.  This reduces steppiness..
(PID.TID 0000.0001) >  hFacMin=0.1,
(PID.TID 0000.0001) >  exactConserv=.FALSE.,
(PID.TID 0000.0001) >  implicitDiffusion=.TRUE.
(PID.TID 0000.0001) >  implicitViscosity=.TRUE.
(PID.TID 0000.0001) ># Superbee on:
(PID.TID 0000.0001) > tempAdvScheme=77,
(PID.TID 0000.0001) > staggerTimeStep=.TRUE.,
(PID.TID 0000.0001) >/
(PID.TID 0000.0001) >
(PID.TID 0000.0001) ># Elliptic solver parameters
(PID.TID 0000.0001) > &PARM02
(PID.TID 0000.0001) > cg2dMaxIters=1000,
(PID.TID 0000.0001) > cg2dTargetResidual=1.E-13,
(PID.TID 0000.0001) > cg3dMaxIters=400,
(PID.TID 0000.0001) > cg3dTargetResidual=1.E-13,
(PID.TID 0000.0001) >/
(PID.TID 0000.0001) >
(PID.TID 0000.0001) ># Time stepping parameters
(PID.TID 0000.0001) > &PARM03
(PID.TID 0000.0001) > niter0=0,
(PID.TID 0000.0001) ># times are in s
(PID.TID 0000.0001) > startTime=0,
(PID.TID 0000.0001) > endTime=108000,
(PID.TID 0000.0001) > deltaT=15,
(PID.TID 0000.0001) > abEps=0.1,
(PID.TID 0000.0001) ># once per tide checkpoint...
(PID.TID 0000.0001) > pChkptFreq=21600,
(PID.TID 0000.0001) > chkptFreq=0.0,
(PID.TID 0000.0001) > dumpFreq=7200,
(PID.TID 0000.0001) > monitorFreq=7200,
(PID.TID 0000.0001) ># Forcing for boundary condition files
(PID.TID 0000.0001) > periodicExternalForcing=.FALSE.,
(PID.TID 0000.0001) >/
(PID.TID 0000.0001) >
(PID.TID 0000.0001) ># Gridding parameters
(PID.TID 0000.0001) > &PARM04
(PID.TID 0000.0001) > usingCartesianGrid=.TRUE.,
(PID.TID 0000.0001) > usingSphericalPolarGrid=.FALSE.,
(PID.TID 0000.0001) > delXfile='delXvar.bin',
(PID.TID 0000.0001) > delY=5.e3,
(PID.TID 0000.0001) > delRfile = 'delZvar.bin',
(PID.TID 0000.0001) >/
(PID.TID 0000.0001) >
(PID.TID 0000.0001) ># Input datasets
(PID.TID 0000.0001) > &PARM05
(PID.TID 0000.0001) > bathyFile='topo.bin',
(PID.TID 0000.0001) > hydrogThetaFile='T0.bin',
(PID.TID 0000.0001) > checkIniTemp=.FALSE.,
(PID.TID 0000.0001) > uVelInitFile='U0.bin',
(PID.TID 0000.0001) > /
(PID.TID 0000.0001) 
(PID.TID 0000.0001)  INI_PARMS ; starts to read PARM01
(PID.TID 0000.0001)  INI_PARMS ; read PARM01 : OK
(PID.TID 0000.0001)  INI_PARMS ; starts to read PARM02
(PID.TID 0000.0001)  INI_PARMS ; read PARM02 : OK
(PID.TID 0000.0001)  INI_PARMS ; starts to read PARM03
(PID.TID 0000.0001)  INI_PARMS ; read PARM03 : OK
(PID.TID 0000.0001)  INI_PARMS ; starts to read PARM04
(PID.TID 0000.0001)  INI_PARMS ; read PARM04 : OK
(PID.TID 0000.0001)  INI_PARMS ; starts to read PARM05
(PID.TID 0000.0001)  INI_PARMS ; read PARM05 : OK
(PID.TID 0000.0001)  INI_PARMS: finished reading file "data"
(PID.TID 0000.0001)  PACKAGES_BOOT: opening data.pkg
(PID.TID 0000.0001)  OPEN_COPY_DATA_FILE: opening file data.pkg
(PID.TID 0000.0001) // =======================================================
(PID.TID 0000.0001) // Parameter file "data.pkg"
(PID.TID 0000.0001) // =======================================================
(PID.TID 0000.0001) ># Packages
(PID.TID 0000.0001) > &PACKAGES
(PID.TID 0000.0001) > useOBCS=.TRUE.,
(PID.TID 0000.0001) > useKL10=.TRUE.,
(PID.TID 0000.0001) > useDIAGNOSTICS=.FALSE.,
(PID.TID 0000.0001) > useMNC=.FALSE.,
(PID.TID 0000.0001) > /
(PID.TID 0000.0001) 
(PID.TID 0000.0001)  PACKAGES_BOOT: finished reading data.pkg
(PID.TID 0000.0001)  PACKAGES_BOOT: On/Off package Summary
 --------  pkgs with a standard "usePKG" On/Off switch in "data.pkg":  --------
 pkg/obcs                 compiled   and   used ( useOBCS                  = T )
 pkg/kl10                 compiled   and   used ( useKL10                  = T )
 -------- pkgs without standard "usePKG" On/Off switch in "data.pkg":  --------
 pkg/generic_advdiff      compiled   and   used ( useGAD                   = T )
 pkg/mom_common           compiled   and   used ( momStepping              = T )
 pkg/mom_vecinv           compiled but not used ( +vectorInvariantMomentum = F )
 pkg/mom_fluxform         compiled   and   used ( & not vectorInvariantMom = T )
 pkg/monitor              compiled   and   used ( monitorFreq > 0.         = T )
 pkg/debug                compiled but not used ( debugMode                = F )
 pkg/rw                   compiled   and   used
 pkg/mdsio                compiled   and   used
(PID.TID 0000.0001)  PACKAGES_BOOT: End of package Summary
(PID.TID 0000.0001) 
(PID.TID 0000.0001)  OBCS_READPARMS: opening data.obcs
(PID.TID 0000.0001)  OPEN_COPY_DATA_FILE: opening file data.obcs
(PID.TID 0000.0001) // =======================================================
(PID.TID 0000.0001) // Parameter file "data.obcs"
(PID.TID 0000.0001) // =======================================================
(PID.TID 0000.0001) ># Open-boundaries
(PID.TID 0000.0001) > &OBCS_PARM01
(PID.TID 0000.0001) > OB_Iwest=1*1,
(PID.TID 0000.0001) > OB_Ieast=1*-1,
(PID.TID 0000.0001) > OB_Jnorth=100*0,
(PID.TID 0000.0001) > OB_Jsouth=100*0,
(PID.TID 0000.0001) > useOBCSsponge=.TRUE.,
(PID.TID 0000.0001) > OBEuFile='U_in.bin',
(PID.TID 0000.0001) > OBWuFile='U_in.bin',
(PID.TID 0000.0001) > OBEtFile='TE.bin',
(PID.TID 0000.0001) > OBWtFile='TW.bin',
(PID.TID 0000.0001) > useOBCSprescribe=.TRUE.,
(PID.TID 0000.0001) > /
(PID.TID 0000.0001) >
(PID.TID 0000.0001) ># Orlanski parameters
(PID.TID 0000.0001) > &OBCS_PARM02
(PID.TID 0000.0001) >/
(PID.TID 0000.0001) >
(PID.TID 0000.0001) ># Sponge layer parameters
(PID.TID 0000.0001) > &OBCS_PARM03
(PID.TID 0000.0001) > Urelaxobcsinner=1000.,
(PID.TID 0000.0001) > Urelaxobcsbound=100.,
(PID.TID 0000.0001) > Vrelaxobcsinner=1000.0,
(PID.TID 0000.0001) > Vrelaxobcsbound=100.0,
(PID.TID 0000.0001) > spongeThickness=10,
(PID.TID 0000.0001) > /
(PID.TID 0000.0001) 
(PID.TID 0000.0001)  OBCS_READPARMS: finished reading data.obcs
(PID.TID 0000.0001)  OB_indexUnset = /* unset OB index value (i.e. no OB) */
(PID.TID 0000.0001)                       0
(PID.TID 0000.0001)     ;
(PID.TID 0000.0001)  Northern OB global indices : OB_Jnorth =
(PID.TID 0000.0001)   200 @        0                            /* I =  1:200 */
(PID.TID 0000.0001)  Southern OB global indices : OB_Jsouth =
(PID.TID 0000.0001)   200 @        0                            /* I =  1:200 */
(PID.TID 0000.0001)  Eastern  OB global indices : OB_Ieast =
(PID.TID 0000.0001)                     200                     /* J =  1 */
(PID.TID 0000.0001)  Western  OB global indices : OB_Iwest =
(PID.TID 0000.0001)                       1                     /* J =  1 */
(PID.TID 0000.0001) 
(PID.TID 0000.0001)  KL10_READPARMS: opening data.kl10
(PID.TID 0000.0001)  OPEN_COPY_DATA_FILE: opening file data.kl10
(PID.TID 0000.0001) // =======================================================
(PID.TID 0000.0001) // Parameter file "data.kl10"
(PID.TID 0000.0001) // =======================================================
(PID.TID 0000.0001) ># =====================================================================
(PID.TID 0000.0001) ># | Parameters for Klymak and Legg (2010) vertical mixing scheme      |
(PID.TID 0000.0001) ># =====================================================================
(PID.TID 0000.0001) > &KL10_PARM01
(PID.TID 0000.0001) > KLwriteState=.TRUE.,
(PID.TID 0000.0001) >/
(PID.TID 0000.0001) 
(PID.TID 0000.0001)  KL10_READPARMS: finished reading data.kl10
(PID.TID 0000.0001) SET_PARMS: done
(PID.TID 0000.0001)  MDS_READVEC_LOC: open file: delXvar.bin
(PID.TID 0000.0001) S/R LOAD_GRID_SPACING: delX loaded from file: delXvar.bin
(PID.TID 0000.0001)  MDS_READVEC_LOC: open file: delZvar.bin
(PID.TID 0000.0001) S/R LOAD_GRID_SPACING: delR loaded from file: delZvar.bin
(PID.TID 0000.0001) Enter INI_VERTICAL_GRID: setInterFDr=    T ; setCenterDr=    F
(PID.TID 0000.0001) %MON XC_max                       =   9.9471849328752E+04
(PID.TID 0000.0001) %MON XC_min                       =   6.3164731900833E+02
(PID.TID 0000.0001) %MON XC_mean                      =   5.2906107272275E+04
(PID.TID 0000.0001) %MON XC_sd                        =   2.2139310392762E+04
(PID.TID 0000.0001) %MON XG_max                       =   9.8943698657505E+04
(PID.TID 0000.0001) %MON XG_min                       =   0.0000000000000E+00
(PID.TID 0000.0001) %MON XG_mean                      =   5.2656107272275E+04
(PID.TID 0000.0001) %MON XG_sd                        =   2.2172561685063E+04
(PID.TID 0000.0001) %MON DXC_max                      =   1.2503953509116E+03
(PID.TID 0000.0001) %MON DXC_min                      =   2.0000000000000E+02
(PID.TID 0000.0001) %MON DXC_mean                     =   5.0000000000000E+02
(PID.TID 0000.0001) %MON DXC_sd                       =   2.8531736750525E+02
(PID.TID 0000.0001) %MON DXF_max                      =   1.2632946380167E+03
(PID.TID 0000.0001) %MON DXF_min                      =   2.0000000000000E+02
(PID.TID 0000.0001) %MON DXF_mean                     =   5.0000000000000E+02
(PID.TID 0000.0001) %MON DXF_sd                       =   2.8547066202794E+02
(PID.TID 0000.0001) %MON DXG_max                      =   1.2632946380167E+03
(PID.TID 0000.0001) %MON DXG_min                      =   2.0000000000000E+02
(PID.TID 0000.0001) %MON DXG_mean                     =   5.0000000000000E+02
(PID.TID 0000.0001) %MON DXG_sd                       =   2.8547066202794E+02
(PID.TID 0000.0001) %MON DXV_max                      =   1.2503953509116E+03
(PID.TID 0000.0001) %MON DXV_min                      =   2.0000000000000E+02
(PID.TID 0000.0001) %MON DXV_mean                     =   5.0000000000000E+02
(PID.TID 0000.0001) %MON DXV_sd                       =   2.8531736750525E+02
(PID.TID 0000.0001) %MON YC_max                       =   2.5000000000000E+03
(PID.TID 0000.0001) %MON YC_min                       =   2.5000000000000E+03
(PID.TID 0000.0001) %MON YC_mean                      =   2.5000000000000E+03
(PID.TID 0000.0001) %MON YC_sd                        =   0.0000000000000E+00
(PID.TID 0000.0001) %MON YG_max                       =   0.0000000000000E+00
(PID.TID 0000.0001) %MON YG_min                       =   0.0000000000000E+00
(PID.TID 0000.0001) %MON YG_mean                      =   0.0000000000000E+00
(PID.TID 0000.0001) %MON YG_sd                        =   0.0000000000000E+00
(PID.TID 0000.0001) %MON DYC_max                      =   5.0000000000000E+03
(PID.TID 0000.0001) %MON DYC_min                      =   5.0000000000000E+03
(PID.TID 0000.0001) %MON DYC_mean                     =   5.0000000000000E+03
(PID.TID 0000.0001) %MON DYC_sd                       =   0.0000000000000E+00
(PID.TID 0000.0001) %MON DYF_max                      =   5.0000000000000E+03
(PID.TID 0000.0001) %MON DYF_min                      =   5.0000000000000E+03
(PID.TID 0000.0001) %MON DYF_mean                     =   5.0000000000000E+03
(PID.TID 0000.0001) %MON DYF_sd                       =   0.0000000000000E+00
(PID.TID 0000.0001) %MON DYG_max                      =   5.0000000000000E+03
(PID.TID 0000.0001) %MON DYG_min                      =   5.0000000000000E+03
(PID.TID 0000.0001) %MON DYG_mean                     =   5.0000000000000E+03
(PID.TID 0000.0001) %MON DYG_sd                       =   0.0000000000000E+00
(PID.TID 0000.0001) %MON DYU_max                      =   5.0000000000000E+03
(PID.TID 0000.0001) %MON DYU_min                      =   5.0000000000000E+03
(PID.TID 0000.0001) %MON DYU_mean                     =   5.0000000000000E+03
(PID.TID 0000.0001) %MON DYU_sd                       =   0.0000000000000E+00
(PID.TID 0000.0001) %MON RA_max                       =   6.3164731900833E+06
(PID.TID 0000.0001) %MON RA_min                       =   1.0000000000000E+06
(PID.TID 0000.0001) %MON RA_mean                      =   2.5000000000000E+06
(PID.TID 0000.0001) %MON RA_sd                        =   1.4273533101397E+06
(PID.TID 0000.0001) %MON RAW_max                      =   6.2519767545581E+06
(PID.TID 0000.0001) %MON RAW_min                      =   1.0000000000000E+06
(PID.TID 0000.0001) %MON RAW_mean                     =   2.5000000000000E+06
(PID.TID 0000.0001) %MON RAW_sd                       =   1.4265868375263E+06
(PID.TID 0000.0001) %MON RAS_max                      =   6.3164731900833E+06
(PID.TID 0000.0001) %MON RAS_min                      =   1.0000000000000E+06
(PID.TID 0000.0001) %MON RAS_mean                     =   2.5000000000000E+06
(PID.TID 0000.0001) %MON RAS_sd                       =   1.4273533101397E+06
(PID.TID 0000.0001) %MON RAZ_max                      =   6.2519767545581E+06
(PID.TID 0000.0001) %MON RAZ_min                      =   1.0000000000000E+06
(PID.TID 0000.0001) %MON RAZ_mean                     =   2.5000000000000E+06
(PID.TID 0000.0001) %MON RAZ_sd                       =   1.4265868375263E+06
(PID.TID 0000.0001) %MON AngleCS_max                  =   1.0000000000000E+00
(PID.TID 0000.0001) %MON AngleCS_min                  =   1.0000000000000E+00
(PID.TID 0000.0001) %MON AngleCS_mean                 =   1.0000000000000E+00
(PID.TID 0000.0001) %MON AngleCS_sd                   =   0.0000000000000E+00
(PID.TID 0000.0001) %MON AngleSN_max                  =   0.0000000000000E+00
(PID.TID 0000.0001) %MON AngleSN_min                  =   0.0000000000000E+00
(PID.TID 0000.0001) %MON AngleSN_mean                 =   0.0000000000000E+00
(PID.TID 0000.0001) %MON AngleSN_sd                   =   0.0000000000000E+00
(PID.TID 0000.0001)  MDS_READVEC_LOC: open file: Tref.bin
(PID.TID 0000.0001) S/R LOAD_REF_FILES: tRef loaded from file: Tref.bin
(PID.TID 0000.0001)  MDS_READ_FIELD: opening global file: topo.bin
(PID.TID 0000.0001) // =======================================================
(PID.TID 0000.0001) // Field Model R_low (ini_masks_etc)
(PID.TID 0000.0001) // CMIN =         -2.000000000000000E+02
(PID.TID 0000.0001) // CMAX =         -1.920099937526033E+02
(PID.TID 0000.0001) // CINT =          2.959261573109870E-01
(PID.TID 0000.0001) // SYMBOLS (CMIN->CMAX): -abcdefghijklmnopqrstuvwxyz+
(PID.TID 0000.0001) //                  0.0: .
(PID.TID 0000.0001) // RANGE I (Lo:Hi:Step):(    -1:   202:     1)
(PID.TID 0000.0001) // RANGE J (Lo:Hi:Step):(     3:    -1:    -1)
(PID.TID 0000.0001) // RANGE K (Lo:Hi:Step):(   1:   1:   1)
(PID.TID 0000.0001) // =======================================================
(PID.TID 0000.0001) K =   1
(PID.TID 0000.0001) //                I=8       I=18      I=28      I=38      I=48      I=58      I=68      I=78      I=88      I=98      I=108     I=118     I=128     I=138     I=148     I=158     I=168     I=178     I=188     I=198
(PID.TID 0000.0001) // |--J--|101234567|901234567|901234567|901234567|901234567|901234567|901234567|901234567|901234567|901234567|901234567|901234567|901234567|901234567|901234567|901234567|901234567|901234567|901234567|901234567|9012
(PID.TID 0000.0001) //      3 --------------------------------------------------------------------------aaaabbccdefghiklmpqstvwxyz++++zyxwvtsqpmlkihgfedccbbaaaa--------------------------------------------------------------------------
(PID.TID 0000.0001) //      2 --------------------------------------------------------------------------aaaabbccdefghiklmpqstvwxyz++++zyxwvtsqpmlkihgfedccbbaaaa--------------------------------------------------------------------------
(PID.TID 0000.0001) //      1 --------------------------------------------------------------------------aaaabbccdefghiklmpqstvwxyz++++zyxwvtsqpmlkihgfedccbbaaaa--------------------------------------------------------------------------
(PID.TID 0000.0001) //      0 --------------------------------------------------------------------------aaaabbccdefghiklmpqstvwxyz++++zyxwvtsqpmlkihgfedccbbaaaa--------------------------------------------------------------------------
(PID.TID 0000.0001) //     -1 --------------------------------------------------------------------------aaaabbccdefghiklmpqstvwxyz++++zyxwvtsqpmlkihgfedccbbaaaa--------------------------------------------------------------------------
(PID.TID 0000.0001) // =======================================================
(PID.TID 0000.0001) // END OF FIELD                                          =
(PID.TID 0000.0001) // =======================================================
(PID.TID 0000.0001) 
(PID.TID 0000.0001) // =======================================================
(PID.TID 0000.0001) // Field Model Ro_surf (ini_masks_etc)
(PID.TID 0000.0001) // CMIN =          3.130828929442941E-14
(PID.TID 0000.0001) // CMAX =          8.815170815523743E-14
(PID.TID 0000.0001) // CINT =          2.105311809659556E-15
(PID.TID 0000.0001) // SYMBOLS (CMIN->CMAX): -abcdefghijklmnopqrstuvwxyz+
(PID.TID 0000.0001) //                  0.0: .
(PID.TID 0000.0001) // RANGE I (Lo:Hi:Step):(    -1:   202:     1)
(PID.TID 0000.0001) // RANGE J (Lo:Hi:Step):(     3:    -1:    -1)
(PID.TID 0000.0001) // RANGE K (Lo:Hi:Step):(   1:   1:   1)
(PID.TID 0000.0001) // =======================================================
(PID.TID 0000.0001) K =   1
(PID.TID 0000.0001) //                I=8       I=18      I=28      I=38      I=48      I=58      I=68      I=78      I=88      I=98      I=108     I=118     I=128     I=138     I=148     I=158     I=168     I=178     I=188     I=198
(PID.TID 0000.0001) // |--J--|101234567|901234567|901234567|901234567|901234567|901234567|901234567|901234567|901234567|901234567|901234567|901234567|901234567|901234567|901234567|901234567|901234567|901234567|901234567|901234567|9012
(PID.TID 0000.0001) //      3 --------------------n-n--n--n---n-n-n-n-nn-nn---nn--nn---nn-nn--nn--------n-nnn-n--nn-nn++nn++nn-nnn----nnn-nn++nn++nn-nn--n-nnn-n--------nn--nn-nn---nn--nn---nn-nn-n-n-n-n---n--n--n-n--------------------
(PID.TID 0000.0001) //      2 --------------------n-n--n--n---n-n-n-n-nn-nn---nn--nn---nn-nn--nn--------n-nnn-n--nn-nn++nn++nn-nnn----nnn-nn++nn++nn-nn--n-nnn-n--------nn--nn-nn---nn--nn---nn-nn-n-n-n-n---n--n--n-n--------------------
(PID.TID 0000.0001) //      1 --------------------n-n--n--n---n-n-n-n-nn-nn---nn--nn---nn-nn--nn--------n-nnn-n--nn-nn++nn++nn-nnn----nnn-nn++nn++nn-nn--n-nnn-n--------nn--nn-nn---nn--nn---nn-nn-n-n-n-n---n--n--n-n--------------------
(PID.TID 0000.0001) //      0 --------------------n-n--n--n---n-n-n-n-nn-nn---nn--nn---nn-nn--nn--------n-nnn-n--nn-nn++nn++nn-nnn----nnn-nn++nn++nn-nn--n-nnn-n--------nn--nn-nn---nn--nn---nn-nn-n-n-n-n---n--n--n-n--------------------
(PID.TID 0000.0001) //     -1 --------------------n-n--n--n---n-n-n-n-nn-nn---nn--nn---nn-nn--nn--------n-nnn-n--nn-nn++nn++nn-nnn----nnn-nn++nn++nn-nn--n-nnn-n--------nn--nn-nn---nn--nn---nn-nn-n-n-n-n---n--n--n-n--------------------
(PID.TID 0000.0001) // =======================================================
(PID.TID 0000.0001) // END OF FIELD                                          =
(PID.TID 0000.0001) // =======================================================
(PID.TID 0000.0001) 
(PID.TID 0000.0001) // =======================================================
(PID.TID 0000.0001) // Field hFacC at iteration          0
(PID.TID 0000.0001) // CMIN =          1.000000000000000E+00
(PID.TID 0000.0001) // CMAX =          1.000000000000000E+00
(PID.TID 0000.0001) // CINT =          0.000000000000000E+00
(PID.TID 0000.0001) // SYMBOLS (CMIN->CMAX): -abcdefghijklmnopqrstuvwxyz+
(PID.TID 0000.0001) //                  0.0: .
(PID.TID 0000.0001) // RANGE I (Lo:Hi:Step):(    -1:   202:     1)
(PID.TID 0000.0001) // RANGE J (Lo:Hi:Step):(     3:    -1:    -1)
(PID.TID 0000.0001) // RANGE K (Lo:Hi:Step):(   1:   1:   1)
(PID.TID 0000.0001) // =======================================================
(PID.TID 0000.0001) // =======================================================
(PID.TID 0000.0001) // END OF FIELD                                          =
(PID.TID 0000.0001) // =======================================================
(PID.TID 0000.0001) 
(PID.TID 0000.0001) // =======================================================
(PID.TID 0000.0001) // Field hFacW at iteration          0
(PID.TID 0000.0001) // CMIN =          1.000000000000000E+00
(PID.TID 0000.0001) // CMAX =          1.000000000000000E+00
(PID.TID 0000.0001) // CINT =          0.000000000000000E+00
(PID.TID 0000.0001) // SYMBOLS (CMIN->CMAX): -abcdefghijklmnopqrstuvwxyz+
(PID.TID 0000.0001) //                  0.0: .
(PID.TID 0000.0001) // RANGE I (Lo:Hi:Step):(    -1:   202:     1)
(PID.TID 0000.0001) // RANGE J (Lo:Hi:Step):(     3:    -1:    -1)
(PID.TID 0000.0001) // RANGE K (Lo:Hi:Step):(   1:   1:   1)
(PID.TID 0000.0001) // =======================================================
(PID.TID 0000.0001) // =======================================================
(PID.TID 0000.0001) // END OF FIELD                                          =
(PID.TID 0000.0001) // =======================================================
(PID.TID 0000.0001) 
(PID.TID 0000.0001) // =======================================================
(PID.TID 0000.0001) // Field hFacS at iteration          0
(PID.TID 0000.0001) // CMIN =          1.000000000000000E+00
(PID.TID 0000.0001) // CMAX =          1.000000000000000E+00
(PID.TID 0000.0001) // CINT =          0.000000000000000E+00
(PID.TID 0000.0001) // SYMBOLS (CMIN->CMAX): -abcdefghijklmnopqrstuvwxyz+
(PID.TID 0000.0001) //                  0.0: .
(PID.TID 0000.0001) // RANGE I (Lo:Hi:Step):(    -1:   202:     1)
(PID.TID 0000.0001) // RANGE J (Lo:Hi:Step):(     3:    -1:    -1)
(PID.TID 0000.0001) // RANGE K (Lo:Hi:Step):(   1:   1:   1)
(PID.TID 0000.0001) // =======================================================
(PID.TID 0000.0001) // =======================================================
(PID.TID 0000.0001) // END OF FIELD                                          =
(PID.TID 0000.0001) // =======================================================
(PID.TID 0000.0001) 
(PID.TID 0000.0001) GAD_INIT_FIXED: GAD_OlMinSize=  2  0  1
(PID.TID 0000.0001) 
(PID.TID 0000.0001) // ===================================
(PID.TID 0000.0001) // GAD parameters :
(PID.TID 0000.0001) // ===================================
(PID.TID 0000.0001) tempAdvScheme =   /* Temp. Horiz.Advection scheme selector */
(PID.TID 0000.0001)                      77
(PID.TID 0000.0001)     ;
(PID.TID 0000.0001) tempVertAdvScheme =   /* Temp. Vert. Advection scheme selector */
(PID.TID 0000.0001)                      77
(PID.TID 0000.0001)     ;
(PID.TID 0000.0001) tempMultiDimAdvec =   /* use Muti-Dim Advec method for Temp */
(PID.TID 0000.0001)                   T
(PID.TID 0000.0001)     ;
(PID.TID 0000.0001) tempSOM_Advection = /* use 2nd Order Moment Advection for Temp */
(PID.TID 0000.0001)                   F
(PID.TID 0000.0001)     ;
(PID.TID 0000.0001) AdamsBashforthGt = /* apply Adams-Bashforth extrapolation on Gt */
(PID.TID 0000.0001)                   F
(PID.TID 0000.0001)     ;
(PID.TID 0000.0001) AdamsBashforth_T = /* apply Adams-Bashforth extrapolation on Temp */
(PID.TID 0000.0001)                   F
(PID.TID 0000.0001)     ;
(PID.TID 0000.0001) saltAdvScheme =   /* Salt. Horiz.advection scheme selector */
(PID.TID 0000.0001)                       2
(PID.TID 0000.0001)     ;
(PID.TID 0000.0001) saltVertAdvScheme =   /* Salt. Vert. Advection scheme selector */
(PID.TID 0000.0001)                       2
(PID.TID 0000.0001)     ;
(PID.TID 0000.0001) saltMultiDimAdvec =   /* use Muti-Dim Advec method for Salt */
(PID.TID 0000.0001)                   F
(PID.TID 0000.0001)     ;
(PID.TID 0000.0001) saltSOM_Advection = /* use 2nd Order Moment Advection for Salt */
(PID.TID 0000.0001)                   F
(PID.TID 0000.0001)     ;
(PID.TID 0000.0001) AdamsBashforthGs = /* apply Adams-Bashforth extrapolation on Gs */
(PID.TID 0000.0001)                   F
(PID.TID 0000.0001)     ;
(PID.TID 0000.0001) AdamsBashforth_S = /* apply Adams-Bashforth extrapolation on Salt */
(PID.TID 0000.0001)                   F
(PID.TID 0000.0001)     ;
(PID.TID 0000.0001) // ===================================
(PID.TID 0000.0001) %MON fCori_max                    =   0.0000000000000E+00
(PID.TID 0000.0001) %MON fCori_min                    =   0.0000000000000E+00
(PID.TID 0000.0001) %MON fCori_mean                   =   0.0000000000000E+00
(PID.TID 0000.0001) %MON fCori_sd                     =   0.0000000000000E+00
(PID.TID 0000.0001) %MON fCoriG_max                   =   0.0000000000000E+00
(PID.TID 0000.0001) %MON fCoriG_min                   =   0.0000000000000E+00
(PID.TID 0000.0001) %MON fCoriG_mean                  =   0.0000000000000E+00
(PID.TID 0000.0001) %MON fCoriG_sd                    =   0.0000000000000E+00
(PID.TID 0000.0001) %MON fCoriCos_max                 =   0.0000000000000E+00
(PID.TID 0000.0001) %MON fCoriCos_min                 =   0.0000000000000E+00
(PID.TID 0000.0001) %MON fCoriCos_mean                =   0.0000000000000E+00
(PID.TID 0000.0001) %MON fCoriCos_sd                  =   0.0000000000000E+00
(PID.TID 0000.0001) INI_CG2D: CG2D normalisation factor =  2.0174521853373321E-04
(PID.TID 0000.0001) 
(PID.TID 0000.0001) // =======================================================
(PID.TID 0000.0001) // Model configuration
(PID.TID 0000.0001) // =======================================================
(PID.TID 0000.0001) //
(PID.TID 0000.0001) // "Physical" paramters ( PARM01 in namelist )
(PID.TID 0000.0001) //
(PID.TID 0000.0001) buoyancyRelation = /* Type of relation to get Buoyancy */
(PID.TID 0000.0001)               'OCEANIC'
(PID.TID 0000.0001)     ;
(PID.TID 0000.0001) fluidIsAir   =  /* fluid major constituent is Air */
(PID.TID 0000.0001)                   F
(PID.TID 0000.0001)     ;
(PID.TID 0000.0001) fluidIsWater =  /* fluid major constituent is Water */
(PID.TID 0000.0001)                   T
(PID.TID 0000.0001)     ;
(PID.TID 0000.0001) usingPCoords =  /* use p (or p*) vertical coordinate */
(PID.TID 0000.0001)                   F
(PID.TID 0000.0001)     ;
(PID.TID 0000.0001) usingZCoords =  /* use z (or z*) vertical coordinate */
(PID.TID 0000.0001)                   T
(PID.TID 0000.0001)     ;
(PID.TID 0000.0001) tRef =   /* Reference temperature profile ( oC or K ) */
(PID.TID 0000.0001)    86 @  1.500000000000000E+01,             /* K =  1: 86 */
(PID.TID 0000.0001)                 1.499933084687693E+01,      /* K = 87 */
(PID.TID 0000.0001)                 1.497717153877677E+01,      /* K = 88 */
(PID.TID 0000.0001)                 1.470721590167325E+01,      /* K = 89 */
(PID.TID 0000.0001)                 1.349735867339025E+01,      /* K = 90 */
(PID.TID 0000.0001)                 1.150264132660976E+01,      /* K = 91 */
(PID.TID 0000.0001)                 1.029278409832675E+01,      /* K = 92 */
(PID.TID 0000.0001)                 1.002282846122323E+01,      /* K = 93 */
(PID.TID 0000.0001)                 1.000066915312308E+01,      /* K = 94 */
(PID.TID 0000.0001)     6 @  1.000000000000000E+01              /* K = 95:100 */
(PID.TID 0000.0001)     ;
(PID.TID 0000.0001) sRef =   /* Reference salinity profile ( psu ) */
(PID.TID 0000.0001)   100 @  3.500000000000000E+01              /* K =  1:100 */
(PID.TID 0000.0001)     ;
(PID.TID 0000.0001) useStrainTensionVisc= /* Use StrainTension Form of Viscous Operator */
(PID.TID 0000.0001)                   F
(PID.TID 0000.0001)     ;
(PID.TID 0000.0001) useVariableVisc = /* Use variable horizontal viscosity */
(PID.TID 0000.0001)                   F
(PID.TID 0000.0001)     ;
(PID.TID 0000.0001) useHarmonicVisc = /* Use harmonic horizontal viscosity */
(PID.TID 0000.0001)                   T
(PID.TID 0000.0001)     ;
(PID.TID 0000.0001) useBiharmonicVisc= /* Use biharmonic horiz.  viscosity */
(PID.TID 0000.0001)                   F
(PID.TID 0000.0001)     ;
(PID.TID 0000.0001) useSmag3D = /* Use isotropic 3-D Smagorinsky viscosity */
(PID.TID 0000.0001)                   F
(PID.TID 0000.0001)     ;
(PID.TID 0000.0001) viscAh  =   /* Lateral harmonic viscosity ( m^2/s ) */
(PID.TID 0000.0001)                 1.000000000000000E-04
(PID.TID 0000.0001)     ;
(PID.TID 0000.0001) viscA4  =   /* Lateral biharmonic viscosity ( m^4/s ) */
(PID.TID 0000.0001)                 0.000000000000000E+00
(PID.TID 0000.0001)     ;
(PID.TID 0000.0001) no_slip_sides =  /* Viscous BCs: No-slip sides */
(PID.TID 0000.0001)                   F
(PID.TID 0000.0001)     ;
(PID.TID 0000.0001) sideDragFactor = /* side-drag scaling factor (non-dim) */
(PID.TID 0000.0001)                 2.000000000000000E+00
(PID.TID 0000.0001)     ;
(PID.TID 0000.0001) viscArNr = /* vertical profile of vertical viscosity ( m^2/s )*/
(PID.TID 0000.0001)   100 @  1.000000000000000E-05              /* K =  1:100 */
(PID.TID 0000.0001)     ;
(PID.TID 0000.0001) no_slip_bottom =  /* Viscous BCs: No-slip bottom */
(PID.TID 0000.0001)                   F
(PID.TID 0000.0001)     ;
(PID.TID 0000.0001) bottomDragLinear = /* linear bottom-drag coefficient ( m/s ) */
(PID.TID 0000.0001)                 0.000000000000000E+00
(PID.TID 0000.0001)     ;
(PID.TID 0000.0001) bottomDragQuadratic = /* quadratic bottom-drag coefficient (-) */
(PID.TID 0000.0001)                 0.000000000000000E+00
(PID.TID 0000.0001)     ;
(PID.TID 0000.0001) diffKhT =   /* Laplacian diffusion of heat laterally ( m^2/s ) */
(PID.TID 0000.0001)                 1.000000000000000E-04
(PID.TID 0000.0001)     ;
(PID.TID 0000.0001) diffK4T =   /* Biharmonic diffusion of heat laterally ( m^4/s ) */
(PID.TID 0000.0001)                 0.000000000000000E+00
(PID.TID 0000.0001)     ;
(PID.TID 0000.0001) diffKhS =   /* Laplacian diffusion of salt laterally ( m^2/s ) */
(PID.TID 0000.0001)                 1.000000000000000E+03
(PID.TID 0000.0001)     ;
(PID.TID 0000.0001) diffK4S =   /* Biharmonic diffusion of salt laterally ( m^4/s ) */
(PID.TID 0000.0001)                 0.000000000000000E+00
(PID.TID 0000.0001)     ;
(PID.TID 0000.0001) diffKrNrT = /* vertical profile of vertical diffusion of Temp ( m^2/s )*/
(PID.TID 0000.0001)   100 @  1.000000000000000E-05              /* K =  1:100 */
(PID.TID 0000.0001)     ;
(PID.TID 0000.0001) diffKrNrS = /* vertical profile of vertical diffusion of Salt ( m^2/s )*/
(PID.TID 0000.0001)   100 @  1.000000000000000E-05              /* K =  1:100 */
(PID.TID 0000.0001)     ;
(PID.TID 0000.0001) diffKrBL79surf = /* Surface diffusion for Bryan and Lewis 79 ( m^2/s ) */
(PID.TID 0000.0001)                 0.000000000000000E+00
(PID.TID 0000.0001)     ;
(PID.TID 0000.0001) diffKrBL79deep = /* Deep diffusion for Bryan and Lewis 1979 ( m^2/s ) */
(PID.TID 0000.0001)                 0.000000000000000E+00
(PID.TID 0000.0001)     ;
(PID.TID 0000.0001) diffKrBL79scl = /* Depth scale for Bryan and Lewis 1979 ( m ) */
(PID.TID 0000.0001)                 2.000000000000000E+02
(PID.TID 0000.0001)     ;
(PID.TID 0000.0001) diffKrBL79Ho = /* Turning depth for Bryan and Lewis 1979 ( m ) */
(PID.TID 0000.0001)                -2.000000000000000E+03
(PID.TID 0000.0001)     ;
(PID.TID 0000.0001) ivdc_kappa = /* Implicit Vertical Diffusivity for Convection ( m^2/s) */
(PID.TID 0000.0001)                 0.000000000000000E+00
(PID.TID 0000.0001)     ;
(PID.TID 0000.0001) hMixCriteria=  /* Criteria for mixed-layer diagnostic */
(PID.TID 0000.0001)                -8.000000000000000E-01
(PID.TID 0000.0001)     ;
(PID.TID 0000.0001) dRhoSmall =  /* Parameter for mixed-layer diagnostic */
(PID.TID 0000.0001)                 1.000000000000000E-06
(PID.TID 0000.0001)     ;
(PID.TID 0000.0001) hMixSmooth=  /* Smoothing parameter for mixed-layer diagnostic */
(PID.TID 0000.0001)                 0.000000000000000E+00
(PID.TID 0000.0001)     ;
(PID.TID 0000.0001) eosType =  /* Type of Equation of State */
(PID.TID 0000.0001)               'LINEAR'
(PID.TID 0000.0001)     ;
(PID.TID 0000.0001) tAlpha = /* Linear EOS thermal expansion coefficient ( 1/oC ) */
(PID.TID 0000.0001)                 2.000000000000000E-04
(PID.TID 0000.0001)     ;
(PID.TID 0000.0001) sBeta  = /* Linear EOS haline contraction coefficient ( 1/psu ) */
(PID.TID 0000.0001)                 0.000000000000000E+00
(PID.TID 0000.0001)     ;
(PID.TID 0000.0001) rhoNil    = /* Reference density for Linear EOS ( kg/m^3 ) */
(PID.TID 0000.0001)                 9.998000000000000E+02
(PID.TID 0000.0001)     ;
(PID.TID 0000.0001) HeatCapacity_Cp =  /* Specific heat capacity ( J/kg/K ) */
(PID.TID 0000.0001)                 3.994000000000000E+03
(PID.TID 0000.0001)     ;
(PID.TID 0000.0001) celsius2K = /* 0 degree Celsius converted to Kelvin ( K ) */
(PID.TID 0000.0001)                 2.731500000000000E+02
(PID.TID 0000.0001)     ;
(PID.TID 0000.0001) rhoConst  = /* Reference density (Boussinesq)  ( kg/m^3 ) */
(PID.TID 0000.0001)                 9.998000000000000E+02
(PID.TID 0000.0001)     ;
(PID.TID 0000.0001) rhoFacC = /* normalized Reference density @ cell-Center (-) */
(PID.TID 0000.0001)   100 @  1.000000000000000E+00              /* K =  1:100 */
(PID.TID 0000.0001)     ;
(PID.TID 0000.0001) rhoFacF = /* normalized Reference density @ W-Interface (-) */
(PID.TID 0000.0001)   101 @  1.000000000000000E+00              /* K =  1:101 */
(PID.TID 0000.0001)     ;
(PID.TID 0000.0001) rhoConstFresh = /* Fresh-water reference density ( kg/m^3 ) */
(PID.TID 0000.0001)                 9.998000000000000E+02
(PID.TID 0000.0001)     ;
(PID.TID 0000.0001) gravity =   /* Gravitational acceleration ( m/s^2 ) */
(PID.TID 0000.0001)                 9.810000000000000E+00
(PID.TID 0000.0001)     ;
(PID.TID 0000.0001) gBaro =   /* Barotropic gravity ( m/s^2 ) */
(PID.TID 0000.0001)                 9.810000000000000E+00
(PID.TID 0000.0001)     ;
(PID.TID 0000.0001) rotationPeriod =   /* Rotation Period ( s ) */
(PID.TID 0000.0001)                 8.616400000000000E+04
(PID.TID 0000.0001)     ;
(PID.TID 0000.0001) omega =   /* Angular velocity ( rad/s ) */
(PID.TID 0000.0001)                 7.292123516990375E-05
(PID.TID 0000.0001)     ;
(PID.TID 0000.0001) f0 =   /* Reference coriolis parameter ( 1/s ) */
(PID.TID 0000.0001)                 0.000000000000000E+00
(PID.TID 0000.0001)     ;
(PID.TID 0000.0001) beta =   /* Beta ( 1/(m.s) ) */
(PID.TID 0000.0001)                 0.000000000000000E+00
(PID.TID 0000.0001)     ;
(PID.TID 0000.0001) fPrime =   /* Second coriolis parameter ( 1/s ) */
(PID.TID 0000.0001)                 0.000000000000000E+00
(PID.TID 0000.0001)     ;
(PID.TID 0000.0001) rigidLid =   /* Rigid lid on/off flag */
(PID.TID 0000.0001)                   F
(PID.TID 0000.0001)     ;
(PID.TID 0000.0001) implicitFreeSurface =   /* Implicit free surface on/off flag */
(PID.TID 0000.0001)                   T
(PID.TID 0000.0001)     ;
(PID.TID 0000.0001) freeSurfFac =   /* Implicit free surface factor */
(PID.TID 0000.0001)                 1.000000000000000E+00
(PID.TID 0000.0001)     ;
(PID.TID 0000.0001) implicSurfPress =  /* Surface Pressure implicit factor (0-1)*/
(PID.TID 0000.0001)                 1.000000000000000E+00
(PID.TID 0000.0001)     ;
(PID.TID 0000.0001) implicDiv2Dflow =  /* Barot. Flow Div. implicit factor (0-1)*/
(PID.TID 0000.0001)                 1.000000000000000E+00
(PID.TID 0000.0001)     ;
(PID.TID 0000.0001) uniformLin_PhiSurf = /* use uniform Bo_surf on/off flag*/
(PID.TID 0000.0001)                   T
(PID.TID 0000.0001)     ;
(PID.TID 0000.0001) uniformFreeSurfLev = /* free-surface level-index is uniform */
(PID.TID 0000.0001)                   T
(PID.TID 0000.0001)     ;
(PID.TID 0000.0001) hFacMin =   /* minimum partial cell factor (hFac) */
(PID.TID 0000.0001)                 1.000000000000000E-01
(PID.TID 0000.0001)     ;
(PID.TID 0000.0001) hFacMinDr = /* minimum partial cell thickness ( m) */
(PID.TID 0000.0001)                 0.000000000000000E+00
(PID.TID 0000.0001)     ;
(PID.TID 0000.0001) exactConserv =  /* Exact Volume Conservation on/off flag*/
(PID.TID 0000.0001)                   F
(PID.TID 0000.0001)     ;
(PID.TID 0000.0001) linFSConserveTr = /* Tracer correction for Lin Free Surface on/off flag*/
(PID.TID 0000.0001)                   F
(PID.TID 0000.0001)     ;
(PID.TID 0000.0001) nonlinFreeSurf = /* Non-linear Free Surf. options (-1,0,1,2,3)*/
(PID.TID 0000.0001)                       0
(PID.TID 0000.0001)      -1,0= Off ; 1,2,3= On, 2=+rescale gU,gV, 3=+update cg2d solv.
(PID.TID 0000.0001)     ;
(PID.TID 0000.0001) hFacInf =   /* lower threshold for hFac (nonlinFreeSurf only)*/
(PID.TID 0000.0001)                 2.000000000000000E-01
(PID.TID 0000.0001)     ;
(PID.TID 0000.0001) hFacSup =   /* upper threshold for hFac (nonlinFreeSurf only)*/
(PID.TID 0000.0001)                 2.000000000000000E+00
(PID.TID 0000.0001)     ;
(PID.TID 0000.0001) select_rStar = /* r* Vertical coord. options (=0 r coord.; >0 uses r*)*/
(PID.TID 0000.0001)                       0
(PID.TID 0000.0001)     ;
(PID.TID 0000.0001) useRealFreshWaterFlux = /* Real Fresh Water Flux on/off flag*/
(PID.TID 0000.0001)                   F
(PID.TID 0000.0001)     ;
(PID.TID 0000.0001) temp_EvPrRn = /* Temp. of Evap/Prec/R (UNSET=use local T)(oC)*/
(PID.TID 0000.0001)                 1.234567000000000E+05
(PID.TID 0000.0001)     ;
(PID.TID 0000.0001) salt_EvPrRn = /* Salin. of Evap/Prec/R (UNSET=use local S)(psu)*/
(PID.TID 0000.0001)                 0.000000000000000E+00
(PID.TID 0000.0001)     ;
(PID.TID 0000.0001) selectAddFluid = /* option for mass source/sink of fluid (=0: off) */
(PID.TID 0000.0001)                       0
(PID.TID 0000.0001)     ;
(PID.TID 0000.0001) temp_addMass = /* Temp. of addMass array (UNSET=use local T)(oC)*/
(PID.TID 0000.0001)                 1.234567000000000E+05
(PID.TID 0000.0001)     ;
(PID.TID 0000.0001) salt_addMass = /* Salin. of addMass array (UNSET=use local S)(psu)*/
(PID.TID 0000.0001)                 0.000000000000000E+00
(PID.TID 0000.0001)     ;
(PID.TID 0000.0001) convertFW2Salt = /* convert F.W. Flux to Salt Flux (-1=use local S)(psu)*/
(PID.TID 0000.0001)                 3.500000000000000E+01
(PID.TID 0000.0001)     ;
(PID.TID 0000.0001) use3Dsolver = /* use 3-D pressure solver on/off flag */
(PID.TID 0000.0001)                   F
(PID.TID 0000.0001)     ;
(PID.TID 0000.0001) nonHydrostatic =  /* Non-Hydrostatic on/off flag */
(PID.TID 0000.0001)                   F
(PID.TID 0000.0001)     ;
(PID.TID 0000.0001) nh_Am2 = /* Non-Hydrostatic terms scaling factor */
(PID.TID 0000.0001)                 1.000000000000000E+00
(PID.TID 0000.0001)     ;
(PID.TID 0000.0001) implicitNHPress = /* Non-Hyd Pressure implicit factor (0-1)*/
(PID.TID 0000.0001)                 1.000000000000000E+00
(PID.TID 0000.0001)     ;
(PID.TID 0000.0001) selectNHfreeSurf = /* Non-Hyd (free-)Surface option */
(PID.TID 0000.0001)                       0
(PID.TID 0000.0001)     ;
(PID.TID 0000.0001) quasiHydrostatic = /* Quasi-Hydrostatic on/off flag */
(PID.TID 0000.0001)                   F
(PID.TID 0000.0001)     ;
(PID.TID 0000.0001) calc_wVelocity = /* vertical velocity calculation on/off flag */
(PID.TID 0000.0001)                   T
(PID.TID 0000.0001)     ;
(PID.TID 0000.0001) momStepping =  /* Momentum equation on/off flag */
(PID.TID 0000.0001)                   T
(PID.TID 0000.0001)     ;
(PID.TID 0000.0001) vectorInvariantMomentum= /* Vector-Invariant Momentum on/off */
(PID.TID 0000.0001)                   F
(PID.TID 0000.0001)     ;
(PID.TID 0000.0001) momAdvection =  /* Momentum advection on/off flag */
(PID.TID 0000.0001)                   T
(PID.TID 0000.0001)     ;
(PID.TID 0000.0001) momViscosity =  /* Momentum viscosity on/off flag */
(PID.TID 0000.0001)                   T
(PID.TID 0000.0001)     ;
(PID.TID 0000.0001) momImplVertAdv= /* Momentum implicit vert. advection on/off*/
(PID.TID 0000.0001)                   F
(PID.TID 0000.0001)     ;
(PID.TID 0000.0001) implicitViscosity = /* Implicit viscosity on/off flag */
(PID.TID 0000.0001)                   T
(PID.TID 0000.0001)     ;
(PID.TID 0000.0001) metricTerms =  /* metric-Terms on/off flag */
(PID.TID 0000.0001)                   F
(PID.TID 0000.0001)     ;
(PID.TID 0000.0001) useNHMTerms = /* Non-Hydrostatic Metric-Terms on/off */
(PID.TID 0000.0001)                   F
(PID.TID 0000.0001)     ;
(PID.TID 0000.0001) selectCoriMap = /* Coriolis Map options (0,1,2,3)*/
(PID.TID 0000.0001)                       1
(PID.TID 0000.0001)     0= f-Plane ; 1= Beta-Plane ; 2= Spherical ; 3= read from file
(PID.TID 0000.0001)     ;
(PID.TID 0000.0001) use3dCoriolis = /* 3-D Coriolis on/off flag */
(PID.TID 0000.0001)                   F
(PID.TID 0000.0001)     ;
(PID.TID 0000.0001) useCoriolis =  /* Coriolis on/off flag */
(PID.TID 0000.0001)                   T
(PID.TID 0000.0001)     ;
(PID.TID 0000.0001) useCDscheme =  /* CD scheme on/off flag */
(PID.TID 0000.0001)                   F
(PID.TID 0000.0001)     ;
(PID.TID 0000.0001) useEnergyConservingCoriolis= /* Flx-Form Coriolis scheme flag */
(PID.TID 0000.0001)                   F
(PID.TID 0000.0001)     ;
(PID.TID 0000.0001) useJamartWetPoints= /* Coriolis WetPoints method flag */
(PID.TID 0000.0001)                   F
(PID.TID 0000.0001)     ;
(PID.TID 0000.0001) useJamartMomAdv= /* V.I Non-linear terms Jamart flag */
(PID.TID 0000.0001)                   F
(PID.TID 0000.0001)     ;
(PID.TID 0000.0001) useAbsVorticity= /* V.I Works with f+zeta in Coriolis */
(PID.TID 0000.0001)                   F
(PID.TID 0000.0001)     ;
(PID.TID 0000.0001) selectVortScheme= /* V.I Scheme selector for Vorticity-Term */
(PID.TID 0000.0001)               123456789
(PID.TID 0000.0001)    = 0 : enstrophy (Shallow-Water Eq.) conserving scheme by Sadourny, JAS 75
(PID.TID 0000.0001)    = 1 : same as 0 with modified hFac
(PID.TID 0000.0001)    = 2 : energy conserving scheme (used by Sadourny in JAS 75 paper)
(PID.TID 0000.0001)    = 3 : energy (general) and enstrophy (2D, nonDiv.) conserving scheme
(PID.TID 0000.0001)          from Sadourny (Burridge & Haseler, ECMWF Rep.4, 1977)
(PID.TID 0000.0001)     ;
(PID.TID 0000.0001) upwindVorticity= /* V.I Upwind bias vorticity flag */
(PID.TID 0000.0001)                   F
(PID.TID 0000.0001)     ;
(PID.TID 0000.0001) highOrderVorticity= /* V.I High order vort. advect. flag */
(PID.TID 0000.0001)                   F
(PID.TID 0000.0001)     ;
(PID.TID 0000.0001) upwindShear= /* V.I Upwind vertical Shear advection flag */
(PID.TID 0000.0001)                   F
(PID.TID 0000.0001)     ;
(PID.TID 0000.0001) selectKEscheme= /* V.I Kinetic Energy scheme selector */
(PID.TID 0000.0001)                       0
(PID.TID 0000.0001)     ;
(PID.TID 0000.0001) momForcing =  /* Momentum forcing on/off flag */
(PID.TID 0000.0001)                   T
(PID.TID 0000.0001)     ;
(PID.TID 0000.0001) momPressureForcing =  /* Momentum pressure term on/off flag */
(PID.TID 0000.0001)                   T
(PID.TID 0000.0001)     ;
(PID.TID 0000.0001) implicitIntGravWave= /* Implicit Internal Gravity Wave flag */
(PID.TID 0000.0001)                   F
(PID.TID 0000.0001)     ;
(PID.TID 0000.0001) staggerTimeStep =    /* Stagger time stepping on/off flag */
(PID.TID 0000.0001)                   T
(PID.TID 0000.0001)     ;
(PID.TID 0000.0001) doResetHFactors = /* reset thickness factors @ each time-step */
(PID.TID 0000.0001)                   F
(PID.TID 0000.0001)     ;
(PID.TID 0000.0001) multiDimAdvection =  /* enable/disable Multi-Dim Advection */
(PID.TID 0000.0001)                   T
(PID.TID 0000.0001)     ;
(PID.TID 0000.0001) useMultiDimAdvec =   /* Multi-Dim Advection is/is-not used */
(PID.TID 0000.0001)                   T
(PID.TID 0000.0001)     ;
(PID.TID 0000.0001) implicitDiffusion = /* Implicit Diffusion on/off flag */
(PID.TID 0000.0001)                   T
(PID.TID 0000.0001)     ;
(PID.TID 0000.0001) tempStepping =  /* Temperature equation on/off flag */
(PID.TID 0000.0001)                   T
(PID.TID 0000.0001)     ;
(PID.TID 0000.0001) tempAdvection = /* Temperature advection on/off flag */
(PID.TID 0000.0001)                   T
(PID.TID 0000.0001)     ;
(PID.TID 0000.0001) tempImplVertAdv = /* Temp. implicit vert. advection on/off */
(PID.TID 0000.0001)                   F
(PID.TID 0000.0001)     ;
(PID.TID 0000.0001) tempForcing  =  /* Temperature forcing on/off flag */
(PID.TID 0000.0001)                   T
(PID.TID 0000.0001)     ;
(PID.TID 0000.0001) doThetaClimRelax = /* apply SST relaxation on/off flag */
(PID.TID 0000.0001)                   F
(PID.TID 0000.0001)     ;
(PID.TID 0000.0001) tempIsActiveTr = /* Temp. is a dynamically Active Tracer */
(PID.TID 0000.0001)                   T
(PID.TID 0000.0001)     ;
(PID.TID 0000.0001) saltStepping =  /* Salinity equation on/off flag */
(PID.TID 0000.0001)                   F
(PID.TID 0000.0001)     ;
(PID.TID 0000.0001) saltAdvection = /* Salinity advection on/off flag */
(PID.TID 0000.0001)                   F
(PID.TID 0000.0001)     ;
(PID.TID 0000.0001) saltImplVertAdv = /* Sali. implicit vert. advection on/off */
(PID.TID 0000.0001)                   F
(PID.TID 0000.0001)     ;
(PID.TID 0000.0001) saltForcing  =  /* Salinity forcing on/off flag */
(PID.TID 0000.0001)                   F
(PID.TID 0000.0001)     ;
(PID.TID 0000.0001) doSaltClimRelax = /* apply SSS relaxation on/off flag */
(PID.TID 0000.0001)                   F
(PID.TID 0000.0001)     ;
(PID.TID 0000.0001) saltIsActiveTr = /* Salt  is a dynamically Active Tracer */
(PID.TID 0000.0001)                   F
(PID.TID 0000.0001)     ;
(PID.TID 0000.0001)  readBinaryPrec = /* Precision used for reading binary files */
(PID.TID 0000.0001)                      64
(PID.TID 0000.0001)     ;
(PID.TID 0000.0001) writeBinaryPrec = /* Precision used for writing binary files */
(PID.TID 0000.0001)                      64
(PID.TID 0000.0001)     ;
(PID.TID 0000.0001)  globalFiles = /* write "global" (=not per tile) files */
(PID.TID 0000.0001)                   F
(PID.TID 0000.0001)     ;
(PID.TID 0000.0001)  useSingleCpuIO = /* only master MPI process does I/O */
(PID.TID 0000.0001)                   T
(PID.TID 0000.0001)     ;
(PID.TID 0000.0001)  useSingleCpuInput = /* only master process reads input */
(PID.TID 0000.0001)                   T
(PID.TID 0000.0001)     ;
(PID.TID 0000.0001) /* debLev[*]  : level of debug & auxiliary message printing */
(PID.TID 0000.0001) debLevZero =  0 ; /* level of disabled aux. msg printing */
(PID.TID 0000.0001)    debLevA =  1 ; /* level of minimum  aux. msg printing */
(PID.TID 0000.0001)    debLevB =  2 ; /* level of low aux. print (report read-file opening)*/
(PID.TID 0000.0001)    debLevC =  3 ; /* level of moderate debug prt (most pkgs debug msg) */
(PID.TID 0000.0001)    debLevD =  4 ; /* level of enhanced debug prt (add DEBUG_STATS prt) */
(PID.TID 0000.0001)    debLevE =  5 ; /* level of extensive debug printing */
(PID.TID 0000.0001) debugLevel =  /* select debug printing level */
(PID.TID 0000.0001)                       2
(PID.TID 0000.0001)     ;
(PID.TID 0000.0001) //
(PID.TID 0000.0001) // Elliptic solver(s) paramters ( PARM02 in namelist )
(PID.TID 0000.0001) //
(PID.TID 0000.0001) cg2dMaxIters =   /* Upper limit on 2d con. grad iterations  */
(PID.TID 0000.0001)                    1000
(PID.TID 0000.0001)     ;
(PID.TID 0000.0001) cg2dChkResFreq =   /* 2d con. grad convergence test frequency */
(PID.TID 0000.0001)                       1
(PID.TID 0000.0001)     ;
(PID.TID 0000.0001) cg2dUseMinResSol= /* use cg2d last-iter(=0) / min-resid.(=1) solution */
(PID.TID 0000.0001)                       0
(PID.TID 0000.0001)     ;
(PID.TID 0000.0001) cg2dTargetResidual =   /* 2d con. grad target residual  */
(PID.TID 0000.0001)                 1.000000000000000E-13
(PID.TID 0000.0001)     ;
(PID.TID 0000.0001) cg2dTargetResWunit =   /* CG2d target residual [W units] */
(PID.TID 0000.0001)                -1.000000000000000E+00
(PID.TID 0000.0001)     ;
(PID.TID 0000.0001) cg2dPreCondFreq =   /* Freq. for updating cg2d preconditioner */
(PID.TID 0000.0001)                       1
(PID.TID 0000.0001)     ;
(PID.TID 0000.0001) useSRCGSolver =  /* use single reduction CG solver(s) */
(PID.TID 0000.0001)                   F
(PID.TID 0000.0001)     ;
(PID.TID 0000.0001) printResidualFreq = /* Freq. for printing CG residual */
(PID.TID 0000.0001)                       0
(PID.TID 0000.0001)     ;
(PID.TID 0000.0001) //
(PID.TID 0000.0001) // Time stepping paramters ( PARM03 in namelist )
(PID.TID 0000.0001) //
(PID.TID 0000.0001) deltaTMom =   /* Momentum equation timestep ( s ) */
(PID.TID 0000.0001)                 1.500000000000000E+01
(PID.TID 0000.0001)     ;
(PID.TID 0000.0001) deltaTFreeSurf = /* FreeSurface equation timestep ( s ) */
(PID.TID 0000.0001)                 1.500000000000000E+01
(PID.TID 0000.0001)     ;
(PID.TID 0000.0001) dTtracerLev =  /* Tracer equation timestep ( s ) */
(PID.TID 0000.0001)   100 @  1.500000000000000E+01              /* K =  1:100 */
(PID.TID 0000.0001)     ;
(PID.TID 0000.0001) deltaTClock  =   /* Model clock timestep ( s ) */
(PID.TID 0000.0001)                 1.500000000000000E+01
(PID.TID 0000.0001)     ;
(PID.TID 0000.0001) cAdjFreq =   /* Convective adjustment interval ( s ) */
(PID.TID 0000.0001)                 0.000000000000000E+00
(PID.TID 0000.0001)     ;
(PID.TID 0000.0001) momForcingOutAB = /* =1: take Momentum Forcing out of Adams-Bash. stepping */
(PID.TID 0000.0001)                       0
(PID.TID 0000.0001)     ;
(PID.TID 0000.0001) tracForcingOutAB = /* =1: take T,S,pTr Forcing out of Adams-Bash. stepping */
(PID.TID 0000.0001)                       0
(PID.TID 0000.0001)     ;
(PID.TID 0000.0001) momDissip_In_AB = /* put Dissipation Tendency in Adams-Bash. stepping */
(PID.TID 0000.0001)                   T
(PID.TID 0000.0001)     ;
(PID.TID 0000.0001) doAB_onGtGs = /* apply AB on Tendencies (rather than on T,S)*/
(PID.TID 0000.0001)                   T
(PID.TID 0000.0001)     ;
(PID.TID 0000.0001) abEps =   /* Adams-Bashforth-2 stabilizing weight */
(PID.TID 0000.0001)                 1.000000000000000E-01
(PID.TID 0000.0001)     ;
(PID.TID 0000.0001) pickupStrictlyMatch= /* stop if pickup do not strictly match */
(PID.TID 0000.0001)                   T
(PID.TID 0000.0001)     ;
(PID.TID 0000.0001) nIter0   =   /* Run starting timestep number */
(PID.TID 0000.0001)                       0
(PID.TID 0000.0001)     ;
(PID.TID 0000.0001) nTimeSteps = /* Number of timesteps */
(PID.TID 0000.0001)                    7200
(PID.TID 0000.0001)     ;
(PID.TID 0000.0001) nEndIter =   /* Run ending timestep number */
(PID.TID 0000.0001)                    7200
(PID.TID 0000.0001)     ;
(PID.TID 0000.0001) baseTime =   /* Model base time ( s ) */
(PID.TID 0000.0001)                 0.000000000000000E+00
(PID.TID 0000.0001)     ;
(PID.TID 0000.0001) startTime =  /* Run start time ( s ) */
(PID.TID 0000.0001)                 0.000000000000000E+00
(PID.TID 0000.0001)     ;
(PID.TID 0000.0001) endTime  =   /* Integration ending time ( s ) */
(PID.TID 0000.0001)                 1.080000000000000E+05
(PID.TID 0000.0001)     ;
(PID.TID 0000.0001) pChkPtFreq = /* Permanent restart/pickup file interval ( s ) */
(PID.TID 0000.0001)                 2.160000000000000E+04
(PID.TID 0000.0001)     ;
(PID.TID 0000.0001) chkPtFreq  = /* Rolling restart/pickup file interval ( s ) */
(PID.TID 0000.0001)                 0.000000000000000E+00
(PID.TID 0000.0001)     ;
(PID.TID 0000.0001) pickup_write_mdsio =   /* Model IO flag. */
(PID.TID 0000.0001)                   T
(PID.TID 0000.0001)     ;
(PID.TID 0000.0001) pickup_read_mdsio =   /* Model IO flag. */
(PID.TID 0000.0001)                   T
(PID.TID 0000.0001)     ;
(PID.TID 0000.0001) pickup_write_immed =   /* Model IO flag. */
(PID.TID 0000.0001)                   F
(PID.TID 0000.0001)     ;
(PID.TID 0000.0001) writePickupAtEnd =   /* Model IO flag. */
(PID.TID 0000.0001)                   T
(PID.TID 0000.0001)     ;
(PID.TID 0000.0001) dumpFreq =   /* Model state write out interval ( s ). */
(PID.TID 0000.0001)                 7.200000000000000E+03
(PID.TID 0000.0001)     ;
(PID.TID 0000.0001) dumpInitAndLast= /* write out Initial & Last iter. model state */
(PID.TID 0000.0001)                   T
(PID.TID 0000.0001)     ;
(PID.TID 0000.0001) snapshot_mdsio =   /* Model IO flag. */
(PID.TID 0000.0001)                   T
(PID.TID 0000.0001)     ;
(PID.TID 0000.0001) monitorFreq =   /* Monitor output interval ( s ). */
(PID.TID 0000.0001)                 7.200000000000000E+03
(PID.TID 0000.0001)     ;
(PID.TID 0000.0001) monitorSelect = /* select group of variables to monitor */
(PID.TID 0000.0001)                       3
(PID.TID 0000.0001)     ;
(PID.TID 0000.0001) monitor_stdio =   /* Model IO flag. */
(PID.TID 0000.0001)                   T
(PID.TID 0000.0001)     ;
(PID.TID 0000.0001) externForcingPeriod =   /* forcing period (s) */
(PID.TID 0000.0001)                 0.000000000000000E+00
(PID.TID 0000.0001)     ;
(PID.TID 0000.0001) externForcingCycle =   /* period of the cyle (s). */
(PID.TID 0000.0001)                 0.000000000000000E+00
(PID.TID 0000.0001)     ;
(PID.TID 0000.0001) tauThetaClimRelax =   /* relaxation time scale (s) */
(PID.TID 0000.0001)                 0.000000000000000E+00
(PID.TID 0000.0001)     ;
(PID.TID 0000.0001) tauSaltClimRelax =   /* relaxation time scale (s) */
(PID.TID 0000.0001)                 0.000000000000000E+00
(PID.TID 0000.0001)     ;
(PID.TID 0000.0001) latBandClimRelax =   /* max. Lat. where relaxation */
(PID.TID 0000.0001)                 1.500000000000000E+04
(PID.TID 0000.0001)     ;
(PID.TID 0000.0001) //
(PID.TID 0000.0001) // Gridding paramters ( PARM04 in namelist )
(PID.TID 0000.0001) //
(PID.TID 0000.0001) usingCartesianGrid = /* Cartesian coordinates flag ( True/False ) */
(PID.TID 0000.0001)                   T
(PID.TID 0000.0001)     ;
(PID.TID 0000.0001) usingCylindricalGrid = /* Cylindrical coordinates flag ( True/False ) */
(PID.TID 0000.0001)                   F
(PID.TID 0000.0001)     ;
(PID.TID 0000.0001) usingSphericalPolarGrid = /* Spherical coordinates flag ( True/False ) */
(PID.TID 0000.0001)                   F
(PID.TID 0000.0001)     ;
(PID.TID 0000.0001) usingCurvilinearGrid = /* Curvilinear coordinates flag ( True/False ) */
(PID.TID 0000.0001)                   F
(PID.TID 0000.0001)     ;
(PID.TID 0000.0001) selectSigmaCoord = /* Hybrid-Sigma Vert. Coordinate option */
(PID.TID 0000.0001)                       0
(PID.TID 0000.0001)     ;
(PID.TID 0000.0001) Ro_SeaLevel = /* r(1) ( units of r ==  m ) */
(PID.TID 0000.0001)                 0.000000000000000E+00
(PID.TID 0000.0001)     ;
(PID.TID 0000.0001) rSigmaBnd = /* r/sigma transition ( units of r ==  m ) */
(PID.TID 0000.0001)                 1.234567000000000E+05
(PID.TID 0000.0001)     ;
(PID.TID 0000.0001) rkSign =   /* index orientation relative to vertical coordinate */
(PID.TID 0000.0001)                -1.000000000000000E+00
(PID.TID 0000.0001)     ;
(PID.TID 0000.0001) gravitySign = /* gravity orientation relative to vertical coordinate */
(PID.TID 0000.0001)                -1.000000000000000E+00
(PID.TID 0000.0001)     ;
(PID.TID 0000.0001) mass2rUnit = /* convert mass per unit area [kg/m2] to r-units [m] */
(PID.TID 0000.0001)                 1.000200040008002E-03
(PID.TID 0000.0001)     ;
(PID.TID 0000.0001) rUnit2mass = /* convert r-units [m] to mass per unit area [kg/m2] */
(PID.TID 0000.0001)                 9.998000000000000E+02
(PID.TID 0000.0001)     ;
(PID.TID 0000.0001) drC =   /* C spacing ( units of r ) */
(PID.TID 0000.0001)                 8.938271592110918E-01,      /* K =  1 */
(PID.TID 0000.0001)                 1.768619871431060E+00,      /* K =  2 */
(PID.TID 0000.0001)                 1.730956324465319E+00,      /* K =  3 */
(PID.TID 0000.0001)                 1.694094839487546E+00,      /* K =  4 */
(PID.TID 0000.0001)                 1.658018336230896E+00,      /* K =  5 */
(PID.TID 0000.0001)                 1.622710098160403E+00,      /* K =  6 */
(PID.TID 0000.0001)                 1.588153764727151E+00,      /* K =  7 */
(PID.TID 0000.0001)                 1.554333323787391E+00,      /* K =  8 */
(PID.TID 0000.0001)                 1.521233104183099E+00,      /* K =  9 */
(PID.TID 0000.0001)                 1.488837768480531E+00,      /* K = 10 */
(PID.TID 0000.0001)                 1.457132305863421E+00,      /* K = 11 */
(PID.TID 0000.0001)                 1.426102025177510E+00,      /* K = 12 */
(PID.TID 0000.0001)                 1.395732548123206E+00,      /* K = 13 */
(PID.TID 0000.0001)                 1.366009802593203E+00,      /* K = 14 */
(PID.TID 0000.0001)                 1.336920016151980E+00,      /* K = 15 */
(PID.TID 0000.0001)                 1.308449709654159E+00,      /* K = 16 */
(PID.TID 0000.0001)                 1.280585690998757E+00,      /* K = 17 */
(PID.TID 0000.0001)                 1.253315049016451E+00,      /* K = 18 */
(PID.TID 0000.0001)                 1.226625147487014E+00,      /* K = 19 */
(PID.TID 0000.0001)                 1.200503619284147E+00,      /* K = 20 */
(PID.TID 0000.0001)                 1.174938360645011E+00,      /* K = 21 */
(PID.TID 0000.0001)                 1.149917525561778E+00,      /* K = 22 */
(PID.TID 0000.0001)                 1.125429520292630E+00,      /* K = 23 */
(PID.TID 0000.0001)                 1.101462997989634E+00,      /* K = 24 */
(PID.TID 0000.0001)                 1.078006853441037E+00,      /* K = 25 */
(PID.TID 0000.0001)                 1.055050217925506E+00,      /* K = 26 */
(PID.TID 0000.0001)                 1.032582454175967E+00,      /* K = 27 */
(PID.TID 0000.0001)                 1.010593151450680E+00,      /* K = 28 */
(PID.TID 0000.0001)                 9.998584140034217E-01,      /* K = 29 */
(PID.TID 0000.0001)     3 @  1.000000000000000E+00,             /* K = 30: 32 */
(PID.TID 0000.0001)                 1.017434101955024E+00,      /* K = 33 */
(PID.TID 0000.0001)                 1.046126953380043E+00,      /* K = 34 */
(PID.TID 0000.0001)                 1.068889429292269E+00,      /* K = 35 */
(PID.TID 0000.0001)                 1.092147189555960E+00,      /* K = 36 */
(PID.TID 0000.0001)                 1.115911010968409E+00,      /* K = 37 */
(PID.TID 0000.0001)                 1.140191904817177E+00,      /* K = 38 */
(PID.TID 0000.0001)                 1.165001121982321E+00,      /* K = 39 */
(PID.TID 0000.0001)                 1.190350158149641E+00,      /* K = 40 */
(PID.TID 0000.0001)                 1.216250759137361E+00,      /* K = 41 */
(PID.TID 0000.0001)                 1.242714926338713E+00,      /* K = 42 */
(PID.TID 0000.0001)                 1.269754922282945E+00,      /* K = 43 */
(PID.TID 0000.0001)                 1.297383276317330E+00,      /* K = 44 */
(PID.TID 0000.0001)                 1.325612790412805E+00,      /* K = 45 */
(PID.TID 0000.0001)                 1.354456545095941E+00,      /* K = 46 */
(PID.TID 0000.0001)                 1.383927905509979E+00,      /* K = 47 */
(PID.TID 0000.0001)                 1.414040527607753E+00,      /* K = 48 */
(PID.TID 0000.0001)                 1.444808364479354E+00,      /* K = 49 */
(PID.TID 0000.0001)                 1.476245672817491E+00,      /* K = 50 */
(PID.TID 0000.0001)                 1.508367019523514E+00,      /* K = 51 */
(PID.TID 0000.0001)                 1.541187288457190E+00,      /* K = 52 */
(PID.TID 0000.0001)                 1.574721687333338E+00,      /* K = 53 */
(PID.TID 0000.0001)                 1.608985754768529E+00,      /* K = 54 */
(PID.TID 0000.0001)                 1.643995367481116E+00,      /* K = 55 */
(PID.TID 0000.0001)                 1.679766747647922E+00,      /* K = 56 */
(PID.TID 0000.0001)                 1.716316470421008E+00,      /* K = 57 */
(PID.TID 0000.0001)                 1.753661471607993E+00,      /* K = 58 */
(PID.TID 0000.0001)                 1.791819055519489E+00,      /* K = 59 */
(PID.TID 0000.0001)                 1.830806902987283E+00,      /* K = 60 */
(PID.TID 0000.0001)                 1.870643079556998E+00,      /* K = 61 */
(PID.TID 0000.0001)                 1.911346043858999E+00,      /* K = 62 */
(PID.TID 0000.0001)                 1.952934656161451E+00,      /* K = 63 */
(PID.TID 0000.0001)                 1.995428187109485E+00,      /* K = 64 */
(PID.TID 0000.0001)                 2.038846326654500E+00,      /* K = 65 */
(PID.TID 0000.0001)                 2.083209193177779E+00,      /* K = 66 */
(PID.TID 0000.0001)                 2.128537342812607E+00,      /* K = 67 */
(PID.TID 0000.0001)                 2.174851778969233E+00,      /* K = 68 */
(PID.TID 0000.0001)                 2.222173962067085E+00,      /* K = 69 */
(PID.TID 0000.0001)                 2.270525819478747E+00,      /* K = 70 */
(PID.TID 0000.0001)                 2.319929755690298E+00,      /* K = 71 */
(PID.TID 0000.0001)                 2.370408662682739E+00,      /* K = 72 */
(PID.TID 0000.0001)                 2.421985930539297E+00,      /* K = 73 */
(PID.TID 0000.0001)                 2.474685458283539E+00,      /* K = 74 */
(PID.TID 0000.0001)                 2.528531664953306E+00,      /* K = 75 */
(PID.TID 0000.0001)                 2.583549500915603E+00,      /* K = 76 */
(PID.TID 0000.0001)                 2.639764459427689E+00,      /* K = 77 */
(PID.TID 0000.0001)                 2.697202588449726E+00,      /* K = 78 */
(PID.TID 0000.0001)                 2.755890502714446E+00,      /* K = 79 */
(PID.TID 0000.0001)                 2.815855396059451E+00,      /* K = 80 */
(PID.TID 0000.0001)                 2.877125054027847E+00,      /* K = 81 */
(PID.TID 0000.0001)                 2.939727866743044E+00,      /* K = 82 */
(PID.TID 0000.0001)                 3.003692842063710E+00,      /* K = 83 */
(PID.TID 0000.0001)                 3.069049619024951E+00,      /* K = 84 */
(PID.TID 0000.0001)                 3.135828481571954E+00,      /* K = 85 */
(PID.TID 0000.0001)                 3.204060372592473E+00,      /* K = 86 */
(PID.TID 0000.0001)                 3.273776908254621E+00,      /* K = 87 */
(PID.TID 0000.0001)                 3.345010392656657E+00,      /* K = 88 */
(PID.TID 0000.0001)                 3.417793832795525E+00,      /* K = 89 */
(PID.TID 0000.0001)                 3.492160953861089E+00,      /* K = 90 */
(PID.TID 0000.0001)                 3.568146214863155E+00,      /* K = 91 */
(PID.TID 0000.0001)                 3.645784824598524E+00,      /* K = 92 */
(PID.TID 0000.0001)                 3.725112757965455E+00,      /* K = 93 */
(PID.TID 0000.0001)                 3.806166772633128E+00,      /* K = 94 */
(PID.TID 0000.0001)                 3.888984426073803E+00,      /* K = 95 */
(PID.TID 0000.0001)                 3.973604092965577E+00,      /* K = 96 */
(PID.TID 0000.0001)                 4.060064982973822E+00,      /* K = 97 */
(PID.TID 0000.0001)                 4.148407158919499E+00,      /* K = 98 */
(PID.TID 0000.0001)                 4.238671555342814E+00,      /* K = 99 */
(PID.TID 0000.0001)                 4.330899997470790E+00,      /* K =100 */
(PID.TID 0000.0001)                 2.188755257190682E+00       /* K =101 */
(PID.TID 0000.0001)     ;
(PID.TID 0000.0001) drF =   /* W spacing ( units of r ) */
(PID.TID 0000.0001)                 1.787654318422184E+00,      /* K =  1 */
(PID.TID 0000.0001)                 1.749585424439936E+00,      /* K =  2 */
(PID.TID 0000.0001)                 1.712327224490701E+00,      /* K =  3 */
(PID.TID 0000.0001)                 1.675862454484391E+00,      /* K =  4 */
(PID.TID 0000.0001)                 1.640174217977400E+00,      /* K =  5 */
(PID.TID 0000.0001)                 1.605245978343405E+00,      /* K =  6 */
(PID.TID 0000.0001)                 1.571061551110896E+00,      /* K =  7 */
(PID.TID 0000.0001)                 1.537605096463885E+00,      /* K =  8 */
(PID.TID 0000.0001)                 1.504861111902312E+00,      /* K =  9 */
(PID.TID 0000.0001)                 1.472814425058751E+00,      /* K = 10 */
(PID.TID 0000.0001)                 1.441450186668091E+00,      /* K = 11 */
(PID.TID 0000.0001)                 1.410753863686929E+00,      /* K = 12 */
(PID.TID 0000.0001)                 1.380711232559483E+00,      /* K = 13 */
(PID.TID 0000.0001)                 1.351308372626922E+00,      /* K = 14 */
(PID.TID 0000.0001)                 1.322531659677038E+00,      /* K = 15 */
(PID.TID 0000.0001)                 1.294367759631280E+00,      /* K = 16 */
(PID.TID 0000.0001)                 1.266803622366234E+00,      /* K = 17 */
(PID.TID 0000.0001)                 1.239826475666668E+00,      /* K = 18 */
(PID.TID 0000.0001)                 1.213423819307359E+00,      /* K = 19 */
(PID.TID 0000.0001)                 1.187583419260936E+00,      /* K = 20 */
(PID.TID 0000.0001)                 1.162293302029086E+00,      /* K = 21 */
(PID.TID 0000.0001)                 1.137541749094471E+00,      /* K = 22 */
(PID.TID 0000.0001)                 1.113317291490789E+00,      /* K = 23 */
(PID.TID 0000.0001)                 1.089608704488480E+00,      /* K = 24 */
(PID.TID 0000.0001)                 1.066405002393594E+00,      /* K = 25 */
(PID.TID 0000.0001)                 1.043695433457419E+00,      /* K = 26 */
(PID.TID 0000.0001)                 1.021469474894516E+00,      /* K = 27 */
(PID.TID 0000.0001)                 9.997168280068435E-01,      /* K = 28 */
(PID.TID 0000.0001)     4 @  1.000000000000000E+00,             /* K = 29: 32 */
(PID.TID 0000.0001)                 1.034868203910047E+00,      /* K = 33 */
(PID.TID 0000.0001)                 1.057385702850038E+00,      /* K = 34 */
(PID.TID 0000.0001)                 1.080393155734499E+00,      /* K = 35 */
(PID.TID 0000.0001)                 1.103901223377420E+00,      /* K = 36 */
(PID.TID 0000.0001)                 1.127920798559398E+00,      /* K = 37 */
(PID.TID 0000.0001)                 1.152463011074956E+00,      /* K = 38 */
(PID.TID 0000.0001)                 1.177539232889686E+00,      /* K = 39 */
(PID.TID 0000.0001)                 1.203161083409596E+00,      /* K = 40 */
(PID.TID 0000.0001)                 1.229340434865126E+00,      /* K = 41 */
(PID.TID 0000.0001)                 1.256089417812301E+00,      /* K = 42 */
(PID.TID 0000.0001)                 1.283420426753590E+00,      /* K = 43 */
(PID.TID 0000.0001)                 1.311346125881070E+00,      /* K = 44 */
(PID.TID 0000.0001)                 1.339879454944540E+00,      /* K = 45 */
(PID.TID 0000.0001)                 1.369033635247341E+00,      /* K = 46 */
(PID.TID 0000.0001)                 1.398822175772617E+00,      /* K = 47 */
(PID.TID 0000.0001)                 1.429258879442888E+00,      /* K = 48 */
(PID.TID 0000.0001)                 1.460357849515820E+00,      /* K = 49 */
(PID.TID 0000.0001)                 1.492133496119162E+00,      /* K = 50 */
(PID.TID 0000.0001)                 1.524600542927867E+00,      /* K = 51 */
(PID.TID 0000.0001)                 1.557774033986513E+00,      /* K = 52 */
(PID.TID 0000.0001)                 1.591669340680163E+00,      /* K = 53 */
(PID.TID 0000.0001)                 1.626302168856896E+00,      /* K = 54 */
(PID.TID 0000.0001)                 1.661688566105336E+00,      /* K = 55 */
(PID.TID 0000.0001)                 1.697844929190508E+00,      /* K = 56 */
(PID.TID 0000.0001)                 1.734788011651508E+00,      /* K = 57 */
(PID.TID 0000.0001)                 1.772534931564478E+00,      /* K = 58 */
(PID.TID 0000.0001)                 1.811103179474499E+00,      /* K = 59 */
(PID.TID 0000.0001)                 1.850510626500068E+00,      /* K = 60 */
(PID.TID 0000.0001)                 1.890775532613928E+00,      /* K = 61 */
(PID.TID 0000.0001)                 1.931916555104069E+00,      /* K = 62 */
(PID.TID 0000.0001)                 1.973952757218834E+00,      /* K = 63 */
(PID.TID 0000.0001)                 2.016903617000135E+00,      /* K = 64 */
(PID.TID 0000.0001)                 2.060789036308865E+00,      /* K = 65 */
(PID.TID 0000.0001)                 2.105629350046693E+00,      /* K = 66 */
(PID.TID 0000.0001)                 2.151445335578520E+00,      /* K = 67 */
(PID.TID 0000.0001)                 2.198258222359945E+00,      /* K = 68 */
(PID.TID 0000.0001)                 2.246089701774225E+00,      /* K = 69 */
(PID.TID 0000.0001)                 2.294961937183268E+00,      /* K = 70 */
(PID.TID 0000.0001)                 2.344897574197328E+00,      /* K = 71 */
(PID.TID 0000.0001)                 2.395919751168150E+00,      /* K = 72 */
(PID.TID 0000.0001)                 2.448052109910444E+00,      /* K = 73 */
(PID.TID 0000.0001)                 2.501318806656634E+00,      /* K = 74 */
(PID.TID 0000.0001)                 2.555744523249977E+00,      /* K = 75 */
(PID.TID 0000.0001)                 2.611354478581228E+00,      /* K = 76 */
(PID.TID 0000.0001)                 2.668174440274151E+00,      /* K = 77 */
(PID.TID 0000.0001)                 2.726230736625301E+00,      /* K = 78 */
(PID.TID 0000.0001)                 2.785550268803591E+00,      /* K = 79 */
(PID.TID 0000.0001)                 2.846160523315312E+00,      /* K = 80 */
(PID.TID 0000.0001)                 2.908089584740382E+00,      /* K = 81 */
(PID.TID 0000.0001)                 2.971366148745707E+00,      /* K = 82 */
(PID.TID 0000.0001)                 3.036019535381714E+00,      /* K = 83 */
(PID.TID 0000.0001)                 3.102079702668187E+00,      /* K = 84 */
(PID.TID 0000.0001)                 3.169577260475721E+00,      /* K = 85 */
(PID.TID 0000.0001)                 3.238543484709223E+00,      /* K = 86 */
(PID.TID 0000.0001)                 3.309010331800017E+00,      /* K = 87 */
(PID.TID 0000.0001)                 3.381010453513297E+00,      /* K = 88 */
(PID.TID 0000.0001)                 3.454577212077754E+00,      /* K = 89 */
(PID.TID 0000.0001)                 3.529744695644424E+00,      /* K = 90 */
(PID.TID 0000.0001)                 3.606547734081887E+00,      /* K = 91 */
(PID.TID 0000.0001)                 3.685021915115160E+00,      /* K = 92 */
(PID.TID 0000.0001)                 3.765203600815750E+00,      /* K = 93 */
(PID.TID 0000.0001)                 3.847129944450507E+00,      /* K = 94 */
(PID.TID 0000.0001)                 3.930838907697098E+00,      /* K = 95 */
(PID.TID 0000.0001)                 4.016369278234057E+00,      /* K = 96 */
(PID.TID 0000.0001)                 4.103760687713586E+00,      /* K = 97 */
(PID.TID 0000.0001)                 4.193053630125410E+00,      /* K = 98 */
(PID.TID 0000.0001)                 4.284289480560216E+00,      /* K = 99 */
(PID.TID 0000.0001)                 4.377510514381364E+00       /* K =100 */
(PID.TID 0000.0001)     ;
(PID.TID 0000.0001) delX = /* U spacing ( m - cartesian, degrees - spherical ) */
(PID.TID 0000.0001)                 1.263294638016668E+03,      /* I =  1 */
(PID.TID 0000.0001)                 1.237496063806571E+03,      /* I =  2 */
(PID.TID 0000.0001)                 1.212224339320398E+03,      /* I =  3 */
(PID.TID 0000.0001)      . . .
(PID.TID 0000.0001)                 4.790113490274632E+02,      /* I = 48 */
(PID.TID 0000.0001)                 4.692291418815790E+02,      /* I = 49 */
(PID.TID 0000.0001)                 4.596467036489769E+02,      /* I = 50 */
(PID.TID 0000.0001)                 4.502599547167311E+02,      /* I = 51 */
(PID.TID 0000.0001)                 4.410648987843862E+02,      /* I = 52 */
(PID.TID 0000.0001)                 4.320576211625778E+02,      /* I = 53 */
(PID.TID 0000.0001)      . . .
(PID.TID 0000.0001)                 2.000000000000000E+02,      /* I = 98 */
(PID.TID 0000.0001)                 2.000000000000000E+02,      /* I = 99 */
(PID.TID 0000.0001)                 2.000000000000000E+02,      /* I =100 */
(PID.TID 0000.0001)                 2.000000000000000E+02,      /* I =101 */
(PID.TID 0000.0001)                 2.000000000000000E+02,      /* I =102 */
(PID.TID 0000.0001)                 2.000000000000000E+02,      /* I =103 */
(PID.TID 0000.0001)      . . .
(PID.TID 0000.0001)                 3.612641354876311E+02,      /* I =148 */
(PID.TID 0000.0001)                 3.687955530665730E+02,      /* I =149 */
(PID.TID 0000.0001)                 3.764839811128614E+02,      /* I =150 */
(PID.TID 0000.0001)                 3.843326928863569E+02,      /* I =151 */
(PID.TID 0000.0001)                 3.923450298858749E+02,      /* I =152 */
(PID.TID 0000.0001)                 4.005244032717896E+02,      /* I =153 */
(PID.TID 0000.0001)      . . .
(PID.TID 0000.0001)                 1.013599012055986E+03,      /* I =198 */
(PID.TID 0000.0001)                 1.034729915092050E+03,      /* I =199 */
(PID.TID 0000.0001)                 1.056301342495056E+03       /* I =200 */
(PID.TID 0000.0001)     ;
(PID.TID 0000.0001) delY = /* V spacing ( m - cartesian, degrees - spherical ) */
(PID.TID 0000.0001)                 5.000000000000000E+03       /* J =  1 */
(PID.TID 0000.0001)     ;
(PID.TID 0000.0001) xgOrigin = /* X-axis origin of West  edge (cartesian: m, lat-lon: deg) */
(PID.TID 0000.0001)                 0.000000000000000E+00
(PID.TID 0000.0001)     ;
(PID.TID 0000.0001) ygOrigin = /* Y-axis origin of South edge (cartesian: m, lat-lon: deg) */
(PID.TID 0000.0001)                 0.000000000000000E+00
(PID.TID 0000.0001)     ;
(PID.TID 0000.0001) rSphere =  /* Radius ( ignored - cartesian, m - spherical ) */
(PID.TID 0000.0001)                 6.370000000000000E+06
(PID.TID 0000.0001)     ;
(PID.TID 0000.0001) deepAtmosphere = /* Deep/Shallow Atmosphere flag (True/False) */
(PID.TID 0000.0001)                   F
(PID.TID 0000.0001)     ;
(PID.TID 0000.0001) xC =  /* xC(:,1,:,1) : P-point X coord ( deg. or m if cartesian) */
(PID.TID 0000.0001)                 6.316473190083342E+02,      /* I =  1 */
(PID.TID 0000.0001)                 1.882042669919954E+03,      /* I =  2 */
(PID.TID 0000.0001)                 3.106902871483439E+03,      /* I =  3 */
(PID.TID 0000.0001)      . . .
(PID.TID 0000.0001)                 3.864398747251778E+04,      /* I = 48 */
(PID.TID 0000.0001)                 3.911810771797229E+04,      /* I = 49 */
(PID.TID 0000.0001)                 3.958254564073758E+04,      /* I = 50 */
(PID.TID 0000.0001)                 4.003749896992043E+04,      /* I = 51 */
(PID.TID 0000.0001)                 4.048316139667099E+04,      /* I = 52 */
(PID.TID 0000.0001)                 4.091972265664447E+04,      /* I = 53 */
(PID.TID 0000.0001)      . . .
(PID.TID 0000.0001)                 5.369999999999999E+04,      /* I = 98 */
(PID.TID 0000.0001)                 5.389999999999999E+04,      /* I = 99 */
(PID.TID 0000.0001)                 5.409999999999999E+04,      /* I =100 */
(PID.TID 0000.0001)                 5.429999999999999E+04,      /* I =101 */
(PID.TID 0000.0001)                 5.449999999999999E+04,      /* I =102 */
(PID.TID 0000.0001)                 5.469999999999999E+04,      /* I =103 */
(PID.TID 0000.0001)      . . .
(PID.TID 0000.0001)                 6.578505387737689E+04,      /* I =148 */
(PID.TID 0000.0001)                 6.615008372165399E+04,      /* I =149 */
(PID.TID 0000.0001)                 6.652272348874371E+04,      /* I =150 */
(PID.TID 0000.0001)                 6.690313182574332E+04,      /* I =151 */
(PID.TID 0000.0001)                 6.729147068712943E+04,      /* I =152 */
(PID.TID 0000.0001)                 6.768790540370827E+04,      /* I =153 */
(PID.TID 0000.0001)      . . .
(PID.TID 0000.0001)                 9.740216923638493E+04,      /* I =198 */
(PID.TID 0000.0001)                 9.842633369995895E+04,      /* I =199 */
(PID.TID 0000.0001)                 9.947184932875249E+04       /* I =200 */
(PID.TID 0000.0001)     ;
(PID.TID 0000.0001) yC =  /* yC(1,:,1,:) : P-point Y coord ( deg. or m if cartesian) */
(PID.TID 0000.0001)                 2.500000000000000E+03       /* J =  1 */
(PID.TID 0000.0001)     ;
(PID.TID 0000.0001) rcoord = /* P-point R coordinate (  units of r ) */
(PID.TID 0000.0001)                -8.938271592110918E-01,      /* K =  1 */
(PID.TID 0000.0001)                -2.662447030642152E+00,      /* K =  2 */
(PID.TID 0000.0001)                -4.393403355107470E+00,      /* K =  3 */
(PID.TID 0000.0001)                -6.087498194595016E+00,      /* K =  4 */
(PID.TID 0000.0001)                -7.745516530825912E+00,      /* K =  5 */
(PID.TID 0000.0001)                -9.368226628986314E+00,      /* K =  6 */
(PID.TID 0000.0001)                -1.095638039371346E+01,      /* K =  7 */
(PID.TID 0000.0001)                -1.251071371750086E+01,      /* K =  8 */
(PID.TID 0000.0001)                -1.403194682168395E+01,      /* K =  9 */
(PID.TID 0000.0001)                -1.552078459016449E+01,      /* K = 10 */
(PID.TID 0000.0001)                -1.697791689602791E+01,      /* K = 11 */
(PID.TID 0000.0001)                -1.840401892120542E+01,      /* K = 12 */
(PID.TID 0000.0001)                -1.979975146932862E+01,      /* K = 13 */
(PID.TID 0000.0001)                -2.116576127192182E+01,      /* K = 14 */
(PID.TID 0000.0001)                -2.250268128807380E+01,      /* K = 15 */
(PID.TID 0000.0001)                -2.381113099772796E+01,      /* K = 16 */
(PID.TID 0000.0001)                -2.509171668872672E+01,      /* K = 17 */
(PID.TID 0000.0001)                -2.634503173774317E+01,      /* K = 18 */
(PID.TID 0000.0001)                -2.757165688523018E+01,      /* K = 19 */
(PID.TID 0000.0001)                -2.877216050451432E+01,      /* K = 20 */
(PID.TID 0000.0001)                -2.994709886515934E+01,      /* K = 21 */
(PID.TID 0000.0001)                -3.109701639072112E+01,      /* K = 22 */
(PID.TID 0000.0001)                -3.222244591101374E+01,      /* K = 23 */
(PID.TID 0000.0001)                -3.332390890900338E+01,      /* K = 24 */
(PID.TID 0000.0001)                -3.440191576244442E+01,      /* K = 25 */
(PID.TID 0000.0001)                -3.545696598036992E+01,      /* K = 26 */
(PID.TID 0000.0001)                -3.648954843454589E+01,      /* K = 27 */
(PID.TID 0000.0001)                -3.750014158599657E+01,      /* K = 28 */
(PID.TID 0000.0001)                -3.849999999999999E+01,      /* K = 29 */
(PID.TID 0000.0001)                -3.949999999999999E+01,      /* K = 30 */
(PID.TID 0000.0001)                -4.049999999999999E+01,      /* K = 31 */
(PID.TID 0000.0001)                -4.149999999999999E+01,      /* K = 32 */
(PID.TID 0000.0001)                -4.251743410195501E+01,      /* K = 33 */
(PID.TID 0000.0001)                -4.356356105533506E+01,      /* K = 34 */
(PID.TID 0000.0001)                -4.463245048462733E+01,      /* K = 35 */
(PID.TID 0000.0001)                -4.572459767418329E+01,      /* K = 36 */
(PID.TID 0000.0001)                -4.684050868515170E+01,      /* K = 37 */
(PID.TID 0000.0001)                -4.798070058996888E+01,      /* K = 38 */
(PID.TID 0000.0001)                -4.914570171195120E+01,      /* K = 39 */
(PID.TID 0000.0001)                -5.033605187010084E+01,      /* K = 40 */
(PID.TID 0000.0001)                -5.155230262923820E+01,      /* K = 41 */
(PID.TID 0000.0001)                -5.279501755557691E+01,      /* K = 42 */
(PID.TID 0000.0001)                -5.406477247785985E+01,      /* K = 43 */
(PID.TID 0000.0001)                -5.536215575417719E+01,      /* K = 44 */
(PID.TID 0000.0001)                -5.668776854458999E+01,      /* K = 45 */
(PID.TID 0000.0001)                -5.804222508968594E+01,      /* K = 46 */
(PID.TID 0000.0001)                -5.942615299519591E+01,      /* K = 47 */
(PID.TID 0000.0001)                -6.084019352280367E+01,      /* K = 48 */
(PID.TID 0000.0001)                -6.228500188728302E+01,      /* K = 49 */
(PID.TID 0000.0001)                -6.376124756010051E+01,      /* K = 50 */
(PID.TID 0000.0001)                -6.526961457962403E+01,      /* K = 51 */
(PID.TID 0000.0001)                -6.681080186808123E+01,      /* K = 52 */
(PID.TID 0000.0001)                -6.838552355541457E+01,      /* K = 53 */
(PID.TID 0000.0001)                -6.999450931018309E+01,      /* K = 54 */
(PID.TID 0000.0001)                -7.163850467766420E+01,      /* K = 55 */
(PID.TID 0000.0001)                -7.331827142531212E+01,      /* K = 56 */
(PID.TID 0000.0001)                -7.503458789573313E+01,      /* K = 57 */
(PID.TID 0000.0001)                -7.678824936734112E+01,      /* K = 58 */
(PID.TID 0000.0001)                -7.858006842286061E+01,      /* K = 59 */
(PID.TID 0000.0001)                -8.041087532584788E+01,      /* K = 60 */
(PID.TID 0000.0001)                -8.228151840540488E+01,      /* K = 61 */
(PID.TID 0000.0001)                -8.419286444926388E+01,      /* K = 62 */
(PID.TID 0000.0001)                -8.614579910542533E+01,      /* K = 63 */
(PID.TID 0000.0001)                -8.814122729253481E+01,      /* K = 64 */
(PID.TID 0000.0001)                -9.018007361918930E+01,      /* K = 65 */
(PID.TID 0000.0001)                -9.226328281236708E+01,      /* K = 66 */
(PID.TID 0000.0001)                -9.439182015517969E+01,      /* K = 67 */
(PID.TID 0000.0001)                -9.656667193414891E+01,      /* K = 68 */
(PID.TID 0000.0001)                -9.878884589621600E+01,      /* K = 69 */
(PID.TID 0000.0001)                -1.010593717156948E+02,      /* K = 70 */
(PID.TID 0000.0001)                -1.033793014713850E+02,      /* K = 71 */
(PID.TID 0000.0001)                -1.057497101340678E+02,      /* K = 72 */
(PID.TID 0000.0001)                -1.081716960646071E+02,      /* K = 73 */
(PID.TID 0000.0001)                -1.106463815228906E+02,      /* K = 74 */
(PID.TID 0000.0001)                -1.131749131878439E+02,      /* K = 75 */
(PID.TID 0000.0001)                -1.157584626887595E+02,      /* K = 76 */
(PID.TID 0000.0001)                -1.183982271481872E+02,      /* K = 77 */
(PID.TID 0000.0001)                -1.210954297366370E+02,      /* K = 78 */
(PID.TID 0000.0001)                -1.238513202393514E+02,      /* K = 79 */
(PID.TID 0000.0001)                -1.266671756354109E+02,      /* K = 80 */
(PID.TID 0000.0001)                -1.295443006894387E+02,      /* K = 81 */
(PID.TID 0000.0001)                -1.324840285561818E+02,      /* K = 82 */
(PID.TID 0000.0001)                -1.354877213982455E+02,      /* K = 83 */
(PID.TID 0000.0001)                -1.385567710172704E+02,      /* K = 84 */
(PID.TID 0000.0001)                -1.416925994988424E+02,      /* K = 85 */
(PID.TID 0000.0001)                -1.448966598714348E+02,      /* K = 86 */
(PID.TID 0000.0001)                -1.481704367796895E+02,      /* K = 87 */
(PID.TID 0000.0001)                -1.515154471723461E+02,      /* K = 88 */
(PID.TID 0000.0001)                -1.549332410051417E+02,      /* K = 89 */
(PID.TID 0000.0001)                -1.584254019590028E+02,      /* K = 90 */
(PID.TID 0000.0001)                -1.619935481738659E+02,      /* K = 91 */
(PID.TID 0000.0001)                -1.656393329984645E+02,      /* K = 92 */
(PID.TID 0000.0001)                -1.693644457564299E+02,      /* K = 93 */
(PID.TID 0000.0001)                -1.731706125290630E+02,      /* K = 94 */
(PID.TID 0000.0001)                -1.770595969551368E+02,      /* K = 95 */
(PID.TID 0000.0001)                -1.810332010481024E+02,      /* K = 96 */
(PID.TID 0000.0001)                -1.850932660310762E+02,      /* K = 97 */
(PID.TID 0000.0001)                -1.892416731899957E+02,      /* K = 98 */
(PID.TID 0000.0001)                -1.934803447453386E+02,      /* K = 99 */
(PID.TID 0000.0001)                -1.978112447428094E+02       /* K =100 */
(PID.TID 0000.0001)     ;
(PID.TID 0000.0001) rF =   /* W-Interf. R coordinate (  units of r ) */
(PID.TID 0000.0001)                 0.000000000000000E+00,      /* K =  1 */
(PID.TID 0000.0001)                -1.787654318422184E+00,      /* K =  2 */
(PID.TID 0000.0001)                -3.537239742862120E+00,      /* K =  3 */
(PID.TID 0000.0001)                -5.249566967352821E+00,      /* K =  4 */
(PID.TID 0000.0001)                -6.925429421837212E+00,      /* K =  5 */
(PID.TID 0000.0001)                -8.565603639814611E+00,      /* K =  6 */
(PID.TID 0000.0001)                -1.017084961815802E+01,      /* K =  7 */
(PID.TID 0000.0001)                -1.174191116926891E+01,      /* K =  8 */
(PID.TID 0000.0001)                -1.327951626573280E+01,      /* K =  9 */
(PID.TID 0000.0001)                -1.478437737763511E+01,      /* K = 10 */
(PID.TID 0000.0001)                -1.625719180269386E+01,      /* K = 11 */
(PID.TID 0000.0001)                -1.769864198936195E+01,      /* K = 12 */
(PID.TID 0000.0001)                -1.910939585304888E+01,      /* K = 13 */
(PID.TID 0000.0001)                -2.049010708560836E+01,      /* K = 14 */
(PID.TID 0000.0001)                -2.184141545823529E+01,      /* K = 15 */
(PID.TID 0000.0001)                -2.316394711791232E+01,      /* K = 16 */
(PID.TID 0000.0001)                -2.445831487754360E+01,      /* K = 17 */
(PID.TID 0000.0001)                -2.572511849990983E+01,      /* K = 18 */
(PID.TID 0000.0001)                -2.696494497557650E+01,      /* K = 19 */
(PID.TID 0000.0001)                -2.817836879488386E+01,      /* K = 20 */
(PID.TID 0000.0001)                -2.936595221414479E+01,      /* K = 21 */
(PID.TID 0000.0001)                -3.052824551617388E+01,      /* K = 22 */
(PID.TID 0000.0001)                -3.166578726526835E+01,      /* K = 23 */
(PID.TID 0000.0001)                -3.277910455675914E+01,      /* K = 24 */
(PID.TID 0000.0001)                -3.386871326124762E+01,      /* K = 25 */
(PID.TID 0000.0001)                -3.493511826364121E+01,      /* K = 26 */
(PID.TID 0000.0001)                -3.597881369709863E+01,      /* K = 27 */
(PID.TID 0000.0001)                -3.700028317199315E+01,      /* K = 28 */
(PID.TID 0000.0001)                -3.799999999999999E+01,      /* K = 29 */
(PID.TID 0000.0001)                -3.899999999999999E+01,      /* K = 30 */
(PID.TID 0000.0001)                -3.999999999999999E+01,      /* K = 31 */
(PID.TID 0000.0001)                -4.099999999999999E+01,      /* K = 32 */
(PID.TID 0000.0001)                -4.199999999999999E+01,      /* K = 33 */
(PID.TID 0000.0001)                -4.303486820391004E+01,      /* K = 34 */
(PID.TID 0000.0001)                -4.409225390676008E+01,      /* K = 35 */
(PID.TID 0000.0001)                -4.517264706249458E+01,      /* K = 36 */
(PID.TID 0000.0001)                -4.627654828587200E+01,      /* K = 37 */
(PID.TID 0000.0001)                -4.740446908443139E+01,      /* K = 38 */
(PID.TID 0000.0001)                -4.855693209550635E+01,      /* K = 39 */
(PID.TID 0000.0001)                -4.973447132839603E+01,      /* K = 40 */
(PID.TID 0000.0001)                -5.093763241180563E+01,      /* K = 41 */
(PID.TID 0000.0001)                -5.216697284667075E+01,      /* K = 42 */
(PID.TID 0000.0001)                -5.342306226448305E+01,      /* K = 43 */
(PID.TID 0000.0001)                -5.470648269123664E+01,      /* K = 44 */
(PID.TID 0000.0001)                -5.601782881711772E+01,      /* K = 45 */
(PID.TID 0000.0001)                -5.735770827206225E+01,      /* K = 46 */
(PID.TID 0000.0001)                -5.872674190730960E+01,      /* K = 47 */
(PID.TID 0000.0001)                -6.012556408308221E+01,      /* K = 48 */
(PID.TID 0000.0001)                -6.155482296252510E+01,      /* K = 49 */
(PID.TID 0000.0001)                -6.301518081204092E+01,      /* K = 50 */
(PID.TID 0000.0001)                -6.450731430816009E+01,      /* K = 51 */
(PID.TID 0000.0001)                -6.603191485108796E+01,      /* K = 52 */
(PID.TID 0000.0001)                -6.758968888507448E+01,      /* K = 53 */
(PID.TID 0000.0001)                -6.918135822575464E+01,      /* K = 54 */
(PID.TID 0000.0001)                -7.080766039461153E+01,      /* K = 55 */
(PID.TID 0000.0001)                -7.246934896071687E+01,      /* K = 56 */
(PID.TID 0000.0001)                -7.416719388990738E+01,      /* K = 57 */
(PID.TID 0000.0001)                -7.590198190155888E+01,      /* K = 58 */
(PID.TID 0000.0001)                -7.767451683312336E+01,      /* K = 59 */
(PID.TID 0000.0001)                -7.948562001259786E+01,      /* K = 60 */
(PID.TID 0000.0001)                -8.133613063909793E+01,      /* K = 61 */
(PID.TID 0000.0001)                -8.322690617171186E+01,      /* K = 62 */
(PID.TID 0000.0001)                -8.515882272681593E+01,      /* K = 63 */
(PID.TID 0000.0001)                -8.713277548403477E+01,      /* K = 64 */
(PID.TID 0000.0001)                -8.914967910103491E+01,      /* K = 65 */
(PID.TID 0000.0001)                -9.121046813734377E+01,      /* K = 66 */
(PID.TID 0000.0001)                -9.331609748739046E+01,      /* K = 67 */
(PID.TID 0000.0001)                -9.546754282296898E+01,      /* K = 68 */
(PID.TID 0000.0001)                -9.766580104532892E+01,      /* K = 69 */
(PID.TID 0000.0001)                -9.991189074710314E+01,      /* K = 70 */
(PID.TID 0000.0001)                -1.022068526842864E+02,      /* K = 71 */
(PID.TID 0000.0001)                -1.045517502584838E+02,      /* K = 72 */
(PID.TID 0000.0001)                -1.069476700096519E+02,      /* K = 73 */
(PID.TID 0000.0001)                -1.093957221195624E+02,      /* K = 74 */
(PID.TID 0000.0001)                -1.118970409262190E+02,      /* K = 75 */
(PID.TID 0000.0001)                -1.144527854494690E+02,      /* K = 76 */
(PID.TID 0000.0001)                -1.170641399280502E+02,      /* K = 77 */
(PID.TID 0000.0001)                -1.197323143683244E+02,      /* K = 78 */
(PID.TID 0000.0001)                -1.224585451049496E+02,      /* K = 79 */
(PID.TID 0000.0001)                -1.252440953737532E+02,      /* K = 80 */
(PID.TID 0000.0001)                -1.280902558970685E+02,      /* K = 81 */
(PID.TID 0000.0001)                -1.309983454818089E+02,      /* K = 82 */
(PID.TID 0000.0001)                -1.339697116305547E+02,      /* K = 83 */
(PID.TID 0000.0001)                -1.370057311659364E+02,      /* K = 84 */
(PID.TID 0000.0001)                -1.401078108686046E+02,      /* K = 85 */
(PID.TID 0000.0001)                -1.432773881290803E+02,      /* K = 86 */
(PID.TID 0000.0001)                -1.465159316137895E+02,      /* K = 87 */
(PID.TID 0000.0001)                -1.498249419455895E+02,      /* K = 88 */
(PID.TID 0000.0001)                -1.532059523991028E+02,      /* K = 89 */
(PID.TID 0000.0001)                -1.566605296111806E+02,      /* K = 90 */
(PID.TID 0000.0001)                -1.601902743068250E+02,      /* K = 91 */
(PID.TID 0000.0001)                -1.637968220409069E+02,      /* K = 92 */
(PID.TID 0000.0001)                -1.674818439560220E+02,      /* K = 93 */
(PID.TID 0000.0001)                -1.712470475568378E+02,      /* K = 94 */
(PID.TID 0000.0001)                -1.750941775012883E+02,      /* K = 95 */
(PID.TID 0000.0001)                -1.790250164089854E+02,      /* K = 96 */
(PID.TID 0000.0001)                -1.830413856872194E+02,      /* K = 97 */
(PID.TID 0000.0001)                -1.871451463749330E+02,      /* K = 98 */
(PID.TID 0000.0001)                -1.913382000050584E+02,      /* K = 99 */
(PID.TID 0000.0001)                -1.956224894856186E+02,      /* K =100 */
(PID.TID 0000.0001)                -2.000000000000000E+02       /* K =101 */
(PID.TID 0000.0001)     ;
(PID.TID 0000.0001) deepFacC = /* deep-model grid factor @ cell-Center (-) */
(PID.TID 0000.0001)   100 @  1.000000000000000E+00              /* K =  1:100 */
(PID.TID 0000.0001)     ;
(PID.TID 0000.0001) deepFacF = /* deep-model grid factor @ W-Interface (-) */
(PID.TID 0000.0001)   101 @  1.000000000000000E+00              /* K =  1:101 */
(PID.TID 0000.0001)     ;
(PID.TID 0000.0001) rVel2wUnit = /* convert units: rVel -> wSpeed (=1 if z-coord)*/
(PID.TID 0000.0001)   101 @  1.000000000000000E+00              /* K =  1:101 */
(PID.TID 0000.0001)     ;
(PID.TID 0000.0001) wUnit2rVel = /* convert units: wSpeed -> rVel (=1 if z-coord)*/
(PID.TID 0000.0001)   101 @  1.000000000000000E+00              /* K =  1:101 */
(PID.TID 0000.0001)     ;
(PID.TID 0000.0001) dBdrRef = /* Vertical grad. of reference buoyancy [(m/s/r)^2] */
(PID.TID 0000.0001)    86 @  0.000000000000000E+00,             /* K =  1: 86 */
(PID.TID 0000.0001)                 4.010286785761223E-07,      /* K = 87 */
(PID.TID 0000.0001)                 1.299743719420113E-05,      /* K = 88 */
(PID.TID 0000.0001)                 1.549692538253218E-04,      /* K = 89 */
(PID.TID 0000.0001)                 6.797338133188684E-04,      /* K = 90 */
(PID.TID 0000.0001)                 1.096825970326280E-03,      /* K = 91 */
(PID.TID 0000.0001)                 6.510916019715050E-04,      /* K = 92 */
(PID.TID 0000.0001)                 1.421844100865257E-04,      /* K = 93 */
(PID.TID 0000.0001)                 1.142266355880870E-05,      /* K = 94 */
(PID.TID 0000.0001)                 3.375890164712781E-07,      /* K = 95 */
(PID.TID 0000.0001)     5 @  0.000000000000000E+00              /* K = 96:100 */
(PID.TID 0000.0001)     ;
(PID.TID 0000.0001) rotateGrid = /* use rotated grid ( True/False ) */
(PID.TID 0000.0001)                   F
(PID.TID 0000.0001)     ;
(PID.TID 0000.0001) phiEuler = /* Euler angle, rotation about original z-coordinate [rad] */
(PID.TID 0000.0001)                 0.000000000000000E+00
(PID.TID 0000.0001)     ;
(PID.TID 0000.0001) thetaEuler = /* Euler angle, rotation about new x-coordinate [rad] */
(PID.TID 0000.0001)                 0.000000000000000E+00
(PID.TID 0000.0001)     ;
(PID.TID 0000.0001) psiEuler = /* Euler angle, rotation about new z-coordinate [rad] */
(PID.TID 0000.0001)                 0.000000000000000E+00
(PID.TID 0000.0001)     ;
(PID.TID 0000.0001) dxF =  /* dxF(:,1,:,1) ( units: m ) */
(PID.TID 0000.0001)                 1.263294638016668E+03,      /* I =  1 */
(PID.TID 0000.0001)                 1.237496063806571E+03,      /* I =  2 */
(PID.TID 0000.0001)                 1.212224339320398E+03,      /* I =  3 */
(PID.TID 0000.0001)      . . .
(PID.TID 0000.0001)                 4.790113490274632E+02,      /* I = 48 */
(PID.TID 0000.0001)                 4.692291418815790E+02,      /* I = 49 */
(PID.TID 0000.0001)                 4.596467036489769E+02,      /* I = 50 */
(PID.TID 0000.0001)                 4.502599547167311E+02,      /* I = 51 */
(PID.TID 0000.0001)                 4.410648987843862E+02,      /* I = 52 */
(PID.TID 0000.0001)                 4.320576211625778E+02,      /* I = 53 */
(PID.TID 0000.0001)      . . .
(PID.TID 0000.0001)                 2.000000000000000E+02,      /* I = 98 */
(PID.TID 0000.0001)                 2.000000000000000E+02,      /* I = 99 */
(PID.TID 0000.0001)                 2.000000000000000E+02,      /* I =100 */
(PID.TID 0000.0001)                 2.000000000000000E+02,      /* I =101 */
(PID.TID 0000.0001)                 2.000000000000000E+02,      /* I =102 */
(PID.TID 0000.0001)                 2.000000000000000E+02,      /* I =103 */
(PID.TID 0000.0001)      . . .
(PID.TID 0000.0001)                 3.612641354876311E+02,      /* I =148 */
(PID.TID 0000.0001)                 3.687955530665730E+02,      /* I =149 */
(PID.TID 0000.0001)                 3.764839811128614E+02,      /* I =150 */
(PID.TID 0000.0001)                 3.843326928863569E+02,      /* I =151 */
(PID.TID 0000.0001)                 3.923450298858749E+02,      /* I =152 */
(PID.TID 0000.0001)                 4.005244032717896E+02,      /* I =153 */
(PID.TID 0000.0001)      . . .
(PID.TID 0000.0001)                 1.013599012055986E+03,      /* I =198 */
(PID.TID 0000.0001)                 1.034729915092050E+03,      /* I =199 */
(PID.TID 0000.0001)                 1.056301342495056E+03       /* I =200 */
(PID.TID 0000.0001)     ;
(PID.TID 0000.0001) dxF =  /* dxF(1,:,1,:) ( units: m ) */
(PID.TID 0000.0001)                 1.263294638016668E+03       /* J =  1 */
(PID.TID 0000.0001)     ;
(PID.TID 0000.0001) dyF =  /* dyF(:,1,:,1) ( units: m ) */
(PID.TID 0000.0001)   200 @  5.000000000000000E+03              /* I =  1:200 */
(PID.TID 0000.0001)     ;
(PID.TID 0000.0001) dyF =  /* dyF(1,:,1,:) ( units: m ) */
(PID.TID 0000.0001)                 5.000000000000000E+03       /* J =  1 */
(PID.TID 0000.0001)     ;
(PID.TID 0000.0001) dxG =  /* dxG(:,1,:,1) ( units: m ) */
(PID.TID 0000.0001)                 1.263294638016668E+03,      /* I =  1 */
(PID.TID 0000.0001)                 1.237496063806571E+03,      /* I =  2 */
(PID.TID 0000.0001)                 1.212224339320398E+03,      /* I =  3 */
(PID.TID 0000.0001)      . . .
(PID.TID 0000.0001)                 4.790113490274632E+02,      /* I = 48 */
(PID.TID 0000.0001)                 4.692291418815790E+02,      /* I = 49 */
(PID.TID 0000.0001)                 4.596467036489769E+02,      /* I = 50 */
(PID.TID 0000.0001)                 4.502599547167311E+02,      /* I = 51 */
(PID.TID 0000.0001)                 4.410648987843862E+02,      /* I = 52 */
(PID.TID 0000.0001)                 4.320576211625778E+02,      /* I = 53 */
(PID.TID 0000.0001)      . . .
(PID.TID 0000.0001)                 2.000000000000000E+02,      /* I = 98 */
(PID.TID 0000.0001)                 2.000000000000000E+02,      /* I = 99 */
(PID.TID 0000.0001)                 2.000000000000000E+02,      /* I =100 */
(PID.TID 0000.0001)                 2.000000000000000E+02,      /* I =101 */
(PID.TID 0000.0001)                 2.000000000000000E+02,      /* I =102 */
(PID.TID 0000.0001)                 2.000000000000000E+02,      /* I =103 */
(PID.TID 0000.0001)      . . .
(PID.TID 0000.0001)                 3.612641354876311E+02,      /* I =148 */
(PID.TID 0000.0001)                 3.687955530665730E+02,      /* I =149 */
(PID.TID 0000.0001)                 3.764839811128614E+02,      /* I =150 */
(PID.TID 0000.0001)                 3.843326928863569E+02,      /* I =151 */
(PID.TID 0000.0001)                 3.923450298858749E+02,      /* I =152 */
(PID.TID 0000.0001)                 4.005244032717896E+02,      /* I =153 */
(PID.TID 0000.0001)      . . .
(PID.TID 0000.0001)                 1.013599012055986E+03,      /* I =198 */
(PID.TID 0000.0001)                 1.034729915092050E+03,      /* I =199 */
(PID.TID 0000.0001)                 1.056301342495056E+03       /* I =200 */
(PID.TID 0000.0001)     ;
(PID.TID 0000.0001) dxG =  /* dxG(1,:,1,:) ( units: m ) */
(PID.TID 0000.0001)                 1.263294638016668E+03       /* J =  1 */
(PID.TID 0000.0001)     ;
(PID.TID 0000.0001) dyG =  /* dyG(:,1,:,1) ( units: m ) */
(PID.TID 0000.0001)   200 @  5.000000000000000E+03              /* I =  1:200 */
(PID.TID 0000.0001)     ;
(PID.TID 0000.0001) dyG =  /* dyG(1,:,1,:) ( units: m ) */
(PID.TID 0000.0001)                 5.000000000000000E+03       /* J =  1 */
(PID.TID 0000.0001)     ;
(PID.TID 0000.0001) dxC =  /* dxC(:,1,:,1) ( units: m ) */
(PID.TID 0000.0001)                 1.159797990255862E+03,      /* I =  1 */
(PID.TID 0000.0001)                 1.250395350911620E+03,      /* I =  2 */
(PID.TID 0000.0001)                 1.224860201563485E+03,      /* I =  3 */
(PID.TID 0000.0001)      . . .
(PID.TID 0000.0001)                 4.840044193881684E+02,      /* I = 48 */
(PID.TID 0000.0001)                 4.741202454545211E+02,      /* I = 49 */
(PID.TID 0000.0001)                 4.644379227652780E+02,      /* I = 50 */
(PID.TID 0000.0001)                 4.549533291828540E+02,      /* I = 51 */
(PID.TID 0000.0001)                 4.456624267505587E+02,      /* I = 52 */
(PID.TID 0000.0001)                 4.365612599734820E+02,      /* I = 53 */
(PID.TID 0000.0001)      . . .
(PID.TID 0000.0001)                 2.000000000000000E+02,      /* I = 98 */
(PID.TID 0000.0001)                 2.000000000000000E+02,      /* I = 99 */
(PID.TID 0000.0001)                 2.000000000000000E+02,      /* I =100 */
(PID.TID 0000.0001)                 2.000000000000000E+02,      /* I =101 */
(PID.TID 0000.0001)                 2.000000000000000E+02,      /* I =102 */
(PID.TID 0000.0001)                 2.000000000000000E+02,      /* I =103 */
(PID.TID 0000.0001)      . . .
(PID.TID 0000.0001)                 3.575753287246037E+02,      /* I =148 */
(PID.TID 0000.0001)                 3.650298442771020E+02,      /* I =149 */
(PID.TID 0000.0001)                 3.726397670897172E+02,      /* I =150 */
(PID.TID 0000.0001)                 3.804083369996092E+02,      /* I =151 */
(PID.TID 0000.0001)                 3.883388613861159E+02,      /* I =152 */
(PID.TID 0000.0001)                 3.964347165788323E+02,      /* I =153 */
(PID.TID 0000.0001)      . . .
(PID.TID 0000.0001)                 1.003249324601893E+03,      /* I =198 */
(PID.TID 0000.0001)                 1.024164463574018E+03,      /* I =199 */
(PID.TID 0000.0001)                 1.045515628793553E+03       /* I =200 */
(PID.TID 0000.0001)     ;
(PID.TID 0000.0001) dxC =  /* dxC(1,:,1,:) ( units: m ) */
(PID.TID 0000.0001)                 1.159797990255862E+03       /* J =  1 */
(PID.TID 0000.0001)     ;
(PID.TID 0000.0001) dyC =  /* dyC(:,1,:,1) ( units: m ) */
(PID.TID 0000.0001)   200 @  5.000000000000000E+03              /* I =  1:200 */
(PID.TID 0000.0001)     ;
(PID.TID 0000.0001) dyC =  /* dyC(1,:,1,:) ( units: m ) */
(PID.TID 0000.0001)                 5.000000000000000E+03       /* J =  1 */
(PID.TID 0000.0001)     ;
(PID.TID 0000.0001) dxV =  /* dxV(:,1,:,1) ( units: m ) */
(PID.TID 0000.0001)                 1.159797990255862E+03,      /* I =  1 */
(PID.TID 0000.0001)                 1.250395350911620E+03,      /* I =  2 */
(PID.TID 0000.0001)                 1.224860201563485E+03,      /* I =  3 */
(PID.TID 0000.0001)      . . .
(PID.TID 0000.0001)                 4.840044193881684E+02,      /* I = 48 */
(PID.TID 0000.0001)                 4.741202454545211E+02,      /* I = 49 */
(PID.TID 0000.0001)                 4.644379227652780E+02,      /* I = 50 */
(PID.TID 0000.0001)                 4.549533291828540E+02,      /* I = 51 */
(PID.TID 0000.0001)                 4.456624267505587E+02,      /* I = 52 */
(PID.TID 0000.0001)                 4.365612599734820E+02,      /* I = 53 */
(PID.TID 0000.0001)      . . .
(PID.TID 0000.0001)                 2.000000000000000E+02,      /* I = 98 */
(PID.TID 0000.0001)                 2.000000000000000E+02,      /* I = 99 */
(PID.TID 0000.0001)                 2.000000000000000E+02,      /* I =100 */
(PID.TID 0000.0001)                 2.000000000000000E+02,      /* I =101 */
(PID.TID 0000.0001)                 2.000000000000000E+02,      /* I =102 */
(PID.TID 0000.0001)                 2.000000000000000E+02,      /* I =103 */
(PID.TID 0000.0001)      . . .
(PID.TID 0000.0001)                 3.575753287246037E+02,      /* I =148 */
(PID.TID 0000.0001)                 3.650298442771020E+02,      /* I =149 */
(PID.TID 0000.0001)                 3.726397670897172E+02,      /* I =150 */
(PID.TID 0000.0001)                 3.804083369996092E+02,      /* I =151 */
(PID.TID 0000.0001)                 3.883388613861159E+02,      /* I =152 */
(PID.TID 0000.0001)                 3.964347165788323E+02,      /* I =153 */
(PID.TID 0000.0001)      . . .
(PID.TID 0000.0001)                 1.003249324601893E+03,      /* I =198 */
(PID.TID 0000.0001)                 1.024164463574018E+03,      /* I =199 */
(PID.TID 0000.0001)                 1.045515628793553E+03       /* I =200 */
(PID.TID 0000.0001)     ;
(PID.TID 0000.0001) dxV =  /* dxV(1,:,1,:) ( units: m ) */
(PID.TID 0000.0001)                 1.159797990255862E+03       /* J =  1 */
(PID.TID 0000.0001)     ;
(PID.TID 0000.0001) dyU =  /* dyU(:,1,:,1) ( units: m ) */
(PID.TID 0000.0001)   200 @  5.000000000000000E+03              /* I =  1:200 */
(PID.TID 0000.0001)     ;
(PID.TID 0000.0001) dyU =  /* dyU(1,:,1,:) ( units: m ) */
(PID.TID 0000.0001)                 5.000000000000000E+03       /* J =  1 */
(PID.TID 0000.0001)     ;
(PID.TID 0000.0001) rA  =  /* rA (:,1,:,1) ( units: m^2 ) */
(PID.TID 0000.0001)                 6.316473190083342E+06,      /* I =  1 */
(PID.TID 0000.0001)                 6.187480319032855E+06,      /* I =  2 */
(PID.TID 0000.0001)                 6.061121696601991E+06,      /* I =  3 */
(PID.TID 0000.0001)      . . .
(PID.TID 0000.0001)                 2.395056745137316E+06,      /* I = 48 */
(PID.TID 0000.0001)                 2.346145709407895E+06,      /* I = 49 */
(PID.TID 0000.0001)                 2.298233518244884E+06,      /* I = 50 */
(PID.TID 0000.0001)                 2.251299773583656E+06,      /* I = 51 */
(PID.TID 0000.0001)                 2.205324493921931E+06,      /* I = 52 */
(PID.TID 0000.0001)                 2.160288105812889E+06,      /* I = 53 */
(PID.TID 0000.0001)      . . .
(PID.TID 0000.0001)                 1.000000000000000E+06,      /* I = 98 */
(PID.TID 0000.0001)                 1.000000000000000E+06,      /* I = 99 */
(PID.TID 0000.0001)                 1.000000000000000E+06,      /* I =100 */
(PID.TID 0000.0001)                 1.000000000000000E+06,      /* I =101 */
(PID.TID 0000.0001)                 1.000000000000000E+06,      /* I =102 */
(PID.TID 0000.0001)                 1.000000000000000E+06,      /* I =103 */
(PID.TID 0000.0001)      . . .
(PID.TID 0000.0001)                 1.806320677438155E+06,      /* I =148 */
(PID.TID 0000.0001)                 1.843977765332865E+06,      /* I =149 */
(PID.TID 0000.0001)                 1.882419905564307E+06,      /* I =150 */
(PID.TID 0000.0001)                 1.921663464431785E+06,      /* I =151 */
(PID.TID 0000.0001)                 1.961725149429375E+06,      /* I =152 */
(PID.TID 0000.0001)                 2.002622016358948E+06,      /* I =153 */
(PID.TID 0000.0001)      . . .
(PID.TID 0000.0001)                 5.067995060279928E+06,      /* I =198 */
(PID.TID 0000.0001)                 5.173649575460250E+06,      /* I =199 */
(PID.TID 0000.0001)                 5.281506712475282E+06       /* I =200 */
(PID.TID 0000.0001)     ;
(PID.TID 0000.0001) rA  =  /* rA (1,:,1,:) ( units: m^2 ) */
(PID.TID 0000.0001)                 6.316473190083342E+06       /* J =  1 */
(PID.TID 0000.0001)     ;
(PID.TID 0000.0001) rAw =  /* rAw(:,1,:,1) ( units: m^2 ) */
(PID.TID 0000.0001)                 5.798989951279311E+06,      /* I =  1 */
(PID.TID 0000.0001)                 6.251976754558099E+06,      /* I =  2 */
(PID.TID 0000.0001)                 6.124301007817423E+06,      /* I =  3 */
(PID.TID 0000.0001)      . . .
(PID.TID 0000.0001)                 2.420022096940842E+06,      /* I = 48 */
(PID.TID 0000.0001)                 2.370601227272606E+06,      /* I = 49 */
(PID.TID 0000.0001)                 2.322189613826390E+06,      /* I = 50 */
(PID.TID 0000.0001)                 2.274766645914270E+06,      /* I = 51 */
(PID.TID 0000.0001)                 2.228312133752794E+06,      /* I = 52 */
(PID.TID 0000.0001)                 2.182806299867410E+06,      /* I = 53 */
(PID.TID 0000.0001)      . . .
(PID.TID 0000.0001)                 1.000000000000000E+06,      /* I = 98 */
(PID.TID 0000.0001)                 1.000000000000000E+06,      /* I = 99 */
(PID.TID 0000.0001)                 1.000000000000000E+06,      /* I =100 */
(PID.TID 0000.0001)                 1.000000000000000E+06,      /* I =101 */
(PID.TID 0000.0001)                 1.000000000000000E+06,      /* I =102 */
(PID.TID 0000.0001)                 1.000000000000000E+06,      /* I =103 */
(PID.TID 0000.0001)      . . .
(PID.TID 0000.0001)                 1.787876643623018E+06,      /* I =148 */
(PID.TID 0000.0001)                 1.825149221385510E+06,      /* I =149 */
(PID.TID 0000.0001)                 1.863198835448586E+06,      /* I =150 */
(PID.TID 0000.0001)                 1.902041684998046E+06,      /* I =151 */
(PID.TID 0000.0001)                 1.941694306930580E+06,      /* I =152 */
(PID.TID 0000.0001)                 1.982173582894161E+06,      /* I =153 */
(PID.TID 0000.0001)      . . .
(PID.TID 0000.0001)                 5.016246623009465E+06,      /* I =198 */
(PID.TID 0000.0001)                 5.120822317870088E+06,      /* I =199 */
(PID.TID 0000.0001)                 5.227578143967765E+06       /* I =200 */
(PID.TID 0000.0001)     ;
(PID.TID 0000.0001) rAw =  /* rAw(1,:,1,:) ( units: m^2 ) */
(PID.TID 0000.0001)                 5.798989951279311E+06       /* J =  1 */
(PID.TID 0000.0001)     ;
(PID.TID 0000.0001) rAs =  /* rAs(:,1,:,1) ( units: m^2 ) */
(PID.TID 0000.0001)                 6.316473190083342E+06,      /* I =  1 */
(PID.TID 0000.0001)                 6.187480319032855E+06,      /* I =  2 */
(PID.TID 0000.0001)                 6.061121696601991E+06,      /* I =  3 */
(PID.TID 0000.0001)      . . .
(PID.TID 0000.0001)                 2.395056745137316E+06,      /* I = 48 */
(PID.TID 0000.0001)                 2.346145709407895E+06,      /* I = 49 */
(PID.TID 0000.0001)                 2.298233518244884E+06,      /* I = 50 */
(PID.TID 0000.0001)                 2.251299773583656E+06,      /* I = 51 */
(PID.TID 0000.0001)                 2.205324493921931E+06,      /* I = 52 */
(PID.TID 0000.0001)                 2.160288105812889E+06,      /* I = 53 */
(PID.TID 0000.0001)      . . .
(PID.TID 0000.0001)                 1.000000000000000E+06,      /* I = 98 */
(PID.TID 0000.0001)                 1.000000000000000E+06,      /* I = 99 */
(PID.TID 0000.0001)                 1.000000000000000E+06,      /* I =100 */
(PID.TID 0000.0001)                 1.000000000000000E+06,      /* I =101 */
(PID.TID 0000.0001)                 1.000000000000000E+06,      /* I =102 */
(PID.TID 0000.0001)                 1.000000000000000E+06,      /* I =103 */
(PID.TID 0000.0001)      . . .
(PID.TID 0000.0001)                 1.806320677438155E+06,      /* I =148 */
(PID.TID 0000.0001)                 1.843977765332865E+06,      /* I =149 */
(PID.TID 0000.0001)                 1.882419905564307E+06,      /* I =150 */
(PID.TID 0000.0001)                 1.921663464431785E+06,      /* I =151 */
(PID.TID 0000.0001)                 1.961725149429375E+06,      /* I =152 */
(PID.TID 0000.0001)                 2.002622016358948E+06,      /* I =153 */
(PID.TID 0000.0001)      . . .
(PID.TID 0000.0001)                 5.067995060279928E+06,      /* I =198 */
(PID.TID 0000.0001)                 5.173649575460250E+06,      /* I =199 */
(PID.TID 0000.0001)                 5.281506712475282E+06       /* I =200 */
(PID.TID 0000.0001)     ;
(PID.TID 0000.0001) rAs =  /* rAs(1,:,1,:) ( units: m^2 ) */
(PID.TID 0000.0001)                 6.316473190083342E+06       /* J =  1 */
(PID.TID 0000.0001)     ;
(PID.TID 0000.0001) globalArea = /* Integrated horizontal Area (m^2) */
(PID.TID 0000.0001)                 4.884020200974414E+08
(PID.TID 0000.0001)     ;
(PID.TID 0000.0001) // =======================================================
(PID.TID 0000.0001) // End of Model config. summary
(PID.TID 0000.0001) // =======================================================
(PID.TID 0000.0001) 
(PID.TID 0000.0001) == Packages configuration : Check & print summary ==
(PID.TID 0000.0001) 
(PID.TID 0000.0001) OBCS_CHECK: #define ALLOW_OBCS
(PID.TID 0000.0001) OBCS_CHECK: start summary:
(PID.TID 0000.0001) useOBCSprescribe = /* prescribe OB values */
(PID.TID 0000.0001)                   T
(PID.TID 0000.0001)     ;
(PID.TID 0000.0001) useOBCSbalance = /* balance the flow through OB */
(PID.TID 0000.0001)                   F
(PID.TID 0000.0001)     ;
(PID.TID 0000.0001) OBCS_uvApplyFac = /* Factor to apply to U,V 2nd column/row */
(PID.TID 0000.0001)                 1.000000000000000E+00
(PID.TID 0000.0001)     ;
(PID.TID 0000.0001) OBCS_u1_adv_T = /* Temp uses upwind adv-scheme @ OB */
(PID.TID 0000.0001)                       0
(PID.TID 0000.0001)     ;
(PID.TID 0000.0001) OBCS_u1_adv_S = /* Salt uses upwind adv-scheme @ OB */
(PID.TID 0000.0001)                       0
(PID.TID 0000.0001)     ;
(PID.TID 0000.0001) OBCS_monitorFreq = /* monitor output frequency [s] */
(PID.TID 0000.0001)                 7.200000000000000E+03
(PID.TID 0000.0001)     ;
(PID.TID 0000.0001) OBCS_monSelect = /* select group of variables to monitor */
(PID.TID 0000.0001)                       0
(PID.TID 0000.0001)     ;
(PID.TID 0000.0001) useOBCStides = /* apply tidal forcing through OB */
(PID.TID 0000.0001)                   F
(PID.TID 0000.0001)     ;
(PID.TID 0000.0001) tidalPeriod = /* (s) */
(PID.TID 0000.0001)    10 @  0.000000000000000E+00              /* I =  1: 10 */
(PID.TID 0000.0001)     ;
(PID.TID 0000.0001) OB_indexNone = /* null value for OB index (i.e. no OB) */
(PID.TID 0000.0001)                     -99
(PID.TID 0000.0001)     ;
(PID.TID 0000.0001) ======== Tile bi=   1 , bj=   1 ========
(PID.TID 0000.0001)  OB_Jn = /* Northern OB local indices */
(PID.TID 0000.0001)   204 @      -99                            /* I = -1:202 */
(PID.TID 0000.0001)  OB_Js = /* Southern OB local indices */
(PID.TID 0000.0001)   204 @      -99                            /* I = -1:202 */
(PID.TID 0000.0001)  OB_Ie = /* Eastern OB local indices */
(PID.TID 0000.0001)     5 @      200                            /* J = -1:  3 */
(PID.TID 0000.0001)  OB_Iw = /* Western OB local indices */
(PID.TID 0000.0001)     5 @        1                            /* J = -1:  3 */
(PID.TID 0000.0001) OBCS_CHECK: end summary.
(PID.TID 0000.0001) OBCS_CHECK: set-up OK
(PID.TID 0000.0001) OBCS_CHECK: check Inside Mask and OB locations: OK
(PID.TID 0000.0001) KL10_CHECK: #define ALLOW_KL10
(PID.TID 0000.0001) GAD_CHECK: #define ALLOW_GENERIC_ADVDIFF
(PID.TID 0000.0001) // =======================================================
(PID.TID 0000.0001) // Check Model config. (CONFIG_CHECK):
(PID.TID 0000.0001) // CONFIG_CHECK : Normal End
(PID.TID 0000.0001) // =======================================================
(PID.TID 0000.0001) 
(PID.TID 0000.0001)  MDS_READ_FIELD: opening global file: U0.bin
(PID.TID 0000.0001)  MDS_READ_FIELD: opening global file: T0.bin
(PID.TID 0000.0001) Start initial hydrostatic pressure computation
(PID.TID 0000.0001) Pressure is predetermined for buoyancyRelation OCEANIC
(PID.TID 0000.0001) 
(PID.TID 0000.0001)  OBCS_FIELDS_LOAD: Reading initial data:         0  0.000000000000E+00
(PID.TID 0000.0001)  MDS_READ_SEC_YZ: opening global file: U_in.bin
(PID.TID 0000.0001)  MDS_READ_SEC_YZ: opening global file: TE.bin
(PID.TID 0000.0001)  MDS_READ_SEC_YZ: opening global file: U_in.bin
(PID.TID 0000.0001)  MDS_READ_SEC_YZ: opening global file: TW.bin
(PID.TID 0000.0001) // =======================================================
(PID.TID 0000.0001) // Model current state
(PID.TID 0000.0001) // =======================================================
(PID.TID 0000.0001) 
(PID.TID 0000.0001) // =======================================================
(PID.TID 0000.0001) // Begin MONITOR dynamic field statistics
(PID.TID 0000.0001) // =======================================================
(PID.TID 0000.0001) %MON time_tsnumber                =                     0
(PID.TID 0000.0001) %MON time_secondsf                =   0.0000000000000E+00
(PID.TID 0000.0001) %MON dynstat_eta_max              =   0.0000000000000E+00
(PID.TID 0000.0001) %MON dynstat_eta_min              =   0.0000000000000E+00
(PID.TID 0000.0001) %MON dynstat_eta_mean             =   0.0000000000000E+00
(PID.TID 0000.0001) %MON dynstat_eta_sd               =   0.0000000000000E+00
(PID.TID 0000.0001) %MON dynstat_eta_del2             =   0.0000000000000E+00
(PID.TID 0000.0001) %MON dynstat_uvel_max             =   5.6028564143658E-01
(PID.TID 0000.0001) %MON dynstat_uvel_min             =   5.6028564143658E-01
(PID.TID 0000.0001) %MON dynstat_uvel_mean            =   5.6028564143658E-01
(PID.TID 0000.0001) %MON dynstat_uvel_sd              =   2.3314683517128E-15
(PID.TID 0000.0001) %MON dynstat_uvel_del2            =   0.0000000000000E+00
(PID.TID 0000.0001) %MON dynstat_vvel_max             =   0.0000000000000E+00
(PID.TID 0000.0001) %MON dynstat_vvel_min             =   0.0000000000000E+00
(PID.TID 0000.0001) %MON dynstat_vvel_mean            =   0.0000000000000E+00
(PID.TID 0000.0001) %MON dynstat_vvel_sd              =   0.0000000000000E+00
(PID.TID 0000.0001) %MON dynstat_vvel_del2            =   0.0000000000000E+00
(PID.TID 0000.0001) %MON dynstat_wvel_max             =   1.8263322185703E-03
(PID.TID 0000.0001) %MON dynstat_wvel_min             =  -1.8771617572596E-03
(PID.TID 0000.0001) %MON dynstat_wvel_mean            =   9.9912165913529E-22
(PID.TID 0000.0001) %MON dynstat_wvel_sd              =   2.9983275499298E-04
(PID.TID 0000.0001) %MON dynstat_wvel_del2            =   1.6671732933133E-06
(PID.TID 0000.0001) %MON dynstat_theta_max            =   1.5000000000000E+01
(PID.TID 0000.0001) %MON dynstat_theta_min            =   1.0000000000000E+01
(PID.TID 0000.0001) %MON dynstat_theta_mean           =   1.4014112698842E+01
(PID.TID 0000.0001) %MON dynstat_theta_sd             =   1.9277093927831E+00
(PID.TID 0000.0001) %MON dynstat_theta_del2           =   0.0000000000000E+00
(PID.TID 0000.0001) %MON dynstat_salt_max             =   3.5000000000000E+01
(PID.TID 0000.0001) %MON dynstat_salt_min             =   3.5000000000000E+01
(PID.TID 0000.0001) %MON dynstat_salt_mean            =   3.5000000000000E+01
(PID.TID 0000.0001) %MON dynstat_salt_sd              =   4.1922021409846E-13
(PID.TID 0000.0001) %MON dynstat_salt_del2            =   0.0000000000000E+00
(PID.TID 0000.0001) %MON dynstat_sst_max              =   1.5000000000000E+01
(PID.TID 0000.0001) %MON dynstat_sst_min              =   1.5000000000000E+01
(PID.TID 0000.0001) %MON dynstat_sst_mean             =   1.5000000000000E+01
(PID.TID 0000.0001) %MON dynstat_sst_sd               =   1.4210854715202E-14
(PID.TID 0000.0001) %MON dynstat_sst_del2             =   0.0000000000000E+00
(PID.TID 0000.0001) %MON dynstat_sss_max              =   3.5000000000000E+01
(PID.TID 0000.0001) %MON dynstat_sss_min              =   3.5000000000000E+01
(PID.TID 0000.0001) %MON dynstat_sss_mean             =   3.5000000000000E+01
(PID.TID 0000.0001) %MON dynstat_sss_sd               =   2.8421709430404E-14
(PID.TID 0000.0001) %MON dynstat_sss_del2             =   0.0000000000000E+00
(PID.TID 0000.0001) %MON forcing_qnet_max             =   0.0000000000000E+00
(PID.TID 0000.0001) %MON forcing_qnet_min             =   0.0000000000000E+00
(PID.TID 0000.0001) %MON forcing_qnet_mean            =   0.0000000000000E+00
(PID.TID 0000.0001) %MON forcing_qnet_sd              =   0.0000000000000E+00
(PID.TID 0000.0001) %MON forcing_qnet_del2            =   0.0000000000000E+00
(PID.TID 0000.0001) %MON forcing_qsw_max              =   0.0000000000000E+00
(PID.TID 0000.0001) %MON forcing_qsw_min              =   0.0000000000000E+00
(PID.TID 0000.0001) %MON forcing_qsw_mean             =   0.0000000000000E+00
(PID.TID 0000.0001) %MON forcing_qsw_sd               =   0.0000000000000E+00
(PID.TID 0000.0001) %MON forcing_qsw_del2             =   0.0000000000000E+00
(PID.TID 0000.0001) %MON forcing_empmr_max            =   0.0000000000000E+00
(PID.TID 0000.0001) %MON forcing_empmr_min            =   0.0000000000000E+00
(PID.TID 0000.0001) %MON forcing_empmr_mean           =   0.0000000000000E+00
(PID.TID 0000.0001) %MON forcing_empmr_sd             =   0.0000000000000E+00
(PID.TID 0000.0001) %MON forcing_empmr_del2           =   0.0000000000000E+00
(PID.TID 0000.0001) %MON forcing_fu_max               =   0.0000000000000E+00
(PID.TID 0000.0001) %MON forcing_fu_min               =   0.0000000000000E+00
(PID.TID 0000.0001) %MON forcing_fu_mean              =   0.0000000000000E+00
(PID.TID 0000.0001) %MON forcing_fu_sd                =   0.0000000000000E+00
(PID.TID 0000.0001) %MON forcing_fu_del2              =   0.0000000000000E+00
(PID.TID 0000.0001) %MON forcing_fv_max               =   0.0000000000000E+00
(PID.TID 0000.0001) %MON forcing_fv_min               =   0.0000000000000E+00
(PID.TID 0000.0001) %MON forcing_fv_mean              =   0.0000000000000E+00
(PID.TID 0000.0001) %MON forcing_fv_sd                =   0.0000000000000E+00
(PID.TID 0000.0001) %MON forcing_fv_del2              =   0.0000000000000E+00
(PID.TID 0000.0001) %MON advcfl_uvel_max              =   4.2021423107744E-02
(PID.TID 0000.0001) %MON advcfl_vvel_max              =   0.0000000000000E+00
(PID.TID 0000.0001) %MON advcfl_wvel_max              =   3.1502093071043E-02
(PID.TID 0000.0001) %MON advcfl_W_hf_max              =   4.2021423107744E-02
(PID.TID 0000.0001) %MON pe_b_mean                    =   0.0000000000000E+00
(PID.TID 0000.0001) %MON ke_max                       =   1.5805210749166E-01
(PID.TID 0000.0001) %MON ke_mean                      =   1.5696546493081E-01
(PID.TID 0000.0001) %MON ke_vol                       =   9.7476098603737E+10
(PID.TID 0000.0001) %MON vort_r_min                   =   0.0000000000000E+00
(PID.TID 0000.0001) %MON vort_r_max                   =   0.0000000000000E+00
(PID.TID 0000.0001) %MON vort_a_mean                  =   0.0000000000000E+00
(PID.TID 0000.0001) %MON vort_a_sd                    =   0.0000000000000E+00
(PID.TID 0000.0001) %MON vort_p_mean                  =   0.0000000000000E+00
(PID.TID 0000.0001) %MON vort_p_sd                    =   0.0000000000000E+00
(PID.TID 0000.0001) %MON surfExpan_theta_mean         =   1.3171214763902E-19
(PID.TID 0000.0001) %MON surfExpan_salt_mean          =  -7.8212435242871E-20
(PID.TID 0000.0001) // =======================================================
(PID.TID 0000.0001) // End MONITOR dynamic field statistics
(PID.TID 0000.0001) // =======================================================
(PID.TID 0000.0001) // =======================================================
(PID.TID 0000.0001) // Begin OBCS MONITOR field statistics
(PID.TID 0000.0001) // =======================================================
(PID.TID 0000.0001) %MON obc_E_uVel_max               =   5.6028564143658E-01
(PID.TID 0000.0001) %MON obc_E_uVel_min               =   5.6028564143658E-01
(PID.TID 0000.0001) %MON obc_E_uVel_mean              =   5.6028564143658E-01
(PID.TID 0000.0001) %MON obc_E_uVel_sd                =   1.0536712127724E-08
(PID.TID 0000.0001) %MON obc_E_uVel_Int               =   5.6028564143658E+05
(PID.TID 0000.0001) %MON obc_W_uVel_max               =   5.6028564143658E-01
(PID.TID 0000.0001) %MON obc_W_uVel_min               =   5.6028564143658E-01
(PID.TID 0000.0001) %MON obc_W_uVel_mean              =   5.6028564143658E-01
(PID.TID 0000.0001) %MON obc_W_uVel_sd                =   1.0536712127724E-08
(PID.TID 0000.0001) %MON obc_W_uVel_Int               =   5.6028564143658E+05
(PID.TID 0000.0001) // =======================================================
(PID.TID 0000.0001) // End OBCS MONITOR field statistics
(PID.TID 0000.0001) // =======================================================
(PID.TID 0000.0001) SOLVE_FOR_PRESSURE: putPmEinXvector =    F
 cg2d: Sum(rhs),rhsMax =   4.63836720876278E-15  2.55849624572959E-02
 cg2d: Sum(rhs),rhsMax =   2.24323784367967E-14  3.18819308780223E-02
 cg2d: Sum(rhs),rhsMax =   8.82208627109956E-15  3.86116395489545E-02
 cg2d: Sum(rhs),rhsMax =   5.65370719898990E-14  4.31295771745280E-02
 cg2d: Sum(rhs),rhsMax =   1.95420462336812E-13  4.57435285459938E-02
 cg2d: Sum(rhs),rhsMax =   3.48967200325394E-13  4.73298988687668E-02
 cg2d: Sum(rhs),rhsMax =   4.57956831326907E-13  4.86157879306703E-02
 cg2d: Sum(rhs),rhsMax =   4.47801778511580E-13  4.96601352060332E-02
 cg2d: Sum(rhs),rhsMax =   5.23720799016293E-13  5.06569187706035E-02
 cg2d: Sum(rhs),rhsMax =   6.21578391500926E-13  5.16625117832498E-02
 cg2d: Sum(rhs),rhsMax =   7.19385490743535E-13  5.26233922527959E-02
 cg2d: Sum(rhs),rhsMax =   7.17270951963302E-13  5.35639174960439E-02
 cg2d: Sum(rhs),rhsMax =   6.94042699621937E-13  5.44939480029979E-02
 cg2d: Sum(rhs),rhsMax =   5.80180798957197E-13  5.54101806026579E-02
 cg2d: Sum(rhs),rhsMax =   5.00316959345618E-13  5.62966155000123E-02
 cg2d: Sum(rhs),rhsMax =   3.90862542899966E-13  5.71246963831150E-02
 cg2d: Sum(rhs),rhsMax =   4.04207420934867E-13  5.80774476465629E-02
 cg2d: Sum(rhs),rhsMax =   3.35736059823243E-13  5.89646041276557E-02
 cg2d: Sum(rhs),rhsMax =   1.77736451955749E-13  5.97412813744295E-02
 cg2d: Sum(rhs),rhsMax =   1.57051014134617E-13  6.06883695388672E-02
 cg2d: Sum(rhs),rhsMax =   7.32189617756832E-14  6.14128852585937E-02
 cg2d: Sum(rhs),rhsMax =   7.91681035040753E-14  6.23639741412440E-02
 cg2d: Sum(rhs),rhsMax =   1.77180565143592E-13  6.31226765513672E-02
 cg2d: Sum(rhs),rhsMax =   2.48008587537303E-13  6.39646525876981E-02
 cg2d: Sum(rhs),rhsMax =   2.72897021530375E-13  6.48076051199455E-02
 cg2d: Sum(rhs),rhsMax =   3.57405373687638E-13  6.55330564596818E-02
 cg2d: Sum(rhs),rhsMax =   4.75518377310571E-13  6.63093579540946E-02
 cg2d: Sum(rhs),rhsMax =   6.57817123103139E-13  6.71615888869928E-02
 cg2d: Sum(rhs),rhsMax =   7.99376346095459E-13  6.79450572671708E-02
 cg2d: Sum(rhs),rhsMax =   8.89985889753744E-13  6.86774171412418E-02
 cg2d: Sum(rhs),rhsMax =   1.01172651663763E-12  6.93743350250120E-02
 cg2d: Sum(rhs),rhsMax =   1.13875080968561E-12  7.00494373163394E-02
 cg2d: Sum(rhs),rhsMax =   1.17898903530603E-12  7.08299976938600E-02
 cg2d: Sum(rhs),rhsMax =   1.27526537507111E-12  7.16000939571952E-02
 cg2d: Sum(rhs),rhsMax =   1.30285279092979E-12  7.23478817100853E-02
 cg2d: Sum(rhs),rhsMax =   1.33883735261436E-12  7.30774786105448E-02
 cg2d: Sum(rhs),rhsMax =   1.41282775409368E-12  7.37909655299546E-02
 cg2d: Sum(rhs),rhsMax =   1.47700515013005E-12  7.44883731142590E-02
 cg2d: Sum(rhs),rhsMax =   1.53032361088767E-12  7.51676697513341E-02
 cg2d: Sum(rhs),rhsMax =   1.58466989530481E-12  7.58247513385544E-02
 cg2d: Sum(rhs),rhsMax =   1.65760113968183E-12  7.64534351608195E-02
 cg2d: Sum(rhs),rhsMax =   1.69417951889628E-12  7.71435787848502E-02
 cg2d: Sum(rhs),rhsMax =   1.72534903031263E-12  7.78971822812800E-02
 cg2d: Sum(rhs),rhsMax =   1.80279402517414E-12  7.86338837692235E-02
 cg2d: Sum(rhs),rhsMax =   1.86629184328879E-12  7.93405064095665E-02
 cg2d: Sum(rhs),rhsMax =   1.89798871064184E-12  8.00016844165366E-02
 cg2d: Sum(rhs),rhsMax =   1.90307491987340E-12  8.05999022631976E-02
 cg2d: Sum(rhs),rhsMax =   1.89381843540559E-12  8.11155885624861E-02
 cg2d: Sum(rhs),rhsMax =   1.86001214430576E-12  8.18062295519889E-02
 cg2d: Sum(rhs),rhsMax =   1.85257365004077E-12  8.25718732732769E-02
 cg2d: Sum(rhs),rhsMax =   1.94744220749499E-12  8.32362150657681E-02
 cg2d: Sum(rhs),rhsMax =   2.00672811700997E-12  8.37726417149502E-02
 cg2d: Sum(rhs),rhsMax =   2.00994776378138E-12  8.42445887223617E-02
 cg2d: Sum(rhs),rhsMax =   2.01050287529370E-12  8.50793954199636E-02
 cg2d: Sum(rhs),rhsMax =   1.99096295006029E-12  8.57560683573114E-02
 cg2d: Sum(rhs),rhsMax =   2.01239025443556E-12  8.62451150601745E-02
 cg2d: Sum(rhs),rhsMax =   1.98407956730762E-12  8.85845690167993E-02
 cg2d: Sum(rhs),rhsMax =   1.90525373255923E-12  9.26448455468578E-02
 cg2d: Sum(rhs),rhsMax =   1.81221704309564E-12  9.87029552654030E-02
 cg2d: Sum(rhs),rhsMax =   1.67799107941846E-12  1.07384478078676E-01
 cg2d: Sum(rhs),rhsMax =   1.58173474318346E-12  1.18640846929222E-01
 cg2d: Sum(rhs),rhsMax =   1.48048240333765E-12  1.29545681310093E-01
 cg2d: Sum(rhs),rhsMax =   1.41309186574290E-12  1.39497961921630E-01
 cg2d: Sum(rhs),rhsMax =   1.47304390907266E-12  1.48177437450549E-01
 cg2d: Sum(rhs),rhsMax =   1.58151269857854E-12  1.55302232190603E-01
 cg2d: Sum(rhs),rhsMax =   1.66311409088848E-12  1.60644686470449E-01
 cg2d: Sum(rhs),rhsMax =   1.73927539037777E-12  1.64043802541787E-01
 cg2d: Sum(rhs),rhsMax =   1.77324821493130E-12  1.65413343764328E-01
 cg2d: Sum(rhs),rhsMax =   1.75526260193237E-12  1.64745039997194E-01
 cg2d: Sum(rhs),rhsMax =   1.75515157962991E-12  1.62106800751217E-01
 cg2d: Sum(rhs),rhsMax =   1.72051262126161E-12  1.57636276922236E-01
 cg2d: Sum(rhs),rhsMax =   1.72617475868719E-12  1.51530494196436E-01
 cg2d: Sum(rhs),rhsMax =   1.73261405223002E-12  1.44032567784492E-01
 cg2d: Sum(rhs),rhsMax =   1.71862524211974E-12  1.36306457792567E-01
 cg2d: Sum(rhs),rhsMax =   1.54676271790777E-12  1.46962076028524E-01
 cg2d: Sum(rhs),rhsMax =   1.38045130881892E-12  1.56670979520255E-01
 cg2d: Sum(rhs),rhsMax =   1.24544818902450E-12  1.65172248660111E-01
 cg2d: Sum(rhs),rhsMax =   1.12898579374132E-12  1.72235247646992E-01
 cg2d: Sum(rhs),rhsMax =   1.02223784992361E-12  1.77670506580623E-01
 cg2d: Sum(rhs),rhsMax =   9.28479515494018E-13  1.81338518596242E-01
 cg2d: Sum(rhs),rhsMax =   8.44879721739744E-13  1.83155874549959E-01
 cg2d: Sum(rhs),rhsMax =   8.02968802560144E-13  1.83098360945743E-01
 cg2d: Sum(rhs),rhsMax =   7.73492381256347E-13  1.81200878297170E-01
 cg2d: Sum(rhs),rhsMax =   7.49983408709909E-13  1.77554274366901E-01
 cg2d: Sum(rhs),rhsMax =   7.32358618193985E-13  1.72299406984184E-01
 cg2d: Sum(rhs),rhsMax =   6.95971058561895E-13  1.65618935587701E-01
 cg2d: Sum(rhs),rhsMax =   6.30523411260242E-13  1.57727473864765E-01
 cg2d: Sum(rhs),rhsMax =   6.44012621009438E-13  1.48860809890899E-01
 cg2d: Sum(rhs),rhsMax =   6.34992058934358E-13  1.39264910263005E-01
 cg2d: Sum(rhs),rhsMax =   6.08790795553205E-13  1.29185377992248E-01
 cg2d: Sum(rhs),rhsMax =   5.65700264409941E-13  1.18857940268732E-01
 cg2d: Sum(rhs),rhsMax =   5.53307399897562E-13  1.08500415371069E-01
 cg2d: Sum(rhs),rhsMax =   5.48727729920984E-13  9.83064543614458E-02
 cg2d: Sum(rhs),rhsMax =   5.56388268790897E-13  8.84411988330836E-02
 cg2d: Sum(rhs),rhsMax =   5.83436077228328E-13  7.90388532101585E-02
 cg2d: Sum(rhs),rhsMax =   5.98340821333920E-13  7.04719596207484E-02
 cg2d: Sum(rhs),rhsMax =   5.75012260028984E-13  6.84076314850993E-02
 cg2d: Sum(rhs),rhsMax =   4.60742555219440E-13  6.68642672076801E-02
 cg2d: Sum(rhs),rhsMax =   3.88980514465231E-13  6.55529180475949E-02
 cg2d: Sum(rhs),rhsMax =   3.87724574668624E-13  6.43922198495357E-02
 cg2d: Sum(rhs),rhsMax =   3.22707138789013E-13  6.32346705794135E-02
 cg2d: Sum(rhs),rhsMax =   3.23852056283158E-13  6.21895735535359E-02
 cg2d: Sum(rhs),rhsMax =   2.93369495363294E-13  6.10271959710745E-02
 cg2d: Sum(rhs),rhsMax =   2.49758547177237E-13  5.99451674078808E-02
 cg2d: Sum(rhs),rhsMax =   2.23637081075978E-13  5.89209388506422E-02
 cg2d: Sum(rhs),rhsMax =   1.64070146357886E-13  5.78068558073136E-02
 cg2d: Sum(rhs),rhsMax =   1.13378056942892E-13  5.67366302078685E-02
 cg2d: Sum(rhs),rhsMax =   8.34540769822922E-14  5.57451157886717E-02
 cg2d: Sum(rhs),rhsMax =   3.07705250168766E-14  5.46883007201150E-02
 cg2d: Sum(rhs),rhsMax =  -2.55195170550948E-14  5.35882203554149E-02
 cg2d: Sum(rhs),rhsMax =  -9.30748533800596E-14  5.26395213259123E-02
 cg2d: Sum(rhs),rhsMax =  -2.41277484103186E-13  5.16429559015910E-02
 cg2d: Sum(rhs),rhsMax =  -3.84633297434434E-13  5.06127748319999E-02
 cg2d: Sum(rhs),rhsMax =  -4.62914429011363E-13  4.95812314696316E-02
 cg2d: Sum(rhs),rhsMax =  -5.91074064693053E-13  4.86418663611118E-02
 cg2d: Sum(rhs),rhsMax =  -7.16302017700343E-13  4.76771869220907E-02
 cg2d: Sum(rhs),rhsMax =  -7.83949294369535E-13  4.66961412082770E-02
 cg2d: Sum(rhs),rhsMax =  -8.47247619284452E-13  4.57060253025004E-02
 cg2d: Sum(rhs),rhsMax =  -9.83673212329172E-13  4.47475811786329E-02
 cg2d: Sum(rhs),rhsMax =  -9.37654467958460E-13  4.38236252667699E-02
 cg2d: Sum(rhs),rhsMax =  -9.47523309813292E-13  4.28904541350688E-02
 cg2d: Sum(rhs),rhsMax =  -9.81121434096011E-13  4.19515703799762E-02
 cg2d: Sum(rhs),rhsMax =  -1.08573219859132E-12  4.10090331473066E-02
 cg2d: Sum(rhs),rhsMax =  -1.00977733119567E-12  4.00634015681314E-02
 cg2d: Sum(rhs),rhsMax =  -9.93462256904110E-13  3.91136312275799E-02
 cg2d: Sum(rhs),rhsMax =  -9.58282064811300E-13  3.81845997410437E-02
 cg2d: Sum(rhs),rhsMax =  -9.34745336689247E-13  3.72462560641674E-02
 cg2d: Sum(rhs),rhsMax =  -9.31019150662848E-13  3.62864316069240E-02
 cg2d: Sum(rhs),rhsMax =  -8.66914179331602E-13  3.52976291118365E-02
 cg2d: Sum(rhs),rhsMax =  -8.10504441339788E-13  3.42698929637188E-02
 cg2d: Sum(rhs),rhsMax =  -7.73645036922233E-13  3.31907934732177E-02
 cg2d: Sum(rhs),rhsMax =  -7.38901995145369E-13  3.20455982632574E-02
 cg2d: Sum(rhs),rhsMax =  -6.63677446333111E-13  3.08544268774206E-02
 cg2d: Sum(rhs),rhsMax =  -5.88402590540049E-13  2.95737076859875E-02
 cg2d: Sum(rhs),rhsMax =  -5.19485496286443E-13  2.81779143135803E-02
 cg2d: Sum(rhs),rhsMax =  -4.73709613202367E-13  2.66698154447398E-02
 cg2d: Sum(rhs),rhsMax =  -3.85086060261663E-13  2.50598239442885E-02
 cg2d: Sum(rhs),rhsMax =  -2.98493868511329E-13  2.32921083033928E-02
 cg2d: Sum(rhs),rhsMax =  -2.00461175436928E-13  2.14283376538545E-02
 cg2d: Sum(rhs),rhsMax =  -6.57286725047612E-14  1.94025506252392E-02
 cg2d: Sum(rhs),rhsMax =   4.81940876095877E-14  1.72804898839426E-02
 cg2d: Sum(rhs),rhsMax =   1.82361070688586E-13  1.50252825699053E-02
 cg2d: Sum(rhs),rhsMax =   2.85542423039686E-13  1.26671311425175E-02
 cg2d: Sum(rhs),rhsMax =   4.08437172971787E-13  1.02307832901938E-02
 cg2d: Sum(rhs),rhsMax =   6.00922089866174E-13  7.71669917299999E-03
 cg2d: Sum(rhs),rhsMax =   9.42301792150602E-13  5.16934275870939E-03
 cg2d: Sum(rhs),rhsMax =   1.82046044905348E-12  2.78321309406555E-03
 cg2d: Sum(rhs),rhsMax =   2.76897949014199E-12  1.88717004154844E-03
 cg2d: Sum(rhs),rhsMax =   1.91635596280548E-12  2.75525141949983E-03
 cg2d: Sum(rhs),rhsMax =   1.02202968310650E-12  5.22153815270118E-03
 cg2d: Sum(rhs),rhsMax =   6.96408208877841E-13  7.66592223324869E-03
 cg2d: Sum(rhs),rhsMax =   5.58442181386454E-13  1.00301937501982E-02
 cg2d: Sum(rhs),rhsMax =   4.84924600474557E-13  1.22974284895963E-02
 cg2d: Sum(rhs),rhsMax =   4.20156964775487E-13  1.44516072807330E-02
 cg2d: Sum(rhs),rhsMax =   3.86777415650741E-13  1.64777164595173E-02
 cg2d: Sum(rhs),rhsMax =   4.68246968976516E-13  1.83618696072933E-02
 cg2d: Sum(rhs),rhsMax =   5.40383710001535E-13  2.01036659883806E-02
 cg2d: Sum(rhs),rhsMax =   5.90624771312775E-13  2.17210189971105E-02
 cg2d: Sum(rhs),rhsMax =   6.48425757532323E-13  2.31758805012723E-02
 cg2d: Sum(rhs),rhsMax =   6.84889644997355E-13  2.45332941873194E-02
 cg2d: Sum(rhs),rhsMax =   7.63868135411627E-13  2.57445706103730E-02
 cg2d: Sum(rhs),rhsMax =   8.07010708259170E-13  2.68602867006317E-02
 cg2d: Sum(rhs),rhsMax =   8.50857578837960E-13  2.78834074390216E-02
 cg2d: Sum(rhs),rhsMax =   9.01369257011453E-13  2.88137568973223E-02
 cg2d: Sum(rhs),rhsMax =   9.36705574217100E-13  2.96684962080310E-02
 cg2d: Sum(rhs),rhsMax =   9.70890035034699E-13  3.04808768633889E-02
 cg2d: Sum(rhs),rhsMax =   1.03017941399663E-12  3.12523531850275E-02
 cg2d: Sum(rhs),rhsMax =   1.04118103028128E-12  3.19835516619999E-02
 cg2d: Sum(rhs),rhsMax =   1.06809699973454E-12  3.26824611689736E-02
 cg2d: Sum(rhs),rhsMax =   1.10970781175279E-12  3.33549193695360E-02
 cg2d: Sum(rhs),rhsMax =   1.12580084143943E-12  3.40049861006490E-02
 cg2d: Sum(rhs),rhsMax =   1.14395819206248E-12  3.46352938837287E-02
 cg2d: Sum(rhs),rhsMax =   1.20342624754244E-12  3.52595180523317E-02
 cg2d: Sum(rhs),rhsMax =   1.15449143300861E-12  3.58891339680743E-02
 cg2d: Sum(rhs),rhsMax =   1.12001640600878E-12  3.65064223747995E-02
 cg2d: Sum(rhs),rhsMax =   1.09969672257293E-12  3.71112097528990E-02
 cg2d: Sum(rhs),rhsMax =   1.10989993237776E-12  3.77027508548172E-02
 cg2d: Sum(rhs),rhsMax =   1.13083262372193E-12  3.82798262490259E-02
 cg2d: Sum(rhs),rhsMax =   1.07863197540414E-12  3.88667184377404E-02
 cg2d: Sum(rhs),rhsMax =   9.65470758895748E-13  3.94725451287290E-02
 cg2d: Sum(rhs),rhsMax =   8.84844281179298E-13  4.00667405573834E-02
 cg2d: Sum(rhs),rhsMax =   7.81947423478258E-13  4.06478586196563E-02
 cg2d: Sum(rhs),rhsMax =   6.83605949625132E-13  4.12148617798838E-02
 cg2d: Sum(rhs),rhsMax =   5.84129966618718E-13  4.18346604946124E-02
 cg2d: Sum(rhs),rhsMax =   4.99204844128798E-13  4.24615601169626E-02
 cg2d: Sum(rhs),rhsMax =   4.05786515500495E-13  4.30849318436728E-02
 cg2d: Sum(rhs),rhsMax =   3.33663652263283E-13  4.37097188247439E-02
 cg2d: Sum(rhs),rhsMax =   2.24667506820708E-13  4.43962942753991E-02
 cg2d: Sum(rhs),rhsMax =   1.37487243812018E-13  4.51428556463119E-02
 cg2d: Sum(rhs),rhsMax =   4.76702011198427E-14  4.59297529665363E-02
 cg2d: Sum(rhs),rhsMax =  -8.04079025584770E-14  4.67808243565925E-02
 cg2d: Sum(rhs),rhsMax =  -1.59317004033710E-13  4.77292995494991E-02
 cg2d: Sum(rhs),rhsMax =  -2.38281616660174E-13  4.88196464234076E-02
 cg2d: Sum(rhs),rhsMax =  -3.31457084001840E-13  5.01523395559859E-02
 cg2d: Sum(rhs),rhsMax =  -4.17832435317678E-13  5.16743845534904E-02
 cg2d: Sum(rhs),rhsMax =  -5.13505904464751E-13  5.33938002835191E-02
 cg2d: Sum(rhs),rhsMax =  -5.61162227796785E-13  5.53605388802777E-02
 cg2d: Sum(rhs),rhsMax =  -6.24611473654113E-13  5.76371940605913E-02
 cg2d: Sum(rhs),rhsMax =  -6.59472476627343E-13  6.02832582960185E-02
 cg2d: Sum(rhs),rhsMax =  -7.02993219192649E-13  6.33528513269144E-02
 cg2d: Sum(rhs),rhsMax =  -7.17759185420164E-13  6.69519675488830E-02
 cg2d: Sum(rhs),rhsMax =  -7.30526750203353E-13  7.10445782622035E-02
 cg2d: Sum(rhs),rhsMax =  -7.22311099821127E-13  7.53175243541634E-02
 cg2d: Sum(rhs),rhsMax =  -7.36521954536329E-13  7.95106478730915E-02
 cg2d: Sum(rhs),rhsMax =  -7.55284723652494E-13  8.35846213411445E-02
 cg2d: Sum(rhs),rhsMax =  -7.68163310738146E-13  8.74998072122462E-02
 cg2d: Sum(rhs),rhsMax =  -7.61668506044089E-13  9.12169243372869E-02
 cg2d: Sum(rhs),rhsMax =  -7.88646925542480E-13  9.46977323814916E-02
 cg2d: Sum(rhs),rhsMax =  -8.40050251582625E-13  9.79057170307615E-02
 cg2d: Sum(rhs),rhsMax =  -8.93840557125714E-13  1.00806758281224E-01
 cg2d: Sum(rhs),rhsMax =  -9.46798195400333E-13  1.03369764155799E-01
 cg2d: Sum(rhs),rhsMax =  -9.74331726411037E-13  1.05567252867507E-01
 cg2d: Sum(rhs),rhsMax =  -1.01474384450739E-12  1.07375867704041E-01
 cg2d: Sum(rhs),rhsMax =  -1.03705932730236E-12  1.08776810717497E-01
 cg2d: Sum(rhs),rhsMax =  -1.05848663167762E-12  1.09756183761397E-01
 cg2d: Sum(rhs),rhsMax =  -1.08235642670707E-12  1.10305227864412E-01
 cg2d: Sum(rhs),rhsMax =  -1.14752651825256E-12  1.10420455061382E-01
 cg2d: Sum(rhs),rhsMax =  -1.19171339463264E-12  1.10103670176852E-01
 cg2d: Sum(rhs),rhsMax =  -1.24644738974666E-12  1.09361883110132E-01
 cg2d: Sum(rhs),rhsMax =  -1.31017419136015E-12  1.08207115348664E-01
 cg2d: Sum(rhs),rhsMax =  -1.38766775847898E-12  1.06656107511222E-01
 cg2d: Sum(rhs),rhsMax =  -1.45372602844418E-12  1.04729937524673E-01
 cg2d: Sum(rhs),rhsMax =  -1.53710377759353E-12  1.02453561281628E-01
 cg2d: Sum(rhs),rhsMax =  -1.56752388846826E-12  9.98552892232213E-02
 cg2d: Sum(rhs),rhsMax =  -1.60960134110155E-12  9.69662139219491E-02
 cg2d: Sum(rhs),rhsMax =  -1.72628578098966E-12  9.38196049746445E-02
 cg2d: Sum(rhs),rhsMax =  -1.84530168922947E-12  9.25100787171285E-02
 cg2d: Sum(rhs),rhsMax =  -1.93600691034135E-12  9.25742205078967E-02
 cg2d: Sum(rhs),rhsMax =  -2.05901962146982E-12  9.22972283796354E-02
 cg2d: Sum(rhs),rhsMax =  -2.12874162741628E-12  9.16841771220841E-02
 cg2d: Sum(rhs),rhsMax =  -2.06956674020375E-12  9.07438750739489E-02
 cg2d: Sum(rhs),rhsMax =  -1.94799731900730E-12  8.94886673235147E-02
 cg2d: Sum(rhs),rhsMax =  -1.95077287656886E-12  8.79341747618387E-02
 cg2d: Sum(rhs),rhsMax =  -1.92057481029906E-12  8.60989766597894E-02
 cg2d: Sum(rhs),rhsMax =  -1.88904447639970E-12  8.40042457215900E-02
 cg2d: Sum(rhs),rhsMax =  -1.86339832453086E-12  8.16733455451523E-02
 cg2d: Sum(rhs),rhsMax =  -1.81532566756459E-12  7.91314013176676E-02
 cg2d: Sum(rhs),rhsMax =  -1.78934644878836E-12  7.64048544314826E-02
 cg2d: Sum(rhs),rhsMax =  -1.78990156030068E-12  7.35210118206832E-02
 cg2d: Sum(rhs),rhsMax =  -1.81288317691042E-12  7.05076009376076E-02
 cg2d: Sum(rhs),rhsMax =  -1.82709403162562E-12  6.73923400864760E-02
 cg2d: Sum(rhs),rhsMax =  -1.79467551930657E-12  6.42025325731164E-02
 cg2d: Sum(rhs),rhsMax =  -1.80921944092916E-12  6.09646926640868E-02
 cg2d: Sum(rhs),rhsMax =  -1.76436643073430E-12  5.77042097628268E-02
 cg2d: Sum(rhs),rhsMax =  -1.78079773149875E-12  5.44450559726365E-02
 cg2d: Sum(rhs),rhsMax =  -1.74504855010582E-12  5.12095402006891E-02
 cg2d: Sum(rhs),rhsMax =  -1.69830816076910E-12  4.80181107249152E-02
 cg2d: Sum(rhs),rhsMax =  -1.76181291777766E-12  4.48892069209492E-02
 cg2d: Sum(rhs),rhsMax =  -1.84563475613686E-12  4.18391594141989E-02
 cg2d: Sum(rhs),rhsMax =  -1.95810034853139E-12  3.88821366877789E-02
 cg2d: Sum(rhs),rhsMax =  -2.03137506815665E-12  3.60301351847993E-02
 cg2d: Sum(rhs),rhsMax =  -2.13795647852066E-12  3.32930091457694E-02
 cg2d: Sum(rhs),rhsMax =  -2.19746443264057E-12  3.17459300755491E-02
 cg2d: Sum(rhs),rhsMax =  -2.17881268582687E-12  3.09013348756112E-02
 cg2d: Sum(rhs),rhsMax =  -2.20090612401691E-12  3.01300902856281E-02
 cg2d: Sum(rhs),rhsMax =  -2.19357865205438E-12  2.95061073593003E-02
 cg2d: Sum(rhs),rhsMax =  -2.20934381900406E-12  2.89254869891489E-02
 cg2d: Sum(rhs),rhsMax =  -2.12330153459561E-12  2.83646250812467E-02
 cg2d: Sum(rhs),rhsMax =  -2.15072404330385E-12  2.78069855654718E-02
 cg2d: Sum(rhs),rhsMax =  -2.16571205413629E-12  2.72466643969242E-02
 cg2d: Sum(rhs),rhsMax =  -2.17026396853726E-12  2.66844513830525E-02
 cg2d: Sum(rhs),rhsMax =  -2.17803552970963E-12  2.61208041823257E-02
 cg2d: Sum(rhs),rhsMax =  -2.14978035373292E-12  2.55647180931613E-02
 cg2d: Sum(rhs),rhsMax =  -2.19069207219036E-12  2.50135857769479E-02
 cg2d: Sum(rhs),rhsMax =  -2.08560946290959E-12  2.44582491472172E-02
 cg2d: Sum(rhs),rhsMax =  -1.90925053544788E-12  2.38980821593689E-02
 cg2d: Sum(rhs),rhsMax =  -1.89970261743611E-12  2.33320609078142E-02
 cg2d: Sum(rhs),rhsMax =  -1.80511161573804E-12  2.27587671913857E-02
 cg2d: Sum(rhs),rhsMax =  -1.84247062051668E-12  2.21828213478551E-02
 cg2d: Sum(rhs),rhsMax =  -1.78093650937683E-12  2.16016401058538E-02
 cg2d: Sum(rhs),rhsMax =  -1.83816850629626E-12  2.10062813849357E-02
 cg2d: Sum(rhs),rhsMax =  -1.81551995659390E-12  2.03942010804178E-02
 cg2d: Sum(rhs),rhsMax =  -1.75173764382919E-12  1.97626094836858E-02
 cg2d: Sum(rhs),rhsMax =  -1.74960046450678E-12  1.91172011847903E-02
 cg2d: Sum(rhs),rhsMax =  -1.96934135665572E-12  1.84524137543430E-02
 cg2d: Sum(rhs),rhsMax =  -2.02138306093502E-12  1.77590371737460E-02
 cg2d: Sum(rhs),rhsMax =  -2.21610230166647E-12  1.70369714970808E-02
 cg2d: Sum(rhs),rhsMax =  -2.34626207351596E-12  1.62953730804547E-02
 cg2d: Sum(rhs),rhsMax =  -2.56822341171414E-12  1.55170441890194E-02
 cg2d: Sum(rhs),rhsMax =  -2.75199307786522E-12  1.47104863186790E-02
 cg2d: Sum(rhs),rhsMax =  -2.97577240626623E-12  1.38719252295525E-02
 cg2d: Sum(rhs),rhsMax =  -3.25799109912595E-12  1.29995250380329E-02
 cg2d: Sum(rhs),rhsMax =  -3.54730828044936E-12  1.20966695624177E-02
 cg2d: Sum(rhs),rhsMax =  -3.94170113215964E-12  1.11616063064382E-02
 cg2d: Sum(rhs),rhsMax =  -4.41239406123728E-12  1.01942254763167E-02
 cg2d: Sum(rhs),rhsMax =  -4.98096702772344E-12  9.20169866280038E-03
 cg2d: Sum(rhs),rhsMax =  -5.66843100235914E-12  8.17857550878684E-03
 cg2d: Sum(rhs),rhsMax =  -6.66138325056131E-12  7.13240814508397E-03
 cg2d: Sum(rhs),rhsMax =  -7.84046178675668E-12  6.06577274351832E-03
 cg2d: Sum(rhs),rhsMax =  -9.63968835310247E-12  4.97893836344880E-03
 cg2d: Sum(rhs),rhsMax =  -1.22587495710036E-11  3.93925308903454E-03
 cg2d: Sum(rhs),rhsMax =  -1.64581959172239E-11  2.93906199848066E-03
 cg2d: Sum(rhs),rhsMax =  -2.13177808738862E-11  2.28022517647320E-03
 cg2d: Sum(rhs),rhsMax =  -2.26512419931879E-11  2.14608756410802E-03
 cg2d: Sum(rhs),rhsMax =  -2.43423614598726E-11  2.01200063395835E-03
 cg2d: Sum(rhs),rhsMax =  -2.60015897701749E-11  1.87915149670650E-03
 cg2d: Sum(rhs),rhsMax =  -1.71721248332091E-11  2.84457950490779E-03
 cg2d: Sum(rhs),rhsMax =  -1.24094345910208E-11  3.93986456119414E-03
 cg2d: Sum(rhs),rhsMax =  -9.80451830834284E-12  5.01999732259216E-03
 cg2d: Sum(rhs),rhsMax =  -8.10612688084689E-12  6.08077035800556E-03
 cg2d: Sum(rhs),rhsMax =  -6.93958779329762E-12  7.11874294067408E-03
 cg2d: Sum(rhs),rhsMax =  -6.16473538883611E-12  8.13053099082656E-03
 cg2d: Sum(rhs),rhsMax =  -5.52424772592985E-12  9.11511312804122E-03
 cg2d: Sum(rhs),rhsMax =  -5.10919084817374E-12  1.00720408083984E-02
 cg2d: Sum(rhs),rhsMax =  -4.72766270576130E-12  1.09955588030856E-02
 cg2d: Sum(rhs),rhsMax =  -4.45160575068826E-12  1.18844538573412E-02
 cg2d: Sum(rhs),rhsMax =  -4.16919276879923E-12  1.27458299092143E-02
 cg2d: Sum(rhs),rhsMax =  -3.97606947366569E-12  1.35679242278915E-02
 cg2d: Sum(rhs),rhsMax =  -3.82133213960856E-12  1.43632190027117E-02
 cg2d: Sum(rhs),rhsMax =  -3.72940567316959E-12  1.51196362720967E-02
 cg2d: Sum(rhs),rhsMax =  -3.65615870911995E-12  1.58527047428888E-02
 cg2d: Sum(rhs),rhsMax =  -3.50672269000540E-12  1.65493482198504E-02
 cg2d: Sum(rhs),rhsMax =  -3.43708395078579E-12  1.72224184841035E-02
 cg2d: Sum(rhs),rhsMax =  -3.36880523477134E-12  1.78698691305098E-02
 cg2d: Sum(rhs),rhsMax =  -3.31545901843810E-12  1.84890648132638E-02
 cg2d: Sum(rhs),rhsMax =  -3.28020943740626E-12  1.90887927748700E-02
 cg2d: Sum(rhs),rhsMax =  -3.19183568464609E-12  1.96730416908384E-02
 cg2d: Sum(rhs),rhsMax =  -3.09585690416725E-12  2.02371186248112E-02
 cg2d: Sum(rhs),rhsMax =  -3.08808534299487E-12  2.07833765909293E-02
 cg2d: Sum(rhs),rhsMax =  -3.08747472033133E-12  2.13141065604407E-02
 cg2d: Sum(rhs),rhsMax =  -3.02496916404493E-12  2.18424722723295E-02
 cg2d: Sum(rhs),rhsMax =  -3.16652259968464E-12  2.23590724525127E-02
 cg2d: Sum(rhs),rhsMax =  -3.20837800771301E-12  2.28652968584303E-02
 cg2d: Sum(rhs),rhsMax =  -3.21587201312923E-12  2.33622595864416E-02
 cg2d: Sum(rhs),rhsMax =  -3.17890158640921E-12  2.38508218254191E-02
 cg2d: Sum(rhs),rhsMax =  -3.17179615905161E-12  2.43390043834151E-02
 cg2d: Sum(rhs),rhsMax =  -2.90112378564800E-12  2.48275880409691E-02
 cg2d: Sum(rhs),rhsMax =  -2.81885625952327E-12  2.53108924458988E-02
 cg2d: Sum(rhs),rhsMax =  -2.63844501802168E-12  2.57892984243517E-02
 cg2d: Sum(rhs),rhsMax =  -2.62256882876954E-12  2.62631392458864E-02
 cg2d: Sum(rhs),rhsMax =  -2.49311682409825E-12  2.67373645800142E-02
 cg2d: Sum(rhs),rhsMax =  -2.43516318221282E-12  2.72232653322673E-02
 cg2d: Sum(rhs),rhsMax =  -2.35755859279152E-12  2.77080770977262E-02
 cg2d: Sum(rhs),rhsMax =  -2.19146922830760E-12  2.82828631557601E-02
 cg2d: Sum(rhs),rhsMax =  -2.08966177694947E-12  2.95447351254595E-02
 cg2d: Sum(rhs),rhsMax =  -1.95354843413043E-12  3.09548330784320E-02
 cg2d: Sum(rhs),rhsMax =  -1.73505654288419E-12  3.28989038495923E-02
 cg2d: Sum(rhs),rhsMax =  -1.53255186319257E-12  3.49126464181204E-02
 cg2d: Sum(rhs),rhsMax =  -1.32960309429109E-12  3.69641764919893E-02
 cg2d: Sum(rhs),rhsMax =  -1.23645538252504E-12  3.90456245106681E-02
 cg2d: Sum(rhs),rhsMax =  -1.08113518137998E-12  4.11484488555240E-02
 cg2d: Sum(rhs),rhsMax =  -9.91096094082877E-13  4.32634847129091E-02
 cg2d: Sum(rhs),rhsMax =  -8.78297434780961E-13  4.53810034858316E-02
 cg2d: Sum(rhs),rhsMax =  -7.66053886991358E-13  4.74907823697602E-02
 cg2d: Sum(rhs),rhsMax =  -6.81010803305071E-13  4.95821835252464E-02
 cg2d: Sum(rhs),rhsMax =  -6.25943741283663E-13  5.16442420792799E-02
 cg2d: Sum(rhs),rhsMax =  -5.43565192856477E-13  5.36657619930521E-02
 cg2d: Sum(rhs),rhsMax =  -4.93827201353270E-13  5.56354186512647E-02
 cg2d: Sum(rhs),rhsMax =  -4.32431868091498E-13  5.75418668686686E-02
 cg2d: Sum(rhs),rhsMax =  -3.49498208151999E-13  5.93738528408809E-02
 cg2d: Sum(rhs),rhsMax =  -2.79887224508002E-13  6.11203284822871E-02
 cg2d: Sum(rhs),rhsMax =  -1.64313007644523E-13  6.27705664881420E-02
 cg2d: Sum(rhs),rhsMax =  -1.42996725571720E-13  6.43142743899320E-02
 cg2d: Sum(rhs),rhsMax =   9.05941988094128E-14  6.57417058662073E-02
 cg2d: Sum(rhs),rhsMax =   1.47770684577608E-13  6.70437675709992E-02
 cg2d: Sum(rhs),rhsMax =   8.97060203897126E-14  6.82121197886325E-02
 cg2d: Sum(rhs),rhsMax =  -6.66133814775094E-15  6.92392693058220E-02
 cg2d: Sum(rhs),rhsMax =  -6.05071548420710E-14  7.01186530096807E-02
 cg2d: Sum(rhs),rhsMax =  -1.84741111297626E-13  7.08447108578655E-02
 cg2d: Sum(rhs),rhsMax =  -2.83328915884340E-13  7.14129470852042E-02
 cg2d: Sum(rhs),rhsMax =  -3.61044527608101E-13  7.18199786081526E-02
 cg2d: Sum(rhs),rhsMax =  -4.69735361718904E-13  7.20635699008759E-02
 cg2d: Sum(rhs),rhsMax =  -5.04263297784746E-13  7.21426538678387E-02
 cg2d: Sum(rhs),rhsMax =  -4.98268093451770E-13  7.35068846646711E-02
 cg2d: Sum(rhs),rhsMax =  -4.95936625100057E-13  7.54776327537696E-02
 cg2d: Sum(rhs),rhsMax =  -5.08815212185709E-13  7.73252024962793E-02
 cg2d: Sum(rhs),rhsMax =  -4.86610751693206E-13  7.90385269368075E-02
 cg2d: Sum(rhs),rhsMax =  -5.35571587079176E-13  8.06072630133313E-02
 cg2d: Sum(rhs),rhsMax =  -5.73985303731206E-13  8.20219000022772E-02
 cg2d: Sum(rhs),rhsMax =  -6.14175377222637E-13  8.32738597357094E-02
 cg2d: Sum(rhs),rhsMax =  -6.70574706873595E-13  8.43555870587377E-02
 cg2d: Sum(rhs),rhsMax =  -7.46180894850568E-13  8.52606291113857E-02
 cg2d: Sum(rhs),rhsMax =  -7.80819853218873E-13  8.59837023106942E-02
 cg2d: Sum(rhs),rhsMax =  -8.05799871272939E-13  8.65207459774738E-02
 cg2d: Sum(rhs),rhsMax =  -8.47211190091457E-13  8.68689618105709E-02
 cg2d: Sum(rhs),rhsMax =  -9.08162434143378E-13  8.70268386636038E-02
 cg2d: Sum(rhs),rhsMax =  -9.48241485332346E-13  8.69941623269758E-02
 cg2d: Sum(rhs),rhsMax =  -1.00131014590943E-12  8.67720102485832E-02
 cg2d: Sum(rhs),rhsMax =  -1.04161124170332E-12  8.63627313955841E-02
 cg2d: Sum(rhs),rhsMax =  -1.11732845198276E-12  8.57699117137669E-02
 cg2d: Sum(rhs),rhsMax =  -1.17117426867708E-12  8.49983257729658E-02
 cg2d: Sum(rhs),rhsMax =  -1.22857279905020E-12  8.40538755373295E-02
 cg2d: Sum(rhs),rhsMax =  -1.29707355966957E-12  8.29435172278905E-02
 cg2d: Sum(rhs),rhsMax =  -1.38256073256571E-12  8.16751777823769E-02
 cg2d: Sum(rhs),rhsMax =  -1.49202872279375E-12  8.02576621837537E-02
 cg2d: Sum(rhs),rhsMax =  -1.57096557984460E-12  7.87005530775682E-02
 cg2d: Sum(rhs),rhsMax =  -1.68753899743024E-12  7.70141041678129E-02
 cg2d: Sum(rhs),rhsMax =  -1.78113079840614E-12  7.52091291895708E-02
 cg2d: Sum(rhs),rhsMax =  -1.90303328650998E-12  7.32968882634065E-02
 cg2d: Sum(rhs),rhsMax =  -2.03687067212854E-12  7.12889730951170E-02
 cg2d: Sum(rhs),rhsMax =  -2.16876516745401E-12  6.91971926207912E-02
 cg2d: Sum(rhs),rhsMax =  -2.32497354701877E-12  6.70334606681442E-02
 cg2d: Sum(rhs),rhsMax =  -2.49522624784504E-12  6.48096870084725E-02
 cg2d: Sum(rhs),rhsMax =  -2.63644661657736E-12  6.25376730680986E-02
 cg2d: Sum(rhs),rhsMax =  -2.76884071226391E-12  6.02290136373061E-02
 cg2d: Sum(rhs),rhsMax =  -2.90539814429280E-12  5.78950055436670E-02
 cg2d: Sum(rhs),rhsMax =  -3.07354142137228E-12  5.55465642138718E-02
 cg2d: Sum(rhs),rhsMax =  -3.26272342476841E-12  5.31941487353800E-02
 cg2d: Sum(rhs),rhsMax =  -3.44752004721727E-12  5.08476959528936E-02
 cg2d: Sum(rhs),rhsMax =  -3.65069086072367E-12  4.85165640111090E-02
 cg2d: Sum(rhs),rhsMax =  -3.89227539088211E-12  4.62094854284583E-02
 cg2d: Sum(rhs),rhsMax =  -4.13274969801591E-12  4.39345297538477E-02
 cg2d: Sum(rhs),rhsMax =  -4.39964731313580E-12  4.16990756320871E-02
 cg2d: Sum(rhs),rhsMax =  -4.66326977033305E-12  3.95097920710655E-02
 cg2d: Sum(rhs),rhsMax =  -4.99172925216840E-12  3.73726285185268E-02
 cg2d: Sum(rhs),rhsMax =  -5.34372546212580E-12  3.52928132313084E-02
 cg2d: Sum(rhs),rhsMax =  -5.70410385591913E-12  3.32748593464422E-02
 cg2d: Sum(rhs),rhsMax =  -6.11666273186984E-12  3.13225779390009E-02
 cg2d: Sum(rhs),rhsMax =  -6.56497078921348E-12  2.94390973651756E-02
 cg2d: Sum(rhs),rhsMax =  -7.00534075193104E-12  2.81677009914670E-02
 cg2d: Sum(rhs),rhsMax =  -7.29366567142620E-12  2.75164661926243E-02
 cg2d: Sum(rhs),rhsMax =  -7.40024708179021E-12  2.68824622971551E-02
 cg2d: Sum(rhs),rhsMax =  -7.56905649268447E-12  2.62752085348942E-02
 cg2d: Sum(rhs),rhsMax =  -7.79004638573610E-12  2.56710393371464E-02
 cg2d: Sum(rhs),rhsMax =  -7.87958587267212E-12  2.50566208850216E-02
 cg2d: Sum(rhs),rhsMax =  -8.04195599002355E-12  2.44492481548355E-02
 cg2d: Sum(rhs),rhsMax =  -8.16419154503478E-12  2.38281093241331E-02
 cg2d: Sum(rhs),rhsMax =  -8.32892088631354E-12  2.31894623762244E-02
 cg2d: Sum(rhs),rhsMax =  -8.52301562659363E-12  2.25439886620140E-02
 cg2d: Sum(rhs),rhsMax =  -8.66251514963778E-12  2.18680830262117E-02
 cg2d: Sum(rhs),rhsMax =  -8.88061846282540E-12  2.11833164580337E-02
 cg2d: Sum(rhs),rhsMax =  -9.14296416354432E-12  2.04649626465154E-02
 cg2d: Sum(rhs),rhsMax =  -9.44258560231503E-12  1.97285305679703E-02
 cg2d: Sum(rhs),rhsMax =  -9.75641789580095E-12  1.89634596890538E-02
 cg2d: Sum(rhs),rhsMax =  -1.01508246252990E-11  1.81658789118597E-02
 cg2d: Sum(rhs),rhsMax =  -1.05795650018337E-11  1.73510273255107E-02
 cg2d: Sum(rhs),rhsMax =  -1.10316200618854E-11  1.64997321897509E-02
 cg2d: Sum(rhs),rhsMax =  -1.15866483074711E-11  1.56201851097139E-02
 cg2d: Sum(rhs),rhsMax =  -1.22267751478944E-11  1.47194343328909E-02
 cg2d: Sum(rhs),rhsMax =  -1.29418975536311E-11  1.37865520279069E-02
 cg2d: Sum(rhs),rhsMax =  -1.38437039609585E-11  1.28241195254107E-02
 cg2d: Sum(rhs),rhsMax =  -1.49539547411592E-11  1.18423179301105E-02
 cg2d: Sum(rhs),rhsMax =  -1.62603819298113E-11  1.08371656075538E-02
 cg2d: Sum(rhs),rhsMax =  -1.78417558505117E-11  9.80810565423748E-03
 cg2d: Sum(rhs),rhsMax =  -1.99465444161717E-11  8.75798820515335E-03
 cg2d: Sum(rhs),rhsMax =  -2.26080543175300E-11  7.68968751159233E-03
 cg2d: Sum(rhs),rhsMax =  -2.62733723666031E-11  6.60996613824132E-03
 cg2d: Sum(rhs),rhsMax =  -3.14416270796869E-11  5.51722964132757E-03
 cg2d: Sum(rhs),rhsMax =  -3.91899568352727E-11  4.41386186497512E-03
 cg2d: Sum(rhs),rhsMax =  -4.70362915283573E-11  3.67155941750510E-03
 cg2d: Sum(rhs),rhsMax =  -4.95253282828401E-11  3.48153398537557E-03
 cg2d: Sum(rhs),rhsMax =  -5.23998899826239E-11  3.29050264838097E-03
 cg2d: Sum(rhs),rhsMax =  -5.56089063685761E-11  3.09956044774046E-03
 cg2d: Sum(rhs),rhsMax =  -5.91454385467927E-11  2.90979684257358E-03
 cg2d: Sum(rhs),rhsMax =  -6.32058572147542E-11  2.72228563419248E-03
 cg2d: Sum(rhs),rhsMax =  -5.12105913230698E-11  3.35956367930244E-03
 cg2d: Sum(rhs),rhsMax =  -3.86741610958197E-11  4.43878653787677E-03
 cg2d: Sum(rhs),rhsMax =  -3.11387235440996E-11  5.50237446991356E-03
 cg2d: Sum(rhs),rhsMax =  -2.61488747321792E-11  6.54772103639753E-03
 cg2d: Sum(rhs),rhsMax =  -2.25876522347290E-11  7.57227495522456E-03
 cg2d: Sum(rhs),rhsMax =  -1.99161515187715E-11  8.57627157490771E-03
 cg2d: Sum(rhs),rhsMax =  -1.78494597574685E-11  9.55780928852290E-03
 cg2d: Sum(rhs),rhsMax =  -1.61938448761667E-11  1.05134146405167E-02
 cg2d: Sum(rhs),rhsMax =  -1.47811901607398E-11  1.14409351631785E-02
 cg2d: Sum(rhs),rhsMax =  -1.36216940505030E-11  1.23382828964989E-02
 cg2d: Sum(rhs),rhsMax =  -1.26553489909753E-11  1.32091377391394E-02
 cg2d: Sum(rhs),rhsMax =  -1.18677290217306E-11  1.40554629355802E-02
 cg2d: Sum(rhs),rhsMax =  -1.11548825731944E-11  1.48685324922079E-02
 cg2d: Sum(rhs),rhsMax =  -1.04855291116479E-11  1.56497644825382E-02
 cg2d: Sum(rhs),rhsMax =  -1.00288388704683E-11  1.64130678337378E-02
 cg2d: Sum(rhs),rhsMax =  -9.54054890645040E-12  1.71410459003759E-02
 cg2d: Sum(rhs),rhsMax =  -9.12402098318665E-12  1.78477853058101E-02
 cg2d: Sum(rhs),rhsMax =  -8.71247518574592E-12  1.85302871078664E-02
 cg2d: Sum(rhs),rhsMax =  -8.33230706653865E-12  1.91889683210168E-02
 cg2d: Sum(rhs),rhsMax =  -7.98192067996695E-12  1.98319028632122E-02
 cg2d: Sum(rhs),rhsMax =  -7.63761276445507E-12  2.04574017541925E-02
 cg2d: Sum(rhs),rhsMax =  -7.39125427529075E-12  2.10676593063759E-02
 cg2d: Sum(rhs),rhsMax =  -7.11875003389650E-12  2.16776091599313E-02
 cg2d: Sum(rhs),rhsMax =  -6.83589296279763E-12  2.22759670998038E-02
 cg2d: Sum(rhs),rhsMax =  -6.58464949232496E-12  2.28774105553802E-02
 cg2d: Sum(rhs),rhsMax =  -6.41153796721028E-12  2.34949283288007E-02
 cg2d: Sum(rhs),rhsMax =  -6.13187278730720E-12  2.41256087535038E-02
 cg2d: Sum(rhs),rhsMax =  -5.97477622932274E-12  2.47809518625778E-02
 cg2d: Sum(rhs),rhsMax =  -5.84615689191992E-12  2.54738368669524E-02
 cg2d: Sum(rhs),rhsMax =  -5.70277158828958E-12  2.62186624144349E-02
 cg2d: Sum(rhs),rhsMax =  -5.60973489882599E-12  2.70320454963727E-02
 cg2d: Sum(rhs),rhsMax =  -5.50520740105753E-12  2.79725879500128E-02
 cg2d: Sum(rhs),rhsMax =  -5.40778533064667E-12  2.90252091505931E-02
 cg2d: Sum(rhs),rhsMax =  -5.27328181121334E-12  3.01531374111882E-02
 cg2d: Sum(rhs),rhsMax =  -5.11979347805891E-12  3.13852270573883E-02
(PID.TID 0000.0001)      cg2d_init_res =   2.03341317548172E-01
(PID.TID 0000.0001)      cg2d_iters(min,last) =      -1      40
(PID.TID 0000.0001)      cg2d_last_res =   4.34831135558690E-14
(PID.TID 0000.0001) // =======================================================
(PID.TID 0000.0001) // Begin MONITOR dynamic field statistics
(PID.TID 0000.0001) // =======================================================
(PID.TID 0000.0001) %MON time_tsnumber                =                   480
(PID.TID 0000.0001) %MON time_secondsf                =   7.2000000000000E+03
(PID.TID 0000.0001) %MON dynstat_eta_max              =   6.7179084425921E-03
(PID.TID 0000.0001) %MON dynstat_eta_min              =  -7.0675211746441E-03
(PID.TID 0000.0001) %MON dynstat_eta_mean             =   3.6855466960825E-16
(PID.TID 0000.0001) %MON dynstat_eta_sd               =   5.1937697338398E-03
(PID.TID 0000.0001) %MON dynstat_eta_del2             =   1.8103081238493E-06
(PID.TID 0000.0001) %MON dynstat_uvel_max             =   1.3146594719065E+00
(PID.TID 0000.0001) %MON dynstat_uvel_min             =   1.0047657272464E-01
(PID.TID 0000.0001) %MON dynstat_uvel_mean            =   5.6253354749435E-01
(PID.TID 0000.0001) %MON dynstat_uvel_sd              =   9.8964476440941E-03
(PID.TID 0000.0001) %MON dynstat_uvel_del2            =   2.0738099463432E-04
(PID.TID 0000.0001) %MON dynstat_vvel_max             =   0.0000000000000E+00
(PID.TID 0000.0001) %MON dynstat_vvel_min             =   0.0000000000000E+00
(PID.TID 0000.0001) %MON dynstat_vvel_mean            =   0.0000000000000E+00
(PID.TID 0000.0001) %MON dynstat_vvel_sd              =   0.0000000000000E+00
(PID.TID 0000.0001) %MON dynstat_vvel_del2            =   0.0000000000000E+00
(PID.TID 0000.0001) %MON dynstat_wvel_max             =   8.9337618368674E-03
(PID.TID 0000.0001) %MON dynstat_wvel_min             =  -7.2201113975324E-03
(PID.TID 0000.0001) %MON dynstat_wvel_mean            =  -7.7365170928603E-21
(PID.TID 0000.0001) %MON dynstat_wvel_sd              =   4.7484131449742E-04
(PID.TID 0000.0001) %MON dynstat_wvel_del2            =   1.1171238159874E-05
(PID.TID 0000.0001) %MON dynstat_theta_max            =   1.5000000000002E+01
(PID.TID 0000.0001) %MON dynstat_theta_min            =   9.9999999999991E+00
(PID.TID 0000.0001) %MON dynstat_theta_mean           =   1.4014112263151E+01
(PID.TID 0000.0001) %MON dynstat_theta_sd             =   1.9272384241440E+00
(PID.TID 0000.0001) %MON dynstat_theta_del2           =   9.8122843248710E-05
(PID.TID 0000.0001) %MON dynstat_salt_max             =   3.5000000000000E+01
(PID.TID 0000.0001) %MON dynstat_salt_min             =   3.5000000000000E+01
(PID.TID 0000.0001) %MON dynstat_salt_mean            =   3.5000000000000E+01
(PID.TID 0000.0001) %MON dynstat_salt_sd              =   4.1922021409846E-13
(PID.TID 0000.0001) %MON dynstat_salt_del2            =   0.0000000000000E+00
(PID.TID 0000.0001) %MON dynstat_sst_max              =   1.5000000000000E+01
(PID.TID 0000.0001) %MON dynstat_sst_min              =   1.5000000000000E+01
(PID.TID 0000.0001) %MON dynstat_sst_mean             =   1.5000000000000E+01
(PID.TID 0000.0001) %MON dynstat_sst_sd               =   1.0744982593115E-13
(PID.TID 0000.0001) %MON dynstat_sst_del2             =   1.2185396554485E-15
(PID.TID 0000.0001) %MON dynstat_sss_max              =   3.5000000000000E+01
(PID.TID 0000.0001) %MON dynstat_sss_min              =   3.5000000000000E+01
(PID.TID 0000.0001) %MON dynstat_sss_mean             =   3.5000000000000E+01
(PID.TID 0000.0001) %MON dynstat_sss_sd               =   2.8421709430404E-14
(PID.TID 0000.0001) %MON dynstat_sss_del2             =   0.0000000000000E+00
(PID.TID 0000.0001) %MON forcing_qnet_max             =   0.0000000000000E+00
(PID.TID 0000.0001) %MON forcing_qnet_min             =   0.0000000000000E+00
(PID.TID 0000.0001) %MON forcing_qnet_mean            =   0.0000000000000E+00
(PID.TID 0000.0001) %MON forcing_qnet_sd              =   0.0000000000000E+00
(PID.TID 0000.0001) %MON forcing_qnet_del2            =   0.0000000000000E+00
(PID.TID 0000.0001) %MON forcing_qsw_max              =   0.0000000000000E+00
(PID.TID 0000.0001) %MON forcing_qsw_min              =   0.0000000000000E+00
(PID.TID 0000.0001) %MON forcing_qsw_mean             =   0.0000000000000E+00
(PID.TID 0000.0001) %MON forcing_qsw_sd               =   0.0000000000000E+00
(PID.TID 0000.0001) %MON forcing_qsw_del2             =   0.0000000000000E+00
(PID.TID 0000.0001) %MON forcing_empmr_max            =   0.0000000000000E+00
(PID.TID 0000.0001) %MON forcing_empmr_min            =   0.0000000000000E+00
(PID.TID 0000.0001) %MON forcing_empmr_mean           =   0.0000000000000E+00
(PID.TID 0000.0001) %MON forcing_empmr_sd             =   0.0000000000000E+00
(PID.TID 0000.0001) %MON forcing_empmr_del2           =   0.0000000000000E+00
(PID.TID 0000.0001) %MON forcing_fu_max               =   0.0000000000000E+00
(PID.TID 0000.0001) %MON forcing_fu_min               =   0.0000000000000E+00
(PID.TID 0000.0001) %MON forcing_fu_mean              =   0.0000000000000E+00
(PID.TID 0000.0001) %MON forcing_fu_sd                =   0.0000000000000E+00
(PID.TID 0000.0001) %MON forcing_fu_del2              =   0.0000000000000E+00
(PID.TID 0000.0001) %MON forcing_fv_max               =   0.0000000000000E+00
(PID.TID 0000.0001) %MON forcing_fv_min               =   0.0000000000000E+00
(PID.TID 0000.0001) %MON forcing_fv_mean              =   0.0000000000000E+00
(PID.TID 0000.0001) %MON forcing_fv_sd                =   0.0000000000000E+00
(PID.TID 0000.0001) %MON forcing_fv_del2              =   0.0000000000000E+00
(PID.TID 0000.0001) %MON advcfl_uvel_max              =   9.4939971464625E-02
(PID.TID 0000.0001) %MON advcfl_vvel_max              =   0.0000000000000E+00
(PID.TID 0000.0001) %MON advcfl_wvel_max              =   3.2129702847739E-02
(PID.TID 0000.0001) %MON advcfl_W_hf_max              =   9.5929597197979E-02
(PID.TID 0000.0001) %MON pe_b_mean                    =   6.6295447606341E-07
(PID.TID 0000.0001) %MON ke_max                       =   4.3658627867641E-01
(PID.TID 0000.0001) %MON ke_mean                      =   1.5829191541042E-01
(PID.TID 0000.0001) %MON ke_vol                       =   9.7476098603737E+10
(PID.TID 0000.0001) %MON vort_r_min                   =   0.0000000000000E+00
(PID.TID 0000.0001) %MON vort_r_max                   =   0.0000000000000E+00
(PID.TID 0000.0001) %MON vort_a_mean                  =   0.0000000000000E+00
(PID.TID 0000.0001) %MON vort_a_sd                    =   0.0000000000000E+00
(PID.TID 0000.0001) %MON vort_p_mean                  =   0.0000000000000E+00
(PID.TID 0000.0001) %MON vort_p_sd                    =   0.0000000000000E+00
(PID.TID 0000.0001) %MON surfExpan_theta_mean         =   4.8882344747010E-20
(PID.TID 0000.0001) %MON surfExpan_salt_mean          =  -4.3109572605459E-19
(PID.TID 0000.0001) // =======================================================
(PID.TID 0000.0001) // End MONITOR dynamic field statistics
(PID.TID 0000.0001) // =======================================================
(PID.TID 0000.0001) // =======================================================
(PID.TID 0000.0001) // Begin OBCS MONITOR field statistics
(PID.TID 0000.0001) // =======================================================
(PID.TID 0000.0001) %MON obc_E_uVel_max               =   5.6028564143658E-01
(PID.TID 0000.0001) %MON obc_E_uVel_min               =   5.6028564143658E-01
(PID.TID 0000.0001) %MON obc_E_uVel_mean              =   5.6028564143658E-01
(PID.TID 0000.0001) %MON obc_E_uVel_sd                =   1.0536712127724E-08
(PID.TID 0000.0001) %MON obc_E_uVel_Int               =   5.6028564143658E+05
(PID.TID 0000.0001) %MON obc_W_uVel_max               =   5.6028564143658E-01
(PID.TID 0000.0001) %MON obc_W_uVel_min               =   5.6028564143658E-01
(PID.TID 0000.0001) %MON obc_W_uVel_mean              =   5.6028564143658E-01
(PID.TID 0000.0001) %MON obc_W_uVel_sd                =   1.0536712127724E-08
(PID.TID 0000.0001) %MON obc_W_uVel_Int               =   5.6028564143658E+05
(PID.TID 0000.0001) // =======================================================
(PID.TID 0000.0001) // End OBCS MONITOR field statistics
(PID.TID 0000.0001) // =======================================================
 cg2d: Sum(rhs),rhsMax =  -4.93427521064405E-12  3.27236691946220E-02
 cg2d: Sum(rhs),rhsMax =  -4.76746420119412E-12  3.42047628700381E-02
 cg2d: Sum(rhs),rhsMax =  -4.55330217974392E-12  3.59341089225602E-02
 cg2d: Sum(rhs),rhsMax =  -4.39781544514517E-12  3.76833654405501E-02
 cg2d: Sum(rhs),rhsMax =  -4.23694412887698E-12  3.94474953341982E-02
 cg2d: Sum(rhs),rhsMax =  -4.10360634361950E-12  4.12211543642185E-02
 cg2d: Sum(rhs),rhsMax =  -3.94417831728333E-12  4.29987157340832E-02
 cg2d: Sum(rhs),rhsMax =  -3.85347309617146E-12  4.47742981455534E-02
 cg2d: Sum(rhs),rhsMax =  -3.70237174251997E-12  4.65417971656118E-02
 cg2d: Sum(rhs),rhsMax =  -3.59412499761902E-12  4.82949197023438E-02
 cg2d: Sum(rhs),rhsMax =  -3.50042217434066E-12  5.00272213438335E-02
 cg2d: Sum(rhs),rhsMax =  -3.43880479647396E-12  5.17321462691239E-02
 cg2d: Sum(rhs),rhsMax =  -3.35809158258371E-12  5.34030693976426E-02
 cg2d: Sum(rhs),rhsMax =  -3.33155725229517E-12  5.50333404042333E-02
 cg2d: Sum(rhs),rhsMax =  -3.32089911125877E-12  5.66163291920357E-02
 cg2d: Sum(rhs),rhsMax =  -3.30002691839582E-12  5.81454723855837E-02
 cg2d: Sum(rhs),rhsMax =  -3.29414273636530E-12  5.96143203822237E-02
 cg2d: Sum(rhs),rhsMax =  -3.26871862910139E-12  6.10165844817214E-02
 cg2d: Sum(rhs),rhsMax =  -3.28059801546488E-12  6.23461835918551E-02
 cg2d: Sum(rhs),rhsMax =  -3.28836957663725E-12  6.35972900377526E-02
 cg2d: Sum(rhs),rhsMax =  -3.26605409384229E-12  6.47643739701091E-02
 cg2d: Sum(rhs),rhsMax =  -3.26039195641670E-12  6.58422458764171E-02
 cg2d: Sum(rhs),rhsMax =  -3.26005888950931E-12  6.68260967264824E-02
 cg2d: Sum(rhs),rhsMax =  -3.25384164057141E-12  6.77115353074027E-02
 cg2d: Sum(rhs),rhsMax =  -3.27082805284817E-12  6.84946223322680E-02
 cg2d: Sum(rhs),rhsMax =  -3.29292149103821E-12  6.91719009387440E-02
 cg2d: Sum(rhs),rhsMax =  -3.32855965012868E-12  6.97404232424784E-02
 cg2d: Sum(rhs),rhsMax =  -3.34865468687440E-12  7.01977726538384E-02
 cg2d: Sum(rhs),rhsMax =  -3.34310357175127E-12  7.05420817071713E-02
 cg2d: Sum(rhs),rhsMax =  -3.34576810701037E-12  7.07720452141378E-02
 cg2d: Sum(rhs),rhsMax =  -3.40583117264259E-12  7.08869286096038E-02
 cg2d: Sum(rhs),rhsMax =  -3.46389583683049E-12  7.08865714327208E-02
 cg2d: Sum(rhs),rhsMax =  -3.47755158003338E-12  7.07713858958724E-02
 cg2d: Sum(rhs),rhsMax =  -3.51463302905586E-12  7.05423505914395E-02
 cg2d: Sum(rhs),rhsMax =  -3.52651241541935E-12  7.02009994755712E-02
 cg2d: Sum(rhs),rhsMax =  -3.59168250696484E-12  6.97494062555812E-02
 cg2d: Sum(rhs),rhsMax =  -3.64697161359118E-12  6.91901643716097E-02
 cg2d: Sum(rhs),rhsMax =  -3.66784380645413E-12  6.85263629535621E-02
 cg2d: Sum(rhs),rhsMax =  -3.70914410297019E-12  6.77615589699304E-02
 cg2d: Sum(rhs),rhsMax =  -3.78719278160133E-12  6.68997459596306E-02
 cg2d: Sum(rhs),rhsMax =  -3.89810406176139E-12  6.59453195531556E-02
 cg2d: Sum(rhs),rhsMax =  -4.04298816647497E-12  6.49030403797726E-02
 cg2d: Sum(rhs),rhsMax =  -4.21540580219926E-12  6.37779947792837E-02
 cg2d: Sum(rhs),rhsMax =  -4.36339853138179E-12  6.25755537211831E-02
 cg2d: Sum(rhs),rhsMax =  -4.60309568239836E-12  6.13013304725276E-02
 cg2d: Sum(rhs),rhsMax =  -4.79671857789299E-12  6.01837588461492E-02
 cg2d: Sum(rhs),rhsMax =  -4.95037344450111E-12  5.97807762074387E-02
 cg2d: Sum(rhs),rhsMax =  -5.12334619173771E-12  5.92867871444881E-02
 cg2d: Sum(rhs),rhsMax =  -5.30664401310332E-12  5.87044038906510E-02
 cg2d: Sum(rhs),rhsMax =  -5.44742029262579E-12  5.80366237489486E-02
 cg2d: Sum(rhs),rhsMax =  -5.62094815137471E-12  5.72868035551644E-02
 cg2d: Sum(rhs),rhsMax =  -5.77859982087148E-12  5.64586316877822E-02
 cg2d: Sum(rhs),rhsMax =  -5.95268279113270E-12  5.55560980247939E-02
 cg2d: Sum(rhs),rhsMax =  -6.17506046296512E-12  5.45834620518065E-02
 cg2d: Sum(rhs),rhsMax =  -6.21047657745066E-12  5.35452194807391E-02
 cg2d: Sum(rhs),rhsMax =  -6.27564666899616E-12  5.24460677500270E-02
 cg2d: Sum(rhs),rhsMax =  -6.38633590455129E-12  5.12908707774904E-02
 cg2d: Sum(rhs),rhsMax =  -6.52555787183928E-12  5.00846233654773E-02
 cg2d: Sum(rhs),rhsMax =  -6.61515286992653E-12  4.88324155157838E-02
 cg2d: Sum(rhs),rhsMax =  -6.74826861057909E-12  4.75393970422153E-02
 cg2d: Sum(rhs),rhsMax =  -6.86661838500413E-12  4.62107428538098E-02
 cg2d: Sum(rhs),rhsMax =  -6.97586433062725E-12  4.48516191823627E-02
 cg2d: Sum(rhs),rhsMax =  -7.12174763606299E-12  4.34671510052155E-02
 cg2d: Sum(rhs),rhsMax =  -7.23887616516095E-12  4.20623909544336E-02
 cg2d: Sum(rhs),rhsMax =  -7.37865324396125E-12  4.06422900454263E-02
 cg2d: Sum(rhs),rhsMax =  -7.53308526668661E-12  3.92116702723106E-02
 cg2d: Sum(rhs),rhsMax =  -7.71038788371925E-12  3.77751992249547E-02
 cg2d: Sum(rhs),rhsMax =  -7.86926079854311E-12  3.63373669516191E-02
 cg2d: Sum(rhs),rhsMax =  -8.05888689114909E-12  3.49024651828637E-02
 cg2d: Sum(rhs),rhsMax =  -8.25195467513140E-12  3.34745689927407E-02
 cg2d: Sum(rhs),rhsMax =  -8.46689385269883E-12  3.20575209201215E-02
 cg2d: Sum(rhs),rhsMax =  -8.69482263965438E-12  3.06549175699978E-02
 cg2d: Sum(rhs),rhsMax =  -8.98048302389043E-12  2.92700986864778E-02
 cg2d: Sum(rhs),rhsMax =  -9.26791976496588E-12  2.79061386255401E-02
 cg2d: Sum(rhs),rhsMax =  -9.54336609737538E-12  2.65658402125455E-02
 cg2d: Sum(rhs),rhsMax =  -9.92073090344547E-12  2.52517308862606E-02
 cg2d: Sum(rhs),rhsMax =  -1.03473896118089E-11  2.39660610071527E-02
 cg2d: Sum(rhs),rhsMax =  -1.08758557715305E-11  2.27108041883059E-02
 cg2d: Sum(rhs),rhsMax =  -1.14115383809121E-11  2.14876595384884E-02
 cg2d: Sum(rhs),rhsMax =  -1.20385923452204E-11  2.02980556636051E-02
 cg2d: Sum(rhs),rhsMax =  -1.26746391160282E-11  1.91431562659697E-02
 cg2d: Sum(rhs),rhsMax =  -1.33854038963932E-11  1.80238671750829E-02
 cg2d: Sum(rhs),rhsMax =  -1.42940104197464E-11  1.69408446382647E-02
 cg2d: Sum(rhs),rhsMax =  -1.52391432806098E-11  1.58945046998905E-02
 cg2d: Sum(rhs),rhsMax =  -1.60964575002254E-11  1.50360791755488E-02
 cg2d: Sum(rhs),rhsMax =  -1.67088565206086E-11  1.44621177347534E-02
 cg2d: Sum(rhs),rhsMax =  -1.72961645006353E-11  1.38923361438530E-02
 cg2d: Sum(rhs),rhsMax =  -1.79580794679168E-11  1.33673498369467E-02
 cg2d: Sum(rhs),rhsMax =  -1.88618010099617E-11  1.28415592363855E-02
 cg2d: Sum(rhs),rhsMax =  -1.97825089642834E-11  1.22972265121638E-02
 cg2d: Sum(rhs),rhsMax =  -2.08717487737431E-11  1.17411781254272E-02
 cg2d: Sum(rhs),rhsMax =  -2.20501394920802E-11  1.11725000272368E-02
 cg2d: Sum(rhs),rhsMax =  -2.34047226044254E-11  1.05870131858310E-02
 cg2d: Sum(rhs),rhsMax =  -2.48792098034301E-11  9.98968983912469E-03
 cg2d: Sum(rhs),rhsMax =  -2.65586441727805E-11  9.38031028445411E-03
 cg2d: Sum(rhs),rhsMax =  -2.86237700208858E-11  8.75608185440949E-03
 cg2d: Sum(rhs),rhsMax =  -3.07610603655917E-11  8.11811782190938E-03
 cg2d: Sum(rhs),rhsMax =  -3.35068639500946E-11  7.46997345841893E-03
 cg2d: Sum(rhs),rhsMax =  -3.68622909974192E-11  6.81108868191106E-03
 cg2d: Sum(rhs),rhsMax =  -4.08257871953310E-11  6.14082640819319E-03
 cg2d: Sum(rhs),rhsMax =  -4.60220750397866E-11  5.46035462458434E-03
 cg2d: Sum(rhs),rhsMax =  -5.26224619434856E-11  4.77083933143736E-03
 cg2d: Sum(rhs),rhsMax =  -6.09154948705282E-11  4.13796852925355E-03
 cg2d: Sum(rhs),rhsMax =  -6.17048634410367E-11  4.08992718956348E-03
 cg2d: Sum(rhs),rhsMax =  -6.25118845576367E-11  4.04115782973243E-03
 cg2d: Sum(rhs),rhsMax =  -6.33374741543236E-11  3.99187933662536E-03
 cg2d: Sum(rhs),rhsMax =  -6.42146474882921E-11  3.94231898154605E-03
 cg2d: Sum(rhs),rhsMax =  -6.50550585623577E-11  3.89270739846441E-03
 cg2d: Sum(rhs),rhsMax =  -6.60496102256047E-11  3.84327638440427E-03
 cg2d: Sum(rhs),rhsMax =  -6.69537758568595E-11  3.79425731583929E-03
 cg2d: Sum(rhs),rhsMax =  -6.79203915332494E-11  3.74587939240401E-03
 cg2d: Sum(rhs),rhsMax =  -6.89379664464695E-11  3.69836795466804E-03
 cg2d: Sum(rhs),rhsMax =  -6.98274771337992E-11  3.65194291440167E-03
 cg2d: Sum(rhs),rhsMax =  -6.72628619469151E-11  3.79149610391442E-03
 cg2d: Sum(rhs),rhsMax =  -5.67638158699424E-11  4.49326705388415E-03
 cg2d: Sum(rhs),rhsMax =  -4.92643703609019E-11  5.18877897621255E-03
 cg2d: Sum(rhs),rhsMax =  -4.35458336056627E-11  5.87678820621112E-03
 cg2d: Sum(rhs),rhsMax =  -3.91697785318001E-11  6.55570996648426E-03
 cg2d: Sum(rhs),rhsMax =  -3.56563667480714E-11  7.22443877188289E-03
 cg2d: Sum(rhs),rhsMax =  -3.26108029469196E-11  7.88187507440697E-03
 cg2d: Sum(rhs),rhsMax =  -3.01532132596094E-11  8.52940324037921E-03
 cg2d: Sum(rhs),rhsMax =  -2.80858669654549E-11  9.16638272256529E-03
 cg2d: Sum(rhs),rhsMax =  -2.63518096232929E-11  9.78991292038673E-03
 cg2d: Sum(rhs),rhsMax =  -2.48704390415355E-11  1.03989725575537E-02
 cg2d: Sum(rhs),rhsMax =  -2.35143016169559E-11  1.09995445897019E-02
 cg2d: Sum(rhs),rhsMax =  -2.23605578497654E-11  1.15856109469672E-02
 cg2d: Sum(rhs),rhsMax =  -2.13975503982056E-11  1.21554846620091E-02
 cg2d: Sum(rhs),rhsMax =  -2.05804262520815E-11  1.27186362152154E-02
 cg2d: Sum(rhs),rhsMax =  -1.97678540203583E-11  1.32653417640435E-02
 cg2d: Sum(rhs),rhsMax =  -1.90718552062208E-11  1.38006177118779E-02
 cg2d: Sum(rhs),rhsMax =  -1.84621207210967E-11  1.43253291694105E-02
 cg2d: Sum(rhs),rhsMax =  -1.78861370159211E-11  1.48361880509667E-02
 cg2d: Sum(rhs),rhsMax =  -1.72947212107033E-11  1.54263745175966E-02
 cg2d: Sum(rhs),rhsMax =  -1.64646074551911E-11  1.62743637358912E-02
 cg2d: Sum(rhs),rhsMax =  -1.56084034586002E-11  1.71951775278331E-02
 cg2d: Sum(rhs),rhsMax =  -1.48481227313368E-11  1.81417881911874E-02
 cg2d: Sum(rhs),rhsMax =  -1.41340272818979E-11  1.91134879758319E-02
 cg2d: Sum(rhs),rhsMax =  -1.35398359191186E-11  2.01093950669534E-02
 cg2d: Sum(rhs),rhsMax =  -1.28463906179377E-11  2.11284520634439E-02
 cg2d: Sum(rhs),rhsMax =  -1.22657439760587E-11  2.21694253518235E-02
 cg2d: Sum(rhs),rhsMax =  -1.17661436149774E-11  2.32309054382255E-02
 cg2d: Sum(rhs),rhsMax =  -1.13717923966306E-11  2.43113082948547E-02
 cg2d: Sum(rhs),rhsMax =  -1.08975051205107E-11  2.54088777702769E-02
 cg2d: Sum(rhs),rhsMax =  -1.05782049786285E-11  2.65216891048709E-02
 cg2d: Sum(rhs),rhsMax =  -1.02002850610461E-11  2.76476535838552E-02
 cg2d: Sum(rhs),rhsMax =  -9.87165904575704E-12  2.87845243505202E-02
 cg2d: Sum(rhs),rhsMax =  -9.54880619019605E-12  2.99299033884568E-02
 cg2d: Sum(rhs),rhsMax =  -9.28546128875496E-12  3.10812496841568E-02
 cg2d: Sum(rhs),rhsMax =  -9.03987995570787E-12  3.22358885502066E-02
 cg2d: Sum(rhs),rhsMax =  -8.78008776794559E-12  3.33910220869787E-02
 cg2d: Sum(rhs),rhsMax =  -8.55904236374272E-12  3.45437407491866E-02
 cg2d: Sum(rhs),rhsMax =  -8.35864710779788E-12  3.56910359710564E-02
 cg2d: Sum(rhs),rhsMax =  -8.18456413753665E-12  3.68298137912106E-02
 cg2d: Sum(rhs),rhsMax =  -7.99627031256023E-12  3.79569094061325E-02
 cg2d: Sum(rhs),rhsMax =  -7.83462184017480E-12  3.90691025693993E-02
 cg2d: Sum(rhs),rhsMax =  -7.69073693618338E-12  4.01631337432448E-02
 cg2d: Sum(rhs),rhsMax =  -7.56650297972783E-12  4.12357208987136E-02
 cg2d: Sum(rhs),rhsMax =  -7.48023865071445E-12  4.22835768511143E-02
 cg2d: Sum(rhs),rhsMax =  -7.35145277985794E-12  4.33034270091237E-02
 cg2d: Sum(rhs),rhsMax =  -7.26840809761597E-12  4.42920274087454E-02
 cg2d: Sum(rhs),rhsMax =  -7.22011339604478E-12  4.52461828974623E-02
 cg2d: Sum(rhs),rhsMax =  -7.10009828708280E-12  4.61627653292936E-02
 cg2d: Sum(rhs),rhsMax =  -7.05679958912242E-12  4.70387316282593E-02
 cg2d: Sum(rhs),rhsMax =  -7.01083635590294E-12  4.78711415759973E-02
 cg2d: Sum(rhs),rhsMax =  -6.93056723122254E-12  4.86571751791534E-02
 cg2d: Sum(rhs),rhsMax =  -6.89048818003357E-12  4.93941494736228E-02
 cg2d: Sum(rhs),rhsMax =  -6.89248658147790E-12  5.00795346258146E-02
 cg2d: Sum(rhs),rhsMax =  -6.85274059719632E-12  5.07109691957457E-02
 cg2d: Sum(rhs),rhsMax =  -6.83564316261709E-12  5.12862744369371E-02
 cg2d: Sum(rhs),rhsMax =  -6.83630929643186E-12  5.18034675056432E-02
 cg2d: Sum(rhs),rhsMax =  -6.81898981724771E-12  5.22607734603417E-02
 cg2d: Sum(rhs),rhsMax =  -6.83042511440135E-12  5.26832988131259E-02
 cg2d: Sum(rhs),rhsMax =  -6.73672229112299E-12  5.39010407038654E-02
 cg2d: Sum(rhs),rhsMax =  -6.64990285059730E-12  5.50778921340055E-02
 cg2d: Sum(rhs),rhsMax =  -6.54287735102344E-12  5.62100558850500E-02
 cg2d: Sum(rhs),rhsMax =  -6.47515374652130E-12  5.72938361195126E-02
 cg2d: Sum(rhs),rhsMax =  -6.45783426733715E-12  5.83256590738268E-02
 cg2d: Sum(rhs),rhsMax =  -6.42219610824668E-12  5.93020932742632E-02
 cg2d: Sum(rhs),rhsMax =  -6.37279118365086E-12  6.02198691086067E-02
 cg2d: Sum(rhs),rhsMax =  -6.36635189010804E-12  6.10758976157160E-02
 cg2d: Sum(rhs),rhsMax =  -6.27808915965034E-12  6.18672883154726E-02
 cg2d: Sum(rhs),rhsMax =  -6.21958040625259E-12  6.25913659322010E-02
 cg2d: Sum(rhs),rhsMax =  -6.15840711759574E-12  6.32456858737984E-02
 cg2d: Sum(rhs),rhsMax =  -6.09423622677241E-12  6.38280483390095E-02
 cg2d: Sum(rhs),rhsMax =  -6.04061245468301E-12  6.43365109359139E-02
 cg2d: Sum(rhs),rhsMax =  -6.02218275247424E-12  6.47693997066879E-02
 cg2d: Sum(rhs),rhsMax =  -5.99775784593248E-12  6.51253184674743E-02
 cg2d: Sum(rhs),rhsMax =  -6.00952620999351E-12  6.54031563869934E-02
 cg2d: Sum(rhs),rhsMax =  -6.01729777116589E-12  6.56020937492264E-02
 cg2d: Sum(rhs),rhsMax =  -6.04127858849779E-12  6.57216058495803E-02
 cg2d: Sum(rhs),rhsMax =  -6.07347505621192E-12  6.57614649821779E-02
 cg2d: Sum(rhs),rhsMax =  -6.08757488862466E-12  6.57217405299598E-02
 cg2d: Sum(rhs),rhsMax =  -6.11777295489446E-12  6.56027971510858E-02
 cg2d: Sum(rhs),rhsMax =  -6.20281603858075E-12  6.54052911082352E-02
 cg2d: Sum(rhs),rhsMax =  -6.27309315603952E-12  6.51301647805091E-02
 cg2d: Sum(rhs),rhsMax =  -6.36235508721938E-12  6.47786393969203E-02
 cg2d: Sum(rhs),rhsMax =  -6.44195807808501E-12  6.43522060618615E-02
 cg2d: Sum(rhs),rhsMax =  -6.51267928475363E-12  6.38526151096303E-02
 cg2d: Sum(rhs),rhsMax =  -6.61504184762407E-12  6.32818639538017E-02
 cg2d: Sum(rhs),rhsMax =  -6.71052102774183E-12  6.26421835424894E-02
 cg2d: Sum(rhs),rhsMax =  -6.81799061652555E-12  6.19360235330693E-02
 cg2d: Sum(rhs),rhsMax =  -6.92768065135851E-12  6.11660363119167E-02
 cg2d: Sum(rhs),rhsMax =  -7.07012226541792E-12  6.03350599813863E-02
 cg2d: Sum(rhs),rhsMax =  -7.19146964200945E-12  5.94461004436249E-02
 cg2d: Sum(rhs),rhsMax =  -7.38842320657795E-12  5.85023127851305E-02
 cg2d: Sum(rhs),rhsMax =  -7.51554374289753E-12  5.75069821177230E-02
 cg2d: Sum(rhs),rhsMax =  -7.71638308805223E-12  5.64635039608306E-02
 cg2d: Sum(rhs),rhsMax =  -7.91278154110842E-12  5.53753643464962E-02
 cg2d: Sum(rhs),rhsMax =  -8.08886291281397E-12  5.42461197861905E-02
 cg2d: Sum(rhs),rhsMax =  -8.30957525010945E-12  5.30793772926987E-02
 cg2d: Sum(rhs),rhsMax =  -8.55004955724326E-12  5.18787746124810E-02
 cg2d: Sum(rhs),rhsMax =  -8.80817641046860E-12  5.06479607409595E-02
 cg2d: Sum(rhs),rhsMax =  -9.08395580978549E-12  4.93905768277423E-02
 cg2d: Sum(rhs),rhsMax =  -9.35396204937433E-12  4.81102376641556E-02
 cg2d: Sum(rhs),rhsMax =  -9.67659286033040E-12  4.68105138641733E-02
 cg2d: Sum(rhs),rhsMax =  -9.96758231508466E-12  4.54949148350444E-02
 cg2d: Sum(rhs),rhsMax =  -1.03047570476633E-11  4.41668726290332E-02
 cg2d: Sum(rhs),rhsMax =  -1.07052144926456E-11  4.28297267355702E-02
 cg2d: Sum(rhs),rhsMax =  -1.11284315096327E-11  4.14867099099963E-02
 cg2d: Sum(rhs),rhsMax =  -1.15888965090960E-11  4.01409350696400E-02
 cg2d: Sum(rhs),rhsMax =  -1.21371801498071E-11  3.87953833314369E-02
 cg2d: Sum(rhs),rhsMax =  -1.26291199720185E-11  3.74528932245609E-02
 cg2d: Sum(rhs),rhsMax =  -1.31435418104786E-11  3.61161510995523E-02
 cg2d: Sum(rhs),rhsMax =  -1.36569089370653E-11  3.47876827450676E-02
 cg2d: Sum(rhs),rhsMax =  -1.41646694373776E-11  3.34698462150347E-02
 cg2d: Sum(rhs),rhsMax =  -1.46857526139854E-11  3.21648258619561E-02
 cg2d: Sum(rhs),rhsMax =  -1.52229340244503E-11  3.08746275628619E-02
 cg2d: Sum(rhs),rhsMax =  -1.57910351461510E-11  2.96010751147315E-02
 cg2d: Sum(rhs),rhsMax =  -1.64342428554676E-11  2.83458077673455E-02
 cg2d: Sum(rhs),rhsMax =  -1.71277436677997E-11  2.71102788539849E-02
 cg2d: Sum(rhs),rhsMax =  -1.78664305572340E-11  2.58957554744360E-02
 cg2d: Sum(rhs),rhsMax =  -1.86865523055246E-11  2.47033191552479E-02
 cg2d: Sum(rhs),rhsMax =  -1.95418126125446E-11  2.35338675030180E-02
 cg2d: Sum(rhs),rhsMax =  -2.05348515969206E-11  2.23881167407231E-02
 cg2d: Sum(rhs),rhsMax =  -2.15169548845040E-11  2.12666050674437E-02
 cg2d: Sum(rhs),rhsMax =  -2.26250684853824E-11  2.01696967839365E-02
 cg2d: Sum(rhs),rhsMax =  -2.38306596678228E-11  1.90975870879428E-02
 cg2d: Sum(rhs),rhsMax =  -2.50995890738182E-11  1.80503075192600E-02
 cg2d: Sum(rhs),rhsMax =  -2.65108490715704E-11  1.70277319905596E-02
 cg2d: Sum(rhs),rhsMax =  -2.81207279684281E-11  1.60295833375280E-02
 cg2d: Sum(rhs),rhsMax =  -2.98456814817882E-11  1.50554403227749E-02
 cg2d: Sum(rhs),rhsMax =  -3.18468584836751E-11  1.41047450318256E-02
 cg2d: Sum(rhs),rhsMax =  -3.40674710663791E-11  1.31768106042302E-02
 cg2d: Sum(rhs),rhsMax =  -3.65327212925592E-11  1.22708292471589E-02
 cg2d: Sum(rhs),rhsMax =  -3.92369470247900E-11  1.13858804825656E-02
 cg2d: Sum(rhs),rhsMax =  -4.24544288613049E-11  1.05209395827139E-02
 cg2d: Sum(rhs),rhsMax =  -4.61118920824788E-11  9.67488615321937E-03
 cg2d: Sum(rhs),rhsMax =  -5.03336816670696E-11  8.84651281702984E-03
 cg2d: Sum(rhs),rhsMax =  -5.52600187830876E-11  8.03453398161610E-03
 cg2d: Sum(rhs),rhsMax =  -6.13435968688236E-11  7.23759462861721E-03
 cg2d: Sum(rhs),rhsMax =  -6.87606638294369E-11  6.45427911278603E-03
 cg2d: Sum(rhs),rhsMax =  -7.80068232231201E-11  5.68311995296946E-03
 cg2d: Sum(rhs),rhsMax =  -8.56091864065434E-11  5.17776810111658E-03
 cg2d: Sum(rhs),rhsMax =  -8.70631899907437E-11  5.09068506903148E-03
 cg2d: Sum(rhs),rhsMax =  -8.85769790848201E-11  5.00294674928444E-03
 cg2d: Sum(rhs),rhsMax =  -9.01138608178087E-11  4.91486662861515E-03
 cg2d: Sum(rhs),rhsMax =  -9.16778875037494E-11  4.82675620011279E-03
 cg2d: Sum(rhs),rhsMax =  -9.32660615404757E-11  4.73893134490209E-03
 cg2d: Sum(rhs),rhsMax =  -9.48907064035609E-11  4.65169876938960E-03
 cg2d: Sum(rhs),rhsMax =  -9.65997525026463E-11  4.56536108230777E-03
 cg2d: Sum(rhs),rhsMax =  -9.84261283587529E-11  4.48021544559228E-03
 cg2d: Sum(rhs),rhsMax =  -1.00154329274460E-10  4.39655179115598E-03
 cg2d: Sum(rhs),rhsMax =  -1.01972930099947E-10  4.31465130433556E-03
 cg2d: Sum(rhs),rhsMax =  -9.27948828888248E-11  4.73938530418622E-03
 cg2d: Sum(rhs),rhsMax =  -7.96079868692345E-11  5.52377789598427E-03
 cg2d: Sum(rhs),rhsMax =  -6.96543378531089E-11  6.30331887381245E-03
 cg2d: Sum(rhs),rhsMax =  -6.20162809994440E-11  7.07748342746015E-03
 cg2d: Sum(rhs),rhsMax =  -5.59047252934874E-11  7.84877373172074E-03
 cg2d: Sum(rhs),rhsMax =  -5.07863751053605E-11  8.61620146132446E-03
 cg2d: Sum(rhs),rhsMax =  -4.65615324074520E-11  9.37822717023337E-03
 cg2d: Sum(rhs),rhsMax =  -4.29878910246373E-11  1.01395810926883E-02
 cg2d: Sum(rhs),rhsMax =  -3.99259514338723E-11  1.08990060017669E-02
 cg2d: Sum(rhs),rhsMax =  -3.72359365563568E-11  1.16611408667777E-02
 cg2d: Sum(rhs),rhsMax =  -3.48778783632042E-11  1.24266412205296E-02
 cg2d: Sum(rhs),rhsMax =  -3.27208815598112E-11  1.32088454577528E-02
 cg2d: Sum(rhs),rhsMax =  -3.08050807085181E-11  1.40104452398358E-02
 cg2d: Sum(rhs),rhsMax =  -2.90867885333057E-11  1.48143002639024E-02
 cg2d: Sum(rhs),rhsMax =  -2.75035549890390E-11  1.56275738303102E-02
 cg2d: Sum(rhs),rhsMax =  -2.60587107447918E-11  1.64561923603349E-02
 cg2d: Sum(rhs),rhsMax =  -2.46724307650936E-11  1.73036626264312E-02
 cg2d: Sum(rhs),rhsMax =  -2.34486319250493E-11  1.81685509734472E-02
 cg2d: Sum(rhs),rhsMax =  -2.22922236225997E-11  1.90592940376148E-02
 cg2d: Sum(rhs),rhsMax =  -2.11723416576604E-11  1.99822062203606E-02
 cg2d: Sum(rhs),rhsMax =  -2.00601202315909E-11  2.09807174048546E-02
 cg2d: Sum(rhs),rhsMax =  -1.90678584033321E-11  2.20421178615869E-02
 cg2d: Sum(rhs),rhsMax =  -1.81384907094184E-11  2.31174598358120E-02
 cg2d: Sum(rhs),rhsMax =  -1.72638570106187E-11  2.42056459383286E-02
 cg2d: Sum(rhs),rhsMax =  -1.64901425847575E-11  2.53054466673388E-02
 cg2d: Sum(rhs),rhsMax =  -1.56890056501879E-11  2.64155032960452E-02
 cg2d: Sum(rhs),rhsMax =  -1.49551482309107E-11  2.75343314475971E-02
 cg2d: Sum(rhs),rhsMax =  -1.43277611996950E-11  2.86603253604683E-02
 cg2d: Sum(rhs),rhsMax =  -1.38634659307968E-11  2.97917628429854E-02
 cg2d: Sum(rhs),rhsMax =  -1.34148248065458E-11  3.09268109111446E-02
 cg2d: Sum(rhs),rhsMax =  -1.29486421585057E-11  3.20635320989891E-02
 cg2d: Sum(rhs),rhsMax =  -1.25507382264800E-11  3.31998914257853E-02
 cg2d: Sum(rhs),rhsMax =  -1.21285204102151E-11  3.43337639990859E-02
 cg2d: Sum(rhs),rhsMax =  -1.17887921646798E-11  3.54629432275038E-02
 cg2d: Sum(rhs),rhsMax =  -1.14589449040636E-11  3.65851496118248E-02
 cg2d: Sum(rhs),rhsMax =  -1.11305409333795E-11  3.76980400779045E-02
 cg2d: Sum(rhs),rhsMax =  -1.08459907721681E-11  3.87992178101255E-02
 cg2d: Sum(rhs),rhsMax =  -1.05992992160964E-11  3.98862425380747E-02
 cg2d: Sum(rhs),rhsMax =  -1.03511643700926E-11  4.09566412256716E-02
 cg2d: Sum(rhs),rhsMax =  -1.01233466054396E-11  4.20079191081106E-02
 cg2d: Sum(rhs),rhsMax =  -9.91140503003862E-12  4.30375710169071E-02
 cg2d: Sum(rhs),rhsMax =  -9.74509362094977E-12  4.40430929300565E-02
 cg2d: Sum(rhs),rhsMax =  -9.52193879300012E-12  4.50219936811219E-02
 cg2d: Sum(rhs),rhsMax =  -9.33597643637540E-12  4.59718067584649E-02
 cg2d: Sum(rhs),rhsMax =  -9.19586629066771E-12  4.68901021237880E-02
 cg2d: Sum(rhs),rhsMax =  -9.08406683208796E-12  4.77744979776820E-02
 cg2d: Sum(rhs),rhsMax =  -8.94606611012705E-12  4.86226723989235E-02
 cg2d: Sum(rhs),rhsMax =  -8.83781936522610E-12  4.94323747839236E-02
 cg2d: Sum(rhs),rhsMax =  -8.72935057572022E-12  5.02014370130330E-02
 cg2d: Sum(rhs),rhsMax =  -8.63031868192365E-12  5.09277842713452E-02
 cg2d: Sum(rhs),rhsMax =  -8.54505355363244E-12  5.16094454529257E-02
 cg2d: Sum(rhs),rhsMax =  -8.42936831446650E-12  5.22445630808445E-02
 cg2d: Sum(rhs),rhsMax =  -8.38007441217314E-12  5.28314026767340E-02
 cg2d: Sum(rhs),rhsMax =  -8.33710878112015E-12  5.33683615174727E-02
 cg2d: Sum(rhs),rhsMax =  -8.30069346591245E-12  5.38539767209536E-02
 cg2d: Sum(rhs),rhsMax =  -8.29414315006716E-12  5.42869326073634E-02
 cg2d: Sum(rhs),rhsMax =  -8.31146262925131E-12  5.46660672920606E-02
 cg2d: Sum(rhs),rhsMax =  -8.31923419042369E-12  5.49903784582941E-02
 cg2d: Sum(rhs),rhsMax =  -8.35498337181662E-12  5.52590282682182E-02
 cg2d: Sum(rhs),rhsMax =  -8.36164470996437E-12  5.54713473933835E-02
 cg2d: Sum(rhs),rhsMax =  -8.39406322228342E-12  5.56268381389924E-02
 cg2d: Sum(rhs),rhsMax =  -8.38384917045687E-12  5.57251766425207E-02
 cg2d: Sum(rhs),rhsMax =  -8.39583957912282E-12  5.57662141285212E-02
 cg2d: Sum(rhs),rhsMax =  -8.37896418914852E-12  5.57499772074560E-02
 cg2d: Sum(rhs),rhsMax =  -8.43336511735515E-12  5.56766672896185E-02
 cg2d: Sum(rhs),rhsMax =  -8.42326208783106E-12  5.55466590352993E-02
 cg2d: Sum(rhs),rhsMax =  -8.46989145486532E-12  5.53604978911642E-02
 cg2d: Sum(rhs),rhsMax =  -8.50952641684444E-12  5.51188967542410E-02
 cg2d: Sum(rhs),rhsMax =  -8.54594173205214E-12  5.48227317186577E-02
 cg2d: Sum(rhs),rhsMax =  -8.61011262287548E-12  5.44730370162895E-02
 cg2d: Sum(rhs),rhsMax =  -8.70070682168489E-12  5.40709991880947E-02
 cg2d: Sum(rhs),rhsMax =  -8.78075390176036E-12  5.36179505239237E-02
 cg2d: Sum(rhs),rhsMax =  -8.88888962435885E-12  5.31153618159904E-02
 cg2d: Sum(rhs),rhsMax =  -9.02600216790006E-12  5.25648344780903E-02
 cg2d: Sum(rhs),rhsMax =  -9.13780162647981E-12  5.19680920885151E-02
 cg2d: Sum(rhs),rhsMax =  -9.31243970825335E-12  5.13269714253510E-02
 cg2d: Sum(rhs),rhsMax =  -9.49129663752046E-12  5.06434130411696E-02
 cg2d: Sum(rhs),rhsMax =  -9.68047864091659E-12  4.99194514601696E-02
 cg2d: Sum(rhs),rhsMax =  -9.90796333866228E-12  4.91572050470770E-02
 cg2d: Sum(rhs),rhsMax =  -1.01710861954984E-11  4.83588656695016E-02
 cg2d: Sum(rhs),rhsMax =  -1.04426467473218E-11  4.75266881786994E-02
 cg2d: Sum(rhs),rhsMax =  -1.07571729301981E-11  4.66665565718678E-02
 cg2d: Sum(rhs),rhsMax =  -1.09181552687687E-11  4.62561965522943E-02
 cg2d: Sum(rhs),rhsMax =  -1.10550457677050E-11  4.58026460724808E-02
 cg2d: Sum(rhs),rhsMax =  -1.11926024004561E-11  4.53072695364136E-02
 cg2d: Sum(rhs),rhsMax =  -1.14005471729683E-11  4.47715328060640E-02
 cg2d: Sum(rhs),rhsMax =  -1.16969767205433E-11  4.41969952283786E-02
 cg2d: Sum(rhs),rhsMax =  -1.19466658787815E-11  4.35853012808273E-02
 cg2d: Sum(rhs),rhsMax =  -1.22836185667552E-11  4.29381718980297E-02
 cg2d: Sum(rhs),rhsMax =  -1.25814914042621E-11  4.22573955258979E-02
 cg2d: Sum(rhs),rhsMax =  -1.29276589433402E-11  4.15448189604912E-02
 cg2d: Sum(rhs),rhsMax =  -1.32821531551031E-11  4.08023380688823E-02
 cg2d: Sum(rhs),rhsMax =  -1.36576305820313E-11  4.00318884283869E-02
 cg2d: Sum(rhs),rhsMax =  -1.40096823031399E-11  3.92354358610345E-02
 cg2d: Sum(rhs),rhsMax =  -1.44376732791329E-11  3.84149670133802E-02
 cg2d: Sum(rhs),rhsMax =  -1.48581147385585E-11  3.75724800415281E-02
 cg2d: Sum(rhs),rhsMax =  -1.53353996168448E-11  3.67099754350789E-02
 cg2d: Sum(rhs),rhsMax =  -1.57904800346387E-11  3.58294470229500E-02
 cg2d: Sum(rhs),rhsMax =  -1.63234981087612E-11  3.49328732074564E-02
 cg2d: Sum(rhs),rhsMax =  -1.68486335994089E-11  3.40222084561405E-02
 cg2d: Sum(rhs),rhsMax =  -1.72589720293104E-11  3.30993751386434E-02
 cg2d: Sum(rhs),rhsMax =  -1.77069470197466E-11  3.21662557351497E-02
 cg2d: Sum(rhs),rhsMax =  -1.82689419148119E-11  3.12246854224133E-02
 cg2d: Sum(rhs),rhsMax =  -1.88672411027824E-11  3.02764450801624E-02
 cg2d: Sum(rhs),rhsMax =  -1.95167215721881E-11  2.93232547620625E-02
 cg2d: Sum(rhs),rhsMax =  -2.01534344768106E-11  2.83667676480707E-02
 cg2d: Sum(rhs),rhsMax =  -2.08897343867420E-11  2.74085644945833E-02
 cg2d: Sum(rhs),rhsMax =  -2.16643369910230E-11  2.64501485952576E-02
 cg2d: Sum(rhs),rhsMax =  -2.24876783860850E-11  2.54929412803828E-02
 cg2d: Sum(rhs),rhsMax =  -2.33598695942305E-11  2.45382779718023E-02
 cg2d: Sum(rhs),rhsMax =  -2.43199904659264E-11  2.35874047750082E-02
 cg2d: Sum(rhs),rhsMax =  -2.53278509276811E-11  2.26414756145034E-02
 cg2d: Sum(rhs),rhsMax =  -2.63228328023501E-11  2.17015499148386E-02
 cg2d: Sum(rhs),rhsMax =  -2.75537370697521E-11  2.07685908250725E-02
 cg2d: Sum(rhs),rhsMax =  -2.89377410922498E-11  1.98434639798567E-02
 cg2d: Sum(rhs),rhsMax =  -3.04549718777025E-11  1.89269367866850E-02
 cg2d: Sum(rhs),rhsMax =  -3.20273807474791E-11  1.80196782276575E-02
 cg2d: Sum(rhs),rhsMax =  -3.38036265645769E-11  1.71222591590998E-02
 cg2d: Sum(rhs),rhsMax =  -3.57383012072887E-11  1.62351530836623E-02
 cg2d: Sum(rhs),rhsMax =  -3.79247744319855E-11  1.53587373905986E-02
 cg2d: Sum(rhs),rhsMax =  -4.03690414430002E-11  1.44932950399962E-02
 cg2d: Sum(rhs),rhsMax =  -4.30494528913528E-11  1.36390166665112E-02
 cg2d: Sum(rhs),rhsMax =  -4.60331772700329E-11  1.27960030788264E-02
 cg2d: Sum(rhs),rhsMax =  -4.92800245055491E-11  1.19642681315248E-02
 cg2d: Sum(rhs),rhsMax =  -5.29901678092415E-11  1.11437419465349E-02
 cg2d: Sum(rhs),rhsMax =  -5.72579761382030E-11  1.03342744575113E-02
 cg2d: Sum(rhs),rhsMax =  -6.21548368329172E-11  9.53563925319605E-03
 cg2d: Sum(rhs),rhsMax =  -6.78077594074011E-11  8.74753769533580E-03
 cg2d: Sum(rhs),rhsMax =  -7.45888906195091E-11  7.96960331361019E-03
 cg2d: Sum(rhs),rhsMax =  -8.26019252997412E-11  7.20140636494837E-03
 cg2d: Sum(rhs),rhsMax =  -9.23389142926112E-11  6.44245860872762E-03
 cg2d: Sum(rhs),rhsMax =  -1.04653286037149E-10  5.69221826839023E-03
 cg2d: Sum(rhs),rhsMax =  -1.08822839628431E-10  5.47217446326801E-03
 cg2d: Sum(rhs),rhsMax =  -1.09312670026895E-10  5.44631521855973E-03
 cg2d: Sum(rhs),rhsMax =  -1.09826037153482E-10  5.42019420467027E-03
 cg2d: Sum(rhs),rhsMax =  -1.10457865076796E-10  5.39388553127479E-03
 cg2d: Sum(rhs),rhsMax =  -1.10928544128086E-10  5.36747036717250E-03
 cg2d: Sum(rhs),rhsMax =  -1.11533393631902E-10  5.34103561871680E-03
 cg2d: Sum(rhs),rhsMax =  -1.12096859572475E-10  5.31466848538622E-03
 cg2d: Sum(rhs),rhsMax =  -1.12702307555890E-10  5.28845613362234E-03
 cg2d: Sum(rhs),rhsMax =  -1.13317466521323E-10  5.26248531990562E-03
 cg2d: Sum(rhs),rhsMax =  -1.13959008896103E-10  5.23684198022984E-03
 cg2d: Sum(rhs),rhsMax =  -1.14599107980951E-10  5.21161074693089E-03
 cg2d: Sum(rhs),rhsMax =  -1.15187748228607E-10  5.18687453014007E-03
 cg2d: Sum(rhs),rhsMax =  -1.15784715148948E-10  5.16271428364696E-03
 cg2d: Sum(rhs),rhsMax =  -1.16363030322475E-10  5.13929168669760E-03
 cg2d: Sum(rhs),rhsMax =  -1.16964438134914E-10  5.11668079899621E-03
 cg2d: Sum(rhs),rhsMax =  -1.03420494390605E-10  5.78104698769760E-03
 cg2d: Sum(rhs),rhsMax =  -9.26829724079425E-11  6.45148536831124E-03
 cg2d: Sum(rhs),rhsMax =  -8.38371594369391E-11  7.13342998974886E-03
 cg2d: Sum(rhs),rhsMax =  -7.62723217917483E-11  7.84091295316557E-03
 cg2d: Sum(rhs),rhsMax =  -6.98956448275112E-11  8.56596194455148E-03
 cg2d: Sum(rhs),rhsMax =  -6.44242437175535E-11  9.29661326449972E-03
 cg2d: Sum(rhs),rhsMax =  -5.97637495047820E-11  1.00332586402860E-02
 cg2d: Sum(rhs),rhsMax =  -5.56386048344848E-11  1.07762303206437E-02
 cg2d: Sum(rhs),rhsMax =  -5.20856691110794E-11  1.15257979983163E-02
 cg2d: Sum(rhs),rhsMax =  -4.90287810350765E-11  1.22821660049920E-02
 cg2d: Sum(rhs),rhsMax =  -4.61937155193937E-11  1.30454707983048E-02
 cg2d: Sum(rhs),rhsMax =  -4.37312408507751E-11  1.38157787514972E-02
 cg2d: Sum(rhs),rhsMax =  -4.14666079251447E-11  1.45930842557116E-02
 cg2d: Sum(rhs),rhsMax =  -3.94044796792059E-11  1.53773081444356E-02
 cg2d: Sum(rhs),rhsMax =  -3.76290110182254E-11  1.61682964492276E-02
 cg2d: Sum(rhs),rhsMax =  -3.59015039919086E-11  1.69658195069535E-02
 cg2d: Sum(rhs),rhsMax =  -3.43076678177567E-11  1.77695713940810E-02
 cg2d: Sum(rhs),rhsMax =  -3.28634897073243E-11  1.85791697108389E-02
 cg2d: Sum(rhs),rhsMax =  -3.15036885467634E-11  1.93941557364302E-02
 cg2d: Sum(rhs),rhsMax =  -3.02833313980955E-11  2.02139949516673E-02
 cg2d: Sum(rhs),rhsMax =  -2.91278112740656E-11  2.10380779268733E-02
 cg2d: Sum(rhs),rhsMax =  -2.80921952366953E-11  2.18657215721680E-02
 cg2d: Sum(rhs),rhsMax =  -2.71352940117708E-11  2.26961707513103E-02
 cg2d: Sum(rhs),rhsMax =  -2.61954902214256E-11  2.35286002584403E-02
 cg2d: Sum(rhs),rhsMax =  -2.53912446623872E-11  2.43621171542000E-02
 cg2d: Sum(rhs),rhsMax =  -2.46163089911988E-11  2.51957634551065E-02
 cg2d: Sum(rhs),rhsMax =  -2.39381847677578E-11  2.60285191680211E-02
 cg2d: Sum(rhs),rhsMax =  -2.32599495220143E-11  2.68593056598291E-02
 cg2d: Sum(rhs),rhsMax =  -2.26219043497622E-11  2.76869893508041E-02
 cg2d: Sum(rhs),rhsMax =  -2.20092832847740E-11  2.85103857185104E-02
 cg2d: Sum(rhs),rhsMax =  -2.13996598219524E-11  2.93282635970303E-02
 cg2d: Sum(rhs),rhsMax =  -2.08237871390793E-11  3.01393497542916E-02
 cg2d: Sum(rhs),rhsMax =  -2.02935446225183E-11  3.09423337284439E-02
 cg2d: Sum(rhs),rhsMax =  -1.98203675694231E-11  3.17358729001637E-02
 cg2d: Sum(rhs),rhsMax =  -1.93560723005248E-11  3.25185977843816E-02
 cg2d: Sum(rhs),rhsMax =  -1.89497306735120E-11  3.32891175158994E-02
 cg2d: Sum(rhs),rhsMax =  -1.85693682652754E-11  3.40460254990063E-02
 cg2d: Sum(rhs),rhsMax =  -1.82094339606920E-11  3.47879051954636E-02
 cg2d: Sum(rhs),rhsMax =  -1.78861370159211E-11  3.55133360236808E-02
 cg2d: Sum(rhs),rhsMax =  -1.75690573200882E-11  3.62208993403277E-02
 cg2d: Sum(rhs),rhsMax =  -1.73289160798618E-11  3.69091844743434E-02
 cg2d: Sum(rhs),rhsMax =  -1.70685687805872E-11  3.75767947831761E-02
 cg2d: Sum(rhs),rhsMax =  -1.68300928748977E-11  3.82223537006484E-02
 cg2d: Sum(rhs),rhsMax =  -1.66027191994544E-11  3.88445107382082E-02
 cg2d: Sum(rhs),rhsMax =  -1.64099844823795E-11  3.94419474148371E-02
 cg2d: Sum(rhs),rhsMax =  -1.61903823681087E-11  4.00133830834496E-02
 cg2d: Sum(rhs),rhsMax =  -1.60476076871419E-11  4.05575806218763E-02
 cg2d: Sum(rhs),rhsMax =  -1.59011692701938E-11  4.10733519571124E-02
 cg2d: Sum(rhs),rhsMax =  -1.57696078417757E-11  4.15595633924367E-02
 cg2d: Sum(rhs),rhsMax =  -1.56319401867222E-11  4.20151407080870E-02
 cg2d: Sum(rhs),rhsMax =  -1.53843604522308E-11  4.27669250179314E-02
 cg2d: Sum(rhs),rhsMax =  -1.51194612385552E-11  4.36544254876809E-02
 cg2d: Sum(rhs),rhsMax =  -1.48757672846500E-11  4.45218696325696E-02
 cg2d: Sum(rhs),rhsMax =  -1.46386236465901E-11  4.53673922012598E-02
 cg2d: Sum(rhs),rhsMax =  -1.44221301567882E-11  4.61891501275295E-02
 cg2d: Sum(rhs),rhsMax =  -1.42518219448107E-11  4.69853295802883E-02
 cg2d: Sum(rhs),rhsMax =  -1.41090472638439E-11  4.77541529664972E-02
 cg2d: Sum(rhs),rhsMax =  -1.39489531036929E-11  4.84938858501343E-02
 cg2d: Sum(rhs),rhsMax =  -1.38045130881892E-11  4.92028437502936E-02
 cg2d: Sum(rhs),rhsMax =  -1.37083677742567E-11  4.98793987814761E-02
 cg2d: Sum(rhs),rhsMax =  -1.35462752126614E-11  5.05219860992891E-02
 cg2d: Sum(rhs),rhsMax =  -1.34670052887031E-11  5.11291101153718E-02
 cg2d: Sum(rhs),rhsMax =  -1.33366651056122E-11  5.16993504463135E-02
 cg2d: Sum(rhs),rhsMax =  -1.32742705716282E-11  5.22313675626617E-02
 cg2d: Sum(rhs),rhsMax =  -1.31678001835667E-11  5.27239081056987E-02
 cg2d: Sum(rhs),rhsMax =  -1.30429000932963E-11  5.31758098414845E-02
 cg2d: Sum(rhs),rhsMax =  -1.29497523815303E-11  5.35860062236895E-02
 cg2d: Sum(rhs),rhsMax =  -1.28894672712931E-11  5.39535305427912E-02
 cg2d: Sum(rhs),rhsMax =  -1.28369537222284E-11  5.42775196290907E-02
 cg2d: Sum(rhs),rhsMax =  -1.27631238910908E-11  5.45572170904566E-02
(PID.TID 0000.0001)      cg2d_init_res =   2.17898918273726E-02
(PID.TID 0000.0001)      cg2d_iters(min,last) =      -1      36
(PID.TID 0000.0001)      cg2d_last_res =   9.92012252311452E-14
(PID.TID 0000.0001) // =======================================================
(PID.TID 0000.0001) // Begin MONITOR dynamic field statistics
(PID.TID 0000.0001) // =======================================================
(PID.TID 0000.0001) %MON time_tsnumber                =                   960
(PID.TID 0000.0001) %MON time_secondsf                =   1.4400000000000E+04
(PID.TID 0000.0001) %MON dynstat_eta_max              =   9.8298344746655E-03
(PID.TID 0000.0001) %MON dynstat_eta_min              =  -9.4152021139198E-03
(PID.TID 0000.0001) %MON dynstat_eta_mean             =   1.5940882190294E-15
(PID.TID 0000.0001) %MON dynstat_eta_sd               =   6.2528273154466E-03
(PID.TID 0000.0001) %MON dynstat_eta_del2             =   2.6374850240192E-06
(PID.TID 0000.0001) %MON dynstat_uvel_max             =   1.3411158411734E+00
(PID.TID 0000.0001) %MON dynstat_uvel_min             =   3.5064225986606E-02
(PID.TID 0000.0001) %MON dynstat_uvel_mean            =   5.6154923835813E-01
(PID.TID 0000.0001) %MON dynstat_uvel_sd              =   1.6069928109543E-02
(PID.TID 0000.0001) %MON dynstat_uvel_del2            =   2.7166589768353E-04
(PID.TID 0000.0001) %MON dynstat_vvel_max             =   0.0000000000000E+00
(PID.TID 0000.0001) %MON dynstat_vvel_min             =   0.0000000000000E+00
(PID.TID 0000.0001) %MON dynstat_vvel_mean            =   0.0000000000000E+00
(PID.TID 0000.0001) %MON dynstat_vvel_sd              =   0.0000000000000E+00
(PID.TID 0000.0001) %MON dynstat_vvel_del2            =   0.0000000000000E+00
(PID.TID 0000.0001) %MON dynstat_wvel_max             =   9.8489547265017E-03
(PID.TID 0000.0001) %MON dynstat_wvel_min             =  -8.2476761845081E-03
(PID.TID 0000.0001) %MON dynstat_wvel_mean            =   6.7651112320245E-21
(PID.TID 0000.0001) %MON dynstat_wvel_sd              =   7.5816041194220E-04
(PID.TID 0000.0001) %MON dynstat_wvel_del2            =   1.7512791775354E-05
(PID.TID 0000.0001) %MON dynstat_theta_max            =   1.5000000000003E+01
(PID.TID 0000.0001) %MON dynstat_theta_min            =   9.9999999999983E+00
(PID.TID 0000.0001) %MON dynstat_theta_mean           =   1.4014112725516E+01
(PID.TID 0000.0001) %MON dynstat_theta_sd             =   1.9265848355023E+00
(PID.TID 0000.0001) %MON dynstat_theta_del2           =   1.2751126805097E-04
(PID.TID 0000.0001) %MON dynstat_salt_max             =   3.5000000000000E+01
(PID.TID 0000.0001) %MON dynstat_salt_min             =   3.5000000000000E+01
(PID.TID 0000.0001) %MON dynstat_salt_mean            =   3.5000000000000E+01
(PID.TID 0000.0001) %MON dynstat_salt_sd              =   4.1922021409846E-13
(PID.TID 0000.0001) %MON dynstat_salt_del2            =   0.0000000000000E+00
(PID.TID 0000.0001) %MON dynstat_sst_max              =   1.5000000000000E+01
(PID.TID 0000.0001) %MON dynstat_sst_min              =   1.5000000000000E+01
(PID.TID 0000.0001) %MON dynstat_sst_mean             =   1.5000000000000E+01
(PID.TID 0000.0001) %MON dynstat_sst_sd               =   1.0801085047355E-13
(PID.TID 0000.0001) %MON dynstat_sst_del2             =   1.2591459959119E-15
(PID.TID 0000.0001) %MON dynstat_sss_max              =   3.5000000000000E+01
(PID.TID 0000.0001) %MON dynstat_sss_min              =   3.5000000000000E+01
(PID.TID 0000.0001) %MON dynstat_sss_mean             =   3.5000000000000E+01
(PID.TID 0000.0001) %MON dynstat_sss_sd               =   2.8421709430404E-14
(PID.TID 0000.0001) %MON dynstat_sss_del2             =   0.0000000000000E+00
(PID.TID 0000.0001) %MON forcing_qnet_max             =   0.0000000000000E+00
(PID.TID 0000.0001) %MON forcing_qnet_min             =   0.0000000000000E+00
(PID.TID 0000.0001) %MON forcing_qnet_mean            =   0.0000000000000E+00
(PID.TID 0000.0001) %MON forcing_qnet_sd              =   0.0000000000000E+00
(PID.TID 0000.0001) %MON forcing_qnet_del2            =   0.0000000000000E+00
(PID.TID 0000.0001) %MON forcing_qsw_max              =   0.0000000000000E+00
(PID.TID 0000.0001) %MON forcing_qsw_min              =   0.0000000000000E+00
(PID.TID 0000.0001) %MON forcing_qsw_mean             =   0.0000000000000E+00
(PID.TID 0000.0001) %MON forcing_qsw_sd               =   0.0000000000000E+00
(PID.TID 0000.0001) %MON forcing_qsw_del2             =   0.0000000000000E+00
(PID.TID 0000.0001) %MON forcing_empmr_max            =   0.0000000000000E+00
(PID.TID 0000.0001) %MON forcing_empmr_min            =   0.0000000000000E+00
(PID.TID 0000.0001) %MON forcing_empmr_mean           =   0.0000000000000E+00
(PID.TID 0000.0001) %MON forcing_empmr_sd             =   0.0000000000000E+00
(PID.TID 0000.0001) %MON forcing_empmr_del2           =   0.0000000000000E+00
(PID.TID 0000.0001) %MON forcing_fu_max               =   0.0000000000000E+00
(PID.TID 0000.0001) %MON forcing_fu_min               =   0.0000000000000E+00
(PID.TID 0000.0001) %MON forcing_fu_mean              =   0.0000000000000E+00
(PID.TID 0000.0001) %MON forcing_fu_sd                =   0.0000000000000E+00
(PID.TID 0000.0001) %MON forcing_fu_del2              =   0.0000000000000E+00
(PID.TID 0000.0001) %MON forcing_fv_max               =   0.0000000000000E+00
(PID.TID 0000.0001) %MON forcing_fv_min               =   0.0000000000000E+00
(PID.TID 0000.0001) %MON forcing_fv_mean              =   0.0000000000000E+00
(PID.TID 0000.0001) %MON forcing_fv_sd                =   0.0000000000000E+00
(PID.TID 0000.0001) %MON forcing_fv_del2              =   0.0000000000000E+00
(PID.TID 0000.0001) %MON advcfl_uvel_max              =   9.6850555153348E-02
(PID.TID 0000.0001) %MON advcfl_vvel_max              =   0.0000000000000E+00
(PID.TID 0000.0001) %MON advcfl_wvel_max              =   3.5612300152332E-02
(PID.TID 0000.0001) %MON advcfl_W_hf_max              =   9.7860096236948E-02
(PID.TID 0000.0001) %MON pe_b_mean                    =   9.6088451479104E-07
(PID.TID 0000.0001) %MON ke_max                       =   4.5433491971235E-01
(PID.TID 0000.0001) %MON ke_mean                      =   1.5781325666027E-01
(PID.TID 0000.0001) %MON ke_vol                       =   9.7476098603737E+10
(PID.TID 0000.0001) %MON vort_r_min                   =   0.0000000000000E+00
(PID.TID 0000.0001) %MON vort_r_max                   =   0.0000000000000E+00
(PID.TID 0000.0001) %MON vort_a_mean                  =   0.0000000000000E+00
(PID.TID 0000.0001) %MON vort_a_sd                    =   0.0000000000000E+00
(PID.TID 0000.0001) %MON vort_p_mean                  =   0.0000000000000E+00
(PID.TID 0000.0001) %MON vort_p_sd                    =   0.0000000000000E+00
(PID.TID 0000.0001) %MON surfExpan_theta_mean         =   4.9464277422570E-20
(PID.TID 0000.0001) %MON surfExpan_salt_mean          =   4.9697050492794E-19
(PID.TID 0000.0001) // =======================================================
(PID.TID 0000.0001) // End MONITOR dynamic field statistics
(PID.TID 0000.0001) // =======================================================
(PID.TID 0000.0001) // =======================================================
(PID.TID 0000.0001) // Begin OBCS MONITOR field statistics
(PID.TID 0000.0001) // =======================================================
(PID.TID 0000.0001) %MON obc_E_uVel_max               =   5.6028564143658E-01
(PID.TID 0000.0001) %MON obc_E_uVel_min               =   5.6028564143658E-01
(PID.TID 0000.0001) %MON obc_E_uVel_mean              =   5.6028564143658E-01
(PID.TID 0000.0001) %MON obc_E_uVel_sd                =   1.0536712127724E-08
(PID.TID 0000.0001) %MON obc_E_uVel_Int               =   5.6028564143658E+05
(PID.TID 0000.0001) %MON obc_W_uVel_max               =   5.6028564143658E-01
(PID.TID 0000.0001) %MON obc_W_uVel_min               =   5.6028564143658E-01
(PID.TID 0000.0001) %MON obc_W_uVel_mean              =   5.6028564143658E-01
(PID.TID 0000.0001) %MON obc_W_uVel_sd                =   1.0536712127724E-08
(PID.TID 0000.0001) %MON obc_W_uVel_Int               =   5.6028564143658E+05
(PID.TID 0000.0001) // =======================================================
(PID.TID 0000.0001) // End OBCS MONITOR field statistics
(PID.TID 0000.0001) // =======================================================
 cg2d: Sum(rhs),rhsMax =  -1.27312604902841E-11  5.47919760712606E-02
 cg2d: Sum(rhs),rhsMax =  -1.26711974246518E-11  5.49812615157180E-02
 cg2d: Sum(rhs),rhsMax =  -1.26653132426213E-11  5.51246519061568E-02
 cg2d: Sum(rhs),rhsMax =  -1.26277877043890E-11  5.52218405174775E-02
 cg2d: Sum(rhs),rhsMax =  -1.26162413849329E-11  5.52726361375979E-02
 cg2d: Sum(rhs),rhsMax =  -1.26488819418569E-11  5.52769632735051E-02
 cg2d: Sum(rhs),rhsMax =  -1.26987309556625E-11  5.52348617926733E-02
 cg2d: Sum(rhs),rhsMax =  -1.27247101744388E-11  5.51464860368287E-02
 cg2d: Sum(rhs),rhsMax =  -1.27780008796208E-11  5.50121034240232E-02
 cg2d: Sum(rhs),rhsMax =  -1.28294042056609E-11  5.48320925519780E-02
 cg2d: Sum(rhs),rhsMax =  -1.28730359705287E-11  5.46069408105853E-02
 cg2d: Sum(rhs),rhsMax =  -1.29841692952937E-11  5.43372415148444E-02
 cg2d: Sum(rhs),rhsMax =  -1.31120669877305E-11  5.40236905742870E-02
 cg2d: Sum(rhs),rhsMax =  -1.32156507959280E-11  5.36670827194806E-02
 cg2d: Sum(rhs),rhsMax =  -1.33396627077786E-11  5.32683073133196E-02
 cg2d: Sum(rhs),rhsMax =  -1.34575683929938E-11  5.28283437608393E-02
 cg2d: Sum(rhs),rhsMax =  -1.35839117731962E-11  5.23482565582523E-02
 cg2d: Sum(rhs),rhsMax =  -1.37380107290141E-11  5.18291900027153E-02
 cg2d: Sum(rhs),rhsMax =  -1.38905553725976E-11  5.12723626053278E-02
 cg2d: Sum(rhs),rhsMax =  -1.41016087695789E-11  5.06790612504829E-02
 cg2d: Sum(rhs),rhsMax =  -1.43273171104852E-11  5.00506351060882E-02
 cg2d: Sum(rhs),rhsMax =  -1.45453649125216E-11  4.93884893126422E-02
 cg2d: Sum(rhs),rhsMax =  -1.47812873052544E-11  4.86940785461421E-02
 cg2d: Sum(rhs),rhsMax =  -1.49901202561864E-11  4.79689004368116E-02
 cg2d: Sum(rhs),rhsMax =  -1.52149404186730E-11  4.72144888900677E-02
 cg2d: Sum(rhs),rhsMax =  -1.55196966389326E-11  4.64324073510178E-02
 cg2d: Sum(rhs),rhsMax =  -1.58711932485289E-11  4.56242420405735E-02
 cg2d: Sum(rhs),rhsMax =  -1.61703983536654E-11  4.47915952138362E-02
 cg2d: Sum(rhs),rhsMax =  -1.65266689222676E-11  4.39360784741556E-02
 cg2d: Sum(rhs),rhsMax =  -1.68689506807596E-11  4.30593061772199E-02
 cg2d: Sum(rhs),rhsMax =  -1.72293290745529E-11  4.21628889715688E-02
 cg2d: Sum(rhs),rhsMax =  -1.76524350692375E-11  4.12484274396831E-02
 cg2d: Sum(rhs),rhsMax =  -1.80493398005410E-11  4.03175059319475E-02
 cg2d: Sum(rhs),rhsMax =  -1.86697324267016E-11  3.93716866194323E-02
 cg2d: Sum(rhs),rhsMax =  -1.89881443901641E-11  3.84125037881342E-02
 cg2d: Sum(rhs),rhsMax =  -1.94445570755875E-11  3.74414584010321E-02
 cg2d: Sum(rhs),rhsMax =  -1.99229521768984E-11  3.64600129297031E-02
 cg2d: Sum(rhs),rhsMax =  -2.04321004559915E-11  3.54695864911993E-02
 cg2d: Sum(rhs),rhsMax =  -2.09395834005477E-11  3.44715503105572E-02
 cg2d: Sum(rhs),rhsMax =  -2.15096829236927E-11  3.34672235236984E-02
 cg2d: Sum(rhs),rhsMax =  -2.20863327626830E-11  3.24578693332523E-02
 cg2d: Sum(rhs),rhsMax =  -2.27302621169656E-11  3.14446915279821E-02
 cg2d: Sum(rhs),rhsMax =  -2.34109398533633E-11  3.04288313819879E-02
 cg2d: Sum(rhs),rhsMax =  -2.42039721598530E-11  2.94113649357594E-02
 cg2d: Sum(rhs),rhsMax =  -2.50488518815928E-11  2.83933006656314E-02
 cg2d: Sum(rhs),rhsMax =  -2.59201549113186E-11  2.73755775460095E-02
 cg2d: Sum(rhs),rhsMax =  -2.68824962290637E-11  2.63590635062616E-02
 cg2d: Sum(rhs),rhsMax =  -2.79097855937493E-11  2.53445542816641E-02
 cg2d: Sum(rhs),rhsMax =  -2.90605317587733E-11  2.43327726566333E-02
 cg2d: Sum(rhs),rhsMax =  -3.02684544095655E-11  2.33243681020766E-02
 cg2d: Sum(rhs),rhsMax =  -3.15746317980370E-11  2.23199167743900E-02
 cg2d: Sum(rhs),rhsMax =  -3.29781202346169E-11  2.13199218803099E-02
 cg2d: Sum(rhs),rhsMax =  -3.44939632412888E-11  2.03248144250146E-02
 cg2d: Sum(rhs),rhsMax =  -3.61895513556476E-11  1.93349543215109E-02
 cg2d: Sum(rhs),rhsMax =  -3.80265818833436E-11  1.83506318297556E-02
 cg2d: Sum(rhs),rhsMax =  -4.00819932799834E-11  1.73720693155726E-02
 cg2d: Sum(rhs),rhsMax =  -4.23782675618156E-11  1.63994233186290E-02
 cg2d: Sum(rhs),rhsMax =  -4.49297821170092E-11  1.54327869163196E-02
 cg2d: Sum(rhs),rhsMax =  -4.78649897495131E-11  1.44721923676410E-02
 cg2d: Sum(rhs),rhsMax =  -5.11719555618129E-11  1.35176140191159E-02
 cg2d: Sum(rhs),rhsMax =  -5.49392198401222E-11  1.25689714537629E-02
 cg2d: Sum(rhs),rhsMax =  -5.93209370514103E-11  1.16261328642378E-02
 cg2d: Sum(rhs),rhsMax =  -6.44659881032794E-11  1.06889186296885E-02
 cg2d: Sum(rhs),rhsMax =  -7.05600577965981E-11  9.75710507501865E-03
 cg2d: Sum(rhs),rhsMax =  -7.78828113112695E-11  8.83042839464901E-03
 cg2d: Sum(rhs),rhsMax =  -8.68747296323136E-11  7.90858872010679E-03
 cg2d: Sum(rhs),rhsMax =  -9.82085524015019E-11  6.99125431044446E-03
 cg2d: Sum(rhs),rhsMax =  -1.12866938017930E-10  6.07806584440062E-03
 cg2d: Sum(rhs),rhsMax =  -1.16157583551768E-10  5.90113132158701E-03
 cg2d: Sum(rhs),rhsMax =  -1.17199194793471E-10  5.84613288057115E-03
 cg2d: Sum(rhs),rhsMax =  -1.18225318423981E-10  5.79109840884627E-03
 cg2d: Sum(rhs),rhsMax =  -1.19421472710712E-10  5.73616383250094E-03
 cg2d: Sum(rhs),rhsMax =  -1.20514195844912E-10  5.68146425941023E-03
 cg2d: Sum(rhs),rhsMax =  -1.21594269375525E-10  5.62713347333364E-03
 cg2d: Sum(rhs),rhsMax =  -1.22668326885123E-10  5.57330251656547E-03
 cg2d: Sum(rhs),rhsMax =  -1.23767718296364E-10  5.52010085356059E-03
 cg2d: Sum(rhs),rhsMax =  -1.24863119843610E-10  5.46765541877220E-03
 cg2d: Sum(rhs),rhsMax =  -1.26025689883846E-10  5.41608995903916E-03
 cg2d: Sum(rhs),rhsMax =  -1.27189314635956E-10  5.36552456741422E-03
 cg2d: Sum(rhs),rhsMax =  -1.23843935107004E-10  5.50859720217376E-03
 cg2d: Sum(rhs),rhsMax =  -1.08065834059090E-10  6.30911338924746E-03
 cg2d: Sum(rhs),rhsMax =  -9.57754986430359E-11  7.11740795375362E-03
 cg2d: Sum(rhs),rhsMax =  -8.58668691705589E-11  7.92539016558204E-03
 cg2d: Sum(rhs),rhsMax =  -7.77864439527320E-11  8.74170031054059E-03
 cg2d: Sum(rhs),rhsMax =  -7.10690395422375E-11  9.56416324256252E-03
 cg2d: Sum(rhs),rhsMax =  -6.53678222661824E-11  1.03884097796046E-02
 cg2d: Sum(rhs),rhsMax =  -6.04203354015453E-11  1.12276331129117E-02
 cg2d: Sum(rhs),rhsMax =  -5.62004887072476E-11  1.20674471588374E-02
 cg2d: Sum(rhs),rhsMax =  -5.23552312614584E-11  1.29247109106255E-02
 cg2d: Sum(rhs),rhsMax =  -4.90639751049571E-11  1.37879777685273E-02
 cg2d: Sum(rhs),rhsMax =  -4.61195526213487E-11  1.46702412219293E-02
 cg2d: Sum(rhs),rhsMax =  -4.33039160085968E-11  1.55842947270763E-02
 cg2d: Sum(rhs),rhsMax =  -4.08433287191201E-11  1.65033172199298E-02
 cg2d: Sum(rhs),rhsMax =  -3.86261023166412E-11  1.74235773861053E-02
 cg2d: Sum(rhs),rhsMax =  -3.66233710025199E-11  1.83447183728290E-02
 cg2d: Sum(rhs),rhsMax =  -3.47651907262048E-11  1.92663252461424E-02
 cg2d: Sum(rhs),rhsMax =  -3.31092930849763E-11  2.01879252001196E-02
 cg2d: Sum(rhs),rhsMax =  -3.16071613326585E-11  2.11089880645327E-02
 cg2d: Sum(rhs),rhsMax =  -3.01941804892181E-11  2.20289271100019E-02
 cg2d: Sum(rhs),rhsMax =  -2.89794854779757E-11  2.29471001480831E-02
 cg2d: Sum(rhs),rhsMax =  -2.78056466740395E-11  2.38628109232632E-02
 cg2d: Sum(rhs),rhsMax =  -2.67615929416820E-11  2.47753107918537E-02
 cg2d: Sum(rhs),rhsMax =  -2.57890375721104E-11  2.56838006807293E-02
 cg2d: Sum(rhs),rhsMax =  -2.48633336141779E-11  2.65874333178774E-02
 cg2d: Sum(rhs),rhsMax =  -2.39599451390404E-11  2.74853157260725E-02
 cg2d: Sum(rhs),rhsMax =  -2.31361596547686E-11  2.83765119694724E-02
 cg2d: Sum(rhs),rhsMax =  -2.23481233518896E-11  2.92600461416143E-02
 cg2d: Sum(rhs),rhsMax =  -2.16366924377098E-11  3.01349055819543E-02
 cg2d: Sum(rhs),rhsMax =  -2.09497974523742E-11  3.10000443068902E-02
 cg2d: Sum(rhs),rhsMax =  -2.02751149203095E-11  3.18543866400506E-02
 cg2d: Sum(rhs),rhsMax =  -1.96972438359921E-11  3.26968310256282E-02
 cg2d: Sum(rhs),rhsMax =  -1.92711402391410E-11  3.35262540075389E-02
 cg2d: Sum(rhs),rhsMax =  -1.88991045035891E-11  3.43415143559417E-02
 cg2d: Sum(rhs),rhsMax =  -1.84983139916994E-11  3.51414573231936E-02
 cg2d: Sum(rhs),rhsMax =  -1.81351600403445E-11  3.59249190088636E-02
 cg2d: Sum(rhs),rhsMax =  -1.78297376862702E-11  3.66907308130878E-02
 cg2d: Sum(rhs),rhsMax =  -1.74810166342354E-11  3.74377239574582E-02
 cg2d: Sum(rhs),rhsMax =  -1.71661573844517E-11  3.81647340521372E-02
 cg2d: Sum(rhs),rhsMax =  -1.68363101238356E-11  3.88706056877757E-02
 cg2d: Sum(rhs),rhsMax =  -1.65339963942301E-11  3.95541970295949E-02
 cg2d: Sum(rhs),rhsMax =  -1.62636570877339E-11  4.02143843915300E-02
 cg2d: Sum(rhs),rhsMax =  -1.59880997330220E-11  4.08500667686708E-02
 cg2d: Sum(rhs),rhsMax =  -1.57626134367206E-11  4.14601703062228E-02
 cg2d: Sum(rhs),rhsMax =  -1.55294666015493E-11  4.20436526832110E-02
 cg2d: Sum(rhs),rhsMax =  -1.53685952852811E-11  4.25995073894255E-02
 cg2d: Sum(rhs),rhsMax =  -1.51728629660397E-11  4.31267678748656E-02
 cg2d: Sum(rhs),rhsMax =  -1.50103263152346E-11  4.36245115552402E-02
 cg2d: Sum(rhs),rhsMax =  -1.48481227313368E-11  4.40918636411676E-02
 cg2d: Sum(rhs),rhsMax =  -1.47128975669375E-11  4.45280007833020E-02
 cg2d: Sum(rhs),rhsMax =  -1.45569112319777E-11  4.49321545148003E-02
 cg2d: Sum(rhs),rhsMax =  -1.44299017179605E-11  4.53036144746309E-02
 cg2d: Sum(rhs),rhsMax =  -1.43299816457443E-11  4.56417313956792E-02
 cg2d: Sum(rhs),rhsMax =  -1.42332812202994E-11  4.59459198416316E-02
 cg2d: Sum(rhs),rhsMax =  -1.41446854229343E-11  4.62156606797836E-02
 cg2d: Sum(rhs),rhsMax =  -1.41014977472764E-11  4.64505032785671E-02
 cg2d: Sum(rhs),rhsMax =  -1.40165656858926E-11  4.66500674062126E-02
 cg2d: Sum(rhs),rhsMax =  -1.40086831024178E-11  4.68140448589196E-02
 cg2d: Sum(rhs),rhsMax =  -1.39926958908632E-11  4.69422007887205E-02
 cg2d: Sum(rhs),rhsMax =  -1.40014666527577E-11  4.70343747185886E-02
 cg2d: Sum(rhs),rhsMax =  -1.39910305563262E-11  4.70904812435438E-02
 cg2d: Sum(rhs),rhsMax =  -1.39985800728937E-11  4.71105104436204E-02
 cg2d: Sum(rhs),rhsMax =  -1.40016886973626E-11  4.70945279384648E-02
 cg2d: Sum(rhs),rhsMax =  -1.40351064104038E-11  4.70426746380334E-02
 cg2d: Sum(rhs),rhsMax =  -1.40437661499959E-11  4.69551661965426E-02
 cg2d: Sum(rhs),rhsMax =  -1.40895073386105E-11  4.68322921703398E-02
 cg2d: Sum(rhs),rhsMax =  -1.41006095688567E-11  4.66744148796193E-02
 cg2d: Sum(rhs),rhsMax =  -1.41919809237834E-11  4.64819679789553E-02
 cg2d: Sum(rhs),rhsMax =  -1.42359457555585E-11  4.62554547447980E-02
 cg2d: Sum(rhs),rhsMax =  -1.43676182062791E-11  4.59954460927064E-02
 cg2d: Sum(rhs),rhsMax =  -1.45039535937030E-11  4.57025783254367E-02
 cg2d: Sum(rhs),rhsMax =  -1.45794487593776E-11  4.53775506376287E-02
 cg2d: Sum(rhs),rhsMax =  -1.46763712294273E-11  4.50211223901985E-02
 cg2d: Sum(rhs),rhsMax =  -1.48571155378363E-11  4.46341101679489E-02
 cg2d: Sum(rhs),rhsMax =  -1.50267576159990E-11  4.42173846351070E-02
 cg2d: Sum(rhs),rhsMax =  -1.51716417207126E-11  4.37718671996715E-02
 cg2d: Sum(rhs),rhsMax =  -1.53399515312458E-11  4.32985265055557E-02
 cg2d: Sum(rhs),rhsMax =  -1.55431223447522E-11  4.27983748025053E-02
 cg2d: Sum(rhs),rhsMax =  -1.57680535295412E-11  4.22724641740020E-02
 cg2d: Sum(rhs),rhsMax =  -1.59978696956387E-11  4.17218826455268E-02
 cg2d: Sum(rhs),rhsMax =  -1.62545532589320E-11  4.11477501967059E-02
 cg2d: Sum(rhs),rhsMax =  -1.65479852043404E-11  4.05512146904656E-02
 cg2d: Sum(rhs),rhsMax =  -1.68313141202248E-11  3.99334477648774E-02
 cg2d: Sum(rhs),rhsMax =  -1.71480607491503E-11  3.92956406947588E-02
 cg2d: Sum(rhs),rhsMax =  -1.74696923593842E-11  3.86390002312433E-02
 cg2d: Sum(rhs),rhsMax =  -1.77267089895849E-11  3.81393156466056E-02
 cg2d: Sum(rhs),rhsMax =  -1.79910530917482E-11  3.77175051606490E-02
 cg2d: Sum(rhs),rhsMax =  -1.82592829744976E-11  3.72701419754629E-02
 cg2d: Sum(rhs),rhsMax =  -1.84792181556759E-11  3.67980380218053E-02
 cg2d: Sum(rhs),rhsMax =  -1.87757587255533E-11  3.63020370710894E-02
 cg2d: Sum(rhs),rhsMax =  -1.90963911350650E-11  3.57830112376360E-02
 cg2d: Sum(rhs),rhsMax =  -1.93713933782647E-11  3.52418574200942E-02
 cg2d: Sum(rhs),rhsMax =  -1.96991312151340E-11  3.46794936930610E-02
 cg2d: Sum(rhs),rhsMax =  -2.00433003527678E-11  3.40968556740235E-02
 cg2d: Sum(rhs),rhsMax =  -2.04186667573936E-11  3.34948928978837E-02
 cg2d: Sum(rhs),rhsMax =  -2.07803774188164E-11  3.28745651743304E-02
 cg2d: Sum(rhs),rhsMax =  -2.12335704574684E-11  3.22368389768567E-02
 cg2d: Sum(rhs),rhsMax =  -2.16533457830792E-11  3.15826838831848E-02
 cg2d: Sum(rhs),rhsMax =  -2.22171170349839E-11  3.09130690803345E-02
 cg2d: Sum(rhs),rhsMax =  -2.27373675443232E-11  3.02289599477837E-02
 cg2d: Sum(rhs),rhsMax =  -2.32863728300003E-11  2.95313147329163E-02
 cg2d: Sum(rhs),rhsMax =  -2.39152031511480E-11  2.88210813332752E-02
 cg2d: Sum(rhs),rhsMax =  -2.46446196783268E-11  2.80991941945472E-02
 cg2d: Sum(rhs),rhsMax =  -2.53844723019370E-11  2.73665713368847E-02
 cg2d: Sum(rhs),rhsMax =  -2.61394239586821E-11  2.66241115595775E-02
 cg2d: Sum(rhs),rhsMax =  -2.69819722120701E-11  2.58726917875432E-02
 cg2d: Sum(rhs),rhsMax =  -2.78672640519062E-11  2.51131645780346E-02
 cg2d: Sum(rhs),rhsMax =  -2.88435941797616E-11  2.43463557983491E-02
 cg2d: Sum(rhs),rhsMax =  -2.98512325969114E-11  2.35730624917633E-02
 cg2d: Sum(rhs),rhsMax =  -3.09865466618930E-11  2.27940509533708E-02
 cg2d: Sum(rhs),rhsMax =  -3.21902504651916E-11  2.20100549902770E-02
 cg2d: Sum(rhs),rhsMax =  -3.35108607529833E-11  2.12217743828930E-02
 cg2d: Sum(rhs),rhsMax =  -3.49249518194483E-11  2.04298735571307E-02
 cg2d: Sum(rhs),rhsMax =  -3.64560603927089E-11  1.96349804690018E-02
 cg2d: Sum(rhs),rhsMax =  -3.81286113793067E-11  1.88376857019872E-02
 cg2d: Sum(rhs),rhsMax =  -3.99307253928782E-11  1.80385417771481E-02
 cg2d: Sum(rhs),rhsMax =  -4.18937107227180E-11  1.72380626754517E-02
 cg2d: Sum(rhs),rhsMax =  -4.41007230733703E-11  1.64367235708960E-02
 cg2d: Sum(rhs),rhsMax =  -4.65268934490837E-11  1.56349607718960E-02
 cg2d: Sum(rhs),rhsMax =  -4.92387242090331E-11  1.48331718673199E-02
 cg2d: Sum(rhs),rhsMax =  -5.21137577536024E-11  1.40317160725788E-02
 cg2d: Sum(rhs),rhsMax =  -5.53221912724666E-11  1.32309147704035E-02
 cg2d: Sum(rhs),rhsMax =  -5.89847060084026E-11  1.24310522402349E-02
 cg2d: Sum(rhs),rhsMax =  -6.31359409197785E-11  1.16323765695113E-02
 cg2d: Sum(rhs),rhsMax =  -6.78443967672138E-11  1.08351007395483E-02
 cg2d: Sum(rhs),rhsMax =  -7.33779703665505E-11  1.00394038780828E-02
 cg2d: Sum(rhs),rhsMax =  -7.97388821638378E-11  9.24543266998301E-03
 cg2d: Sum(rhs),rhsMax =  -8.73132677270405E-11  8.45330291700432E-03
 cg2d: Sum(rhs),rhsMax =  -9.64079927001649E-11  7.66310123689256E-03
 cg2d: Sum(rhs),rhsMax =  -1.07484687816850E-10  6.87488689152834E-03
 cg2d: Sum(rhs),rhsMax =  -1.21441190437110E-10  6.08869373325612E-03
 cg2d: Sum(rhs),rhsMax =  -1.27933663662816E-10  5.78090040661239E-03
 cg2d: Sum(rhs),rhsMax =  -1.28469790361407E-10  5.76018574885647E-03
 cg2d: Sum(rhs),rhsMax =  -1.29075305999038E-10  5.73940093653901E-03
 cg2d: Sum(rhs),rhsMax =  -1.29564026174478E-10  5.71860793190019E-03
 cg2d: Sum(rhs),rhsMax =  -1.30135069387194E-10  5.69786781798955E-03
 cg2d: Sum(rhs),rhsMax =  -1.30637750617169E-10  5.67724183769192E-03
 cg2d: Sum(rhs),rhsMax =  -1.31129981872924E-10  5.65678993185326E-03
 cg2d: Sum(rhs),rhsMax =  -1.31622469867754E-10  5.63657054725826E-03
 cg2d: Sum(rhs),rhsMax =  -1.32180627554490E-10  5.61664370825412E-03
 cg2d: Sum(rhs),rhsMax =  -1.32741539982106E-10  5.59706783697493E-03
 cg2d: Sum(rhs),rhsMax =  -1.33257460621650E-10  5.57789573263201E-03
 cg2d: Sum(rhs),rhsMax =  -1.33690170045497E-10  5.55917785758148E-03
 cg2d: Sum(rhs),rhsMax =  -1.34205757618133E-10  5.54096254416250E-03
 cg2d: Sum(rhs),rhsMax =  -1.34687261343913E-10  5.52329580106443E-03
 cg2d: Sum(rhs),rhsMax =  -1.33859257012148E-10  5.56004911150835E-03
 cg2d: Sum(rhs),rhsMax =  -1.18468679310979E-10  6.28146069451792E-03
 cg2d: Sum(rhs),rhsMax =  -1.06087805207267E-10  7.01548760565977E-03
 cg2d: Sum(rhs),rhsMax =  -9.57864898509797E-11  7.77159690140176E-03
 cg2d: Sum(rhs),rhsMax =  -8.72777405902525E-11  8.53015241700170E-03
 cg2d: Sum(rhs),rhsMax =  -8.01727573218614E-11  9.28781371044048E-03
 cg2d: Sum(rhs),rhsMax =  -7.41574579521398E-11  1.00445496314018E-02
 cg2d: Sum(rhs),rhsMax =  -6.90556500870798E-11  1.08003059836285E-02
 cg2d: Sum(rhs),rhsMax =  -6.46486197908303E-11  1.15550041070993E-02
 cg2d: Sum(rhs),rhsMax =  -6.08055827910903E-11  1.23085396033792E-02
 cg2d: Sum(rhs),rhsMax =  -5.73622260802154E-11  1.30607812062943E-02
 cg2d: Sum(rhs),rhsMax =  -5.43131095653848E-11  1.38115698075372E-02
 cg2d: Sum(rhs),rhsMax =  -5.16126030802866E-11  1.45607176405978E-02
 cg2d: Sum(rhs),rhsMax =  -4.91467977425941E-11  1.53080076257951E-02
 cg2d: Sum(rhs),rhsMax =  -4.69733141272854E-11  1.60531928787838E-02
 cg2d: Sum(rhs),rhsMax =  -4.48836523503360E-11  1.67959963846411E-02
 cg2d: Sum(rhs),rhsMax =  -4.30731006417773E-11  1.75361108391958E-02
 cg2d: Sum(rhs),rhsMax =  -4.13558076672871E-11  1.82731986586229E-02
 cg2d: Sum(rhs),rhsMax =  -3.98467925322166E-11  1.90068921579133E-02
 cg2d: Sum(rhs),rhsMax =  -3.84107190498639E-11  1.97367939035199E-02
 cg2d: Sum(rhs),rhsMax =  -3.70898867174674E-11  2.04624772336674E-02
 cg2d: Sum(rhs),rhsMax =  -3.58758578400398E-11  2.11834869211947E-02
 cg2d: Sum(rhs),rhsMax =  -3.47668560607417E-11  2.18993400139983E-02
 cg2d: Sum(rhs),rhsMax =  -3.37220251722670E-11  2.26095268416035E-02
 cg2d: Sum(rhs),rhsMax =  -3.27577964753800E-11  2.33135121772337E-02
 cg2d: Sum(rhs),rhsMax =  -3.18314263836328E-11  2.40107365473131E-02
 cg2d: Sum(rhs),rhsMax =  -3.09543501941789E-11  2.47006176824102E-02
 cg2d: Sum(rhs),rhsMax =  -3.02332603396849E-11  2.53825521039258E-02
 cg2d: Sum(rhs),rhsMax =  -2.95350410794981E-11  2.60559168399572E-02
 cg2d: Sum(rhs),rhsMax =  -2.88831181194382E-11  2.67200712627146E-02
 cg2d: Sum(rhs),rhsMax =  -2.82853740429800E-11  2.73743590390635E-02
 cg2d: Sum(rhs),rhsMax =  -2.77219358579828E-11  2.80181101853419E-02
 cg2d: Sum(rhs),rhsMax =  -2.71778155536140E-11  2.86506432172813E-02
 cg2d: Sum(rhs),rhsMax =  -2.66584532226943E-11  2.92712673856268E-02
 cg2d: Sum(rhs),rhsMax =  -2.61528576572800E-11  2.98792849876770E-02
 cg2d: Sum(rhs),rhsMax =  -2.56510368501495E-11  3.04739937460082E-02
 cg2d: Sum(rhs),rhsMax =  -2.52123877331201E-11  3.10546892414301E-02
 cg2d: Sum(rhs),rhsMax =  -2.48134846003722E-11  3.16206673875809E-02
 cg2d: Sum(rhs),rhsMax =  -2.44000375460018E-11  3.21712269392257E-02
 cg2d: Sum(rhs),rhsMax =  -2.40478748025907E-11  3.27056720215513E-02
 cg2d: Sum(rhs),rhsMax =  -2.36748398663167E-11  3.32233146746384E-02
 cg2d: Sum(rhs),rhsMax =  -2.33626451517921E-11  3.37234773925946E-02
 cg2d: Sum(rhs),rhsMax =  -2.30184760141583E-11  3.42054956462615E-02
 cg2d: Sum(rhs),rhsMax =  -2.27230456673055E-11  3.46920105324888E-02
 cg2d: Sum(rhs),rhsMax =  -2.22493135026980E-11  3.54306997989885E-02
 cg2d: Sum(rhs),rhsMax =  -2.18168816346065E-11  3.61595564132210E-02
 cg2d: Sum(rhs),rhsMax =  -2.14060991154952E-11  3.68775334019954E-02
 cg2d: Sum(rhs),rhsMax =  -2.10081951834695E-11  3.75835776224556E-02
 cg2d: Sum(rhs),rhsMax =  -2.06464845220466E-11  3.82766328813202E-02
 cg2d: Sum(rhs),rhsMax =  -2.02909911095617E-11  3.89556430922260E-02
 cg2d: Sum(rhs),rhsMax =  -1.99731342576115E-11  3.96195554591257E-02
 cg2d: Sum(rhs),rhsMax =  -1.96695992826790E-11  4.02673236732831E-02
 cg2d: Sum(rhs),rhsMax =  -1.93896010358685E-11  4.08979111109795E-02
 cg2d: Sum(rhs),rhsMax =  -1.91349158740195E-11  4.15102940189769E-02
 cg2d: Sum(rhs),rhsMax =  -1.88651316790356E-11  4.21034646748339E-02
 cg2d: Sum(rhs),rhsMax =  -1.86369808474751E-11  4.26764345091731E-02
 cg2d: Sum(rhs),rhsMax =  -1.84430248850731E-11  4.32282371770151E-02
 cg2d: Sum(rhs),rhsMax =  -1.82077686261550E-11  4.37579315653560E-02
 cg2d: Sum(rhs),rhsMax =  -1.80235826263697E-11  4.42646047243086E-02
 cg2d: Sum(rhs),rhsMax =  -1.78734804734404E-11  4.47473747093603E-02
 cg2d: Sum(rhs),rhsMax =  -1.76829662024147E-11  4.52053933244149E-02
 cg2d: Sum(rhs),rhsMax =  -1.75187642170727E-11  4.56378487506749E-02
 cg2d: Sum(rhs),rhsMax =  -1.74127379182210E-11  4.60439680487182E-02
 cg2d: Sum(rhs),rhsMax =  -1.72680758581123E-11  4.64230195274144E-02
 cg2d: Sum(rhs),rhsMax =  -1.71044289842825E-11  4.67743149690955E-02
 cg2d: Sum(rhs),rhsMax =  -1.69934066818200E-11  4.70972116997875E-02
 cg2d: Sum(rhs),rhsMax =  -1.68959291002579E-11  4.73911144885859E-02
 cg2d: Sum(rhs),rhsMax =  -1.68134395295283E-11  4.76554772938665E-02
 cg2d: Sum(rhs),rhsMax =  -1.67424962782547E-11  4.78898048252573E-02
 cg2d: Sum(rhs),rhsMax =  -1.66525682132601E-11  4.80936539270578E-02
 cg2d: Sum(rhs),rhsMax =  -1.66073821361579E-11  4.82666347533654E-02
 cg2d: Sum(rhs),rhsMax =  -1.65785163375176E-11  4.84084117439846E-02
 cg2d: Sum(rhs),rhsMax =  -1.65488733827601E-11  4.85187044068519E-02
 cg2d: Sum(rhs),rhsMax =  -1.65184532718854E-11  4.85972879026892E-02
 cg2d: Sum(rhs),rhsMax =  -1.65273350560824E-11  4.86439934277198E-02
 cg2d: Sum(rhs),rhsMax =  -1.65167879373485E-11  4.86587083927651E-02
 cg2d: Sum(rhs),rhsMax =  -1.65283342568046E-11  4.86413763996210E-02
 cg2d: Sum(rhs),rhsMax =  -1.65487623604577E-11  4.85919970036220E-02
 cg2d: Sum(rhs),rhsMax =  -1.65684133079935E-11  4.85106252774265E-02
 cg2d: Sum(rhs),rhsMax =  -1.66106017829293E-11  4.83973711741212E-02
 cg2d: Sum(rhs),rhsMax =  -1.66697766701418E-11  4.82523986984855E-02
 cg2d: Sum(rhs),rhsMax =  -1.67350577839898E-11  4.80759248852430E-02
 cg2d: Sum(rhs),rhsMax =  -1.68178804216268E-11  4.78682185941369E-02
 cg2d: Sum(rhs),rhsMax =  -1.68933755873013E-11  4.76295991390812E-02
 cg2d: Sum(rhs),rhsMax =  -1.69999569976653E-11  4.73604347400097E-02
 cg2d: Sum(rhs),rhsMax =  -1.71322955822006E-11  4.70611408077463E-02
 cg2d: Sum(rhs),rhsMax =  -1.72557523825390E-11  4.67321780735302E-02
 cg2d: Sum(rhs),rhsMax =  -1.73848713203029E-11  4.63740505751389E-02
 cg2d: Sum(rhs),rhsMax =  -1.75858216877600E-11  4.59873035105313E-02
 cg2d: Sum(rhs),rhsMax =  -1.77363679298992E-11  4.55725209713981E-02
 cg2d: Sum(rhs),rhsMax =  -1.79758430363108E-11  4.51303235604123E-02
 cg2d: Sum(rhs),rhsMax =  -1.81920034592054E-11  4.46613659110572E-02
 cg2d: Sum(rhs),rhsMax =  -1.84331439001539E-11  4.41663341211830E-02
 cg2d: Sum(rhs),rhsMax =  -1.87190263289949E-11  4.36459431116779E-02
 cg2d: Sum(rhs),rhsMax =  -1.89723792232144E-11  4.31009339146878E-02
 cg2d: Sum(rhs),rhsMax =  -1.92533766707470E-11  4.25320709179900E-02
 cg2d: Sum(rhs),rhsMax =  -1.95972127414734E-11  4.19401390865138E-02
 cg2d: Sum(rhs),rhsMax =  -1.98947525120730E-11  4.13259411528219E-02
 cg2d: Sum(rhs),rhsMax =  -2.01837435653829E-11  4.06902947922134E-02
 cg2d: Sum(rhs),rhsMax =  -2.04598560316072E-11  4.00340297984609E-02
 cg2d: Sum(rhs),rhsMax =  -2.07049932754444E-11  3.93579852754430E-02
 cg2d: Sum(rhs),rhsMax =  -2.09963157971060E-11  3.86630068583738E-02
 cg2d: Sum(rhs),rhsMax =  -2.12617701222939E-11  3.79499439769692E-02
 cg2d: Sum(rhs),rhsMax =  -2.16252571405562E-11  3.72196471723618E-02
 cg2d: Sum(rhs),rhsMax =  -2.20041762588608E-11  3.64729654777103E-02
 cg2d: Sum(rhs),rhsMax =  -2.23938645405042E-11  3.57107438927329E-02
 cg2d: Sum(rhs),rhsMax =  -2.28634888799206E-11  3.49338209082753E-02
 cg2d: Sum(rhs),rhsMax =  -2.33341124200592E-11  3.41430261359050E-02
 cg2d: Sum(rhs),rhsMax =  -2.38107311645308E-11  3.33391780544584E-02
 cg2d: Sum(rhs),rhsMax =  -2.43822739776078E-11  3.25230818652732E-02
 cg2d: Sum(rhs),rhsMax =  -2.49061882229284E-11  3.16955274736058E-02
 cg2d: Sum(rhs),rhsMax =  -2.55464538412298E-11  3.08572876020657E-02
 cg2d: Sum(rhs),rhsMax =  -2.61382027133550E-11  3.00091160403158E-02
 cg2d: Sum(rhs),rhsMax =  -2.68490785160225E-11  2.91517460357555E-02
 cg2d: Sum(rhs),rhsMax =  -2.76120237785449E-11  2.82858888302421E-02
 cg2d: Sum(rhs),rhsMax =  -2.84557932772600E-11  2.74122323478049E-02
 cg2d: Sum(rhs),rhsMax =  -2.93778334992112E-11  2.65314400376071E-02
 cg2d: Sum(rhs),rhsMax =  -3.03060909701003E-11  2.56441498800300E-02
 cg2d: Sum(rhs),rhsMax =  -3.13817860586596E-11  2.47509735471227E-02
 cg2d: Sum(rhs),rhsMax =  -3.25193205696905E-11  2.38524957219707E-02
 cg2d: Sum(rhs),rhsMax =  -3.37374572723093E-11  2.29492735831033E-02
 cg2d: Sum(rhs),rhsMax =  -3.50673934335077E-11  2.20418364523489E-02
 cg2d: Sum(rhs),rhsMax =  -3.64921426410092E-11  2.11306856036503E-02
 cg2d: Sum(rhs),rhsMax =  -3.80601106186873E-11  2.02162942299658E-02
 cg2d: Sum(rhs),rhsMax =  -3.98162613990394E-11  1.92991075655652E-02
 cg2d: Sum(rhs),rhsMax =  -4.17229584215306E-11  1.83795431597215E-02
 cg2d: Sum(rhs),rhsMax =  -4.38729053087172E-11  1.74579912897581E-02
 cg2d: Sum(rhs),rhsMax =  -4.62329063921629E-11  1.65348155258804E-02
 cg2d: Sum(rhs),rhsMax =  -4.89019935656643E-11  1.56103534461124E-02
 cg2d: Sum(rhs),rhsMax =  -5.18639575730617E-11  1.46849174745653E-02
 cg2d: Sum(rhs),rhsMax =  -5.52854428903515E-11  1.37587958405060E-02
 cg2d: Sum(rhs),rhsMax =  -5.93002313920010E-11  1.28322536545785E-02
 cg2d: Sum(rhs),rhsMax =  -6.38306074662864E-11  1.19055340968939E-02
 cg2d: Sum(rhs),rhsMax =  -6.91052770562806E-11  1.09788597097901E-02
 cg2d: Sum(rhs),rhsMax =  -7.54685203219196E-11  1.00524337866891E-02
 cg2d: Sum(rhs),rhsMax =  -8.30525648254365E-11  9.12644184774263E-03
 cg2d: Sum(rhs),rhsMax =  -9.23396914487284E-11  8.20105319276039E-03
 cg2d: Sum(rhs),rhsMax =  -1.03930641870420E-10  7.27642252187239E-03
 cg2d: Sum(rhs),rhsMax =  -1.18890286504580E-10  6.35269161437129E-03
 cg2d: Sum(rhs),rhsMax =  -1.33154265391511E-10  5.66776879682966E-03
 cg2d: Sum(rhs),rhsMax =  -1.34079358726780E-10  5.62928423853652E-03
 cg2d: Sum(rhs),rhsMax =  -1.34888045177917E-10  5.59077482398757E-03
 cg2d: Sum(rhs),rhsMax =  -1.35820216184968E-10  5.55232296541179E-03
 cg2d: Sum(rhs),rhsMax =  -1.36671271522282E-10  5.51398053298190E-03
 cg2d: Sum(rhs),rhsMax =  -1.37591970802986E-10  5.47580652447545E-03
 cg2d: Sum(rhs),rhsMax =  -1.38488054357566E-10  5.43786917016858E-03
 cg2d: Sum(rhs),rhsMax =  -1.39451422631609E-10  5.40024142659366E-03
 cg2d: Sum(rhs),rhsMax =  -1.40307598872624E-10  5.36299949925783E-03
 cg2d: Sum(rhs),rhsMax =  -1.41219536065051E-10  5.32622172736170E-03
 cg2d: Sum(rhs),rhsMax =  -1.42105438527551E-10  5.28998757171925E-03
 cg2d: Sum(rhs),rhsMax =  -1.42946876557914E-10  5.25873300518594E-03
 cg2d: Sum(rhs),rhsMax =  -1.23957177855516E-10  6.05904897602942E-03
 cg2d: Sum(rhs),rhsMax =  -1.09412368054507E-10  6.85981900522416E-03
 cg2d: Sum(rhs),rhsMax =  -9.77437020210914E-11  7.66852045336155E-03
 cg2d: Sum(rhs),rhsMax =  -8.82933726131796E-11  8.48269490268279E-03
 cg2d: Sum(rhs),rhsMax =  -8.05480127041847E-11  9.29977095403029E-03
 cg2d: Sum(rhs),rhsMax =  -7.38934469168839E-11  1.01270776844643E-02
 cg2d: Sum(rhs),rhsMax =  -6.83071377238775E-11  1.09553258007101E-02
 cg2d: Sum(rhs),rhsMax =  -6.33731955801409E-11  1.17953325066173E-02
 cg2d: Sum(rhs),rhsMax =  -5.90670845568297E-11  1.26430817692598E-02
 cg2d: Sum(rhs),rhsMax =  -5.51778622792654E-11  1.35021297744180E-02
 cg2d: Sum(rhs),rhsMax =  -5.17684783929440E-11  1.43696203144126E-02
 cg2d: Sum(rhs),rhsMax =  -4.87406781601862E-11  1.52322473551122E-02
 cg2d: Sum(rhs),rhsMax =  -4.60449456340939E-11  1.60896711221528E-02
 cg2d: Sum(rhs),rhsMax =  -4.36820579707842E-11  1.69415308995213E-02
 cg2d: Sum(rhs),rhsMax =  -4.15423251354241E-11  1.77874450186356E-02
 cg2d: Sum(rhs),rhsMax =  -3.96239707711743E-11  1.86270109745116E-02
 cg2d: Sum(rhs),rhsMax =  -3.78652664778656E-11  1.94598056749191E-02
 cg2d: Sum(rhs),rhsMax =  -3.62740948389728E-11  2.02853858222851E-02
 cg2d: Sum(rhs),rhsMax =  -3.48199247213188E-11  2.11032884258652E-02
 cg2d: Sum(rhs),rhsMax =  -3.34892114040031E-11  2.19130314411632E-02
 cg2d: Sum(rhs),rhsMax =  -3.22518678430583E-11  2.27141145334340E-02
 cg2d: Sum(rhs),rhsMax =  -3.11404235731061E-11  2.35060199619250E-02
 cg2d: Sum(rhs),rhsMax =  -3.00797164953792E-11  2.42882135811208E-02
 cg2d: Sum(rhs),rhsMax =  -2.91004997876598E-11  2.50601459544798E-02
 cg2d: Sum(rhs),rhsMax =  -2.81993317585716E-11  2.58212535767906E-02
 cg2d: Sum(rhs),rhsMax =  -2.73122635618961E-11  2.65709601992184E-02
 cg2d: Sum(rhs),rhsMax =  -2.64788191373100E-11  2.73086782504084E-02
 cg2d: Sum(rhs),rhsMax =  -2.57086574251275E-11  2.80338103469871E-02
 cg2d: Sum(rhs),rhsMax =  -2.50115483879654E-11  2.87457508867652E-02
 cg2d: Sum(rhs),rhsMax =  -2.43348674544563E-11  2.94438877176593E-02
 cg2d: Sum(rhs),rhsMax =  -2.37140307390860E-11  3.01276038748823E-02
 cg2d: Sum(rhs),rhsMax =  -2.31589192267734E-11  3.07962793784752E-02
 cg2d: Sum(rhs),rhsMax =  -2.25406360243596E-11  3.14492930823743E-02
 cg2d: Sum(rhs),rhsMax =  -2.19824158875781E-11  3.20860245686967E-02
 cg2d: Sum(rhs),rhsMax =  -2.17341700192719E-11  3.27058560764472E-02
 cg2d: Sum(rhs),rhsMax =  -2.13672413096333E-11  3.33081744561320E-02
 cg2d: Sum(rhs),rhsMax =  -2.10290673763325E-11  3.38923731417817E-02
 cg2d: Sum(rhs),rhsMax =  -2.07264205798197E-11  3.44578541317716E-02
 cg2d: Sum(rhs),rhsMax =  -2.04526395819471E-11  3.50040299713393E-02
 cg2d: Sum(rhs),rhsMax =  -2.02515781921875E-11  3.55303257245565E-02
 cg2d: Sum(rhs),rhsMax =  -1.99921190713326E-11  3.60361809259412E-02
 cg2d: Sum(rhs),rhsMax =  -1.98107086291088E-11  3.65210515066856E-02
 cg2d: Sum(rhs),rhsMax =  -1.96596072754573E-11  3.69844116863574E-02
 cg2d: Sum(rhs),rhsMax =  -1.94861904390109E-11  3.74257558211811E-02
 cg2d: Sum(rhs),rhsMax =  -1.93222104982738E-11  3.78446001993699E-02
 cg2d: Sum(rhs),rhsMax =  -1.91635596280548E-11  3.82404847750525E-02
 cg2d: Sum(rhs),rhsMax =  -1.90129023636132E-11  3.86129748343867E-02
 cg2d: Sum(rhs),rhsMax =  -1.88801196898680E-11  3.89616625863380E-02
 cg2d: Sum(rhs),rhsMax =  -1.87428961240244E-11  3.92861686699216E-02
 cg2d: Sum(rhs),rhsMax =  -1.85996773538477E-11  3.95861435711978E-02
 cg2d: Sum(rhs),rhsMax =  -1.84905424305271E-11  3.98612689321137E-02
 cg2d: Sum(rhs),rhsMax =  -1.83819626187187E-11  4.01112587809754E-02
 cg2d: Sum(rhs),rhsMax =  -1.82749371191449E-11  4.03358606497451E-02
 cg2d: Sum(rhs),rhsMax =  -1.81696879764104E-11  4.05348565745745E-02
 cg2d: Sum(rhs),rhsMax =  -1.81039627733526E-11  4.07080639771577E-02
 cg2d: Sum(rhs),rhsMax =  -1.80508941127755E-11  4.08553364296295E-02
 cg2d: Sum(rhs),rhsMax =  -1.79648518283670E-11  4.09765643004198E-02
 cg2d: Sum(rhs),rhsMax =  -1.79319892268381E-11  4.10716752525490E-02
 cg2d: Sum(rhs),rhsMax =  -1.78848047482916E-11  4.11406346230299E-02
 cg2d: Sum(rhs),rhsMax =  -1.78631553993114E-11  4.11834456800857E-02
 cg2d: Sum(rhs),rhsMax =  -1.78361769798130E-11  4.12001497472907E-02
 cg2d: Sum(rhs),rhsMax =  -1.78479453438740E-11  4.11908261992422E-02
 cg2d: Sum(rhs),rhsMax =  -1.78557169050464E-11  4.11555923267077E-02
 cg2d: Sum(rhs),rhsMax =  -1.78854708821063E-11  4.10946030720059E-02
 cg2d: Sum(rhs),rhsMax =  -1.78701498043665E-11  4.10080506348748E-02
 cg2d: Sum(rhs),rhsMax =  -1.79375403419613E-11  4.08961639476898E-02
 cg2d: Sum(rhs),rhsMax =  -1.79934955824024E-11  4.07592080288659E-02
 cg2d: Sum(rhs),rhsMax =  -1.80205850242032E-11  4.05974832166582E-02
 cg2d: Sum(rhs),rhsMax =  -1.81072934424265E-11  4.04113242858217E-02
 cg2d: Sum(rhs),rhsMax =  -1.82033277340565E-11  4.02010994504965E-02
 cg2d: Sum(rhs),rhsMax =  -1.82761583644719E-11  3.99672092573688E-02
 cg2d: Sum(rhs),rhsMax =  -1.83978388079709E-11  3.97100853602597E-02
 cg2d: Sum(rhs),rhsMax =  -1.85427229126844E-11  3.94301892268380E-02
 cg2d: Sum(rhs),rhsMax =  -1.86594073525725E-11  3.91280107432720E-02
 cg2d: Sum(rhs),rhsMax =  -1.88092874608969E-11  3.88040667253528E-02
 cg2d: Sum(rhs),rhsMax =  -1.90077953376999E-11  3.84588993460118E-02
 cg2d: Sum(rhs),rhsMax =  -1.91952009842566E-11  3.80930744890635E-02
 cg2d: Sum(rhs),rhsMax =  -1.93978166862507E-11  3.77071800375879E-02
 cg2d: Sum(rhs),rhsMax =  -1.96329619228663E-11  3.73018241044662E-02
 cg2d: Sum(rhs),rhsMax =  -1.98661087580376E-11  3.68776332110079E-02
 cg2d: Sum(rhs),rhsMax =  -2.01304528602009E-11  3.64352504202743E-02
 cg2d: Sum(rhs),rhsMax =  -2.03905781148706E-11  3.59753334334822E-02
 cg2d: Sum(rhs),rhsMax =  -2.06907824207292E-11  3.54985526583277E-02
 cg2d: Sum(rhs),rhsMax =  -2.09821049423908E-11  3.50055892465071E-02
 cg2d: Sum(rhs),rhsMax =  -2.13077333555134E-11  3.44971331207926E-02
 cg2d: Sum(rhs),rhsMax =  -2.16883178083549E-11  3.39738809942626E-02
 cg2d: Sum(rhs),rhsMax =  -2.20616858115363E-11  3.34365343899668E-02
 cg2d: Sum(rhs),rhsMax =  -2.24864571407579E-11  3.28857976773462E-02
 cg2d: Sum(rhs),rhsMax =  -2.29630758852295E-11  3.23223761178972E-02
 cg2d: Sum(rhs),rhsMax =  -2.33756347611802E-11  3.18227514486195E-02
 cg2d: Sum(rhs),rhsMax =  -2.37161401628327E-11  3.13922589140982E-02
 cg2d: Sum(rhs),rhsMax =  -2.41213715668209E-11  3.09438651046302E-02
 cg2d: Sum(rhs),rhsMax =  -2.45297115952781E-11  3.04780755293317E-02
 cg2d: Sum(rhs),rhsMax =  -2.50187648376254E-11  2.99954075393683E-02
 cg2d: Sum(rhs),rhsMax =  -2.54352094941623E-11  2.94963887207264E-02
 cg2d: Sum(rhs),rhsMax =  -2.59693377913095E-11  2.89815552918945E-02
 cg2d: Sum(rhs),rhsMax =  -2.65186761438940E-11  2.84514505237418E-02
 cg2d: Sum(rhs),rhsMax =  -2.70850009087553E-11  2.79066231546508E-02
 cg2d: Sum(rhs),rhsMax =  -2.76925149478302E-11  2.73476258385863E-02
 cg2d: Sum(rhs),rhsMax =  -2.83590928518151E-11  2.67750136265931E-02
 cg2d: Sum(rhs),rhsMax =  -2.90653057177792E-11  2.61893424959117E-02
 cg2d: Sum(rhs),rhsMax =  -2.98331359616100E-11  2.55911679219010E-02
 cg2d: Sum(rhs),rhsMax =  -3.06515923753636E-11  2.49810434952088E-02
 cg2d: Sum(rhs),rhsMax =  -3.15022452568314E-11  2.43595195915308E-02
 cg2d: Sum(rhs),rhsMax =  -3.24651416860888E-11  2.37271421009991E-02
(PID.TID 0000.0001)      cg2d_init_res =   1.48523093196553E-01
(PID.TID 0000.0001)      cg2d_iters(min,last) =      -1      39
(PID.TID 0000.0001)      cg2d_last_res =   7.71615728061058E-14
(PID.TID 0000.0001) // =======================================================
(PID.TID 0000.0001) // Begin MONITOR dynamic field statistics
(PID.TID 0000.0001) // =======================================================
(PID.TID 0000.0001) %MON time_tsnumber                =                  1440
(PID.TID 0000.0001) %MON time_secondsf                =   2.1600000000000E+04
(PID.TID 0000.0001) %MON dynstat_eta_max              =   5.1039246777982E-03
(PID.TID 0000.0001) %MON dynstat_eta_min              =  -4.0475328010155E-03
(PID.TID 0000.0001) %MON dynstat_eta_mean             =   1.7632422745790E-15
(PID.TID 0000.0001) %MON dynstat_eta_sd               =   3.3387870980200E-03
(PID.TID 0000.0001) %MON dynstat_eta_del2             =   3.2361554947109E-06
(PID.TID 0000.0001) %MON dynstat_uvel_max             =   1.2930826537482E+00
(PID.TID 0000.0001) %MON dynstat_uvel_min             =   3.9218703710659E-03
(PID.TID 0000.0001) %MON dynstat_uvel_mean            =   5.6070641002090E-01
(PID.TID 0000.0001) %MON dynstat_uvel_sd              =   2.1557554772267E-02
(PID.TID 0000.0001) %MON dynstat_uvel_del2            =   3.0155752336474E-04
(PID.TID 0000.0001) %MON dynstat_vvel_max             =   0.0000000000000E+00
(PID.TID 0000.0001) %MON dynstat_vvel_min             =   0.0000000000000E+00
(PID.TID 0000.0001) %MON dynstat_vvel_mean            =   0.0000000000000E+00
(PID.TID 0000.0001) %MON dynstat_vvel_sd              =   0.0000000000000E+00
(PID.TID 0000.0001) %MON dynstat_vvel_del2            =   0.0000000000000E+00
(PID.TID 0000.0001) %MON dynstat_wvel_max             =   9.7644492640226E-03
(PID.TID 0000.0001) %MON dynstat_wvel_min             =  -7.8318623831908E-03
(PID.TID 0000.0001) %MON dynstat_wvel_mean            =  -5.5956194737279E-21
(PID.TID 0000.0001) %MON dynstat_wvel_sd              =   9.6399020084342E-04
(PID.TID 0000.0001) %MON dynstat_wvel_del2            =   2.1636422521400E-05
(PID.TID 0000.0001) %MON dynstat_theta_max            =   1.5000000000005E+01
(PID.TID 0000.0001) %MON dynstat_theta_min            =   9.9999999999974E+00
(PID.TID 0000.0001) %MON dynstat_theta_mean           =   1.4014112785837E+01
(PID.TID 0000.0001) %MON dynstat_theta_sd             =   1.9258994672479E+00
(PID.TID 0000.0001) %MON dynstat_theta_del2           =   1.8169363628703E-04
(PID.TID 0000.0001) %MON dynstat_salt_max             =   3.5000000000000E+01
(PID.TID 0000.0001) %MON dynstat_salt_min             =   3.5000000000000E+01
(PID.TID 0000.0001) %MON dynstat_salt_mean            =   3.5000000000000E+01
(PID.TID 0000.0001) %MON dynstat_salt_sd              =   4.1922021409846E-13
(PID.TID 0000.0001) %MON dynstat_salt_del2            =   0.0000000000000E+00
(PID.TID 0000.0001) %MON dynstat_sst_max              =   1.5000000000000E+01
(PID.TID 0000.0001) %MON dynstat_sst_min              =   1.5000000000000E+01
(PID.TID 0000.0001) %MON dynstat_sst_mean             =   1.5000000000000E+01
(PID.TID 0000.0001) %MON dynstat_sst_sd               =   1.1683778668267E-13
(PID.TID 0000.0001) %MON dynstat_sst_del2             =   1.9130551903301E-15
(PID.TID 0000.0001) %MON dynstat_sss_max              =   3.5000000000000E+01
(PID.TID 0000.0001) %MON dynstat_sss_min              =   3.5000000000000E+01
(PID.TID 0000.0001) %MON dynstat_sss_mean             =   3.5000000000000E+01
(PID.TID 0000.0001) %MON dynstat_sss_sd               =   2.8421709430404E-14
(PID.TID 0000.0001) %MON dynstat_sss_del2             =   0.0000000000000E+00
(PID.TID 0000.0001) %MON forcing_qnet_max             =   0.0000000000000E+00
(PID.TID 0000.0001) %MON forcing_qnet_min             =   0.0000000000000E+00
(PID.TID 0000.0001) %MON forcing_qnet_mean            =   0.0000000000000E+00
(PID.TID 0000.0001) %MON forcing_qnet_sd              =   0.0000000000000E+00
(PID.TID 0000.0001) %MON forcing_qnet_del2            =   0.0000000000000E+00
(PID.TID 0000.0001) %MON forcing_qsw_max              =   0.0000000000000E+00
(PID.TID 0000.0001) %MON forcing_qsw_min              =   0.0000000000000E+00
(PID.TID 0000.0001) %MON forcing_qsw_mean             =   0.0000000000000E+00
(PID.TID 0000.0001) %MON forcing_qsw_sd               =   0.0000000000000E+00
(PID.TID 0000.0001) %MON forcing_qsw_del2             =   0.0000000000000E+00
(PID.TID 0000.0001) %MON forcing_empmr_max            =   0.0000000000000E+00
(PID.TID 0000.0001) %MON forcing_empmr_min            =   0.0000000000000E+00
(PID.TID 0000.0001) %MON forcing_empmr_mean           =   0.0000000000000E+00
(PID.TID 0000.0001) %MON forcing_empmr_sd             =   0.0000000000000E+00
(PID.TID 0000.0001) %MON forcing_empmr_del2           =   0.0000000000000E+00
(PID.TID 0000.0001) %MON forcing_fu_max               =   0.0000000000000E+00
(PID.TID 0000.0001) %MON forcing_fu_min               =   0.0000000000000E+00
(PID.TID 0000.0001) %MON forcing_fu_mean              =   0.0000000000000E+00
(PID.TID 0000.0001) %MON forcing_fu_sd                =   0.0000000000000E+00
(PID.TID 0000.0001) %MON forcing_fu_del2              =   0.0000000000000E+00
(PID.TID 0000.0001) %MON forcing_fv_max               =   0.0000000000000E+00
(PID.TID 0000.0001) %MON forcing_fv_min               =   0.0000000000000E+00
(PID.TID 0000.0001) %MON forcing_fv_mean              =   0.0000000000000E+00
(PID.TID 0000.0001) %MON forcing_fv_sd                =   0.0000000000000E+00
(PID.TID 0000.0001) %MON forcing_fv_del2              =   0.0000000000000E+00
(PID.TID 0000.0001) %MON advcfl_uvel_max              =   9.3381771380095E-02
(PID.TID 0000.0001) %MON advcfl_vvel_max              =   0.0000000000000E+00
(PID.TID 0000.0001) %MON advcfl_wvel_max              =   3.5306741443019E-02
(PID.TID 0000.0001) %MON advcfl_W_hf_max              =   9.4355154904002E-02
(PID.TID 0000.0001) %MON pe_b_mean                    =   2.7396543791458E-07
(PID.TID 0000.0001) %MON ke_max                       =   4.2237295726856E-01
(PID.TID 0000.0001) %MON ke_mean                      =   1.5743919836608E-01
(PID.TID 0000.0001) %MON ke_vol                       =   9.7476098603737E+10
(PID.TID 0000.0001) %MON vort_r_min                   =   0.0000000000000E+00
(PID.TID 0000.0001) %MON vort_r_max                   =   0.0000000000000E+00
(PID.TID 0000.0001) %MON vort_a_mean                  =   0.0000000000000E+00
(PID.TID 0000.0001) %MON vort_a_sd                    =   0.0000000000000E+00
(PID.TID 0000.0001) %MON vort_p_mean                  =   0.0000000000000E+00
(PID.TID 0000.0001) %MON vort_p_sd                    =   0.0000000000000E+00
(PID.TID 0000.0001) %MON surfExpan_theta_mean         =  -2.5232600812266E-19
(PID.TID 0000.0001) %MON surfExpan_salt_mean          =  -7.1182004874456E-19
(PID.TID 0000.0001) // =======================================================
(PID.TID 0000.0001) // End MONITOR dynamic field statistics
(PID.TID 0000.0001) // =======================================================
(PID.TID 0000.0001) // =======================================================
(PID.TID 0000.0001) // Begin OBCS MONITOR field statistics
(PID.TID 0000.0001) // =======================================================
(PID.TID 0000.0001) %MON obc_E_uVel_max               =   5.6028564143658E-01
(PID.TID 0000.0001) %MON obc_E_uVel_min               =   5.6028564143658E-01
(PID.TID 0000.0001) %MON obc_E_uVel_mean              =   5.6028564143658E-01
(PID.TID 0000.0001) %MON obc_E_uVel_sd                =   1.0536712127724E-08
(PID.TID 0000.0001) %MON obc_E_uVel_Int               =   5.6028564143658E+05
(PID.TID 0000.0001) %MON obc_W_uVel_max               =   5.6028564143658E-01
(PID.TID 0000.0001) %MON obc_W_uVel_min               =   5.6028564143658E-01
(PID.TID 0000.0001) %MON obc_W_uVel_mean              =   5.6028564143658E-01
(PID.TID 0000.0001) %MON obc_W_uVel_sd                =   1.0536712127724E-08
(PID.TID 0000.0001) %MON obc_W_uVel_Int               =   5.6028564143658E+05
(PID.TID 0000.0001) // =======================================================
(PID.TID 0000.0001) // End OBCS MONITOR field statistics
(PID.TID 0000.0001) // =======================================================
(PID.TID 0000.0001) %CHECKPOINT      1440 0000001440
 cg2d: Sum(rhs),rhsMax =  -3.34460237283452E-11  2.30844512202260E-02
 cg2d: Sum(rhs),rhsMax =  -3.44931860851716E-11  2.24319802962593E-02
 cg2d: Sum(rhs),rhsMax =  -3.56564777703738E-11  2.17702547646025E-02
 cg2d: Sum(rhs),rhsMax =  -3.69125841004347E-11  2.10997911701925E-02
 cg2d: Sum(rhs),rhsMax =  -3.82751608185572E-11  2.04210962557149E-02
 cg2d: Sum(rhs),rhsMax =  -3.97566424226170E-11  1.97346661250164E-02
 cg2d: Sum(rhs),rhsMax =  -4.13431511248064E-11  1.90409854888203E-02
 cg2d: Sum(rhs),rhsMax =  -4.30734337086847E-11  1.83405269974960E-02
 cg2d: Sum(rhs),rhsMax =  -4.49258408252717E-11  1.76337506629389E-02
 cg2d: Sum(rhs),rhsMax =  -4.68899363781361E-11  1.69211033698991E-02
 cg2d: Sum(rhs),rhsMax =  -4.90439910905138E-11  1.62030184762924E-02
 cg2d: Sum(rhs),rhsMax =  -5.13299402982170E-11  1.54799155018551E-02
 cg2d: Sum(rhs),rhsMax =  -5.39571720636900E-11  1.47521999044157E-02
 cg2d: Sum(rhs),rhsMax =  -5.68604052730848E-11  1.40202629429602E-02
 cg2d: Sum(rhs),rhsMax =  -6.00532956696043E-11  1.32844816264179E-02
 cg2d: Sum(rhs),rhsMax =  -6.36707353507404E-11  1.25452187467055E-02
 cg2d: Sum(rhs),rhsMax =  -6.78225253736287E-11  1.18028229941280E-02
 cg2d: Sum(rhs),rhsMax =  -7.23836546256962E-11  1.10576291527391E-02
 cg2d: Sum(rhs),rhsMax =  -7.77450326339135E-11  1.03099583727954E-02
 cg2d: Sum(rhs),rhsMax =  -8.38616953657834E-11  9.56011851704349E-03
 cg2d: Sum(rhs),rhsMax =  -9.11868358599577E-11  8.80840457725485E-03
 cg2d: Sum(rhs),rhsMax =  -9.98467974966388E-11  8.05509915722552E-03
 cg2d: Sum(rhs),rhsMax =  -1.10080833337634E-10  7.30047301827380E-03
 cg2d: Sum(rhs),rhsMax =  -1.22843402117212E-10  6.54478568313774E-03
 cg2d: Sum(rhs),rhsMax =  -1.38996703036298E-10  5.78828609404531E-03
 cg2d: Sum(rhs),rhsMax =  -1.41210043658191E-10  5.69554080284812E-03
 cg2d: Sum(rhs),rhsMax =  -1.41684441956613E-10  5.68016349099186E-03
 cg2d: Sum(rhs),rhsMax =  -1.42080902598707E-10  5.66466217957686E-03
 cg2d: Sum(rhs),rhsMax =  -1.42375000677930E-10  5.64966337032071E-03
 cg2d: Sum(rhs),rhsMax =  -1.42812872638842E-10  5.63516607281393E-03
 cg2d: Sum(rhs),rhsMax =  -1.43207029568160E-10  5.62111287106845E-03
 cg2d: Sum(rhs),rhsMax =  -1.43604989011337E-10  5.60746847619502E-03
 cg2d: Sum(rhs),rhsMax =  -1.43999610846546E-10  5.59420710735952E-03
 cg2d: Sum(rhs),rhsMax =  -1.44468798035646E-10  5.58130830610118E-03
 cg2d: Sum(rhs),rhsMax =  -1.44834588766685E-10  5.56875646670235E-03
 cg2d: Sum(rhs),rhsMax =  -1.45161160869378E-10  5.55654051086234E-03
 cg2d: Sum(rhs),rhsMax =  -1.45598200163022E-10  5.54465515812790E-03
 cg2d: Sum(rhs),rhsMax =  -1.45982781418752E-10  5.53310370754092E-03
 cg2d: Sum(rhs),rhsMax =  -1.46310408233319E-10  5.52187885257397E-03
 cg2d: Sum(rhs),rhsMax =  -1.45514933436175E-10  5.55512636286772E-03
 cg2d: Sum(rhs),rhsMax =  -1.29083632671723E-10  6.26408242076029E-03
 cg2d: Sum(rhs),rhsMax =  -1.15686127344361E-10  6.99023285801813E-03
 cg2d: Sum(rhs),rhsMax =  -1.04703801184769E-10  7.72596022208688E-03
 cg2d: Sum(rhs),rhsMax =  -9.55950874015343E-11  8.45867153786880E-03
 cg2d: Sum(rhs),rhsMax =  -8.80202577491218E-11  9.18815155349231E-03
 cg2d: Sum(rhs),rhsMax =  -8.16654521784699E-11  9.91417816352786E-03
 cg2d: Sum(rhs),rhsMax =  -7.62168106405170E-11  1.06365218382269E-02
 cg2d: Sum(rhs),rhsMax =  -7.15099091053162E-11  1.13549451081829E-02
 cg2d: Sum(rhs),rhsMax =  -6.73506805881630E-11  1.20692021116117E-02
 cg2d: Sum(rhs),rhsMax =  -6.36859454061778E-11  1.27790382063815E-02
 cg2d: Sum(rhs),rhsMax =  -6.04480909771610E-11  1.34841896484368E-02
 cg2d: Sum(rhs),rhsMax =  -5.75219871734589E-11  1.41843833379954E-02
 cg2d: Sum(rhs),rhsMax =  -5.49186252030154E-11  1.48793366347934E-02
 cg2d: Sum(rhs),rhsMax =  -5.25455234878791E-11  1.55687572434854E-02
 cg2d: Sum(rhs),rhsMax =  -5.03938002438531E-11  1.62523431700804E-02
 cg2d: Sum(rhs),rhsMax =  -4.84132733902243E-11  1.69297827499621E-02
 cg2d: Sum(rhs),rhsMax =  -4.66080507521838E-11  1.76007547478454E-02
 cg2d: Sum(rhs),rhsMax =  -4.49353887432835E-11  1.82649285297864E-02
 cg2d: Sum(rhs),rhsMax =  -4.34268176974228E-11  1.89219643072211E-02
 cg2d: Sum(rhs),rhsMax =  -4.20130596978652E-11  1.95715134527652E-02
 cg2d: Sum(rhs),rhsMax =  -4.06958911014499E-11  2.02132188871520E-02
 cg2d: Sum(rhs),rhsMax =  -3.95041777068172E-11  2.08467155361731E-02
 cg2d: Sum(rhs),rhsMax =  -3.83941767267970E-11  2.14716308558866E-02
 cg2d: Sum(rhs),rhsMax =  -3.73789887930798E-11  2.20875854263711E-02
 cg2d: Sum(rhs),rhsMax =  -3.64093200033722E-11  2.26941936141578E-02
 cg2d: Sum(rhs),rhsMax =  -3.55036000598830E-11  2.32910642688375E-02
 cg2d: Sum(rhs),rhsMax =  -3.46688233676673E-11  2.38778014881181E-02
 cg2d: Sum(rhs),rhsMax =  -3.39467343124511E-11  2.44540054406942E-02
 cg2d: Sum(rhs),rhsMax =  -3.32551763904121E-11  2.50192732375436E-02
 cg2d: Sum(rhs),rhsMax =  -3.26139115713886E-11  2.55731998449885E-02
 cg2d: Sum(rhs),rhsMax =  -3.19895221423394E-11  2.61153790354493E-02
 cg2d: Sum(rhs),rhsMax =  -3.14228643105707E-11  2.66454043728550E-02
 cg2d: Sum(rhs),rhsMax =  -3.08567615903144E-11  2.71628702295314E-02
 cg2d: Sum(rhs),rhsMax =  -3.03300717874322E-11  2.77334504433536E-02
 cg2d: Sum(rhs),rhsMax =  -2.96898061691309E-11  2.83964912761770E-02
 cg2d: Sum(rhs),rhsMax =  -2.90926172041850E-11  2.90538331274416E-02
 cg2d: Sum(rhs),rhsMax =  -2.84947621054243E-11  2.97048966353734E-02
 cg2d: Sum(rhs),rhsMax =  -2.79363199240379E-11  3.03490890535815E-02
 cg2d: Sum(rhs),rhsMax =  -2.74225087082414E-11  3.09858056044247E-02
 cg2d: Sum(rhs),rhsMax =  -2.69375632910851E-11  3.16144308849401E-02
 cg2d: Sum(rhs),rhsMax =  -2.64188670939802E-11  3.22343403206177E-02
 cg2d: Sum(rhs),rhsMax =  -2.59733345941981E-11  3.28449016622400E-02
 cg2d: Sum(rhs),rhsMax =  -2.55494514433963E-11  3.34454765208585E-02
 cg2d: Sum(rhs),rhsMax =  -2.51273446494338E-11  3.40354219358098E-02
 cg2d: Sum(rhs),rhsMax =  -2.47744047499054E-11  3.46140919705024E-02
 cg2d: Sum(rhs),rhsMax =  -2.43836062452374E-11  3.51808393305438E-02
 cg2d: Sum(rhs),rhsMax =  -2.40852893185206E-11  3.57350169986771E-02
 cg2d: Sum(rhs),rhsMax =  -2.37508901435035E-11  3.62759798808723E-02
 cg2d: Sum(rhs),rhsMax =  -2.34403607635159E-11  3.68030864578600E-02
 cg2d: Sum(rhs),rhsMax =  -2.31408225914720E-11  3.73157004363231E-02
 cg2d: Sum(rhs),rhsMax =  -2.28635999022231E-11  3.78131923957544E-02
 cg2d: Sum(rhs),rhsMax =  -2.26016982907140E-11  3.82949414199724E-02
 cg2d: Sum(rhs),rhsMax =  -2.23642215857467E-11  3.87603367111728E-02
 cg2d: Sum(rhs),rhsMax =  -2.21092033569903E-11  3.92087791810040E-02
 cg2d: Sum(rhs),rhsMax =  -2.18736140311648E-11  3.96396830125950E-02
 cg2d: Sum(rhs),rhsMax =  -2.16483497794684E-11  4.00524771875285E-02
 cg2d: Sum(rhs),rhsMax =  -2.14265272191483E-11  4.04466069710654E-02
 cg2d: Sum(rhs),rhsMax =  -2.12205808480803E-11  4.08215353468895E-02
 cg2d: Sum(rhs),rhsMax =  -2.10432782310477E-11  4.11767444114321E-02
 cg2d: Sum(rhs),rhsMax =  -2.08798534018229E-11  4.15117367085395E-02
 cg2d: Sum(rhs),rhsMax =  -2.07185379963448E-11  4.18260365036923E-02
 cg2d: Sum(rhs),rhsMax =  -2.05881978132538E-11  4.21191909927344E-02
 cg2d: Sum(rhs),rhsMax =  -2.04463113107067E-11  4.23907714296868E-02
 cg2d: Sum(rhs),rhsMax =  -2.03714822788470E-11  4.26403741853004E-02
 cg2d: Sum(rhs),rhsMax =  -2.02704519836061E-11  4.28676217321790E-02
 cg2d: Sum(rhs),rhsMax =  -2.01806349409139E-11  4.30721635519207E-02
 cg2d: Sum(rhs),rhsMax =  -2.01255678788925E-11  4.32536769600236E-02
 cg2d: Sum(rhs),rhsMax =  -2.00603977873470E-11  4.34118678451956E-02
 cg2d: Sum(rhs),rhsMax =  -2.00292005203551E-11  4.35464713206594E-02
 cg2d: Sum(rhs),rhsMax =  -1.99491534402796E-11  4.36572522874916E-02
 cg2d: Sum(rhs),rhsMax =  -1.99456007266008E-11  4.37440059033180E-02
 cg2d: Sum(rhs),rhsMax =  -1.99201766193369E-11  4.38065579604000E-02
 cg2d: Sum(rhs),rhsMax =  -1.99072980322512E-11  4.38447651723562E-02
 cg2d: Sum(rhs),rhsMax =  -1.99580352244766E-11  4.38585153646513E-02
 cg2d: Sum(rhs),rhsMax =  -1.99563698899397E-11  4.38477275795478E-02
 cg2d: Sum(rhs),rhsMax =  -2.00132133088005E-11  4.38123520856324E-02
 cg2d: Sum(rhs),rhsMax =  -2.00798266902780E-11  4.37523702934800E-02
 cg2d: Sum(rhs),rhsMax =  -2.01476613170826E-11  4.36677945785852E-02
 cg2d: Sum(rhs),rhsMax =  -2.02153849215847E-11  4.35586680144199E-02
 cg2d: Sum(rhs),rhsMax =  -2.03080885441409E-11  4.34250640178419E-02
 cg2d: Sum(rhs),rhsMax =  -2.04108951962212E-11  4.32670859098993E-02
 cg2d: Sum(rhs),rhsMax =  -2.05621075721751E-11  4.30848663927961E-02
 cg2d: Sum(rhs),rhsMax =  -2.07039940747222E-11  4.28785669436548E-02
 cg2d: Sum(rhs),rhsMax =  -2.08786321564958E-11  4.26483771317577E-02
 cg2d: Sum(rhs),rhsMax =  -2.10652606469353E-11  4.23945138622756E-02
 cg2d: Sum(rhs),rhsMax =  -2.12577733194053E-11  4.21172205506645E-02
 cg2d: Sum(rhs),rhsMax =  -2.14553930177885E-11  4.18167662307885E-02
 cg2d: Sum(rhs),rhsMax =  -2.16753281989668E-11  4.14934446011339E-02
 cg2d: Sum(rhs),rhsMax =  -2.18779439009609E-11  4.11475730136814E-02
 cg2d: Sum(rhs),rhsMax =  -2.21069829109410E-11  4.07794914104094E-02
 cg2d: Sum(rhs),rhsMax =  -2.24481544464084E-11  4.03895612125935E-02
 cg2d: Sum(rhs),rhsMax =  -2.26516583268221E-11  3.99781641681184E-02
 cg2d: Sum(rhs),rhsMax =  -2.29314345290277E-11  3.95457011623059E-02
 cg2d: Sum(rhs),rhsMax =  -2.31359376101636E-11  3.90925909977099E-02
 cg2d: Sum(rhs),rhsMax =  -2.33575381258788E-11  3.86192691482510E-02
 cg2d: Sum(rhs),rhsMax =  -2.35672592552305E-11  3.81261864919972E-02
 cg2d: Sum(rhs),rhsMax =  -2.37866393248964E-11  3.76138080191033E-02
 cg2d: Sum(rhs),rhsMax =  -2.40505393378498E-11  3.70826115521592E-02
 cg2d: Sum(rhs),rhsMax =  -2.42447173448568E-11  3.65330864572137E-02
 cg2d: Sum(rhs),rhsMax =  -2.45083953132053E-11  3.59657323505743E-02
 cg2d: Sum(rhs),rhsMax =  -2.48598919228016E-11  3.53810578091817E-02
 cg2d: Sum(rhs),rhsMax =  -2.52666776390242E-11  3.47795790921220E-02
 cg2d: Sum(rhs),rhsMax =  -2.56806798049070E-11  3.41618188796688E-02
 cg2d: Sum(rhs),rhsMax =  -2.60717003541799E-11  3.35283050350870E-02
 cg2d: Sum(rhs),rhsMax =  -2.65433230950407E-11  3.28795693936647E-02
 cg2d: Sum(rhs),rhsMax =  -2.70189426387901E-11  3.22161465830991E-02
 cg2d: Sum(rhs),rhsMax =  -2.75625078316466E-11  3.15385728792564E-02
 cg2d: Sum(rhs),rhsMax =  -2.80804268726342E-11  3.08473851114301E-02
 cg2d: Sum(rhs),rhsMax =  -2.86580759123467E-11  3.01431195960344E-02
 cg2d: Sum(rhs),rhsMax =  -2.92653679068167E-11  2.94263111157680E-02
 cg2d: Sum(rhs),rhsMax =  -2.99260616287711E-11  2.86974919473444E-02
 cg2d: Sum(rhs),rhsMax =  -3.06630276725173E-11  2.79571909503610E-02
 cg2d: Sum(rhs),rhsMax =  -3.13933323781157E-11  2.72059327184945E-02
 cg2d: Sum(rhs),rhsMax =  -3.22643023409341E-11  2.64442367887245E-02
 cg2d: Sum(rhs),rhsMax =  -3.32284200155186E-11  2.56726169051700E-02
 cg2d: Sum(rhs),rhsMax =  -3.42176287304596E-11  2.48915803461459E-02
 cg2d: Sum(rhs),rhsMax =  -3.53050921830800E-11  2.41016273158285E-02
 cg2d: Sum(rhs),rhsMax =  -3.64543950581719E-11  2.33032504016483E-02
 cg2d: Sum(rhs),rhsMax =  -3.77426978559470E-11  2.24969340981000E-02
 cg2d: Sum(rhs),rhsMax =  -3.90637522329484E-11  2.16831543973797E-02
 cg2d: Sum(rhs),rhsMax =  -4.05432354355639E-11  2.08623784469578E-02
 cg2d: Sum(rhs),rhsMax =  -4.21928048055520E-11  2.00350642739648E-02
 cg2d: Sum(rhs),rhsMax =  -4.39420722031514E-11  1.92016605759486E-02
 cg2d: Sum(rhs),rhsMax =  -4.59011717524049E-11  1.83626065772742E-02
 cg2d: Sum(rhs),rhsMax =  -4.80785411482998E-11  1.75183319501162E-02
 cg2d: Sum(rhs),rhsMax =  -5.04601915807257E-11  1.66692567990541E-02
 cg2d: Sum(rhs),rhsMax =  -5.30584465252559E-11  1.58157917068392E-02
 cg2d: Sum(rhs),rhsMax =  -5.59816637490940E-11  1.49583378392944E-02
 cg2d: Sum(rhs),rhsMax =  -5.93266546999871E-11  1.40972871049846E-02
 cg2d: Sum(rhs),rhsMax =  -6.30915319987935E-11  1.32330223654109E-02
 cg2d: Sum(rhs),rhsMax =  -6.75035582986538E-11  1.23659177173655E-02
 cg2d: Sum(rhs),rhsMax =  -7.24953430619735E-11  1.14963388170198E-02
 cg2d: Sum(rhs),rhsMax =  -7.83634268586297E-11  1.06246432447559E-02
 cg2d: Sum(rhs),rhsMax =  -8.53227488661901E-11  9.75118091034294E-03
 cg2d: Sum(rhs),rhsMax =  -9.36593025357979E-11  8.87629449743610E-03
 cg2d: Sum(rhs),rhsMax =  -1.03795194661416E-10  8.00031994491838E-03
 cg2d: Sum(rhs),rhsMax =  -1.16428644503230E-10  7.12358696130806E-03
 cg2d: Sum(rhs),rhsMax =  -1.32664046414988E-10  6.24641956781254E-03
 cg2d: Sum(rhs),rhsMax =  -1.33704769478271E-10  6.19586283503173E-03
 cg2d: Sum(rhs),rhsMax =  -1.34299404930260E-10  6.16476685876038E-03
 cg2d: Sum(rhs),rhsMax =  -1.34872057966362E-10  6.13381327596055E-03
 cg2d: Sum(rhs),rhsMax =  -1.35505440201911E-10  6.10308203016753E-03
 cg2d: Sum(rhs),rhsMax =  -1.36114189364100E-10  6.07265088975739E-03
 cg2d: Sum(rhs),rhsMax =  -1.36695495200900E-10  6.04259419392638E-03
 cg2d: Sum(rhs),rhsMax =  -1.37331312988209E-10  6.01298268094237E-03
 cg2d: Sum(rhs),rhsMax =  -1.37932804067376E-10  5.98388533392303E-03
 cg2d: Sum(rhs),rhsMax =  -1.38441202945927E-10  5.95536511877526E-03
 cg2d: Sum(rhs),rhsMax =  -1.39064815218859E-10  5.92748159492278E-03
 cg2d: Sum(rhs),rhsMax =  -1.39578348878899E-10  5.90029159545947E-03
 cg2d: Sum(rhs),rhsMax =  -1.40131684034372E-10  5.87372248412979E-03
 cg2d: Sum(rhs),rhsMax =  -1.40550460159261E-10  5.84773188485030E-03
 cg2d: Sum(rhs),rhsMax =  -1.30703226020046E-10  6.28269687424840E-03
 cg2d: Sum(rhs),rhsMax =  -1.16292975249621E-10  7.04845552122901E-03
 cg2d: Sum(rhs),rhsMax =  -1.04892317054350E-10  7.81399934605082E-03
 cg2d: Sum(rhs),rhsMax =  -9.53611634102458E-11  8.59112076148645E-03
 cg2d: Sum(rhs),rhsMax =  -8.73967564984923E-11  9.36477052016928E-03
 cg2d: Sum(rhs),rhsMax =  -8.05943090043115E-11  1.01518799875274E-02
 cg2d: Sum(rhs),rhsMax =  -7.47798489797447E-11  1.09386588993633E-02
 cg2d: Sum(rhs),rhsMax =  -6.96863677873694E-11  1.17341640775711E-02
 cg2d: Sum(rhs),rhsMax =  -6.51545484231519E-11  1.25382508528394E-02
 cg2d: Sum(rhs),rhsMax =  -6.11695138985624E-11  1.33402587999060E-02
 cg2d: Sum(rhs),rhsMax =  -5.77017322811457E-11  1.41351367328465E-02
 cg2d: Sum(rhs),rhsMax =  -5.45382627947788E-11  1.49225286050437E-02
 cg2d: Sum(rhs),rhsMax =  -5.17594855864445E-11  1.57020731915263E-02
 cg2d: Sum(rhs),rhsMax =  -4.92735852120063E-11  1.64734041922820E-02
 cg2d: Sum(rhs),rhsMax =  -4.70503636051944E-11  1.72361503894302E-02
 cg2d: Sum(rhs),rhsMax =  -4.50337545032653E-11  1.79899358579875E-02
 cg2d: Sum(rhs),rhsMax =  -4.32149871443244E-11  1.87343802303651E-02
 cg2d: Sum(rhs),rhsMax =  -4.14999146158834E-11  1.94690990135412E-02
 cg2d: Sum(rhs),rhsMax =  -3.99801303174740E-11  2.01937039541632E-02
 cg2d: Sum(rhs),rhsMax =  -3.85829146409833E-11  2.09078034557051E-02
 cg2d: Sum(rhs),rhsMax =  -3.72861741482211E-11  2.16110030455794E-02
 cg2d: Sum(rhs),rhsMax =  -3.60993457348968E-11  2.23029058897442E-02
 cg2d: Sum(rhs),rhsMax =  -3.49453799231014E-11  2.29831133521715E-02
 cg2d: Sum(rhs),rhsMax =  -3.38874484029361E-11  2.36512255967830E-02
 cg2d: Sum(rhs),rhsMax =  -3.28866933685390E-11  2.43068422296090E-02
 cg2d: Sum(rhs),rhsMax =  -3.19329007680835E-11  2.49495629788847E-02
 cg2d: Sum(rhs),rhsMax =  -3.10612646714503E-11  2.55789884104979E-02
 cg2d: Sum(rhs),rhsMax =  -3.02192715295746E-11  2.61947206758415E-02
 cg2d: Sum(rhs),rhsMax =  -2.94800850397792E-11  2.67963642895585E-02
 cg2d: Sum(rhs),rhsMax =  -2.87869728055057E-11  2.73835269333085E-02
 cg2d: Sum(rhs),rhsMax =  -2.81462630979945E-11  2.79558202811235E-02
 cg2d: Sum(rhs),rhsMax =  -2.74651412723870E-11  2.85128608442840E-02
 cg2d: Sum(rhs),rhsMax =  -2.69059219348833E-11  2.90542708313395E-02
 cg2d: Sum(rhs),rhsMax =  -2.62944110929197E-11  2.95796790210369E-02
 cg2d: Sum(rhs),rhsMax =  -2.57099896927571E-11  3.00887216400299E-02
 cg2d: Sum(rhs),rhsMax =  -2.51904053172325E-11  3.05810432431580E-02
 cg2d: Sum(rhs),rhsMax =  -2.46692666294734E-11  3.10562975949894E-02
 cg2d: Sum(rhs),rhsMax =  -2.42974529385265E-11  3.15141485482611E-02
 cg2d: Sum(rhs),rhsMax =  -2.39654962541636E-11  3.19542709147757E-02
 cg2d: Sum(rhs),rhsMax =  -2.37054820217963E-11  3.23763513245108E-02
 cg2d: Sum(rhs),rhsMax =  -2.34400276966085E-11  3.27800890690122E-02
 cg2d: Sum(rhs),rhsMax =  -2.31834551556176E-11  3.31651969254009E-02
 cg2d: Sum(rhs),rhsMax =  -2.29787300298767E-11  3.35314019574773E-02
 cg2d: Sum(rhs),rhsMax =  -2.27836638444501E-11  3.38784462899693E-02
 cg2d: Sum(rhs),rhsMax =  -2.25985896662451E-11  3.42060878533391E-02
 cg2d: Sum(rhs),rhsMax =  -2.24775753565609E-11  3.45141010873240E-02
 cg2d: Sum(rhs),rhsMax =  -2.23826512879555E-11  3.48022776260487E-02
 cg2d: Sum(rhs),rhsMax =  -2.22984963826889E-11  3.50704269386277E-02
 cg2d: Sum(rhs),rhsMax =  -2.21709317571595E-11  3.53183769239419E-02
 cg2d: Sum(rhs),rhsMax =  -2.21159757174405E-11  3.55459744580166E-02
 cg2d: Sum(rhs),rhsMax =  -2.19996243444598E-11  3.57530858936116E-02
 cg2d: Sum(rhs),rhsMax =  -2.19532170220305E-11  3.59395975235993E-02
 cg2d: Sum(rhs),rhsMax =  -2.18987050715214E-11  3.61054159668016E-02
 cg2d: Sum(rhs),rhsMax =  -2.18498552584379E-11  3.62504685071080E-02
 cg2d: Sum(rhs),rhsMax =  -2.17542650560176E-11  3.63747033822602E-02
 cg2d: Sum(rhs),rhsMax =  -2.17408313574197E-11  3.64780900183231E-02
 cg2d: Sum(rhs),rhsMax =  -2.17248441458651E-11  3.65606192062166E-02
 cg2d: Sum(rhs),rhsMax =  -2.17245110789577E-11  3.66223032184828E-02
 cg2d: Sum(rhs),rhsMax =  -2.16953122134100E-11  3.66631758664566E-02
 cg2d: Sum(rhs),rhsMax =  -2.17288409487537E-11  3.66832924933554E-02
 cg2d: Sum(rhs),rhsMax =  -2.17247331235626E-11  3.66827299046644E-02
 cg2d: Sum(rhs),rhsMax =  -2.17431628257714E-11  3.66615862382535E-02
 cg2d: Sum(rhs),rhsMax =  -2.17939000179967E-11  3.66199807765178E-02
 cg2d: Sum(rhs),rhsMax =  -2.18257634188035E-11  3.65580537005631E-02
 cg2d: Sum(rhs),rhsMax =  -2.18686180275540E-11  3.64759657858134E-02
 cg2d: Sum(rhs),rhsMax =  -2.19052553873667E-11  3.63738980393132E-02
 cg2d: Sum(rhs),rhsMax =  -2.19684270774678E-11  3.62520512734374E-02
 cg2d: Sum(rhs),rhsMax =  -2.20493623359630E-11  3.61106456307053E-02
 cg2d: Sum(rhs),rhsMax =  -2.21276330591991E-11  3.59499200648924E-02
 cg2d: Sum(rhs),rhsMax =  -2.22339924249582E-11  3.57701317639950E-02
 cg2d: Sum(rhs),rhsMax =  -2.23574492252965E-11  3.55715555198990E-02
 cg2d: Sum(rhs),rhsMax =  -2.25048868429667E-11  3.53544830496223E-02
 cg2d: Sum(rhs),rhsMax =  -2.26653140700250E-11  3.51192222723739E-02
 cg2d: Sum(rhs),rhsMax =  -2.28720375972102E-11  3.48660965457023E-02
 cg2d: Sum(rhs),rhsMax =  -2.30847563287284E-11  3.45954438633394E-02
 cg2d: Sum(rhs),rhsMax =  -2.33029151530673E-11  3.43076160174595E-02
 cg2d: Sum(rhs),rhsMax =  -2.35500507983488E-11  3.40029777274258E-02
 cg2d: Sum(rhs),rhsMax =  -2.38122854767653E-11  3.36819057410204E-02
 cg2d: Sum(rhs),rhsMax =  -2.40603093004665E-11  3.33447879021274E-02
 cg2d: Sum(rhs),rhsMax =  -2.43939313193664E-11  3.29920221962669E-02
 cg2d: Sum(rhs),rhsMax =  -2.47216691562357E-11  3.26240157790293E-02
 cg2d: Sum(rhs),rhsMax =  -2.50558462866479E-11  3.22411839889382E-02
 cg2d: Sum(rhs),rhsMax =  -2.54111176545280E-11  3.18439493467086E-02
 cg2d: Sum(rhs),rhsMax =  -2.58278953779723E-11  3.14327405443826E-02
 cg2d: Sum(rhs),rhsMax =  -2.62601052014588E-11  3.10079914271475E-02
 cg2d: Sum(rhs),rhsMax =  -2.66960897832291E-11  3.05701399720666E-02
 cg2d: Sum(rhs),rhsMax =  -2.70963251836065E-11  3.01196272681795E-02
 cg2d: Sum(rhs),rhsMax =  -2.75327538545866E-11  2.96568965019789E-02
 cg2d: Sum(rhs),rhsMax =  -2.80536704977408E-11  2.91823919517409E-02
 cg2d: Sum(rhs),rhsMax =  -2.85874657279805E-11  2.86965579937834E-02
 cg2d: Sum(rhs),rhsMax =  -2.91138224639553E-11  2.81998381223485E-02
 cg2d: Sum(rhs),rhsMax =  -2.96769275820452E-11  2.76926739858285E-02
 cg2d: Sum(rhs),rhsMax =  -3.02942115837368E-11  2.71755044530985E-02
 cg2d: Sum(rhs),rhsMax =  -3.09360315142726E-11  2.66487646996643E-02
 cg2d: Sum(rhs),rhsMax =  -3.16765502716976E-11  2.61128853233733E-02
 cg2d: Sum(rhs),rhsMax =  -3.22861737345193E-11  2.56392631578810E-02
 cg2d: Sum(rhs),rhsMax =  -3.29379856722767E-11  2.51683549462528E-02
 cg2d: Sum(rhs),rhsMax =  -3.36760619390475E-11  2.46843726379042E-02
 cg2d: Sum(rhs),rhsMax =  -3.44310135957926E-11  2.41876838119932E-02
 cg2d: Sum(rhs),rhsMax =  -3.52425866267936E-11  2.36786608357931E-02
 cg2d: Sum(rhs),rhsMax =  -3.61530805292887E-11  2.31576801423185E-02
 cg2d: Sum(rhs),rhsMax =  -3.70805608440605E-11  2.26251215302090E-02
 cg2d: Sum(rhs),rhsMax =  -3.80867559712783E-11  2.20813674868071E-02
 cg2d: Sum(rhs),rhsMax =  -3.91572330116219E-11  2.15268025352316E-02
 cg2d: Sum(rhs),rhsMax =  -4.03034272622449E-11  2.09618125999656E-02
 cg2d: Sum(rhs),rhsMax =  -4.15859569002919E-11  2.03867844022048E-02
 cg2d: Sum(rhs),rhsMax =  -4.29138946600460E-11  1.98021048769282E-02
 cg2d: Sum(rhs),rhsMax =  -4.43476366740470E-11  1.92081606319740E-02
 cg2d: Sum(rhs),rhsMax =  -4.58236781852861E-11  1.86053374183507E-02
 cg2d: Sum(rhs),rhsMax =  -4.73997507910440E-11  1.79940196489067E-02
 cg2d: Sum(rhs),rhsMax =  -4.91562346383034E-11  1.73745899391174E-02
 cg2d: Sum(rhs),rhsMax =  -5.10500530737090E-11  1.67474286770981E-02
 cg2d: Sum(rhs),rhsMax =  -5.31445998319668E-11  1.61129136293859E-02
 cg2d: Sum(rhs),rhsMax =  -5.53566081862300E-11  1.54714195873719E-02
 cg2d: Sum(rhs),rhsMax =  -5.77790038036596E-11  1.48233180565161E-02
 cg2d: Sum(rhs),rhsMax =  -6.05200334291567E-11  1.41689769878082E-02
 cg2d: Sum(rhs),rhsMax =  -6.35581587360434E-11  1.35087605489367E-02
 cg2d: Sum(rhs),rhsMax =  -6.69273525488734E-11  1.28430289317637E-02
 cg2d: Sum(rhs),rhsMax =  -7.06252833992949E-11  1.21721381929609E-02
 cg2d: Sum(rhs),rhsMax =  -7.48279216367109E-11  1.14964401257520E-02
 cg2d: Sum(rhs),rhsMax =  -7.96015475756917E-11  1.08162821620815E-02
 cg2d: Sum(rhs),rhsMax =  -8.49980086314872E-11  1.01320073055887E-02
 cg2d: Sum(rhs),rhsMax =  -9.12061537405862E-11  9.44395409627255E-03
 cg2d: Sum(rhs),rhsMax =  -9.85223014282610E-11  8.75245660759827E-03
 cg2d: Sum(rhs),rhsMax =  -1.07101327806447E-10  8.05784447624027E-03
 cg2d: Sum(rhs),rhsMax =  -1.17338139205003E-10  7.36044296396726E-03
 cg2d: Sum(rhs),rhsMax =  -1.29769639478639E-10  6.66057305050847E-03
 cg2d: Sum(rhs),rhsMax =  -1.34001587603905E-10  6.45578216069105E-03
 cg2d: Sum(rhs),rhsMax =  -1.34096511672510E-10  6.45400333844019E-03
 cg2d: Sum(rhs),rhsMax =  -1.34189437339671E-10  6.45173405421014E-03
 cg2d: Sum(rhs),rhsMax =  -1.34282918118345E-10  6.44892198471747E-03
 cg2d: Sum(rhs),rhsMax =  -1.34400046647443E-10  6.44538813373559E-03
 cg2d: Sum(rhs),rhsMax =  -1.34570188325966E-10  6.44091090724429E-03
 cg2d: Sum(rhs),rhsMax =  -1.34753375125030E-10  6.43560219020425E-03
 cg2d: Sum(rhs),rhsMax =  -1.34806277252153E-10  6.42968664884142E-03
 cg2d: Sum(rhs),rhsMax =  -1.34995341294353E-10  6.42319921245333E-03
 cg2d: Sum(rhs),rhsMax =  -1.35258818034778E-10  6.41605906508835E-03
 cg2d: Sum(rhs),rhsMax =  -1.35489092167873E-10  6.40830294222217E-03
 cg2d: Sum(rhs),rhsMax =  -1.35767841413781E-10  6.40003762553035E-03
 cg2d: Sum(rhs),rhsMax =  -1.36083921908892E-10  6.39133704871564E-03
 cg2d: Sum(rhs),rhsMax =  -1.36266886663350E-10  6.38224405378020E-03
 cg2d: Sum(rhs),rhsMax =  -1.36495037494910E-10  6.37285654604068E-03
 cg2d: Sum(rhs),rhsMax =  -1.36651800985987E-10  6.36326901191832E-03
 cg2d: Sum(rhs),rhsMax =  -1.36919142690317E-10  6.35357176942757E-03
 cg2d: Sum(rhs),rhsMax =  -1.37157285529099E-10  6.34385179537248E-03
 cg2d: Sum(rhs),rhsMax =  -1.29742439014535E-10  6.70424347358634E-03
 cg2d: Sum(rhs),rhsMax =  -1.17744036742806E-10  7.39096944066317E-03
 cg2d: Sum(rhs),rhsMax =  -1.07815534278188E-10  8.07405150712970E-03
 cg2d: Sum(rhs),rhsMax =  -9.94633264639333E-11  8.75320810267498E-03
 cg2d: Sum(rhs),rhsMax =  -9.24904597354725E-11  9.42815682269158E-03
 cg2d: Sum(rhs),rhsMax =  -8.63793481187258E-11  1.00986142900669E-02
 cg2d: Sum(rhs),rhsMax =  -8.11604117245679E-11  1.07642960400595E-02
 cg2d: Sum(rhs),rhsMax =  -7.65685292947182E-11  1.14249164285959E-02
 cg2d: Sum(rhs),rhsMax =  -7.24642568172840E-11  1.20801885644852E-02
 cg2d: Sum(rhs),rhsMax =  -6.88342716159696E-11  1.27298242660811E-02
 cg2d: Sum(rhs),rhsMax =  -6.55477894184742E-11  1.33735340429799E-02
 cg2d: Sum(rhs),rhsMax =  -6.25969276413230E-11  1.40110271034966E-02
 cg2d: Sum(rhs),rhsMax =  -5.99565952441594E-11  1.46420113889843E-02
 cg2d: Sum(rhs),rhsMax =  -5.75824943283010E-11  1.52661936363573E-02
 cg2d: Sum(rhs),rhsMax =  -5.54054579993135E-11  1.58832794702782E-02
 cg2d: Sum(rhs),rhsMax =  -5.33810773362120E-11  1.64929735265171E-02
 cg2d: Sum(rhs),rhsMax =  -5.15536502376790E-11  1.70949796074763E-02
 cg2d: Sum(rhs),rhsMax =  -4.98894259237659E-11  1.76890008700701E-02
 cg2d: Sum(rhs),rhsMax =  -4.82158757364459E-11  1.83121798729922E-02
 cg2d: Sum(rhs),rhsMax =  -4.66451322012063E-11  1.89598918671016E-02
 cg2d: Sum(rhs),rhsMax =  -4.51501058762460E-11  1.96046810521833E-02
 cg2d: Sum(rhs),rhsMax =  -4.37567759803414E-11  2.02462721519545E-02
 cg2d: Sum(rhs),rhsMax =  -4.24882351524047E-11  2.08843775355283E-02
 cg2d: Sum(rhs),rhsMax =  -4.12541112382314E-11  2.15186974344529E-02
 cg2d: Sum(rhs),rhsMax =  -4.00968147573622E-11  2.21489202084105E-02
 cg2d: Sum(rhs),rhsMax =  -3.90227850033398E-11  2.27747226591447E-02
 cg2d: Sum(rhs),rhsMax =  -3.81004117144812E-11  2.33957703917477E-02
 cg2d: Sum(rhs),rhsMax =  -3.72140096516205E-11  2.40117182221199E-02
 cg2d: Sum(rhs),rhsMax =  -3.63672425507389E-11  2.46222106292513E-02
 cg2d: Sum(rhs),rhsMax =  -3.55752094449713E-11  2.52268822508958E-02
 cg2d: Sum(rhs),rhsMax =  -3.48265860594665E-11  2.58253584206764E-02
 cg2d: Sum(rhs),rhsMax =  -3.41159323014040E-11  2.64172557463439E-02
 cg2d: Sum(rhs),rhsMax =  -3.34245964239699E-11  2.70021827262509E-02
 cg2d: Sum(rhs),rhsMax =  -3.28154170503581E-11  2.75797404020534E-02
 cg2d: Sum(rhs),rhsMax =  -3.21677129377917E-11  2.81495230457393E-02
 cg2d: Sum(rhs),rhsMax =  -3.16073833772634E-11  2.87111188789593E-02
 cg2d: Sum(rhs),rhsMax =  -3.10861336672019E-11  2.92641108224196E-02
 cg2d: Sum(rhs),rhsMax =  -3.05724334737079E-11  2.98080772729470E-02
 cg2d: Sum(rhs),rhsMax =  -3.00700575550650E-11  3.03425929060078E-02
 cg2d: Sum(rhs),rhsMax =  -2.96219715423263E-11  3.08672295003954E-02
 cg2d: Sum(rhs),rhsMax =  -2.91696666820940E-11  3.13815567830135E-02
 cg2d: Sum(rhs),rhsMax =  -2.87534440701620E-11  3.18851432900797E-02
 cg2d: Sum(rhs),rhsMax =  -2.83694179259442E-11  3.23775572424821E-02
 cg2d: Sum(rhs),rhsMax =  -2.79856138263312E-11  3.28583674334155E-02
 cg2d: Sum(rhs),rhsMax =  -2.75679479244673E-11  3.33271441251343E-02
 cg2d: Sum(rhs),rhsMax =  -2.72909472798233E-11  3.37834599516684E-02
 cg2d: Sum(rhs),rhsMax =  -2.69958499998779E-11  3.42268908244580E-02
 cg2d: Sum(rhs),rhsMax =  -2.67215138904930E-11  3.46570168379363E-02
 cg2d: Sum(rhs),rhsMax =  -2.64434030228244E-11  3.50734231671868E-02
 cg2d: Sum(rhs),rhsMax =  -2.61798360767784E-11  3.54757009691818E-02
 cg2d: Sum(rhs),rhsMax =  -2.59329224761018E-11  3.58634482730338E-02
 cg2d: Sum(rhs),rhsMax =  -2.57017740423748E-11  3.62362708566709E-02
 cg2d: Sum(rhs),rhsMax =  -2.54616328021484E-11  3.65937831135850E-02
 cg2d: Sum(rhs),rhsMax =  -2.52439180670194E-11  3.69356088919573E-02
 cg2d: Sum(rhs),rhsMax =  -2.50444109894943E-11  3.72613823141862E-02
 cg2d: Sum(rhs),rhsMax =  -2.48390197299386E-11  3.75707485762450E-02
 cg2d: Sum(rhs),rhsMax =  -2.46598297337641E-11  3.78633647241519E-02
 cg2d: Sum(rhs),rhsMax =  -2.44865239196201E-11  3.81389004033308E-02
 cg2d: Sum(rhs),rhsMax =  -2.42897923996566E-11  3.83970385772348E-02
 cg2d: Sum(rhs),rhsMax =  -2.41653363985961E-11  3.86374762129014E-02
 cg2d: Sum(rhs),rhsMax =  -2.40427677766775E-11  3.88599249316199E-02
 cg2d: Sum(rhs),rhsMax =  -2.39136488389136E-11  3.90641116233264E-02
 cg2d: Sum(rhs),rhsMax =  -2.38402630969858E-11  3.92497790239704E-02
 cg2d: Sum(rhs),rhsMax =  -2.37098118915924E-11  3.94166862508013E-02
 cg2d: Sum(rhs),rhsMax =  -2.36691777288911E-11  3.95646092980706E-02
 cg2d: Sum(rhs),rhsMax =  -2.36026753697161E-11  3.96933414854447E-02
 cg2d: Sum(rhs),rhsMax =  -2.35981234553151E-11  3.98026938756460E-02
 cg2d: Sum(rhs),rhsMax =  -2.35464980846700E-11  3.98924956452225E-02
 cg2d: Sum(rhs),rhsMax =  -2.35004238291481E-11  3.99625944076151E-02
 cg2d: Sum(rhs),rhsMax =  -2.35055308550614E-11  4.00128564893067E-02
 cg2d: Sum(rhs),rhsMax =  -2.35281794047637E-11  4.00431671600200E-02
 cg2d: Sum(rhs),rhsMax =  -2.35433894602011E-11  4.00534308212592E-02
 cg2d: Sum(rhs),rhsMax =  -2.36058950164875E-11  4.00435711431600E-02
 cg2d: Sum(rhs),rhsMax =  -2.36953789922723E-11  4.00135311546662E-02
 cg2d: Sum(rhs),rhsMax =  -2.38038477817781E-11  3.99632732905257E-02
 cg2d: Sum(rhs),rhsMax =  -2.39214204000859E-11  3.98927793936115E-02
 cg2d: Sum(rhs),rhsMax =  -2.40504283155474E-11  3.98020506723352E-02
 cg2d: Sum(rhs),rhsMax =  -2.42161846131239E-11  3.96911076128497E-02
 cg2d: Sum(rhs),rhsMax =  -2.43616238293498E-11  3.95599898470951E-02
 cg2d: Sum(rhs),rhsMax =  -2.46210829502047E-11  3.94087559774970E-02
 cg2d: Sum(rhs),rhsMax =  -2.48226994514766E-11  3.92374833594031E-02
 cg2d: Sum(rhs),rhsMax =  -2.49967824217379E-11  3.90462678426627E-02
 cg2d: Sum(rhs),rhsMax =  -2.52278198331624E-11  3.88352234739567E-02
 cg2d: Sum(rhs),rhsMax =  -2.54642973374075E-11  3.86044821616175E-02
 cg2d: Sum(rhs),rhsMax =  -2.56945575927148E-11  3.83541933047950E-02
 cg2d: Sum(rhs),rhsMax =  -2.60171884036708E-11  3.80845233878797E-02
 cg2d: Sum(rhs),rhsMax =  -2.62199151279674E-11  3.77956555447719E-02
 cg2d: Sum(rhs),rhsMax =  -2.64861466092725E-11  3.74877890925896E-02
 cg2d: Sum(rhs),rhsMax =  -2.66358046729920E-11  3.71611390372038E-02
 cg2d: Sum(rhs),rhsMax =  -2.68371991296590E-11  3.68159355531576E-02
 cg2d: Sum(rhs),rhsMax =  -2.70194977503024E-11  3.64524234404588E-02
 cg2d: Sum(rhs),rhsMax =  -2.72104561105380E-11  3.60708615606271E-02
 cg2d: Sum(rhs),rhsMax =  -2.74109623887853E-11  3.56715222543046E-02
 cg2d: Sum(rhs),rhsMax =  -2.76215716965567E-11  3.52546907427683E-02
 cg2d: Sum(rhs),rhsMax =  -2.78661538288816E-11  3.48206645157358E-02
 cg2d: Sum(rhs),rhsMax =  -2.81134004964656E-11  3.43697527078935E-02
 cg2d: Sum(rhs),rhsMax =  -2.83699730374565E-11  3.39022754666042E-02
 cg2d: Sum(rhs),rhsMax =  -2.87362356132803E-11  3.34185633069670E-02
 cg2d: Sum(rhs),rhsMax =  -2.91141555308627E-11  3.29189564714452E-02
 cg2d: Sum(rhs),rhsMax =  -2.94949620283091E-11  3.24038042922437E-02
 cg2d: Sum(rhs),rhsMax =  -2.98967517409210E-11  3.18734645499299E-02
 cg2d: Sum(rhs),rhsMax =  -3.03750358199295E-11  3.13283028321014E-02
 cg2d: Sum(rhs),rhsMax =  -3.08757464040355E-11  3.07686918960704E-02
 cg2d: Sum(rhs),rhsMax =  -3.13689074715739E-11  3.01950110390358E-02
 cg2d: Sum(rhs),rhsMax =  -3.19216875155348E-11  2.96076454783963E-02
 cg2d: Sum(rhs),rhsMax =  -3.25042215365556E-11  2.90069857442178E-02
 cg2d: Sum(rhs),rhsMax =  -3.31522587160293E-11  2.83934270856294E-02
 cg2d: Sum(rhs),rhsMax =  -3.37926353566331E-11  2.77673688962027E-02
 cg2d: Sum(rhs),rhsMax =  -3.45007356017391E-11  2.71292141488281E-02
 cg2d: Sum(rhs),rhsMax =  -3.52607942843974E-11  2.64793688611067E-02
 cg2d: Sum(rhs),rhsMax =  -3.60909080399097E-11  2.58182415674632E-02
 cg2d: Sum(rhs),rhsMax =  -3.69657637833143E-11  2.51462428068578E-02
 cg2d: Sum(rhs),rhsMax =  -3.79754006019084E-11  2.44637846413356E-02
 cg2d: Sum(rhs),rhsMax =  -3.90329990551663E-11  2.37712802030766E-02
 cg2d: Sum(rhs),rhsMax =  -4.02202715577005E-11  2.30691432674118E-02
 cg2d: Sum(rhs),rhsMax =  -4.14516199143122E-11  2.23577878503364E-02
 cg2d: Sum(rhs),rhsMax =  -4.28062030266574E-11  2.16376278305062E-02
 cg2d: Sum(rhs),rhsMax =  -4.42325065463933E-11  2.09090765966058E-02
 cg2d: Sum(rhs),rhsMax =  -4.57970328326951E-11  2.01725467211596E-02
 cg2d: Sum(rhs),rhsMax =  -4.75244288367094E-11  1.94284496615667E-02
 cg2d: Sum(rhs),rhsMax =  -4.94193574951396E-11  1.86771954886931E-02
 cg2d: Sum(rhs),rhsMax =  -5.14244202776126E-11  1.79191926429925E-02
 cg2d: Sum(rhs),rhsMax =  -5.36698463449170E-11  1.71548477178570E-02
 cg2d: Sum(rhs),rhsMax =  -5.61867219417422E-11  1.63845652697750E-02
 cg2d: Sum(rhs),rhsMax =  -5.88579185389904E-11  1.56087476547486E-02
 cg2d: Sum(rhs),rhsMax =  -6.19040374516544E-11  1.48277948903646E-02
 cg2d: Sum(rhs),rhsMax =  -6.53472831402269E-11  1.40421045432305E-02
 cg2d: Sum(rhs),rhsMax =  -6.91866564039856E-11  1.32520716400364E-02
 cg2d: Sum(rhs),rhsMax =  -7.35074223712218E-11  1.24580886016117E-02
 cg2d: Sum(rhs),rhsMax =  -7.84878828596902E-11  1.16605451995189E-02
 cg2d: Sum(rhs),rhsMax =  -8.42108605070280E-11  1.08598285325337E-02
 cg2d: Sum(rhs),rhsMax =  -9.09213815347698E-11  1.00563230180598E-02
 cg2d: Sum(rhs),rhsMax =  -9.87530057727781E-11  9.25041042055527E-03
 cg2d: Sum(rhs),rhsMax =  -1.08134501353163E-10  8.44246989095991E-03
 cg2d: Sum(rhs),rhsMax =  -1.19535825682249E-10  7.63287801763834E-03
 cg2d: Sum(rhs),rhsMax =  -1.28319799230781E-10  7.10810528726968E-03
 cg2d: Sum(rhs),rhsMax =  -1.28440980073918E-10  7.09817089610884E-03
 cg2d: Sum(rhs),rhsMax =  -1.28510146968353E-10  7.08874156618292E-03
 cg2d: Sum(rhs),rhsMax =  -1.28572597013488E-10  7.07983866316111E-03
 cg2d: Sum(rhs),rhsMax =  -1.28644150887425E-10  7.07142158542589E-03
 cg2d: Sum(rhs),rhsMax =  -1.28667146381822E-10  7.06344819182900E-03
 cg2d: Sum(rhs),rhsMax =  -1.28753788880553E-10  7.05607014156522E-03
 cg2d: Sum(rhs),rhsMax =  -1.28865723647564E-10  7.04937354677905E-03
 cg2d: Sum(rhs),rhsMax =  -1.28930643938929E-10  7.04324996413432E-03
(PID.TID 0000.0001)      cg2d_init_res =   5.63382727978150E-01
(PID.TID 0000.0001)      cg2d_iters(min,last) =      -1      41
(PID.TID 0000.0001)      cg2d_last_res =   5.88987062714485E-14
(PID.TID 0000.0001) // =======================================================
(PID.TID 0000.0001) // Begin MONITOR dynamic field statistics
(PID.TID 0000.0001) // =======================================================
(PID.TID 0000.0001) %MON time_tsnumber                =                  1920
(PID.TID 0000.0001) %MON time_secondsf                =   2.8800000000000E+04
(PID.TID 0000.0001) %MON dynstat_eta_max              =   1.5391220912340E-03
(PID.TID 0000.0001) %MON dynstat_eta_min              =  -4.3416888237269E-03
(PID.TID 0000.0001) %MON dynstat_eta_mean             =   2.0725509924871E-15
(PID.TID 0000.0001) %MON dynstat_eta_sd               =   8.6447385599159E-04
(PID.TID 0000.0001) %MON dynstat_eta_del2             =   4.5187330677221E-06
(PID.TID 0000.0001) %MON dynstat_uvel_max             =   1.2809215470908E+00
(PID.TID 0000.0001) %MON dynstat_uvel_min             =   2.6961676200591E-03
(PID.TID 0000.0001) %MON dynstat_uvel_mean            =   5.6238895737303E-01
(PID.TID 0000.0001) %MON dynstat_uvel_sd              =   2.6379372266106E-02
(PID.TID 0000.0001) %MON dynstat_uvel_del2            =   3.2496631052766E-04
(PID.TID 0000.0001) %MON dynstat_vvel_max             =   0.0000000000000E+00
(PID.TID 0000.0001) %MON dynstat_vvel_min             =   0.0000000000000E+00
(PID.TID 0000.0001) %MON dynstat_vvel_mean            =   0.0000000000000E+00
(PID.TID 0000.0001) %MON dynstat_vvel_sd              =   0.0000000000000E+00
(PID.TID 0000.0001) %MON dynstat_vvel_del2            =   0.0000000000000E+00
(PID.TID 0000.0001) %MON dynstat_wvel_max             =   1.1664087373784E-02
(PID.TID 0000.0001) %MON dynstat_wvel_min             =  -7.8405368023031E-03
(PID.TID 0000.0001) %MON dynstat_wvel_mean            =  -4.5699954722512E-22
(PID.TID 0000.0001) %MON dynstat_wvel_sd              =   1.1680638623583E-03
(PID.TID 0000.0001) %MON dynstat_wvel_del2            =   2.7035410067600E-05
(PID.TID 0000.0001) %MON dynstat_theta_max            =   1.5000000000006E+01
(PID.TID 0000.0001) %MON dynstat_theta_min            =   9.9999999999966E+00
(PID.TID 0000.0001) %MON dynstat_theta_mean           =   1.4014110838828E+01
(PID.TID 0000.0001) %MON dynstat_theta_sd             =   1.9246867338894E+00
(PID.TID 0000.0001) %MON dynstat_theta_del2           =   2.4119589346862E-04
(PID.TID 0000.0001) %MON dynstat_salt_max             =   3.5000000000000E+01
(PID.TID 0000.0001) %MON dynstat_salt_min             =   3.5000000000000E+01
(PID.TID 0000.0001) %MON dynstat_salt_mean            =   3.5000000000000E+01
(PID.TID 0000.0001) %MON dynstat_salt_sd              =   4.1922021409846E-13
(PID.TID 0000.0001) %MON dynstat_salt_del2            =   0.0000000000000E+00
(PID.TID 0000.0001) %MON dynstat_sst_max              =   1.5000000000000E+01
(PID.TID 0000.0001) %MON dynstat_sst_min              =   1.5000000000000E+01
(PID.TID 0000.0001) %MON dynstat_sst_mean             =   1.5000000000000E+01
(PID.TID 0000.0001) %MON dynstat_sst_sd               =   1.4007931730302E-13
(PID.TID 0000.0001) %MON dynstat_sst_del2             =   2.6928848139573E-15
(PID.TID 0000.0001) %MON dynstat_sss_max              =   3.5000000000000E+01
(PID.TID 0000.0001) %MON dynstat_sss_min              =   3.5000000000000E+01
(PID.TID 0000.0001) %MON dynstat_sss_mean             =   3.5000000000000E+01
(PID.TID 0000.0001) %MON dynstat_sss_sd               =   2.8421709430404E-14
(PID.TID 0000.0001) %MON dynstat_sss_del2             =   0.0000000000000E+00
(PID.TID 0000.0001) %MON forcing_qnet_max             =   0.0000000000000E+00
(PID.TID 0000.0001) %MON forcing_qnet_min             =   0.0000000000000E+00
(PID.TID 0000.0001) %MON forcing_qnet_mean            =   0.0000000000000E+00
(PID.TID 0000.0001) %MON forcing_qnet_sd              =   0.0000000000000E+00
(PID.TID 0000.0001) %MON forcing_qnet_del2            =   0.0000000000000E+00
(PID.TID 0000.0001) %MON forcing_qsw_max              =   0.0000000000000E+00
(PID.TID 0000.0001) %MON forcing_qsw_min              =   0.0000000000000E+00
(PID.TID 0000.0001) %MON forcing_qsw_mean             =   0.0000000000000E+00
(PID.TID 0000.0001) %MON forcing_qsw_sd               =   0.0000000000000E+00
(PID.TID 0000.0001) %MON forcing_qsw_del2             =   0.0000000000000E+00
(PID.TID 0000.0001) %MON forcing_empmr_max            =   0.0000000000000E+00
(PID.TID 0000.0001) %MON forcing_empmr_min            =   0.0000000000000E+00
(PID.TID 0000.0001) %MON forcing_empmr_mean           =   0.0000000000000E+00
(PID.TID 0000.0001) %MON forcing_empmr_sd             =   0.0000000000000E+00
(PID.TID 0000.0001) %MON forcing_empmr_del2           =   0.0000000000000E+00
(PID.TID 0000.0001) %MON forcing_fu_max               =   0.0000000000000E+00
(PID.TID 0000.0001) %MON forcing_fu_min               =   0.0000000000000E+00
(PID.TID 0000.0001) %MON forcing_fu_mean              =   0.0000000000000E+00
(PID.TID 0000.0001) %MON forcing_fu_sd                =   0.0000000000000E+00
(PID.TID 0000.0001) %MON forcing_fu_del2              =   0.0000000000000E+00
(PID.TID 0000.0001) %MON forcing_fv_max               =   0.0000000000000E+00
(PID.TID 0000.0001) %MON forcing_fv_min               =   0.0000000000000E+00
(PID.TID 0000.0001) %MON forcing_fv_mean              =   0.0000000000000E+00
(PID.TID 0000.0001) %MON forcing_fv_sd                =   0.0000000000000E+00
(PID.TID 0000.0001) %MON forcing_fv_del2              =   0.0000000000000E+00
(PID.TID 0000.0001) %MON advcfl_uvel_max              =   9.2503540063389E-02
(PID.TID 0000.0001) %MON advcfl_vvel_max              =   0.0000000000000E+00
(PID.TID 0000.0001) %MON advcfl_wvel_max              =   5.2597087963552E-02
(PID.TID 0000.0001) %MON advcfl_W_hf_max              =   9.3467769167957E-02
(PID.TID 0000.0001) %MON pe_b_mean                    =   1.8366315982656E-08
(PID.TID 0000.0001) %MON ke_max                       =   4.1446569977495E-01
(PID.TID 0000.0001) %MON ke_mean                      =   1.5851212554403E-01
(PID.TID 0000.0001) %MON ke_vol                       =   9.7476098603737E+10
(PID.TID 0000.0001) %MON vort_r_min                   =   0.0000000000000E+00
(PID.TID 0000.0001) %MON vort_r_max                   =   0.0000000000000E+00
(PID.TID 0000.0001) %MON vort_a_mean                  =   0.0000000000000E+00
(PID.TID 0000.0001) %MON vort_a_sd                    =   0.0000000000000E+00
(PID.TID 0000.0001) %MON vort_p_mean                  =   0.0000000000000E+00
(PID.TID 0000.0001) %MON vort_p_sd                    =   0.0000000000000E+00
(PID.TID 0000.0001) %MON surfExpan_theta_mean         =  -3.6149657805765E-19
(PID.TID 0000.0001) %MON surfExpan_salt_mean          =  -5.7075956818890E-19
(PID.TID 0000.0001) // =======================================================
(PID.TID 0000.0001) // End MONITOR dynamic field statistics
(PID.TID 0000.0001) // =======================================================
(PID.TID 0000.0001) // =======================================================
(PID.TID 0000.0001) // Begin OBCS MONITOR field statistics
(PID.TID 0000.0001) // =======================================================
(PID.TID 0000.0001) %MON obc_E_uVel_max               =   5.6028564143658E-01
(PID.TID 0000.0001) %MON obc_E_uVel_min               =   5.6028564143658E-01
(PID.TID 0000.0001) %MON obc_E_uVel_mean              =   5.6028564143658E-01
(PID.TID 0000.0001) %MON obc_E_uVel_sd                =   1.0536712127724E-08
(PID.TID 0000.0001) %MON obc_E_uVel_Int               =   5.6028564143658E+05
(PID.TID 0000.0001) %MON obc_W_uVel_max               =   5.6028564143658E-01
(PID.TID 0000.0001) %MON obc_W_uVel_min               =   5.6028564143658E-01
(PID.TID 0000.0001) %MON obc_W_uVel_mean              =   5.6028564143658E-01
(PID.TID 0000.0001) %MON obc_W_uVel_sd                =   1.0536712127724E-08
(PID.TID 0000.0001) %MON obc_W_uVel_Int               =   5.6028564143658E+05
(PID.TID 0000.0001) // =======================================================
(PID.TID 0000.0001) // End OBCS MONITOR field statistics
(PID.TID 0000.0001) // =======================================================
 cg2d: Sum(rhs),rhsMax =  -1.28984267711019E-10  7.03764737308288E-03
 cg2d: Sum(rhs),rhsMax =  -1.28986321623614E-10  7.03251970348485E-03
 cg2d: Sum(rhs),rhsMax =  -1.29081467736825E-10  7.02781997732154E-03
 cg2d: Sum(rhs),rhsMax =  -1.29072308396871E-10  7.02349751609727E-03
 cg2d: Sum(rhs),rhsMax =  -1.29049104735657E-10  7.01949304853950E-03
 cg2d: Sum(rhs),rhsMax =  -1.28991817227586E-10  7.01576182694661E-03
 cg2d: Sum(rhs),rhsMax =  -1.28968946633279E-10  7.01226103016409E-03
 cg2d: Sum(rhs),rhsMax =  -1.28811183941480E-10  7.00894842785638E-03
 cg2d: Sum(rhs),rhsMax =  -1.28760557771557E-10  7.00661435358061E-03
 cg2d: Sum(rhs),rhsMax =  -1.16715526132793E-10  7.72135828833632E-03
 cg2d: Sum(rhs),rhsMax =  -1.06809228128668E-10  8.43563625731739E-03
 cg2d: Sum(rhs),rhsMax =  -9.83882975091888E-11  9.15871231992575E-03
 cg2d: Sum(rhs),rhsMax =  -9.10784780927543E-11  9.88290682095875E-03
 cg2d: Sum(rhs),rhsMax =  -8.47834025208272E-11  1.06124742079089E-02
 cg2d: Sum(rhs),rhsMax =  -7.92301779739546E-11  1.13492379475645E-02
 cg2d: Sum(rhs),rhsMax =  -7.43525241375664E-11  1.20832331984964E-02
 cg2d: Sum(rhs),rhsMax =  -7.00773883366423E-11  1.28096722109797E-02
 cg2d: Sum(rhs),rhsMax =  -6.62299104448039E-11  1.35282143164925E-02
 cg2d: Sum(rhs),rhsMax =  -6.28291862980745E-11  1.42385199724059E-02
 cg2d: Sum(rhs),rhsMax =  -5.98122662509581E-11  1.49402509031548E-02
 cg2d: Sum(rhs),rhsMax =  -5.70697933355291E-11  1.56330702618887E-02
 cg2d: Sum(rhs),rhsMax =  -5.45700151732831E-11  1.63166428125688E-02
 cg2d: Sum(rhs),rhsMax =  -5.23359133808299E-11  1.69906351323295E-02
 cg2d: Sum(rhs),rhsMax =  -5.03552755048986E-11  1.76547158337578E-02
 cg2d: Sum(rhs),rhsMax =  -4.84636775155423E-11  1.83085558067160E-02
 cg2d: Sum(rhs),rhsMax =  -4.67657024216805E-11  1.89518284789645E-02
 cg2d: Sum(rhs),rhsMax =  -4.52687887175784E-11  1.95842100957793E-02
 cg2d: Sum(rhs),rhsMax =  -4.38432623539597E-11  2.02053800153586E-02
 cg2d: Sum(rhs),rhsMax =  -4.25247614899149E-11  2.08150210189774E-02
 cg2d: Sum(rhs),rhsMax =  -4.12885281519948E-11  2.14128196377617E-02
 cg2d: Sum(rhs),rhsMax =  -4.01093602775404E-11  2.19984664942868E-02
 cg2d: Sum(rhs),rhsMax =  -3.90016907658719E-11  2.25716566570802E-02
 cg2d: Sum(rhs),rhsMax =  -3.79960507501664E-11  2.31320900063400E-02
 cg2d: Sum(rhs),rhsMax =  -3.70456998410873E-11  2.36794716095017E-02
 cg2d: Sum(rhs),rhsMax =  -3.61446428343015E-11  2.42135121054669E-02
 cg2d: Sum(rhs),rhsMax =  -3.52647910872861E-11  2.47339280959495E-02
 cg2d: Sum(rhs),rhsMax =  -3.45096173859361E-11  2.52404425433780E-02
 cg2d: Sum(rhs),rhsMax =  -3.37598837774067E-11  2.57327851770168E-02
 cg2d: Sum(rhs),rhsMax =  -3.30585558927510E-11  2.62106928961111E-02
 cg2d: Sum(rhs),rhsMax =  -3.24090754233453E-11  2.66739101754547E-02
 cg2d: Sum(rhs),rhsMax =  -3.17798010129877E-11  2.71221894721114E-02
 cg2d: Sum(rhs),rhsMax =  -3.11821679588320E-11  2.75552916311182E-02
 cg2d: Sum(rhs),rhsMax =  -3.05565572844557E-11  2.79729862877607E-02
 cg2d: Sum(rhs),rhsMax =  -2.99910096757117E-11  2.83750522643177E-02
 cg2d: Sum(rhs),rhsMax =  -2.94614332929655E-11  2.87612779595410E-02
 cg2d: Sum(rhs),rhsMax =  -2.89853696600062E-11  2.91314617293184E-02
 cg2d: Sum(rhs),rhsMax =  -2.85549361933590E-11  2.94854122569861E-02
 cg2d: Sum(rhs),rhsMax =  -2.82361911629891E-11  2.98229489093620E-02
 cg2d: Sum(rhs),rhsMax =  -2.78896905570036E-11  3.01439020773445E-02
 cg2d: Sum(rhs),rhsMax =  -2.76433320678393E-11  3.04481135123012E-02
 cg2d: Sum(rhs),rhsMax =  -2.73971956232799E-11  3.07354366422936E-02
 cg2d: Sum(rhs),rhsMax =  -2.71394018369620E-11  3.10057368679258E-02
 cg2d: Sum(rhs),rhsMax =  -2.69596567292751E-11  3.12588918367269E-02
 cg2d: Sum(rhs),rhsMax =  -2.67543764920219E-11  3.14947917007777E-02
 cg2d: Sum(rhs),rhsMax =  -2.66192623499251E-11  3.17133393521046E-02
 cg2d: Sum(rhs),rhsMax =  -2.64870347876922E-11  3.19144506235819E-02
 cg2d: Sum(rhs),rhsMax =  -2.63603583405825E-11  3.20980544719085E-02
 cg2d: Sum(rhs),rhsMax =  -2.62815325058341E-11  3.22640931399286E-02
 cg2d: Sum(rhs),rhsMax =  -2.61868304818336E-11  3.24125222952634E-02
 cg2d: Sum(rhs),rhsMax =  -2.61662913558780E-11  3.25433111426531E-02
 cg2d: Sum(rhs),rhsMax =  -2.60932386808577E-11  3.26564425083905E-02
 cg2d: Sum(rhs),rhsMax =  -2.60476085145456E-11  3.27519128961063E-02
 cg2d: Sum(rhs),rhsMax =  -2.60651500383347E-11  3.28297325147672E-02
 cg2d: Sum(rhs),rhsMax =  -2.61245469701521E-11  3.28899252764388E-02
 cg2d: Sum(rhs),rhsMax =  -2.61682897573223E-11  3.29325287627893E-02
 cg2d: Sum(rhs),rhsMax =  -2.61672905566002E-11  3.29575941664317E-02
 cg2d: Sum(rhs),rhsMax =  -2.61907162624198E-11  3.29651861992289E-02
 cg2d: Sum(rhs),rhsMax =  -2.62286858898619E-11  3.29553829723715E-02
 cg2d: Sum(rhs),rhsMax =  -2.62656563165820E-11  3.29282758478628E-02
 cg2d: Sum(rhs),rhsMax =  -2.63586930060455E-11  3.28839692499068E-02
 cg2d: Sum(rhs),rhsMax =  -2.64467336918983E-11  3.28225804671176E-02
 cg2d: Sum(rhs),rhsMax =  -2.65264477050664E-11  3.27442394225561E-02
 cg2d: Sum(rhs),rhsMax =  -2.66111577218453E-11  3.26490884108754E-02
 cg2d: Sum(rhs),rhsMax =  -2.66872079990321E-11  3.25372818057499E-02
 cg2d: Sum(rhs),rhsMax =  -2.67981192791922E-11  3.24089857408190E-02
 cg2d: Sum(rhs),rhsMax =  -2.69322342205669E-11  3.22643777664663E-02
 cg2d: Sum(rhs),rhsMax =  -2.70190536610926E-11  3.21036464837972E-02
 cg2d: Sum(rhs),rhsMax =  -2.72158962033586E-11  3.19269911566574E-02
 cg2d: Sum(rhs),rhsMax =  -2.73949751772307E-11  3.17346213024124E-02
 cg2d: Sum(rhs),rhsMax =  -2.75971467900149E-11  3.15267562652697E-02
 cg2d: Sum(rhs),rhsMax =  -2.78416179000374E-11  3.13036247660211E-02
 cg2d: Sum(rhs),rhsMax =  -2.80735434898816E-11  3.10654644344638E-02
 cg2d: Sum(rhs),rhsMax =  -2.83485457330812E-11  3.08125213282829E-02
 cg2d: Sum(rhs),rhsMax =  -2.86449752806561E-11  3.05450494383635E-02
 cg2d: Sum(rhs),rhsMax =  -2.89622770210940E-11  3.02633101812600E-02
 cg2d: Sum(rhs),rhsMax =  -2.93484125890586E-11  2.99675718800511E-02
 cg2d: Sum(rhs),rhsMax =  -2.97364355361651E-11  2.96581092355685E-02
 cg2d: Sum(rhs),rhsMax =  -3.01035862904087E-11  2.93352027897421E-02
 cg2d: Sum(rhs),rhsMax =  -3.05659941801650E-11  2.89991383827854E-02
 cg2d: Sum(rhs),rhsMax =  -3.10300674044584E-11  2.86502066058794E-02
 cg2d: Sum(rhs),rhsMax =  -3.14818171531783E-11  2.82887022510299E-02
 cg2d: Sum(rhs),rhsMax =  -3.19022586126039E-11  2.79149237597838E-02
 cg2d: Sum(rhs),rhsMax =  -3.23896465204143E-11  2.75291726726423E-02
 cg2d: Sum(rhs),rhsMax =  -3.29061222714699E-11  2.71317530810018E-02
 cg2d: Sum(rhs),rhsMax =  -3.34536842672151E-11  2.67229710832585E-02
 cg2d: Sum(rhs),rhsMax =  -3.40371064666556E-11  2.63031342454215E-02
 cg2d: Sum(rhs),rhsMax =  -3.46626061187294E-11  2.58725510729690E-02
 cg2d: Sum(rhs),rhsMax =  -3.53190809931903E-11  2.54315304906001E-02
 cg2d: Sum(rhs),rhsMax =  -3.59954288597919E-11  2.49803813319694E-02
 cg2d: Sum(rhs),rhsMax =  -3.67323949035381E-11  2.45194118416700E-02
 cg2d: Sum(rhs),rhsMax =  -3.75267594776574E-11  2.40489291915323E-02
 cg2d: Sum(rhs),rhsMax =  -3.83659770619715E-11  2.35692390129179E-02
 cg2d: Sum(rhs),rhsMax =  -3.92708088270410E-11  2.30806449459403E-02
 cg2d: Sum(rhs),rhsMax =  -4.01744193467835E-11  2.25834482048484E-02
 cg2d: Sum(rhs),rhsMax =  -4.11742862027609E-11  2.20779471733192E-02
 cg2d: Sum(rhs),rhsMax =  -4.22103463293411E-11  2.15644370110408E-02
 cg2d: Sum(rhs),rhsMax =  -4.33467706173474E-11  2.10432092826203E-02
 cg2d: Sum(rhs),rhsMax =  -4.45361525436283E-11  2.05145516100946E-02
 cg2d: Sum(rhs),rhsMax =  -4.58709736861351E-11  1.99787473500234E-02
 cg2d: Sum(rhs),rhsMax =  -4.71639394206136E-11  1.94674614524066E-02
 cg2d: Sum(rhs),rhsMax =  -4.85087525703420E-11  1.89604787188771E-02
 cg2d: Sum(rhs),rhsMax =  -4.99764674088965E-11  1.84440330003081E-02
 cg2d: Sum(rhs),rhsMax =  -5.14898124137630E-11  1.79184331246728E-02
 cg2d: Sum(rhs),rhsMax =  -5.31231725275916E-11  1.73839908790724E-02
 cg2d: Sum(rhs),rhsMax =  -5.48555645352167E-11  1.68410206731172E-02
 cg2d: Sum(rhs),rhsMax =  -5.67690339181581E-11  1.62898391887174E-02
 cg2d: Sum(rhs),rhsMax =  -5.88082915697896E-11  1.57307650278674E-02
 cg2d: Sum(rhs),rhsMax =  -6.10552719493285E-11  1.51641183753141E-02
 cg2d: Sum(rhs),rhsMax =  -6.35168584395274E-11  1.45902206977579E-02
 cg2d: Sum(rhs),rhsMax =  -6.62093713188483E-11  1.40093944639021E-02
 cg2d: Sum(rhs),rhsMax =  -6.91892099169422E-11  1.34219628972525E-02
 cg2d: Sum(rhs),rhsMax =  -7.24101889559847E-11  1.28282497570127E-02
 cg2d: Sum(rhs),rhsMax =  -7.59504681369094E-11  1.22285791329864E-02
 cg2d: Sum(rhs),rhsMax =  -7.99037502829947E-11  1.16232752547037E-02
 cg2d: Sum(rhs),rhsMax =  -8.44222469709166E-11  1.10126623169353E-02
 cg2d: Sum(rhs),rhsMax =  -8.94754270674980E-11  1.03970643191057E-02
 cg2d: Sum(rhs),rhsMax =  -9.52775636164915E-11  9.77680491421297E-03
 cg2d: Sum(rhs),rhsMax =  -1.01876618252561E-10  9.15220726488630E-03
 cg2d: Sum(rhs),rhsMax =  -1.09339537424091E-10  8.52359390804916E-03
 cg2d: Sum(rhs),rhsMax =  -1.18261178627677E-10  7.89128663223777E-03
 cg2d: Sum(rhs),rhsMax =  -1.20031318218139E-10  7.77185375402474E-03
 cg2d: Sum(rhs),rhsMax =  -1.20361387523360E-10  7.75620339297088E-03
 cg2d: Sum(rhs),rhsMax =  -1.20680687665242E-10  7.74012455837149E-03
 cg2d: Sum(rhs),rhsMax =  -1.20947363235757E-10  7.72367970066935E-03
 cg2d: Sum(rhs),rhsMax =  -1.21197940572415E-10  7.70693577989252E-03
 cg2d: Sum(rhs),rhsMax =  -1.21514798223643E-10  7.68997157517174E-03
 cg2d: Sum(rhs),rhsMax =  -1.21872012481816E-10  7.67286372433438E-03
 cg2d: Sum(rhs),rhsMax =  -1.22166499139098E-10  7.65568145023122E-03
 cg2d: Sum(rhs),rhsMax =  -1.22455601214710E-10  7.63848936723180E-03
 cg2d: Sum(rhs),rhsMax =  -1.22737292551633E-10  7.62134670883060E-03
 cg2d: Sum(rhs),rhsMax =  -1.23077228963986E-10  7.60430733686499E-03
 cg2d: Sum(rhs),rhsMax =  -1.23412616931384E-10  7.58742019896462E-03
 cg2d: Sum(rhs),rhsMax =  -1.23747428970589E-10  7.57072949471663E-03
 cg2d: Sum(rhs),rhsMax =  -1.24051269256853E-10  7.55422063440941E-03
 cg2d: Sum(rhs),rhsMax =  -1.24326465789082E-10  7.53794377863196E-03
 cg2d: Sum(rhs),rhsMax =  -1.24715904270545E-10  7.52194849493277E-03
 cg2d: Sum(rhs),rhsMax =  -1.24971533121965E-10  7.50628449695744E-03
 cg2d: Sum(rhs),rhsMax =  -1.25167098907752E-10  7.49101979407445E-03
 cg2d: Sum(rhs),rhsMax =  -1.25446653065353E-10  7.47618472161168E-03
 cg2d: Sum(rhs),rhsMax =  -1.25717880550269E-10  7.46180258809610E-03
 cg2d: Sum(rhs),rhsMax =  -1.25939259021379E-10  7.44789461768192E-03
 cg2d: Sum(rhs),rhsMax =  -1.26236132658164E-10  7.43447468698247E-03
 cg2d: Sum(rhs),rhsMax =  -1.26176291637137E-10  7.44171343923789E-03
 cg2d: Sum(rhs),rhsMax =  -1.16759379942266E-10  8.04540574248699E-03
 cg2d: Sum(rhs),rhsMax =  -1.08603792625672E-10  8.65137274288994E-03
 cg2d: Sum(rhs),rhsMax =  -1.01530450713483E-10  9.26684332816697E-03
 cg2d: Sum(rhs),rhsMax =  -9.51980716479284E-11  9.89279767562115E-03
 cg2d: Sum(rhs),rhsMax =  -8.95450380511420E-11  1.05322527630917E-02
 cg2d: Sum(rhs),rhsMax =  -8.44663228249942E-11  1.11713017134067E-02
 cg2d: Sum(rhs),rhsMax =  -8.00375321574620E-11  1.18083972011713E-02
 cg2d: Sum(rhs),rhsMax =  -7.60393970011819E-11  1.24433525088572E-02
 cg2d: Sum(rhs),rhsMax =  -7.24050819300714E-11  1.30759753177529E-02
 cg2d: Sum(rhs),rhsMax =  -6.91030566102313E-11  1.37060675633904E-02
 cg2d: Sum(rhs),rhsMax =  -6.61456445172348E-11  1.43334253150257E-02
 cg2d: Sum(rhs),rhsMax =  -6.34088337392313E-11  1.49578386797717E-02
 cg2d: Sum(rhs),rhsMax =  -6.09131634021765E-11  1.55790917319533E-02
 cg2d: Sum(rhs),rhsMax =  -5.86366510901826E-11  1.61969624682695E-02
 cg2d: Sum(rhs),rhsMax =  -5.65536506513808E-11  1.68112227890381E-02
 cg2d: Sum(rhs),rhsMax =  -5.45745670876840E-11  1.74216385054740E-02
 cg2d: Sum(rhs),rhsMax =  -5.27812238360070E-11  1.80279693724920E-02
 cg2d: Sum(rhs),rhsMax =  -5.10333997283396E-11  1.86299691509883E-02
 cg2d: Sum(rhs),rhsMax =  -4.94817520291235E-11  1.92273856960141E-02
 cg2d: Sum(rhs),rhsMax =  -4.80417927661847E-11  1.98199610710401E-02
 cg2d: Sum(rhs),rhsMax =  -4.66758853789884E-11  2.04074316884439E-02
 cg2d: Sum(rhs),rhsMax =  -4.53892479157503E-11  2.09895284762081E-02
 cg2d: Sum(rhs),rhsMax =  -4.42174075132584E-11  2.15659770705841E-02
 cg2d: Sum(rhs),rhsMax =  -4.31255031685396E-11  2.21364980342666E-02
 cg2d: Sum(rhs),rhsMax =  -4.21539469996901E-11  2.27008070994631E-02
 cg2d: Sum(rhs),rhsMax =  -4.12452294540344E-11  2.32586154348024E-02
 cg2d: Sum(rhs),rhsMax =  -4.03322930608851E-11  2.38096299359447E-02
 cg2d: Sum(rhs),rhsMax =  -3.95361521299264E-11  2.43535535393900E-02
 cg2d: Sum(rhs),rhsMax =  -3.87455623140909E-11  2.48900855568604E-02
 cg2d: Sum(rhs),rhsMax =  -3.80293574409052E-11  2.54189220302856E-02
 cg2d: Sum(rhs),rhsMax =  -3.73296948907864E-11  2.59397561067573E-02
 cg2d: Sum(rhs),rhsMax =  -3.66907615401146E-11  2.64522784318211E-02
 cg2d: Sum(rhs),rhsMax =  -3.60528273901650E-11  2.69561775606225E-02
 cg2d: Sum(rhs),rhsMax =  -3.54759555065698E-11  2.74511403856420E-02
 cg2d: Sum(rhs),rhsMax =  -3.49261730647754E-11  2.79368525779607E-02
 cg2d: Sum(rhs),rhsMax =  -3.43806094704746E-11  2.84129990432716E-02
 cg2d: Sum(rhs),rhsMax =  -3.38808980870908E-11  2.88792643912418E-02
 cg2d: Sum(rhs),rhsMax =  -3.33957306253296E-11  2.93353334167105E-02
 cg2d: Sum(rhs),rhsMax =  -3.29140048549448E-11  2.97808915912002E-02
 cg2d: Sum(rhs),rhsMax =  -3.24770210724523E-11  3.02156255602665E-02
 cg2d: Sum(rhs),rhsMax =  -3.20712345569518E-11  3.06392236528598E-02
 cg2d: Sum(rhs),rhsMax =  -3.16998649552147E-11  3.10513763975227E-02
 cg2d: Sum(rhs),rhsMax =  -3.13491455017356E-11  3.14517770413590E-02
 cg2d: Sum(rhs),rhsMax =  -3.10387271440504E-11  3.18401220749323E-02
 cg2d: Sum(rhs),rhsMax =  -3.07600611648695E-11  3.22161117514637E-02
 cg2d: Sum(rhs),rhsMax =  -3.04719582899793E-11  3.25794506052332E-02
 cg2d: Sum(rhs),rhsMax =  -3.02251557116051E-11  3.29298479694321E-02
 cg2d: Sum(rhs),rhsMax =  -2.99554825389237E-11  3.32670184923887E-02
 cg2d: Sum(rhs),rhsMax =  -2.97096791612717E-11  3.35906826495649E-02
 cg2d: Sum(rhs),rhsMax =  -2.94929636268648E-11  3.39005672488394E-02
 cg2d: Sum(rhs),rhsMax =  -2.92708079996373E-11  3.41964059270751E-02
 cg2d: Sum(rhs),rhsMax =  -2.90399926328178E-11  3.44779396364734E-02
 cg2d: Sum(rhs),rhsMax =  -2.88385981761508E-11  3.47449171194854E-02
 cg2d: Sum(rhs),rhsMax =  -2.86500823065694E-11  3.49970953707471E-02
 cg2d: Sum(rhs),rhsMax =  -2.84511303405566E-11  3.52342400863237E-02
 cg2d: Sum(rhs),rhsMax =  -2.83143508639228E-11  3.54561260990907E-02
 cg2d: Sum(rhs),rhsMax =  -2.81275003288783E-11  3.56625377901694E-02
 cg2d: Sum(rhs),rhsMax =  -2.79485323773088E-11  3.58532694942919E-02
 cg2d: Sum(rhs),rhsMax =  -2.77855516372938E-11  3.60281258856780E-02
 cg2d: Sum(rhs),rhsMax =  -2.76330069937103E-11  3.61869223431588E-02
 cg2d: Sum(rhs),rhsMax =  -2.75153233531000E-11  3.63294852930023E-02
 cg2d: Sum(rhs),rhsMax =  -2.74464895255733E-11  3.64556525312538E-02
 cg2d: Sum(rhs),rhsMax =  -2.73913114412494E-11  3.65652735252322E-02
 cg2d: Sum(rhs),rhsMax =  -2.73848721477066E-11  3.66582096933837E-02
 cg2d: Sum(rhs),rhsMax =  -2.73276956619384E-11  3.67343346625128E-02
 cg2d: Sum(rhs),rhsMax =  -2.72970535064587E-11  3.67935345014736E-02
 cg2d: Sum(rhs),rhsMax =  -2.72986078186932E-11  3.68357079305971E-02
 cg2d: Sum(rhs),rhsMax =  -2.73002731532301E-11  3.68607665063620E-02
 cg2d: Sum(rhs),rhsMax =  -2.73426836727708E-11  3.68686347821315E-02
 cg2d: Sum(rhs),rhsMax =  -2.74250622211980E-11  3.68592504427707E-02
 cg2d: Sum(rhs),rhsMax =  -2.74825717738736E-11  3.68325644110797E-02
 cg2d: Sum(rhs),rhsMax =  -2.75787170878061E-11  3.67885409312389E-02
 cg2d: Sum(rhs),rhsMax =  -2.76846323643554E-11  3.67271576271617E-02
 cg2d: Sum(rhs),rhsMax =  -2.78489453719999E-11  3.66484055358072E-02
 cg2d: Sum(rhs),rhsMax =  -2.79780643097638E-11  3.65522891154773E-02
 cg2d: Sum(rhs),rhsMax =  -2.81342726893286E-11  3.64388262294644E-02
 cg2d: Sum(rhs),rhsMax =  -2.82556200659201E-11  3.63080481056172E-02
 cg2d: Sum(rhs),rhsMax =  -2.84217094304040E-11  3.61599992724540E-02
 cg2d: Sum(rhs),rhsMax =  -2.85517165465876E-11  3.59947374725347E-02
 cg2d: Sum(rhs),rhsMax =  -2.88226109645962E-11  3.58123335538023E-02
 cg2d: Sum(rhs),rhsMax =  -2.90214519083065E-11  3.56128713396629E-02
 cg2d: Sum(rhs),rhsMax =  -2.91451307532498E-11  3.53964474785877E-02
 cg2d: Sum(rhs),rhsMax =  -2.94366753195163E-11  3.51631712741593E-02
 cg2d: Sum(rhs),rhsMax =  -2.96120905574071E-11  3.49131644965365E-02
 cg2d: Sum(rhs),rhsMax =  -2.97343261124183E-11  3.46465611758663E-02
 cg2d: Sum(rhs),rhsMax =  -2.98936431164520E-11  3.43635073786780E-02
 cg2d: Sum(rhs),rhsMax =  -3.00438562916838E-11  3.40641609682869E-02
 cg2d: Sum(rhs),rhsMax =  -3.02848857103299E-11  3.37486913500858E-02
 cg2d: Sum(rhs),rhsMax =  -3.04565261899370E-11  3.34172792026119E-02
 cg2d: Sum(rhs),rhsMax =  -3.06999980992373E-11  3.30701161953302E-02
 cg2d: Sum(rhs),rhsMax =  -3.09113845631259E-11  3.27074046940937E-02
 cg2d: Sum(rhs),rhsMax =  -3.11104475514412E-11  3.23293574552784E-02
 cg2d: Sum(rhs),rhsMax =  -3.13687964492715E-11  3.19361973096058E-02
 cg2d: Sum(rhs),rhsMax =  -3.17021964235664E-11  3.15281568366725E-02
 cg2d: Sum(rhs),rhsMax =  -3.20946602627714E-11  3.11054780312486E-02
 cg2d: Sum(rhs),rhsMax =  -3.24729132472612E-11  3.06684119624248E-02
 cg2d: Sum(rhs),rhsMax =  -3.29212213046048E-11  3.02172184267383E-02
 cg2d: Sum(rhs),rhsMax =  -3.33725269641150E-11  2.97521655935303E-02
 cg2d: Sum(rhs),rhsMax =  -3.38447048164880E-11  2.92735296467232E-02
 cg2d: Sum(rhs),rhsMax =  -3.43621797682658E-11  2.87815944338935E-02
 cg2d: Sum(rhs),rhsMax =  -3.49570372648600E-11  2.82766511117498E-02
 cg2d: Sum(rhs),rhsMax =  -3.54827278670200E-11  2.77589977834233E-02
 cg2d: Sum(rhs),rhsMax =  -3.61121132996800E-11  2.72289391365588E-02
 cg2d: Sum(rhs),rhsMax =  -3.67458286021360E-11  2.66867860841508E-02
 cg2d: Sum(rhs),rhsMax =  -3.74569264494085E-11  2.61328554092672E-02
 cg2d: Sum(rhs),rhsMax =  -3.82069931248452E-11  2.55674694141972E-02
 cg2d: Sum(rhs),rhsMax =  -3.90106835723714E-11  2.49909555744088E-02
 cg2d: Sum(rhs),rhsMax =  -3.98852062488686E-11  2.44036461978061E-02
 cg2d: Sum(rhs),rhsMax =  -4.07889277909135E-11  2.38058780898747E-02
 cg2d: Sum(rhs),rhsMax =  -4.17527123985906E-11  2.31979922267429E-02
 cg2d: Sum(rhs),rhsMax =  -4.28914681549486E-11  2.25803334428212E-02
 cg2d: Sum(rhs),rhsMax =  -4.40572023308050E-11  2.19532501080111E-02
 cg2d: Sum(rhs),rhsMax =  -4.53261872479516E-11  2.13170938165681E-02
 cg2d: Sum(rhs),rhsMax =  -4.67128558057084E-11  2.06722190904037E-02
 cg2d: Sum(rhs),rhsMax =  -4.82103246213228E-11  2.00189830944543E-02
 cg2d: Sum(rhs),rhsMax =  -4.98379115754233E-11  1.93577453620260E-02
 cg2d: Sum(rhs),rhsMax =  -5.15818499025045E-11  1.86888675291133E-02
 cg2d: Sum(rhs),rhsMax =  -5.35002042667543E-11  1.80127130777706E-02
 cg2d: Sum(rhs),rhsMax =  -5.55404611191079E-11  1.73296470891720E-02
 cg2d: Sum(rhs),rhsMax =  -5.77810022051040E-11  1.66400360070646E-02
 cg2d: Sum(rhs),rhsMax =  -6.02726757392702E-11  1.59442474121140E-02
 cg2d: Sum(rhs),rhsMax =  -6.29547525221597E-11  1.52426498073563E-02
 cg2d: Sum(rhs),rhsMax =  -6.59443610828703E-11  1.45356124147789E-02
 cg2d: Sum(rhs),rhsMax =  -6.92681467739931E-11  1.38235049828999E-02
 cg2d: Sum(rhs),rhsMax =  -7.29688531819761E-11  1.31066976051326E-02
 cg2d: Sum(rhs),rhsMax =  -7.71279706768269E-11  1.23855605486792E-02
 cg2d: Sum(rhs),rhsMax =  -8.18587420070571E-11  1.16604640940454E-02
 cg2d: Sum(rhs),rhsMax =  -8.72509842153590E-11  1.09317783838491E-02
 cg2d: Sum(rhs),rhsMax =  -9.35410637836753E-11  1.01998732808265E-02
 cg2d: Sum(rhs),rhsMax =  -1.00738972719228E-10  9.46511823496763E-03
 cg2d: Sum(rhs),rhsMax =  -1.09165787520737E-10  8.72788215937424E-03
 cg2d: Sum(rhs),rhsMax =  -1.14625309244332E-10  8.31272505522794E-03
 cg2d: Sum(rhs),rhsMax =  -1.14925402527888E-10  8.28909427107770E-03
 cg2d: Sum(rhs),rhsMax =  -1.15195797345535E-10  8.26520002728845E-03
 cg2d: Sum(rhs),rhsMax =  -1.15414899859445E-10  8.24112296770051E-03
 cg2d: Sum(rhs),rhsMax =  -1.15709386516727E-10  8.21694226041376E-03
 cg2d: Sum(rhs),rhsMax =  -1.16022108587188E-10  8.19273530575187E-03
 cg2d: Sum(rhs),rhsMax =  -1.16359116786313E-10  8.16857762179919E-03
 cg2d: Sum(rhs),rhsMax =  -1.16701204255776E-10  8.14456374092147E-03
 cg2d: Sum(rhs),rhsMax =  -1.16885982663628E-10  8.12079953193474E-03
 cg2d: Sum(rhs),rhsMax =  -1.17173687419481E-10  8.09718234063863E-03
 cg2d: Sum(rhs),rhsMax =  -1.17542170441354E-10  8.07373954071820E-03
 cg2d: Sum(rhs),rhsMax =  -1.17759774154180E-10  8.05057573075349E-03
 cg2d: Sum(rhs),rhsMax =  -1.17986953540594E-10  8.02776792953941E-03
 cg2d: Sum(rhs),rhsMax =  -1.18280552019456E-10  8.00536992380474E-03
 cg2d: Sum(rhs),rhsMax =  -1.18543619365141E-10  7.98343353390467E-03
 cg2d: Sum(rhs),rhsMax =  -1.18864251774653E-10  7.96201041173155E-03
 cg2d: Sum(rhs),rhsMax =  -1.19071863480258E-10  7.94115242723637E-03
 cg2d: Sum(rhs),rhsMax =  -1.19313114943509E-10  7.92090788349973E-03
 cg2d: Sum(rhs),rhsMax =  -1.19529386388706E-10  7.90131812962333E-03
 cg2d: Sum(rhs),rhsMax =  -1.19789400621073E-10  7.88242073808257E-03
 cg2d: Sum(rhs),rhsMax =  -1.19952825450298E-10  7.86425010429750E-03
 cg2d: Sum(rhs),rhsMax =  -1.20162213512742E-10  7.84638486205993E-03
 cg2d: Sum(rhs),rhsMax =  -1.15755183216493E-10  8.13617992053226E-03
 cg2d: Sum(rhs),rhsMax =  -1.07088227174756E-10  8.79456675748550E-03
 cg2d: Sum(rhs),rhsMax =  -9.95155069460907E-11  9.46037626871668E-03
 cg2d: Sum(rhs),rhsMax =  -9.28966903401829E-11  1.01289505063705E-02
 cg2d: Sum(rhs),rhsMax =  -8.70785665796348E-11  1.07982433476568E-02
 cg2d: Sum(rhs),rhsMax =  -8.19840861865373E-11  1.14602743143124E-02
 cg2d: Sum(rhs),rhsMax =  -7.74170727524393E-11  1.21147290849995E-02
 cg2d: Sum(rhs),rhsMax =  -7.34908800481548E-11  1.27612967381860E-02
 cg2d: Sum(rhs),rhsMax =  -7.00189906055471E-11  1.33996698971730E-02
 cg2d: Sum(rhs),rhsMax =  -6.68535227177358E-11  1.40295448820392E-02
 cg2d: Sum(rhs),rhsMax =  -6.40062447487821E-11  1.46506218680597E-02
 cg2d: Sum(rhs),rhsMax =  -6.13317174824601E-11  1.52626050501404E-02
 cg2d: Sum(rhs),rhsMax =  -5.90136828293453E-11  1.58652028129687E-02
 cg2d: Sum(rhs),rhsMax =  -5.68365354780553E-11  1.64581279067161E-02
 cg2d: Sum(rhs),rhsMax =  -5.48572298697536E-11  1.70410976281366E-02
 cg2d: Sum(rhs),rhsMax =  -5.30614441274224E-11  1.76138340068072E-02
 cg2d: Sum(rhs),rhsMax =  -5.13838971372138E-11  1.81760639961566E-02
 cg2d: Sum(rhs),rhsMax =  -4.98258101444549E-11  1.87275196687746E-02
 cg2d: Sum(rhs),rhsMax =  -4.83750817181772E-11  1.92679384154552E-02
 cg2d: Sum(rhs),rhsMax =  -4.71022110204444E-11  1.97970631475254E-02
 cg2d: Sum(rhs),rhsMax =  -4.57999194125591E-11  2.03146425029428E-02
 cg2d: Sum(rhs),rhsMax =  -4.45806724869158E-11  2.08204310509024E-02
 cg2d: Sum(rhs),rhsMax =  -4.34955405026471E-11  2.13141894990129E-02
 cg2d: Sum(rhs),rhsMax =  -4.24464907666788E-11  2.17956849016702E-02
 cg2d: Sum(rhs),rhsMax =  -4.14877021626125E-11  2.22646908706786E-02
 cg2d: Sum(rhs),rhsMax =  -4.05467881492427E-11  2.27209877822608E-02
 cg2d: Sum(rhs),rhsMax =  -3.96768173871465E-11  2.31643629817315E-02
 cg2d: Sum(rhs),rhsMax =  -3.89011045598409E-11  2.35946109865710E-02
 cg2d: Sum(rhs),rhsMax =  -3.81680242966809E-11  2.40115336872605E-02
 cg2d: Sum(rhs),rhsMax =  -3.74638098321611E-11  2.44149405451021E-02
 cg2d: Sum(rhs),rhsMax =  -3.68279851059583E-11  2.48046487861710E-02
 cg2d: Sum(rhs),rhsMax =  -3.62252450258893E-11  2.51804835906088E-02
 cg2d: Sum(rhs),rhsMax =  -3.55582230326945E-11  2.55422782765338E-02
 cg2d: Sum(rhs),rhsMax =  -3.49292816892444E-11  2.58898744763554E-02
 cg2d: Sum(rhs),rhsMax =  -3.43557404747230E-11  2.62231223034150E-02
 cg2d: Sum(rhs),rhsMax =  -3.38210570660635E-11  2.65418805224623E-02
 cg2d: Sum(rhs),rhsMax =  -3.33525429496717E-11  2.68460167086639E-02
 cg2d: Sum(rhs),rhsMax =  -3.29143379218522E-11  2.71354073954573E-02
 cg2d: Sum(rhs),rhsMax =  -3.24782423177794E-11  2.74099382118611E-02
 cg2d: Sum(rhs),rhsMax =  -3.22706306121745E-11  2.76695040158616E-02
 cg2d: Sum(rhs),rhsMax =  -3.19981818819315E-11  2.79140090096745E-02
 cg2d: Sum(rhs),rhsMax =  -3.17161852336767E-11  2.81433668410224E-02
 cg2d: Sum(rhs),rhsMax =  -3.15778514448084E-11  2.83575006968982E-02
 cg2d: Sum(rhs),rhsMax =  -3.14323012062800E-11  2.85563433878474E-02
 cg2d: Sum(rhs),rhsMax =  -3.12981862649053E-11  2.87398374206485E-02
 cg2d: Sum(rhs),rhsMax =  -3.11409786846184E-11  2.89079350577467E-02
 cg2d: Sum(rhs),rhsMax =  -3.09872127957078E-11  2.90605983624279E-02
 cg2d: Sum(rhs),rhsMax =  -3.08701952889123E-11  2.91977992292499E-02
 cg2d: Sum(rhs),rhsMax =  -3.07810443800349E-11  2.93195193995963E-02
 cg2d: Sum(rhs),rhsMax =  -3.07843750491088E-11  2.94257504640678E-02
 cg2d: Sum(rhs),rhsMax =  -3.07360803475376E-11  2.95164938449274E-02
 cg2d: Sum(rhs),rhsMax =  -3.07575076519129E-11  2.95917607649295E-02
 cg2d: Sum(rhs),rhsMax =  -3.07694980605788E-11  2.96515722018347E-02
 cg2d: Sum(rhs),rhsMax =  -3.07650571684803E-11  2.96959588277467E-02
 cg2d: Sum(rhs),rhsMax =  -3.08061354203915E-11  2.97249609274424E-02
 cg2d: Sum(rhs),rhsMax =  -3.08173486729402E-11  2.97386283073937E-02
 cg2d: Sum(rhs),rhsMax =  -3.08378877988957E-11  2.97370201957354E-02
 cg2d: Sum(rhs),rhsMax =  -3.08491010514444E-11  2.97202051192181E-02
 cg2d: Sum(rhs),rhsMax =  -3.08202352528042E-11  2.96882607631394E-02
 cg2d: Sum(rhs),rhsMax =  -3.08805203630413E-11  2.96412738171043E-02
 cg2d: Sum(rhs),rhsMax =  -3.09871017734054E-11  2.95793398071862E-02
 cg2d: Sum(rhs),rhsMax =  -3.10285130922239E-11  2.95025629155994E-02
 cg2d: Sum(rhs),rhsMax =  -3.11091152838117E-11  2.94110557881695E-02
 cg2d: Sum(rhs),rhsMax =  -3.11560777177533E-11  2.93049393300928E-02
 cg2d: Sum(rhs),rhsMax =  -3.12854187001221E-11  2.91843424909854E-02
 cg2d: Sum(rhs),rhsMax =  -3.14464010386928E-11  2.90494020339436E-02
 cg2d: Sum(rhs),rhsMax =  -3.16110471132447E-11  2.89002622950521E-02
 cg2d: Sum(rhs),rhsMax =  -3.18373105656633E-11  2.87370749335310E-02
 cg2d: Sum(rhs),rhsMax =  -3.20568016576317E-11  2.85599986733214E-02
 cg2d: Sum(rhs),rhsMax =  -3.23217008713073E-11  2.83691990360617E-02
 cg2d: Sum(rhs),rhsMax =  -3.26059179656113E-11  2.81648480654884E-02
 cg2d: Sum(rhs),rhsMax =  -3.29116733865931E-11  2.79471240437352E-02
 cg2d: Sum(rhs),rhsMax =  -3.32293081939383E-11  2.77162112004793E-02
 cg2d: Sum(rhs),rhsMax =  -3.35464989120737E-11  2.74722994158886E-02
 cg2d: Sum(rhs),rhsMax =  -3.39509531599447E-11  2.72155839183868E-02
 cg2d: Sum(rhs),rhsMax =  -3.43561845639329E-11  2.69462649782452E-02
 cg2d: Sum(rhs),rhsMax =  -3.48261419702567E-11  2.66645475979044E-02
 cg2d: Sum(rhs),rhsMax =  -3.53032048039381E-11  2.63706411998749E-02
 cg2d: Sum(rhs),rhsMax =  -3.58303386960301E-11  2.60647593129984E-02
 cg2d: Sum(rhs),rhsMax =  -3.62846419577068E-11  2.57471192564878E-02
 cg2d: Sum(rhs),rhsMax =  -3.68267638606312E-11  2.54179418266290E-02
 cg2d: Sum(rhs),rhsMax =  -3.73641118045498E-11  2.50774509835034E-02
 cg2d: Sum(rhs),rhsMax =  -3.79322129262505E-11  2.47258735384307E-02
 cg2d: Sum(rhs),rhsMax =  -3.85242948652831E-11  2.43634388435008E-02
 cg2d: Sum(rhs),rhsMax =  -3.91939813937370E-11  2.39903784844646E-02
 cg2d: Sum(rhs),rhsMax =  -3.99161814712556E-11  2.36069259780106E-02
 cg2d: Sum(rhs),rhsMax =  -4.06410460840334E-11  2.32133164741815E-02
 cg2d: Sum(rhs),rhsMax =  -4.13857836889520E-11  2.28097864646032E-02
 cg2d: Sum(rhs),rhsMax =  -4.21604973155354E-11  2.23965734971995E-02
 cg2d: Sum(rhs),rhsMax =  -4.30654401029074E-11  2.19739158981484E-02
 cg2d: Sum(rhs),rhsMax =  -4.40022462910861E-11  2.15420525043468E-02
 cg2d: Sum(rhs),rhsMax =  -4.50358639270121E-11  2.11012224016112E-02
 cg2d: Sum(rhs),rhsMax =  -4.60909088673134E-11  2.06516646705540E-02
 cg2d: Sum(rhs),rhsMax =  -4.72188954603325E-11  2.01936181446505E-02
 cg2d: Sum(rhs),rhsMax =  -4.83754147850846E-11  1.97273211806527E-02
 cg2d: Sum(rhs),rhsMax =  -4.96782615044822E-11  1.92530114413930E-02
 cg2d: Sum(rhs),rhsMax =  -5.10588238356036E-11  1.87709256911353E-02
 cg2d: Sum(rhs),rhsMax =  -5.25020027453138E-11  1.82812996025180E-02
 cg2d: Sum(rhs),rhsMax =  -5.41086064842489E-11  1.77843675769546E-02
 cg2d: Sum(rhs),rhsMax =  -5.58183499421716E-11  1.72803625833079E-02
 cg2d: Sum(rhs),rhsMax =  -5.75612890685306E-11  1.67695160089686E-02
 cg2d: Sum(rhs),rhsMax =  -5.94350124671905E-11  1.62520575241663E-02
 cg2d: Sum(rhs),rhsMax =  -6.13161743601154E-11  1.57449915327294E-02
 cg2d: Sum(rhs),rhsMax =  -6.33568753016789E-11  1.52521064871641E-02
 cg2d: Sum(rhs),rhsMax =  -6.55424603479560E-11  1.47516560451304E-02
 cg2d: Sum(rhs),rhsMax =  -6.79447609286399E-11  1.42439140900314E-02
 cg2d: Sum(rhs),rhsMax =  -7.05610014861691E-11  1.37291574511595E-02
 cg2d: Sum(rhs),rhsMax =  -7.33916261097534E-11  1.32076657088232E-02
 cg2d: Sum(rhs),rhsMax =  -7.64973639988398E-11  1.26797209986714E-02
 cg2d: Sum(rhs),rhsMax =  -7.99582622335038E-11  1.21456078072160E-02
 cg2d: Sum(rhs),rhsMax =  -8.36489766342652E-11  1.16056127564599E-02
 cg2d: Sum(rhs),rhsMax =  -8.78149775118686E-11  1.10600243822617E-02
 cg2d: Sum(rhs),rhsMax =  -9.25318710542911E-11  1.05091329144292E-02
 cg2d: Sum(rhs),rhsMax =  -9.77653513700716E-11  9.95323006859935E-03
 cg2d: Sum(rhs),rhsMax =  -1.03616670799056E-10  9.39260884658089E-03
 cg2d: Sum(rhs),rhsMax =  -1.10305653500120E-10  8.82756335020518E-03
 cg2d: Sum(rhs),rhsMax =  -1.12598708135181E-10  8.65206363720956E-03
 cg2d: Sum(rhs),rhsMax =  -1.12652664974178E-10  8.65159645981261E-03
 cg2d: Sum(rhs),rhsMax =  -1.12769571458671E-10  8.65090191314915E-03
 cg2d: Sum(rhs),rhsMax =  -1.12842069022179E-10  8.64999529816930E-03
 cg2d: Sum(rhs),rhsMax =  -1.12912568184242E-10  8.64889330969244E-03
 cg2d: Sum(rhs),rhsMax =  -1.12927445172772E-10  8.64761400661308E-03
 cg2d: Sum(rhs),rhsMax =  -1.13111076061045E-10  8.64617672273530E-03
 cg2d: Sum(rhs),rhsMax =  -1.13153708625191E-10  8.64451646839384E-03
 cg2d: Sum(rhs),rhsMax =  -1.13316356298299E-10  8.64236840916856E-03
 cg2d: Sum(rhs),rhsMax =  -1.13467679696555E-10  8.63974598738633E-03
 cg2d: Sum(rhs),rhsMax =  -1.13607068197297E-10  8.63670668979121E-03
 cg2d: Sum(rhs),rhsMax =  -1.13821091440869E-10  8.63330092722534E-03
 cg2d: Sum(rhs),rhsMax =  -1.13916098776201E-10  8.62959257032580E-03
 cg2d: Sum(rhs),rhsMax =  -1.14057652211841E-10  8.62562902801344E-03
 cg2d: Sum(rhs),rhsMax =  -1.14140116629080E-10  8.62145386667517E-03
 cg2d: Sum(rhs),rhsMax =  -1.14350584556888E-10  8.61710920701495E-03
 cg2d: Sum(rhs),rhsMax =  -1.14554338237483E-10  8.61263658662670E-03
 cg2d: Sum(rhs),rhsMax =  -1.14765336123313E-10  8.60807665332916E-03
 cg2d: Sum(rhs),rhsMax =  -1.15029763492203E-10  8.60346860120236E-03
 cg2d: Sum(rhs),rhsMax =  -1.15282450252607E-10  8.59885021257147E-03
 cg2d: Sum(rhs),rhsMax =  -1.15475740081195E-10  8.59425818640670E-03
 cg2d: Sum(rhs),rhsMax =  -1.15680964807297E-10  8.58973275654094E-03
 cg2d: Sum(rhs),rhsMax =  -1.15827569757698E-10  8.58498582532762E-03
 cg2d: Sum(rhs),rhsMax =  -1.15863429961394E-10  8.58006412129457E-03
 cg2d: Sum(rhs),rhsMax =  -1.16090359547627E-10  8.57497695247748E-03
 cg2d: Sum(rhs),rhsMax =  -1.16211817946521E-10  8.56973214112517E-03
 cg2d: Sum(rhs),rhsMax =  -1.16401333016825E-10  8.56433464646024E-03
 cg2d: Sum(rhs),rhsMax =  -1.14343645662984E-10  8.71994663180816E-03
 cg2d: Sum(rhs),rhsMax =  -1.07193476317491E-10  9.31531772746564E-03
 cg2d: Sum(rhs),rhsMax =  -1.00706332162304E-10  9.92217330670098E-03
 cg2d: Sum(rhs),rhsMax =  -9.50192147186613E-11  1.05282636655015E-02
 cg2d: Sum(rhs),rhsMax =  -8.98778829139246E-11  1.11319156338267E-02
 cg2d: Sum(rhs),rhsMax =  -8.54347703693747E-11  1.17329213189015E-02
 cg2d: Sum(rhs),rhsMax =  -8.13453748804704E-11  1.23310703057204E-02
 cg2d: Sum(rhs),rhsMax =  -7.76383402012470E-11  1.29261496120971E-02
 cg2d: Sum(rhs),rhsMax =  -7.42906847150948E-11  1.35179436562960E-02
 cg2d: Sum(rhs),rhsMax =  -7.11937175879029E-11  1.41062342376273E-02
 cg2d: Sum(rhs),rhsMax =  -6.84193812716671E-11  1.46908005303865E-02
 cg2d: Sum(rhs),rhsMax =  -6.59036158978665E-11  1.52714190912552E-02
 cg2d: Sum(rhs),rhsMax =  -6.35237418222800E-11  1.58478638802705E-02
 cg2d: Sum(rhs),rhsMax =  -6.13729067566737E-11  1.64199062955084E-02
 cg2d: Sum(rhs),rhsMax =  -5.93556315209298E-11  1.69873152216328E-02
 cg2d: Sum(rhs),rhsMax =  -5.75006708913861E-11  1.75498570924372E-02
 cg2d: Sum(rhs),rhsMax =  -5.57758284003285E-11  1.81072959674459E-02
 cg2d: Sum(rhs),rhsMax =  -5.41402478404507E-11  1.86593936225909E-02
 cg2d: Sum(rhs),rhsMax =  -5.26375609766205E-11  1.92059096544306E-02
 cg2d: Sum(rhs),rhsMax =  -5.11717335172079E-11  1.97466015980521E-02
 cg2d: Sum(rhs),rhsMax =  -4.99453811642070E-11  2.02812250609089E-02
 cg2d: Sum(rhs),rhsMax =  -4.87697660034314E-11  2.08095338694601E-02
 cg2d: Sum(rhs),rhsMax =  -4.76833017515332E-11  2.13312802286440E-02
 cg2d: Sum(rhs),rhsMax =  -4.66863214754198E-11  2.18462148941703E-02
 cg2d: Sum(rhs),rhsMax =  -4.56743531884740E-11  2.23540873575720E-02
 cg2d: Sum(rhs),rhsMax =  -4.47981651774398E-11  2.28546460437661E-02
 cg2d: Sum(rhs),rhsMax =  -4.39382974448677E-11  2.33476385207352E-02
 cg2d: Sum(rhs),rhsMax =  -4.31056301763988E-11  2.38328117203955E-02
 cg2d: Sum(rhs),rhsMax =  -4.23048263087367E-11  2.43099121722931E-02
 cg2d: Sum(rhs),rhsMax =  -4.15943945952790E-11  2.47786862468468E-02
 cg2d: Sum(rhs),rhsMax =  -4.08920675099012E-11  2.52388804074227E-02
(PID.TID 0000.0001)      cg2d_init_res =   8.69522984855854E-02
(PID.TID 0000.0001)      cg2d_iters(min,last) =      -1      39
(PID.TID 0000.0001)      cg2d_last_res =   6.49837661312912E-14
(PID.TID 0000.0001) // =======================================================
(PID.TID 0000.0001) // Begin MONITOR dynamic field statistics
(PID.TID 0000.0001) // =======================================================
(PID.TID 0000.0001) %MON time_tsnumber                =                  2400
(PID.TID 0000.0001) %MON time_secondsf                =   3.6000000000000E+04
(PID.TID 0000.0001) %MON dynstat_eta_max              =   4.5979472793869E-03
(PID.TID 0000.0001) %MON dynstat_eta_min              =  -4.8987104867087E-03
(PID.TID 0000.0001) %MON dynstat_eta_mean             =   2.3583732097952E-15
(PID.TID 0000.0001) %MON dynstat_eta_sd               =   3.5264040492542E-03
(PID.TID 0000.0001) %MON dynstat_eta_del2             =   6.6856276544618E-06
(PID.TID 0000.0001) %MON dynstat_uvel_max             =   1.2874128687944E+00
(PID.TID 0000.0001) %MON dynstat_uvel_min             =   2.5866073251946E-03
(PID.TID 0000.0001) %MON dynstat_uvel_mean            =   5.6100158780553E-01
(PID.TID 0000.0001) %MON dynstat_uvel_sd              =   3.0484844073934E-02
(PID.TID 0000.0001) %MON dynstat_uvel_del2            =   3.4643395621092E-04
(PID.TID 0000.0001) %MON dynstat_vvel_max             =   0.0000000000000E+00
(PID.TID 0000.0001) %MON dynstat_vvel_min             =   0.0000000000000E+00
(PID.TID 0000.0001) %MON dynstat_vvel_mean            =   0.0000000000000E+00
(PID.TID 0000.0001) %MON dynstat_vvel_sd              =   0.0000000000000E+00
(PID.TID 0000.0001) %MON dynstat_vvel_del2            =   0.0000000000000E+00
(PID.TID 0000.0001) %MON dynstat_wvel_max             =   1.2572577034308E-02
(PID.TID 0000.0001) %MON dynstat_wvel_min             =  -9.0643511310537E-03
(PID.TID 0000.0001) %MON dynstat_wvel_mean            =   1.5145673210444E-20
(PID.TID 0000.0001) %MON dynstat_wvel_sd              =   1.3043899240885E-03
(PID.TID 0000.0001) %MON dynstat_wvel_del2            =   3.0222482244468E-05
(PID.TID 0000.0001) %MON dynstat_theta_max            =   1.5000000000008E+01
(PID.TID 0000.0001) %MON dynstat_theta_min            =   9.9999999999964E+00
(PID.TID 0000.0001) %MON dynstat_theta_mean           =   1.4012959954446E+01
(PID.TID 0000.0001) %MON dynstat_theta_sd             =   1.9238069759221E+00
(PID.TID 0000.0001) %MON dynstat_theta_del2           =   2.8062638192683E-04
(PID.TID 0000.0001) %MON dynstat_salt_max             =   3.5000000000000E+01
(PID.TID 0000.0001) %MON dynstat_salt_min             =   3.5000000000000E+01
(PID.TID 0000.0001) %MON dynstat_salt_mean            =   3.5000000000000E+01
(PID.TID 0000.0001) %MON dynstat_salt_sd              =   4.1922021409846E-13
(PID.TID 0000.0001) %MON dynstat_salt_del2            =   0.0000000000000E+00
(PID.TID 0000.0001) %MON dynstat_sst_max              =   1.5000000000000E+01
(PID.TID 0000.0001) %MON dynstat_sst_min              =   1.5000000000000E+01
(PID.TID 0000.0001) %MON dynstat_sst_mean             =   1.5000000000000E+01
(PID.TID 0000.0001) %MON dynstat_sst_sd               =   1.6959866812348E-13
(PID.TID 0000.0001) %MON dynstat_sst_del2             =   3.0035368053999E-15
(PID.TID 0000.0001) %MON dynstat_sss_max              =   3.5000000000000E+01
(PID.TID 0000.0001) %MON dynstat_sss_min              =   3.5000000000000E+01
(PID.TID 0000.0001) %MON dynstat_sss_mean             =   3.5000000000000E+01
(PID.TID 0000.0001) %MON dynstat_sss_sd               =   2.8421709430404E-14
(PID.TID 0000.0001) %MON dynstat_sss_del2             =   0.0000000000000E+00
(PID.TID 0000.0001) %MON forcing_qnet_max             =   0.0000000000000E+00
(PID.TID 0000.0001) %MON forcing_qnet_min             =   0.0000000000000E+00
(PID.TID 0000.0001) %MON forcing_qnet_mean            =   0.0000000000000E+00
(PID.TID 0000.0001) %MON forcing_qnet_sd              =   0.0000000000000E+00
(PID.TID 0000.0001) %MON forcing_qnet_del2            =   0.0000000000000E+00
(PID.TID 0000.0001) %MON forcing_qsw_max              =   0.0000000000000E+00
(PID.TID 0000.0001) %MON forcing_qsw_min              =   0.0000000000000E+00
(PID.TID 0000.0001) %MON forcing_qsw_mean             =   0.0000000000000E+00
(PID.TID 0000.0001) %MON forcing_qsw_sd               =   0.0000000000000E+00
(PID.TID 0000.0001) %MON forcing_qsw_del2             =   0.0000000000000E+00
(PID.TID 0000.0001) %MON forcing_empmr_max            =   0.0000000000000E+00
(PID.TID 0000.0001) %MON forcing_empmr_min            =   0.0000000000000E+00
(PID.TID 0000.0001) %MON forcing_empmr_mean           =   0.0000000000000E+00
(PID.TID 0000.0001) %MON forcing_empmr_sd             =   0.0000000000000E+00
(PID.TID 0000.0001) %MON forcing_empmr_del2           =   0.0000000000000E+00
(PID.TID 0000.0001) %MON forcing_fu_max               =   0.0000000000000E+00
(PID.TID 0000.0001) %MON forcing_fu_min               =   0.0000000000000E+00
(PID.TID 0000.0001) %MON forcing_fu_mean              =   0.0000000000000E+00
(PID.TID 0000.0001) %MON forcing_fu_sd                =   0.0000000000000E+00
(PID.TID 0000.0001) %MON forcing_fu_del2              =   0.0000000000000E+00
(PID.TID 0000.0001) %MON forcing_fv_max               =   0.0000000000000E+00
(PID.TID 0000.0001) %MON forcing_fv_min               =   0.0000000000000E+00
(PID.TID 0000.0001) %MON forcing_fv_mean              =   0.0000000000000E+00
(PID.TID 0000.0001) %MON forcing_fv_sd                =   0.0000000000000E+00
(PID.TID 0000.0001) %MON forcing_fv_del2              =   0.0000000000000E+00
(PID.TID 0000.0001) %MON advcfl_uvel_max              =   9.2972319934134E-02
(PID.TID 0000.0001) %MON advcfl_vvel_max              =   0.0000000000000E+00
(PID.TID 0000.0001) %MON advcfl_wvel_max              =   6.1282719771610E-02
(PID.TID 0000.0001) %MON advcfl_W_hf_max              =   9.3941435459208E-02
(PID.TID 0000.0001) %MON pe_b_mean                    =   3.0562049003295E-07
(PID.TID 0000.0001) %MON ke_max                       =   4.1867711668866E-01
(PID.TID 0000.0001) %MON ke_mean                      =   1.5784174803490E-01
(PID.TID 0000.0001) %MON ke_vol                       =   9.7476098603737E+10
(PID.TID 0000.0001) %MON vort_r_min                   =   0.0000000000000E+00
(PID.TID 0000.0001) %MON vort_r_max                   =   0.0000000000000E+00
(PID.TID 0000.0001) %MON vort_a_mean                  =   0.0000000000000E+00
(PID.TID 0000.0001) %MON vort_a_sd                    =   0.0000000000000E+00
(PID.TID 0000.0001) %MON vort_p_mean                  =   0.0000000000000E+00
(PID.TID 0000.0001) %MON vort_p_sd                    =   0.0000000000000E+00
(PID.TID 0000.0001) %MON surfExpan_theta_mean         =   4.5192891583962E-19
(PID.TID 0000.0001) %MON surfExpan_salt_mean          =   7.0972509111254E-19
(PID.TID 0000.0001) // =======================================================
(PID.TID 0000.0001) // End MONITOR dynamic field statistics
(PID.TID 0000.0001) // =======================================================
(PID.TID 0000.0001) // =======================================================
(PID.TID 0000.0001) // Begin OBCS MONITOR field statistics
(PID.TID 0000.0001) // =======================================================
(PID.TID 0000.0001) %MON obc_E_uVel_max               =   5.6028564143658E-01
(PID.TID 0000.0001) %MON obc_E_uVel_min               =   5.6028564143658E-01
(PID.TID 0000.0001) %MON obc_E_uVel_mean              =   5.6028564143658E-01
(PID.TID 0000.0001) %MON obc_E_uVel_sd                =   1.0536712127724E-08
(PID.TID 0000.0001) %MON obc_E_uVel_Int               =   5.6028564143658E+05
(PID.TID 0000.0001) %MON obc_W_uVel_max               =   5.6028564143658E-01
(PID.TID 0000.0001) %MON obc_W_uVel_min               =   5.6028564143658E-01
(PID.TID 0000.0001) %MON obc_W_uVel_mean              =   5.6028564143658E-01
(PID.TID 0000.0001) %MON obc_W_uVel_sd                =   1.0536712127724E-08
(PID.TID 0000.0001) %MON obc_W_uVel_Int               =   5.6028564143658E+05
(PID.TID 0000.0001) // =======================================================
(PID.TID 0000.0001) // End OBCS MONITOR field statistics
(PID.TID 0000.0001) // =======================================================
 cg2d: Sum(rhs),rhsMax =  -4.02151645317872E-11  2.56902414723945E-02
 cg2d: Sum(rhs),rhsMax =  -3.95923294149725E-11  2.61325168852978E-02
 cg2d: Sum(rhs),rhsMax =  -3.89841492420828E-11  2.65654549938078E-02
 cg2d: Sum(rhs),rhsMax =  -3.84082765592098E-11  2.69888053405990E-02
 cg2d: Sum(rhs),rhsMax =  -3.79096753988506E-11  2.74023189613548E-02
 cg2d: Sum(rhs),rhsMax =  -3.74285047399781E-11  2.78057486875549E-02
 cg2d: Sum(rhs),rhsMax =  -3.69391184307233E-11  2.81988494494122E-02
 cg2d: Sum(rhs),rhsMax =  -3.64716035150536E-11  2.85813785855461E-02
 cg2d: Sum(rhs),rhsMax =  -3.60319551973021E-11  2.89530961582642E-02
 cg2d: Sum(rhs),rhsMax =  -3.56500384768310E-11  2.93137652728763E-02
 cg2d: Sum(rhs),rhsMax =  -3.52380347123926E-11  2.96631523993456E-02
 cg2d: Sum(rhs),rhsMax =  -3.49074102956592E-11  3.00010276948509E-02
 cg2d: Sum(rhs),rhsMax =  -3.46461748179649E-11  3.03271653260803E-02
 cg2d: Sum(rhs),rhsMax =  -3.43481909581556E-11  3.06413437902934E-02
 cg2d: Sum(rhs),rhsMax =  -3.41094930078611E-11  3.09433462342328E-02
 cg2d: Sum(rhs),rhsMax =  -3.38609140726476E-11  3.12329607699988E-02
 cg2d: Sum(rhs),rhsMax =  -3.36283223489886E-11  3.15099807861266E-02
 cg2d: Sum(rhs),rhsMax =  -3.34277050484388E-11  3.17742052547862E-02
 cg2d: Sum(rhs),rhsMax =  -3.31904503880764E-11  3.20254390330271E-02
 cg2d: Sum(rhs),rhsMax =  -3.29769545004410E-11  3.22634931591011E-02
 cg2d: Sum(rhs),rhsMax =  -3.27796678689651E-11  3.24881851412577E-02
 cg2d: Sum(rhs),rhsMax =  -3.25656168698174E-11  3.26993392382271E-02
 cg2d: Sum(rhs),rhsMax =  -3.23929771894882E-11  3.28967867301848E-02
 cg2d: Sum(rhs),rhsMax =  -3.22273319142141E-11  3.30803661809514E-02
 cg2d: Sum(rhs),rhsMax =  -3.20286019928062E-11  3.32499236913692E-02
 cg2d: Sum(rhs),rhsMax =  -3.18809423305311E-11  3.34053131433375E-02
 cg2d: Sum(rhs),rhsMax =  -3.16987547321901E-11  3.35463964338873E-02
 cg2d: Sum(rhs),rhsMax =  -3.15946158124802E-11  3.36730436987245E-02
 cg2d: Sum(rhs),rhsMax =  -3.14841486215300E-11  3.37851335247614E-02
 cg2d: Sum(rhs),rhsMax =  -3.13682413377592E-11  3.38825531512210E-02
 cg2d: Sum(rhs),rhsMax =  -3.13208348146077E-11  3.39651986589494E-02
 cg2d: Sum(rhs),rhsMax =  -3.12714298900119E-11  3.40329751475509E-02
 cg2d: Sum(rhs),rhsMax =  -3.12417869352544E-11  3.40857968998420E-02
 cg2d: Sum(rhs),rhsMax =  -3.12538883662228E-11  3.41235875336301E-02
 cg2d: Sum(rhs),rhsMax =  -3.12531112101055E-11  3.41462801403100E-02
 cg2d: Sum(rhs),rhsMax =  -3.13136183649476E-11  3.41538174098423E-02
 cg2d: Sum(rhs),rhsMax =  -3.13672421370370E-11  3.41461517433786E-02
 cg2d: Sum(rhs),rhsMax =  -3.14425152581066E-11  3.41232453493980E-02
 cg2d: Sum(rhs),rhsMax =  -3.15419912411130E-11  3.40850703252118E-02
 cg2d: Sum(rhs),rhsMax =  -3.16151549384358E-11  3.40316087251136E-02
 cg2d: Sum(rhs),rhsMax =  -3.16949799739064E-11  3.39628526150977E-02
 cg2d: Sum(rhs),rhsMax =  -3.18320925174476E-11  3.38788041137831E-02
 cg2d: Sum(rhs),rhsMax =  -3.19396731285337E-11  3.37794754193305E-02
 cg2d: Sum(rhs),rhsMax =  -3.20568016576317E-11  3.36648888223723E-02
 cg2d: Sum(rhs),rhsMax =  -3.22117887918694E-11  3.35350767051068E-02
 cg2d: Sum(rhs),rhsMax =  -3.24524851436081E-11  3.33900815268746E-02
 cg2d: Sum(rhs),rhsMax =  -3.26328963851097E-11  3.32299557965277E-02
 cg2d: Sum(rhs),rhsMax =  -3.28005400618281E-11  3.30547620318746E-02
 cg2d: Sum(rhs),rhsMax =  -3.28971294649705E-11  3.28645727064209E-02
 cg2d: Sum(rhs),rhsMax =  -3.29695160061760E-11  3.26594701836045E-02
 cg2d: Sum(rhs),rhsMax =  -3.31061844605074E-11  3.24395466387148E-02
 cg2d: Sum(rhs),rhsMax =  -3.32459615393077E-11  3.22049039687480E-02
 cg2d: Sum(rhs),rhsMax =  -3.34327010520497E-11  3.19556536904739E-02
 cg2d: Sum(rhs),rhsMax =  -3.36399796907472E-11  3.16919168270439E-02
 cg2d: Sum(rhs),rhsMax =  -3.38327144078221E-11  3.14138237834176E-02
 cg2d: Sum(rhs),rhsMax =  -3.40233397011502E-11  3.11215142108063E-02
 cg2d: Sum(rhs),rhsMax =  -3.42502692873836E-11  3.08151368608500E-02
 cg2d: Sum(rhs),rhsMax =  -3.44499984095137E-11  3.04948494299581E-02
 cg2d: Sum(rhs),rhsMax =  -3.47082362850415E-11  3.01608183942647E-02
 cg2d: Sum(rhs),rhsMax =  -3.49993367620982E-11  2.98132188356746E-02
 cg2d: Sum(rhs),rhsMax =  -3.53084228521539E-11  2.94522342595477E-02
 cg2d: Sum(rhs),rhsMax =  -3.56981111337973E-11  2.90780564046275E-02
 cg2d: Sum(rhs),rhsMax =  -3.61141117011243E-11  2.86908850475245E-02
 cg2d: Sum(rhs),rhsMax =  -3.66008334751200E-11  2.82909277982716E-02
 cg2d: Sum(rhs),rhsMax =  -3.70895536505600E-11  2.78783998892988E-02
 cg2d: Sum(rhs),rhsMax =  -3.75864894763822E-11  2.74535239602062E-02
 cg2d: Sum(rhs),rhsMax =  -3.81257247994427E-11  2.70165298386194E-02
 cg2d: Sum(rhs),rhsMax =  -3.86850551592488E-11  2.65676543173249E-02
 cg2d: Sum(rhs),rhsMax =  -3.92955668004902E-11  2.61071409216913E-02
 cg2d: Sum(rhs),rhsMax =  -3.99346111734644E-11  2.56352396856814E-02
 cg2d: Sum(rhs),rhsMax =  -4.06260580732010E-11  2.51522069238123E-02
 cg2d: Sum(rhs),rhsMax =  -4.13638012730644E-11  2.46583049983252E-02
 cg2d: Sum(rhs),rhsMax =  -4.21851442666821E-11  2.41538020833075E-02
 cg2d: Sum(rhs),rhsMax =  -4.30220303826445E-11  2.36389719274923E-02
 cg2d: Sum(rhs),rhsMax =  -4.38908909217162E-11  2.31140936169691E-02
 cg2d: Sum(rhs),rhsMax =  -4.48350245818574E-11  2.25794513384393E-02
 cg2d: Sum(rhs),rhsMax =  -4.58562077199076E-11  2.20353341432869E-02
 cg2d: Sum(rhs),rhsMax =  -4.69748684395199E-11  2.14820357125688E-02
 cg2d: Sum(rhs),rhsMax =  -4.81320538980867E-11  2.09198541230556E-02
 cg2d: Sum(rhs),rhsMax =  -4.95204988126829E-11  2.03490916154036E-02
 cg2d: Sum(rhs),rhsMax =  -5.09406961057834E-11  1.97700543634291E-02
 cg2d: Sum(rhs),rhsMax =  -5.24992271877522E-11  1.91830522483046E-02
 cg2d: Sum(rhs),rhsMax =  -5.41083844396439E-11  1.85883986275838E-02
 cg2d: Sum(rhs),rhsMax =  -5.59334800698252E-11  1.79864101052329E-02
 cg2d: Sum(rhs),rhsMax =  -5.77657921496666E-11  1.73774063085011E-02
 cg2d: Sum(rhs),rhsMax =  -5.98516791683323E-11  1.67617096698617E-02
 cg2d: Sum(rhs),rhsMax =  -6.21299678371656E-11  1.61396452125833E-02
 cg2d: Sum(rhs),rhsMax =  -6.45833386769823E-11  1.55115403391840E-02
 cg2d: Sum(rhs),rhsMax =  -6.73288091945778E-11  1.48777246227703E-02
 cg2d: Sum(rhs),rhsMax =  -7.02992108969624E-11  1.42385296016692E-02
 cg2d: Sum(rhs),rhsMax =  -7.35164151777212E-11  1.35942885778417E-02
 cg2d: Sum(rhs),rhsMax =  -7.71396280185854E-11  1.29453364194175E-02
 cg2d: Sum(rhs),rhsMax =  -8.11936073930042E-11  1.22920093675359E-02
 cg2d: Sum(rhs),rhsMax =  -8.56916759772730E-11  1.16346448475294E-02
 cg2d: Sum(rhs),rhsMax =  -9.07345309997254E-11  1.09735812843821E-02
 cg2d: Sum(rhs),rhsMax =  -9.31987820251834E-11  1.06692351419698E-02
 cg2d: Sum(rhs),rhsMax =  -9.32431354350172E-11  1.06613304568540E-02
 cg2d: Sum(rhs),rhsMax =  -9.32234844874813E-11  1.06528925935819E-02
 cg2d: Sum(rhs),rhsMax =  -9.31553723049205E-11  1.06439640710312E-02
 cg2d: Sum(rhs),rhsMax =  -9.31276722404561E-11  1.06345850420436E-02
 cg2d: Sum(rhs),rhsMax =  -9.31527077696614E-11  1.06247898661491E-02
 cg2d: Sum(rhs),rhsMax =  -9.31310584206813E-11  1.06146134853005E-02
 cg2d: Sum(rhs),rhsMax =  -9.31261456837973E-11  1.06040914739283E-02
 cg2d: Sum(rhs),rhsMax =  -9.31549837268619E-11  1.05934074646057E-02
 cg2d: Sum(rhs),rhsMax =  -9.31489468891655E-11  1.05826243425378E-02
 cg2d: Sum(rhs),rhsMax =  -9.31521804137247E-11  1.05717655377605E-02
 cg2d: Sum(rhs),rhsMax =  -9.31350621624638E-11  1.05608542061559E-02
 cg2d: Sum(rhs),rhsMax =  -9.30990978753599E-11  1.05499052456049E-02
 cg2d: Sum(rhs),rhsMax =  -9.30083371430968E-11  1.05389075285532E-02
 cg2d: Sum(rhs),rhsMax =  -9.30299448587135E-11  1.05278545196606E-02
 cg2d: Sum(rhs),rhsMax =  -9.29706034380473E-11  1.05166424857467E-02
 cg2d: Sum(rhs),rhsMax =  -9.29750720857214E-11  1.05052492568441E-02
 cg2d: Sum(rhs),rhsMax =  -9.30298060808354E-11  1.04936816809842E-02
 cg2d: Sum(rhs),rhsMax =  -9.29983312580873E-11  1.04819470196316E-02
 cg2d: Sum(rhs),rhsMax =  -9.29958887674331E-11  1.04700995653537E-02
 cg2d: Sum(rhs),rhsMax =  -9.29426535734024E-11  1.04582062236096E-02
 cg2d: Sum(rhs),rhsMax =  -9.29512578018432E-11  1.04462512647857E-02
 cg2d: Sum(rhs),rhsMax =  -9.30291399470207E-11  1.04342025707555E-02
 cg2d: Sum(rhs),rhsMax =  -9.30016064160100E-11  1.04220616877478E-02
 cg2d: Sum(rhs),rhsMax =  -9.29349930345325E-11  1.04098377637614E-02
 cg2d: Sum(rhs),rhsMax =  -9.29161192431138E-11  1.03975286452580E-02
 cg2d: Sum(rhs),rhsMax =  -9.29889498735292E-11  1.03851383200246E-02
 cg2d: Sum(rhs),rhsMax =  -9.30268084786690E-11  1.03726673571939E-02
 cg2d: Sum(rhs),rhsMax =  -9.30818755406904E-11  1.03601207313669E-02
 cg2d: Sum(rhs),rhsMax =  -9.30355792405635E-11  1.03475042498114E-02
 cg2d: Sum(rhs),rhsMax =  -9.30896471018627E-11  1.03348233888061E-02
 cg2d: Sum(rhs),rhsMax =  -9.31400512271807E-11  1.03219876955170E-02
 cg2d: Sum(rhs),rhsMax =  -8.95979956894166E-11  1.07138961774548E-02
 cg2d: Sum(rhs),rhsMax =  -8.47935055503513E-11  1.13028002279144E-02
 cg2d: Sum(rhs),rhsMax =  -8.06201772007853E-11  1.18841427172517E-02
 cg2d: Sum(rhs),rhsMax =  -7.68651808868981E-11  1.24576500186711E-02
 cg2d: Sum(rhs),rhsMax =  -7.34637906063540E-11  1.30230528906196E-02
 cg2d: Sum(rhs),rhsMax =  -7.03866964713029E-11  1.35800866177355E-02
 cg2d: Sum(rhs),rhsMax =  -6.76461109350157E-11  1.41284911516805E-02
 cg2d: Sum(rhs),rhsMax =  -6.51062537215807E-11  1.46680112519574E-02
 cg2d: Sum(rhs),rhsMax =  -6.27969898303604E-11  1.51983966264030E-02
 cg2d: Sum(rhs),rhsMax =  -6.06571459726979E-11  1.57194020708897E-02
 cg2d: Sum(rhs),rhsMax =  -5.86968251781173E-11  1.62307876078309E-02
 cg2d: Sum(rhs),rhsMax =  -5.69285729667968E-11  1.67323186232101E-02
 cg2d: Sum(rhs),rhsMax =  -5.52538015341497E-11  1.72237660019965E-02
 cg2d: Sum(rhs),rhsMax =  -5.36992672550696E-11  1.77049062618517E-02
 cg2d: Sum(rhs),rhsMax =  -5.22740739583583E-11  1.81755216850391E-02
 cg2d: Sum(rhs),rhsMax =  -5.09134956416801E-11  1.86354004483780E-02
 cg2d: Sum(rhs),rhsMax =  -4.95905538855368E-11  1.90843367519997E-02
 cg2d: Sum(rhs),rhsMax =  -4.83854067923062E-11  1.95221309449045E-02
 cg2d: Sum(rhs),rhsMax =  -4.72465400136457E-11  1.99485896468820E-02
 cg2d: Sum(rhs),rhsMax =  -4.62023752589857E-11  2.03635258686792E-02
 cg2d: Sum(rhs),rhsMax =  -4.52953230478670E-11  2.07667591292733E-02
 cg2d: Sum(rhs),rhsMax =  -4.43339809308441E-11  2.11581155687202E-02
 cg2d: Sum(rhs),rhsMax =  -4.34557945183656E-11  2.15374280583545E-02
 cg2d: Sum(rhs),rhsMax =  -4.26892965421644E-11  2.19045363075886E-02
 cg2d: Sum(rhs),rhsMax =  -4.19179135846548E-11  2.22592869650515E-02
 cg2d: Sum(rhs),rhsMax =  -4.12504475022502E-11  2.26015337129997E-02
 cg2d: Sum(rhs),rhsMax =  -4.05655509183589E-11  2.29311373659745E-02
 cg2d: Sum(rhs),rhsMax =  -3.99161814712556E-11  2.32479659612842E-02
 cg2d: Sum(rhs),rhsMax =  -3.92851307040587E-11  2.35518948419768E-02
 cg2d: Sum(rhs),rhsMax =  -3.86829457355020E-11  2.38428067354152E-02
 cg2d: Sum(rhs),rhsMax =  -3.80983022907344E-11  2.41205918282281E-02
 cg2d: Sum(rhs),rhsMax =  -3.75950381936718E-11  2.43851478241512E-02
 cg2d: Sum(rhs),rhsMax =  -3.70832253793196E-11  2.46363800001309E-02
 cg2d: Sum(rhs),rhsMax =  -3.66735530832329E-11  2.48742012591849E-02
 cg2d: Sum(rhs),rhsMax =  -3.62353480554134E-11  2.50985321774468E-02
 cg2d: Sum(rhs),rhsMax =  -3.58716389925462E-11  2.53093010460715E-02
 cg2d: Sum(rhs),rhsMax =  -3.57127660777223E-11  2.55064439046555E-02
 cg2d: Sum(rhs),rhsMax =  -3.54866136476062E-11  2.56899045659663E-02
 cg2d: Sum(rhs),rhsMax =  -3.52488038757315E-11  2.58596346322006E-02
 cg2d: Sum(rhs),rhsMax =  -3.50736106824456E-11  2.60155935030105E-02
 cg2d: Sum(rhs),rhsMax =  -3.50113271707642E-11  2.61577483759279E-02
 cg2d: Sum(rhs),rhsMax =  -3.48787665416239E-11  2.62860742383838E-02
 cg2d: Sum(rhs),rhsMax =  -3.47973871939189E-11  2.64005538487054E-02
 cg2d: Sum(rhs),rhsMax =  -3.47297746117192E-11  2.65011777096789E-02
 cg2d: Sum(rhs),rhsMax =  -3.46038753207267E-11  2.65879440285271E-02
 cg2d: Sum(rhs),rhsMax =  -3.45619088903959E-11  2.66608586764073E-02
 cg2d: Sum(rhs),rhsMax =  -3.45170558802010E-11  2.67199351404653E-02
 cg2d: Sum(rhs),rhsMax =  -3.45022899139735E-11  2.67651944625679E-02
 cg2d: Sum(rhs),rhsMax =  -3.45088402298188E-11  2.67966651664119E-02
 cg2d: Sum(rhs),rhsMax =  -3.45465878126561E-11  2.68143831749297E-02
 cg2d: Sum(rhs),rhsMax =  -3.45444783889093E-11  2.68183917193704E-02
 cg2d: Sum(rhs),rhsMax =  -3.45825590386539E-11  2.68087412416041E-02
 cg2d: Sum(rhs),rhsMax =  -3.46376261006753E-11  2.67854892896848E-02
 cg2d: Sum(rhs),rhsMax =  -3.46748185720003E-11  2.67487004010123E-02
 cg2d: Sum(rhs),rhsMax =  -3.46758177727224E-11  2.66984459795396E-02
 cg2d: Sum(rhs),rhsMax =  -3.47557538304955E-11  2.66348041672719E-02
 cg2d: Sum(rhs),rhsMax =  -3.48561179919216E-11  2.65578597099687E-02
 cg2d: Sum(rhs),rhsMax =  -3.49639206476127E-11  2.64677038161126E-02
 cg2d: Sum(rhs),rhsMax =  -3.51138007559371E-11  2.63644340100922E-02
 cg2d: Sum(rhs),rhsMax =  -3.53113094320179E-11  2.62481539798739E-02
 cg2d: Sum(rhs),rhsMax =  -3.55012685915312E-11  2.61189734193053E-02
 cg2d: Sum(rhs),rhsMax =  -3.57076590518091E-11  2.59770078653439E-02
 cg2d: Sum(rhs),rhsMax =  -3.59442475783567E-11  2.58223785306200E-02
 cg2d: Sum(rhs),rhsMax =  -3.62537777576222E-11  2.56552121317655E-02
 cg2d: Sum(rhs),rhsMax =  -3.65422136994198E-11  2.54756407138544E-02
 cg2d: Sum(rhs),rhsMax =  -3.69071440076141E-11  2.52838014712250E-02
 cg2d: Sum(rhs),rhsMax =  -3.72346597998785E-11  2.50798365638926E-02
 cg2d: Sum(rhs),rhsMax =  -3.76086939368747E-11  2.48638929329659E-02
 cg2d: Sum(rhs),rhsMax =  -3.80288023293929E-11  2.46361221123191E-02
 cg2d: Sum(rhs),rhsMax =  -3.84812182119276E-11  2.43966800371730E-02
 cg2d: Sum(rhs),rhsMax =  -3.89660526067814E-11  2.41457268504425E-02
 cg2d: Sum(rhs),rhsMax =  -3.94714261275908E-11  2.38834267075986E-02
 cg2d: Sum(rhs),rhsMax =  -4.00367516917299E-11  2.36099475806488E-02
 cg2d: Sum(rhs),rhsMax =  -4.05745437248584E-11  2.33254610617467E-02
 cg2d: Sum(rhs),rhsMax =  -4.11658485077737E-11  2.30301421669768E-02
 cg2d: Sum(rhs),rhsMax =  -4.17433865251837E-11  2.27241691409186E-02
 cg2d: Sum(rhs),rhsMax =  -4.23509005642586E-11  2.24077232626256E-02
 cg2d: Sum(rhs),rhsMax =  -4.30776525561782E-11  2.20809886536632E-02
 cg2d: Sum(rhs),rhsMax =  -4.37750946602478E-11  2.17441520888190E-02
 cg2d: Sum(rhs),rhsMax =  -4.45419257033564E-11  2.13974028100519E-02
 cg2d: Sum(rhs),rhsMax =  -4.53469484185121E-11  2.10409323441855E-02
 cg2d: Sum(rhs),rhsMax =  -4.62104798870655E-11  2.06749343258661E-02
 cg2d: Sum(rhs),rhsMax =  -4.71683803127121E-11  2.02996043255107E-02
 cg2d: Sum(rhs),rhsMax =  -4.81327200319015E-11  1.99151396778842E-02
 cg2d: Sum(rhs),rhsMax =  -4.91725549167654E-11  1.95217393174642E-02
 cg2d: Sum(rhs),rhsMax =  -5.02493602283494E-11  1.91196036203980E-02
 cg2d: Sum(rhs),rhsMax =  -5.14588371913760E-11  1.87089342526935E-02
 cg2d: Sum(rhs),rhsMax =  -5.27424770524476E-11  1.82899340243191E-02
 cg2d: Sum(rhs),rhsMax =  -5.40824052208677E-11  1.78628067491061E-02
 cg2d: Sum(rhs),rhsMax =  -5.55753221220812E-11  1.74277571105185E-02
 cg2d: Sum(rhs),rhsMax =  -5.71318548026056E-11  1.69849905334655E-02
 cg2d: Sum(rhs),rhsMax =  -5.87822013287109E-11  1.65347130623392E-02
 cg2d: Sum(rhs),rhsMax =  -6.05290262356561E-11  1.60771312454168E-02
 cg2d: Sum(rhs),rhsMax =  -6.23695539658797E-11  1.56124520257307E-02
 cg2d: Sum(rhs),rhsMax =  -6.41942055068512E-11  1.51681633337209E-02
 cg2d: Sum(rhs),rhsMax =  -6.61953825087380E-11  1.47328644874845E-02
 cg2d: Sum(rhs),rhsMax =  -6.82465195467330E-11  1.42902567881591E-02
 cg2d: Sum(rhs),rhsMax =  -7.05666636235946E-11  1.38405739575927E-02
 cg2d: Sum(rhs),rhsMax =  -7.30235871770901E-11  1.33840531494586E-02
 cg2d: Sum(rhs),rhsMax =  -7.56559259684764E-11  1.29209347684663E-02
 cg2d: Sum(rhs),rhsMax =  -7.85864706642769E-11  1.24514624092036E-02
 cg2d: Sum(rhs),rhsMax =  -8.17831358190801E-11  1.19758827106845E-02
 cg2d: Sum(rhs),rhsMax =  -8.52875547963095E-11  1.14944451627476E-02
 cg2d: Sum(rhs),rhsMax =  -8.91627882637636E-11  1.10074019343754E-02
 cg2d: Sum(rhs),rhsMax =  -9.01492214211430E-11  1.09019688108987E-02
 cg2d: Sum(rhs),rhsMax =  -9.02962149496034E-11  1.08865558769087E-02
 cg2d: Sum(rhs),rhsMax =  -9.04917252242399E-11  1.08711723774594E-02
 cg2d: Sum(rhs),rhsMax =  -9.06477115591997E-11  1.08557847713181E-02
 cg2d: Sum(rhs),rhsMax =  -9.07932617977281E-11  1.08403629197519E-02
 cg2d: Sum(rhs),rhsMax =  -9.09945452320926E-11  1.08247647410151E-02
 cg2d: Sum(rhs),rhsMax =  -9.11843933693035E-11  1.08089515281592E-02
 cg2d: Sum(rhs),rhsMax =  -9.13323860984860E-11  1.07929208258340E-02
 cg2d: Sum(rhs),rhsMax =  -9.15381104249491E-11  1.07766898366132E-02
 cg2d: Sum(rhs),rhsMax =  -9.17397269262210E-11  1.07602705406274E-02
 cg2d: Sum(rhs),rhsMax =  -9.19428422285762E-11  1.07436703497813E-02
 cg2d: Sum(rhs),rhsMax =  -9.22050213958414E-11  1.07268937915612E-02
 cg2d: Sum(rhs),rhsMax =  -9.24599286022953E-11  1.07099430350428E-02
 cg2d: Sum(rhs),rhsMax =  -9.26453913585590E-11  1.06928223024172E-02
 cg2d: Sum(rhs),rhsMax =  -9.28406795885905E-11  1.06755328056213E-02
 cg2d: Sum(rhs),rhsMax =  -9.30883148342332E-11  1.06580733990241E-02
 cg2d: Sum(rhs),rhsMax =  -9.33017552107174E-11  1.06404218904255E-02
 cg2d: Sum(rhs),rhsMax =  -9.34778365824229E-11  1.06225428131871E-02
 cg2d: Sum(rhs),rhsMax =  -9.36931782158368E-11  1.06043786531944E-02
 cg2d: Sum(rhs),rhsMax =  -9.39128705357284E-11  1.05858510463052E-02
 cg2d: Sum(rhs),rhsMax =  -9.41628519948723E-11  1.05669738706264E-02
 cg2d: Sum(rhs),rhsMax =  -9.43570083178358E-11  1.05477692969061E-02
 cg2d: Sum(rhs),rhsMax =  -9.46146910818513E-11  1.05282530373612E-02
 cg2d: Sum(rhs),rhsMax =  -9.48376932541350E-11  1.05084308524694E-02
 cg2d: Sum(rhs),rhsMax =  -9.49975931252567E-11  1.04883098283498E-02
 cg2d: Sum(rhs),rhsMax =  -9.52896095363087E-11  1.04679062417006E-02
 cg2d: Sum(rhs),rhsMax =  -9.55140411207367E-11  1.04472570672658E-02
 cg2d: Sum(rhs),rhsMax =  -9.57441903537415E-11  1.04263720262816E-02
 cg2d: Sum(rhs),rhsMax =  -9.59875512407393E-11  1.04052586746951E-02
 cg2d: Sum(rhs),rhsMax =  -9.62752655375709E-11  1.03839265367968E-02
 cg2d: Sum(rhs),rhsMax =  -9.65297841659662E-11  1.03623492168785E-02
 cg2d: Sum(rhs),rhsMax =  -9.68468638617992E-11  1.03399118517021E-02
 cg2d: Sum(rhs),rhsMax =  -9.71811520145138E-11  1.03165824629834E-02
 cg2d: Sum(rhs),rhsMax =  -9.74779146289961E-11  1.02924229495759E-02
 cg2d: Sum(rhs),rhsMax =  -9.77808944924163E-11  1.02674831767257E-02
 cg2d: Sum(rhs),rhsMax =  -9.81299486113585E-11  1.02418093304526E-02
 cg2d: Sum(rhs),rhsMax =  -9.63028545797329E-11  1.04481410074747E-02
 cg2d: Sum(rhs),rhsMax =  -9.14307518584678E-11  1.10124073922296E-02
 cg2d: Sum(rhs),rhsMax =  -8.70825633825234E-11  1.15736977697927E-02
 cg2d: Sum(rhs),rhsMax =  -8.31884561236507E-11  1.21317965635617E-02
 cg2d: Sum(rhs),rhsMax =  -7.96031018879262E-11  1.26864872917993E-02
 cg2d: Sum(rhs),rhsMax =  -7.64174279410668E-11  1.32375525914136E-02
 cg2d: Sum(rhs),rhsMax =  -7.34263760904241E-11  1.37847742499534E-02
 cg2d: Sum(rhs),rhsMax =  -7.07344183226155E-11  1.43279332459637E-02
 cg2d: Sum(rhs),rhsMax =  -6.81931178192485E-11  1.48668097945105E-02
 cg2d: Sum(rhs),rhsMax =  -6.59076127007552E-11  1.54011834015997E-02
 cg2d: Sum(rhs),rhsMax =  -6.36976027479363E-11  1.59308329270543E-02
 cg2d: Sum(rhs),rhsMax =  -6.16893203186919E-11  1.64555366552530E-02
 cg2d: Sum(rhs),rhsMax =  -5.98593397072023E-11  1.69750723731889E-02
 cg2d: Sum(rhs),rhsMax =  -5.81218406736639E-11  1.74892174555297E-02
 cg2d: Sum(rhs),rhsMax =  -5.64983615447545E-11  1.79977489565453E-02
 cg2d: Sum(rhs),rhsMax =  -5.50073320226829E-11  1.85004437088921E-02
 cg2d: Sum(rhs),rhsMax =  -5.36574118470412E-11  1.89970784292399E-02
 cg2d: Sum(rhs),rhsMax =  -5.23801002572100E-11  1.94874298307251E-02
 cg2d: Sum(rhs),rhsMax =  -5.11689579596464E-11  1.99712747421714E-02
 cg2d: Sum(rhs),rhsMax =  -5.00602892472557E-11  2.04483902336767E-02
 cg2d: Sum(rhs),rhsMax =  -4.91005014424672E-11  2.09185537483099E-02
 cg2d: Sum(rhs),rhsMax =  -4.80712136763373E-11  2.13815432423920E-02
 cg2d: Sum(rhs),rhsMax =  -4.72349936941896E-11  2.18371373317976E-02
 cg2d: Sum(rhs),rhsMax =  -4.62780924692652E-11  2.22851154445005E-02
 cg2d: Sum(rhs),rhsMax =  -4.54931647908552E-11  2.27252579743703E-02
 cg2d: Sum(rhs),rhsMax =  -4.47226700117653E-11  2.31573464493451E-02
 cg2d: Sum(rhs),rhsMax =  -4.39458469614351E-11  2.35811637016423E-02
 cg2d: Sum(rhs),rhsMax =  -4.32309743558790E-11  2.39964940413169E-02
 cg2d: Sum(rhs),rhsMax =  -4.25599555597955E-11  2.44031234356392E-02
 cg2d: Sum(rhs),rhsMax =  -4.19280166141789E-11  2.48008396938857E-02
 cg2d: Sum(rhs),rhsMax =  -4.13463707715778E-11  2.51894326568504E-02
 cg2d: Sum(rhs),rhsMax =  -4.07744948915933E-11  2.55686943903114E-02
 cg2d: Sum(rhs),rhsMax =  -4.01934041605045E-11  2.59384193817669E-02
 cg2d: Sum(rhs),rhsMax =  -3.96668253799248E-11  2.62984047392261E-02
 cg2d: Sum(rhs),rhsMax =  -3.91491283835421E-11  2.66484503933224E-02
 cg2d: Sum(rhs),rhsMax =  -3.86952692110754E-11  2.69883593012598E-02
 cg2d: Sum(rhs),rhsMax =  -3.82699427703415E-11  2.73179376521574E-02
 cg2d: Sum(rhs),rhsMax =  -3.78732600836429E-11  2.76369950733926E-02
 cg2d: Sum(rhs),rhsMax =  -3.75421915776997E-11  2.79453448375726E-02
 cg2d: Sum(rhs),rhsMax =  -3.72311070861997E-11  2.82428040697923E-02
 cg2d: Sum(rhs),rhsMax =  -3.69156927249037E-11  2.85291939539865E-02
 cg2d: Sum(rhs),rhsMax =  -3.67131880452121E-11  2.88043399408975E-02
 cg2d: Sum(rhs),rhsMax =  -3.64209773451307E-11  2.90680719545694E-02
 cg2d: Sum(rhs),rhsMax =  -3.61777274804354E-11  2.93202245971170E-02
 cg2d: Sum(rhs),rhsMax =  -3.59272611660799E-11  2.95606373516015E-02
 cg2d: Sum(rhs),rhsMax =  -3.57188723043578E-11  2.97891547827495E-02
 cg2d: Sum(rhs),rhsMax =  -3.54806184432732E-11  3.00056267350536E-02
 cg2d: Sum(rhs),rhsMax =  -3.53197471270050E-11  3.02099085279314E-02
 cg2d: Sum(rhs),rhsMax =  -3.50947049199135E-11  3.04018611464754E-02
 cg2d: Sum(rhs),rhsMax =  -3.49269502208926E-11  3.05813514275168E-02
 cg2d: Sum(rhs),rhsMax =  -3.47645245923900E-11  3.07482522407318E-02
 cg2d: Sum(rhs),rhsMax =  -3.45888873098943E-11  3.09024426640875E-02
 cg2d: Sum(rhs),rhsMax =  -3.44627659742969E-11  3.10438081529657E-02
 cg2d: Sum(rhs),rhsMax =  -3.43107764422257E-11  3.11722407024286E-02
 cg2d: Sum(rhs),rhsMax =  -3.41735528763820E-11  3.12876390022290E-02
 cg2d: Sum(rhs),rhsMax =  -3.40019123967750E-11  3.13899085842576E-02
 cg2d: Sum(rhs),rhsMax =  -3.38788996856465E-11  3.14789619621054E-02
 cg2d: Sum(rhs),rhsMax =  -3.38168382185700E-11  3.15547187628493E-02
 cg2d: Sum(rhs),rhsMax =  -3.37396777183585E-11  3.16171058509177E-02
 cg2d: Sum(rhs),rhsMax =  -3.37558869745180E-11  3.16660574438461E-02
 cg2d: Sum(rhs),rhsMax =  -3.37497807478826E-11  3.17015152198393E-02
 cg2d: Sum(rhs),rhsMax =  -3.37515571047220E-11  3.17234284171666E-02
 cg2d: Sum(rhs),rhsMax =  -3.38019612300400E-11  3.17317539254561E-02
 cg2d: Sum(rhs),rhsMax =  -3.38857830683992E-11  3.17264563689568E-02
 cg2d: Sum(rhs),rhsMax =  -3.39501760038274E-11  3.17075081826250E-02
 cg2d: Sum(rhs),rhsMax =  -3.40052430658488E-11  3.16748896796666E-02
 cg2d: Sum(rhs),rhsMax =  -3.41466854791861E-11  3.16285891089753E-02
 cg2d: Sum(rhs),rhsMax =  -3.42074146786331E-11  3.15686027052578E-02
 cg2d: Sum(rhs),rhsMax =  -3.43487460696679E-11  3.14949347314151E-02
 cg2d: Sum(rhs),rhsMax =  -3.44596573498279E-11  3.14075975127214E-02
 cg2d: Sum(rhs),rhsMax =  -3.46149775509730E-11  3.13066114624196E-02
 cg2d: Sum(rhs),rhsMax =  -3.48316930853798E-11  3.11920050984405E-02
 cg2d: Sum(rhs),rhsMax =  -3.50043327657090E-11  3.10638150511151E-02
 cg2d: Sum(rhs),rhsMax =  -3.51657591934895E-11  3.09220860618478E-02
 cg2d: Sum(rhs),rhsMax =  -3.52695650462920E-11  3.07668709727779E-02
 cg2d: Sum(rhs),rhsMax =  -3.53349571824424E-11  3.05982307075214E-02
 cg2d: Sum(rhs),rhsMax =  -3.54306584071651E-11  3.04162342430878E-02
 cg2d: Sum(rhs),rhsMax =  -3.55983020838835E-11  3.02209585731161E-02
 cg2d: Sum(rhs),rhsMax =  -3.57859297750451E-11  3.00124886625777E-02
 cg2d: Sum(rhs),rhsMax =  -3.59572371877448E-11  2.97909173941274E-02
 cg2d: Sum(rhs),rhsMax =  -3.61413121652276E-11  2.95563455063186E-02
 cg2d: Sum(rhs),rhsMax =  -3.63866714536698E-11  2.93088815239289E-02
 cg2d: Sum(rhs),rhsMax =  -3.66281449615258E-11  2.90486416806648E-02
 cg2d: Sum(rhs),rhsMax =  -3.68512997894754E-11  2.87757498345366E-02
 cg2d: Sum(rhs),rhsMax =  -3.70969921448250E-11  2.84903373779452E-02
 cg2d: Sum(rhs),rhsMax =  -3.73822084398512E-11  2.81925431378532E-02
 cg2d: Sum(rhs),rhsMax =  -3.76861875039936E-11  2.78825132699058E-02
 cg2d: Sum(rhs),rhsMax =  -3.79631881486375E-11  2.75604011469201E-02
 cg2d: Sum(rhs),rhsMax =  -3.83864051656246E-11  2.72263672419064E-02
 cg2d: Sum(rhs),rhsMax =  -3.88234999704196E-11  2.68805790055483E-02
 cg2d: Sum(rhs),rhsMax =  -3.92739174515100E-11  2.65232107381270E-02
 cg2d: Sum(rhs),rhsMax =  -3.97586408240613E-11  2.61544434559820E-02
 cg2d: Sum(rhs),rhsMax =  -4.03439504026437E-11  2.57744647527177E-02
 cg2d: Sum(rhs),rhsMax =  -4.08988398703514E-11  2.53834686554217E-02
 cg2d: Sum(rhs),rhsMax =  -4.14944745230628E-11  2.49816554761733E-02
 cg2d: Sum(rhs),rhsMax =  -4.20750101426393E-11  2.45692316591139E-02
 cg2d: Sum(rhs),rhsMax =  -4.27707869121718E-11  2.41464096233360E-02
 cg2d: Sum(rhs),rhsMax =  -4.34725588860374E-11  2.37134076018425E-02
 cg2d: Sum(rhs),rhsMax =  -4.42044179038703E-11  2.32704494762084E-02
 cg2d: Sum(rhs),rhsMax =  -4.49777992628242E-11  2.28177646037161E-02
 cg2d: Sum(rhs),rhsMax =  -4.58795224034247E-11  2.23555876516841E-02
 cg2d: Sum(rhs),rhsMax =  -4.68204364167946E-11  2.18841584259281E-02
 cg2d: Sum(rhs),rhsMax =  -4.77657913222629E-11  2.14037216944489E-02
 cg2d: Sum(rhs),rhsMax =  -4.87632156875861E-11  2.09145270076896E-02
 cg2d: Sum(rhs),rhsMax =  -4.98361352185839E-11  2.04168285166957E-02
 cg2d: Sum(rhs),rhsMax =  -5.09867703613054E-11  1.99108847900237E-02
 cg2d: Sum(rhs),rhsMax =  -5.23355803139225E-11  1.93969586298496E-02
 cg2d: Sum(rhs),rhsMax =  -5.37246913623335E-11  1.88753168874428E-02
 cg2d: Sum(rhs),rhsMax =  -5.52500267758660E-11  1.83462302781039E-02
 cg2d: Sum(rhs),rhsMax =  -5.68401992140366E-11  1.78099731957000E-02
 cg2d: Sum(rhs),rhsMax =  -5.86390935808367E-11  1.72668235288915E-02
 cg2d: Sum(rhs),rhsMax =  -6.05034911060898E-11  1.67170624732623E-02
 cg2d: Sum(rhs),rhsMax =  -6.25494100958690E-11  1.61609743450616E-02
 cg2d: Sum(rhs),rhsMax =  -6.47176756629619E-11  1.55988464032533E-02
 cg2d: Sum(rhs),rhsMax =  -6.70931088464499E-11  1.50309686587964E-02
 cg2d: Sum(rhs),rhsMax =  -6.96895874341408E-11  1.44576336884397E-02
 cg2d: Sum(rhs),rhsMax =  -7.25594029304943E-11  1.38791364518684E-02
 cg2d: Sum(rhs),rhsMax =  -7.56728013584507E-11  1.32957741110006E-02
 cg2d: Sum(rhs),rhsMax =  -7.91104959319000E-11  1.27078458503947E-02
 cg2d: Sum(rhs),rhsMax =  -8.29666335633306E-11  1.21156526982541E-02
 cg2d: Sum(rhs),rhsMax =  -8.72191208145523E-11  1.15194973479790E-02
 cg2d: Sum(rhs),rhsMax =  -8.74105232639977E-11  1.14855271144781E-02
 cg2d: Sum(rhs),rhsMax =  -8.73104921694789E-11  1.14853703917450E-02
 cg2d: Sum(rhs),rhsMax =  -8.72699690290801E-11  1.14851166620124E-02
 cg2d: Sum(rhs),rhsMax =  -8.71506755650842E-11  1.14847192821483E-02
 cg2d: Sum(rhs),rhsMax =  -8.71619443287841E-11  1.14841864442050E-02
 cg2d: Sum(rhs),rhsMax =  -8.71522298773186E-11  1.14835636336494E-02
 cg2d: Sum(rhs),rhsMax =  -8.70730154645116E-11  1.14829347548497E-02
 cg2d: Sum(rhs),rhsMax =  -8.69808669534677E-11  1.14823128302611E-02
 cg2d: Sum(rhs),rhsMax =  -8.70052363488583E-11  1.14817044306666E-02
 cg2d: Sum(rhs),rhsMax =  -8.69178340412446E-11  1.14811200469284E-02
 cg2d: Sum(rhs),rhsMax =  -8.68554672628363E-11  1.14805715661094E-02
 cg2d: Sum(rhs),rhsMax =  -8.67798194414959E-11  1.14800709104084E-02
 cg2d: Sum(rhs),rhsMax =  -8.66784422015598E-11  1.14796297656343E-02
 cg2d: Sum(rhs),rhsMax =  -8.66019365594606E-11  1.14792588153011E-02
 cg2d: Sum(rhs),rhsMax =  -8.65119503812295E-11  1.14789675155937E-02
 cg2d: Sum(rhs),rhsMax =  -8.64124188870719E-11  1.14787640261561E-02
 cg2d: Sum(rhs),rhsMax =  -8.63063787104323E-11  1.14786552100594E-02
 cg2d: Sum(rhs),rhsMax =  -8.61963000975408E-11  1.14786473494471E-02
 cg2d: Sum(rhs),rhsMax =  -8.60878868191861E-11  1.14787448922000E-02
 cg2d: Sum(rhs),rhsMax =  -8.59605164826860E-11  1.14789510346996E-02
 cg2d: Sum(rhs),rhsMax =  -8.58862980734898E-11  1.14792676659158E-02
 cg2d: Sum(rhs),rhsMax =  -8.58091375732783E-11  1.14796957256686E-02
 cg2d: Sum(rhs),rhsMax =  -8.57486304184363E-11  1.14803519732670E-02
 cg2d: Sum(rhs),rhsMax =  -8.56274495752984E-11  1.14816402111774E-02
 cg2d: Sum(rhs),rhsMax =  -8.55459592052910E-11  1.14836589817130E-02
 cg2d: Sum(rhs),rhsMax =  -8.54107895520428E-11  1.14863536448439E-02
 cg2d: Sum(rhs),rhsMax =  -8.53158654834374E-11  1.14896765750915E-02
 cg2d: Sum(rhs),rhsMax =  -8.51829717873898E-11  1.14938038477867E-02
 cg2d: Sum(rhs),rhsMax =  -8.51012593727773E-11  1.14986892956148E-02
 cg2d: Sum(rhs),rhsMax =  -8.51274606361585E-11  1.15042554489936E-02
 cg2d: Sum(rhs),rhsMax =  -8.49379455658550E-11  1.15104325513552E-02
 cg2d: Sum(rhs),rhsMax =  -8.48622283555756E-11  1.15171538959311E-02
 cg2d: Sum(rhs),rhsMax =  -8.47280023918984E-11  1.15243512657442E-02
 cg2d: Sum(rhs),rhsMax =  -8.45927772274990E-11  1.15319575071802E-02
 cg2d: Sum(rhs),rhsMax =  -8.44566638846800E-11  1.15398699280208E-02
 cg2d: Sum(rhs),rhsMax =  -8.43372038872303E-11  1.15478797307048E-02
 cg2d: Sum(rhs),rhsMax =  -8.41683389651848E-11  1.15559593041302E-02
 cg2d: Sum(rhs),rhsMax =  -8.40854053052453E-11  1.15640890847804E-02
 cg2d: Sum(rhs),rhsMax =  -8.39791569617887E-11  1.15722452050616E-02
 cg2d: Sum(rhs),rhsMax =  -8.03401789539748E-11  1.20792311401942E-02
 cg2d: Sum(rhs),rhsMax =  -7.70710162356636E-11  1.25793706178873E-02
 cg2d: Sum(rhs),rhsMax =  -7.41535721715536E-11  1.30714269865176E-02
 cg2d: Sum(rhs),rhsMax =  -7.15159043096492E-11  1.35551757651716E-02
 cg2d: Sum(rhs),rhsMax =  -6.90875134878866E-11  1.40303972849970E-02
 cg2d: Sum(rhs),rhsMax =  -6.68459732011684E-11  1.44968768027512E-02
 cg2d: Sum(rhs),rhsMax =  -6.46902531542537E-11  1.49544046128990E-02
 cg2d: Sum(rhs),rhsMax =  -6.27673468756029E-11  1.54027761557157E-02
 cg2d: Sum(rhs),rhsMax =  -6.09595707246058E-11  1.58417921216533E-02
 cg2d: Sum(rhs),rhsMax =  -5.93165516704630E-11  1.62712585522410E-02
 cg2d: Sum(rhs),rhsMax =  -5.77529135625809E-11  1.66909869396241E-02
 cg2d: Sum(rhs),rhsMax =  -5.63117330543150E-11  1.71007943182717E-02
 cg2d: Sum(rhs),rhsMax =  -5.49469358901433E-11  1.75005033546795E-02
 cg2d: Sum(rhs),rhsMax =  -5.36674038542628E-11  1.78899424334811E-02
 cg2d: Sum(rhs),rhsMax =  -5.24665866308283E-11  1.82689457396479E-02
 cg2d: Sum(rhs),rhsMax =  -5.13793452228128E-11  1.86373533365583E-02
 cg2d: Sum(rhs),rhsMax =  -5.03479480329361E-11  1.89950112364705E-02
 cg2d: Sum(rhs),rhsMax =  -4.94047025512145E-11  1.93417714710649E-02
 cg2d: Sum(rhs),rhsMax =  -4.84472462147778E-11  1.96774921607355E-02
 cg2d: Sum(rhs),rhsMax =  -4.76071404520440E-11  2.00020375773675E-02
 cg2d: Sum(rhs),rhsMax =  -4.67633709533288E-11  2.03152782039267E-02
 cg2d: Sum(rhs),rhsMax =  -4.60090854303985E-11  2.06170907889980E-02
 cg2d: Sum(rhs),rhsMax =  -4.53249660026245E-11  2.09073583892288E-02
 cg2d: Sum(rhs),rhsMax =  -4.46808146037370E-11  2.11859704115278E-02
 cg2d: Sum(rhs),rhsMax =  -4.39746017377729E-11  2.14528226529285E-02
 cg2d: Sum(rhs),rhsMax =  -4.33724167692162E-11  2.17078173373052E-02
 cg2d: Sum(rhs),rhsMax =  -4.28187485468356E-11  2.19508631483755E-02
 cg2d: Sum(rhs),rhsMax =  -4.22738510863496E-11  2.21818752579644E-02
 cg2d: Sum(rhs),rhsMax =  -4.17730294799412E-11  2.24007753489974E-02
 cg2d: Sum(rhs),rhsMax =  -4.13182821290548E-11  2.26074916330744E-02
 cg2d: Sum(rhs),rhsMax =  -4.09314804272753E-11  2.28019588626520E-02
 cg2d: Sum(rhs),rhsMax =  -4.05492306398969E-11  2.29841183372928E-02
 cg2d: Sum(rhs),rhsMax =  -4.01438882136063E-11  2.31539179057261E-02
 cg2d: Sum(rhs),rhsMax =  -3.97946120500592E-11  2.33113119631982E-02
 cg2d: Sum(rhs),rhsMax =  -3.96152000092798E-11  2.34562614363633E-02
 cg2d: Sum(rhs),rhsMax =  -3.95065091751690E-11  2.35887337680053E-02
 cg2d: Sum(rhs),rhsMax =  -3.93596266690110E-11  2.37087028996715E-02
 cg2d: Sum(rhs),rhsMax =  -3.92658128234302E-11  2.38161492465235E-02
 cg2d: Sum(rhs),rhsMax =  -3.91792154275095E-11  2.39110596638384E-02
 cg2d: Sum(rhs),rhsMax =  -3.91512378072889E-11  2.39934274059562E-02
 cg2d: Sum(rhs),rhsMax =  -3.90892873625148E-11  2.40632520803411E-02
 cg2d: Sum(rhs),rhsMax =  -3.90377730141722E-11  2.41205395971763E-02
 cg2d: Sum(rhs),rhsMax =  -3.90244503378767E-11  2.41653021144308E-02
 cg2d: Sum(rhs),rhsMax =  -3.90000254313350E-11  2.41975579781879E-02
 cg2d: Sum(rhs),rhsMax =  -3.89926979593724E-11  2.42173316581444E-02
 cg2d: Sum(rhs),rhsMax =  -3.90514287573751E-11  2.42246536783704E-02
 cg2d: Sum(rhs),rhsMax =  -3.91378041086909E-11  2.42195605435736E-02
 cg2d: Sum(rhs),rhsMax =  -3.92038623786561E-11  2.42020946611279E-02
 cg2d: Sum(rhs),rhsMax =  -3.92629262435662E-11  2.41723042590428E-02
 cg2d: Sum(rhs),rhsMax =  -3.92834653695218E-11  2.41302433008414E-02
 cg2d: Sum(rhs),rhsMax =  -3.93683974309056E-11  2.40759713969358E-02
 cg2d: Sum(rhs),rhsMax =  -3.94331234332412E-11  2.40095537112250E-02
 cg2d: Sum(rhs),rhsMax =  -3.95392607543954E-11  2.39310608645244E-02
(PID.TID 0000.0001)      cg2d_init_res =   1.78563109579915E-02
(PID.TID 0000.0001)      cg2d_iters(min,last) =      -1      37
(PID.TID 0000.0001)      cg2d_last_res =   7.03047883737227E-14
(PID.TID 0000.0001) // =======================================================
(PID.TID 0000.0001) // Begin MONITOR dynamic field statistics
(PID.TID 0000.0001) // =======================================================
(PID.TID 0000.0001) %MON time_tsnumber                =                  2880
(PID.TID 0000.0001) %MON time_secondsf                =   4.3200000000000E+04
(PID.TID 0000.0001) %MON dynstat_eta_max              =   4.8293355951048E-03
(PID.TID 0000.0001) %MON dynstat_eta_min              =  -5.2692630485481E-03
(PID.TID 0000.0001) %MON dynstat_eta_mean             =   2.1619518338318E-15
(PID.TID 0000.0001) %MON dynstat_eta_sd               =   3.3962515739780E-03
(PID.TID 0000.0001) %MON dynstat_eta_del2             =   9.1486228590987E-06
(PID.TID 0000.0001) %MON dynstat_uvel_max             =   1.3079997078108E+00
(PID.TID 0000.0001) %MON dynstat_uvel_min             =  -1.6850011015322E-03
(PID.TID 0000.0001) %MON dynstat_uvel_mean            =   5.6140247506744E-01
(PID.TID 0000.0001) %MON dynstat_uvel_sd              =   3.4264441729994E-02
(PID.TID 0000.0001) %MON dynstat_uvel_del2            =   3.6522843574828E-04
(PID.TID 0000.0001) %MON dynstat_vvel_max             =   0.0000000000000E+00
(PID.TID 0000.0001) %MON dynstat_vvel_min             =   0.0000000000000E+00
(PID.TID 0000.0001) %MON dynstat_vvel_mean            =   0.0000000000000E+00
(PID.TID 0000.0001) %MON dynstat_vvel_sd              =   0.0000000000000E+00
(PID.TID 0000.0001) %MON dynstat_vvel_del2            =   0.0000000000000E+00
(PID.TID 0000.0001) %MON dynstat_wvel_max             =   1.4488551984767E-02
(PID.TID 0000.0001) %MON dynstat_wvel_min             =  -9.8233273915334E-03
(PID.TID 0000.0001) %MON dynstat_wvel_mean            =  -3.3105279883245E-21
(PID.TID 0000.0001) %MON dynstat_wvel_sd              =   1.4218716832051E-03
(PID.TID 0000.0001) %MON dynstat_wvel_del2            =   3.2460492417800E-05
(PID.TID 0000.0001) %MON dynstat_theta_max            =   1.5000000000009E+01
(PID.TID 0000.0001) %MON dynstat_theta_min            =   9.9999999999964E+00
(PID.TID 0000.0001) %MON dynstat_theta_mean           =   1.4011734484106E+01
(PID.TID 0000.0001) %MON dynstat_theta_sd             =   1.9228186466197E+00
(PID.TID 0000.0001) %MON dynstat_theta_del2           =   3.2083511288155E-04
(PID.TID 0000.0001) %MON dynstat_salt_max             =   3.5000000000000E+01
(PID.TID 0000.0001) %MON dynstat_salt_min             =   3.5000000000000E+01
(PID.TID 0000.0001) %MON dynstat_salt_mean            =   3.5000000000000E+01
(PID.TID 0000.0001) %MON dynstat_salt_sd              =   4.1922021409846E-13
(PID.TID 0000.0001) %MON dynstat_salt_del2            =   0.0000000000000E+00
(PID.TID 0000.0001) %MON dynstat_sst_max              =   1.5000000000000E+01
(PID.TID 0000.0001) %MON dynstat_sst_min              =   1.4999999999999E+01
(PID.TID 0000.0001) %MON dynstat_sst_mean             =   1.5000000000000E+01
(PID.TID 0000.0001) %MON dynstat_sst_sd               =   2.5469362518503E-13
(PID.TID 0000.0001) %MON dynstat_sst_del2             =   4.0416379806781E-15
(PID.TID 0000.0001) %MON dynstat_sss_max              =   3.5000000000000E+01
(PID.TID 0000.0001) %MON dynstat_sss_min              =   3.5000000000000E+01
(PID.TID 0000.0001) %MON dynstat_sss_mean             =   3.5000000000000E+01
(PID.TID 0000.0001) %MON dynstat_sss_sd               =   2.8421709430404E-14
(PID.TID 0000.0001) %MON dynstat_sss_del2             =   0.0000000000000E+00
(PID.TID 0000.0001) %MON forcing_qnet_max             =   0.0000000000000E+00
(PID.TID 0000.0001) %MON forcing_qnet_min             =   0.0000000000000E+00
(PID.TID 0000.0001) %MON forcing_qnet_mean            =   0.0000000000000E+00
(PID.TID 0000.0001) %MON forcing_qnet_sd              =   0.0000000000000E+00
(PID.TID 0000.0001) %MON forcing_qnet_del2            =   0.0000000000000E+00
(PID.TID 0000.0001) %MON forcing_qsw_max              =   0.0000000000000E+00
(PID.TID 0000.0001) %MON forcing_qsw_min              =   0.0000000000000E+00
(PID.TID 0000.0001) %MON forcing_qsw_mean             =   0.0000000000000E+00
(PID.TID 0000.0001) %MON forcing_qsw_sd               =   0.0000000000000E+00
(PID.TID 0000.0001) %MON forcing_qsw_del2             =   0.0000000000000E+00
(PID.TID 0000.0001) %MON forcing_empmr_max            =   0.0000000000000E+00
(PID.TID 0000.0001) %MON forcing_empmr_min            =   0.0000000000000E+00
(PID.TID 0000.0001) %MON forcing_empmr_mean           =   0.0000000000000E+00
(PID.TID 0000.0001) %MON forcing_empmr_sd             =   0.0000000000000E+00
(PID.TID 0000.0001) %MON forcing_empmr_del2           =   0.0000000000000E+00
(PID.TID 0000.0001) %MON forcing_fu_max               =   0.0000000000000E+00
(PID.TID 0000.0001) %MON forcing_fu_min               =   0.0000000000000E+00
(PID.TID 0000.0001) %MON forcing_fu_mean              =   0.0000000000000E+00
(PID.TID 0000.0001) %MON forcing_fu_sd                =   0.0000000000000E+00
(PID.TID 0000.0001) %MON forcing_fu_del2              =   0.0000000000000E+00
(PID.TID 0000.0001) %MON forcing_fv_max               =   0.0000000000000E+00
(PID.TID 0000.0001) %MON forcing_fv_min               =   0.0000000000000E+00
(PID.TID 0000.0001) %MON forcing_fv_mean              =   0.0000000000000E+00
(PID.TID 0000.0001) %MON forcing_fv_sd                =   0.0000000000000E+00
(PID.TID 0000.0001) %MON forcing_fv_del2              =   0.0000000000000E+00
(PID.TID 0000.0001) %MON advcfl_uvel_max              =   9.4459027291078E-02
(PID.TID 0000.0001) %MON advcfl_vvel_max              =   0.0000000000000E+00
(PID.TID 0000.0001) %MON advcfl_wvel_max              =   6.7528128011699E-02
(PID.TID 0000.0001) %MON advcfl_W_hf_max              =   9.5443639806889E-02
(PID.TID 0000.0001) %MON pe_b_mean                    =   2.8347713188848E-07
(PID.TID 0000.0001) %MON ke_max                       =   4.3217418997294E-01
(PID.TID 0000.0001) %MON ke_mean                      =   1.5819319257068E-01
(PID.TID 0000.0001) %MON ke_vol                       =   9.7476098603737E+10
(PID.TID 0000.0001) %MON vort_r_min                   =   0.0000000000000E+00
(PID.TID 0000.0001) %MON vort_r_max                   =   0.0000000000000E+00
(PID.TID 0000.0001) %MON vort_a_mean                  =   0.0000000000000E+00
(PID.TID 0000.0001) %MON vort_a_sd                    =   0.0000000000000E+00
(PID.TID 0000.0001) %MON vort_p_mean                  =   0.0000000000000E+00
(PID.TID 0000.0001) %MON vort_p_sd                    =   0.0000000000000E+00
(PID.TID 0000.0001) %MON surfExpan_theta_mean         =   1.3279703656271E-19
(PID.TID 0000.0001) %MON surfExpan_salt_mean          =   1.4536678235480E-19
(PID.TID 0000.0001) // =======================================================
(PID.TID 0000.0001) // End MONITOR dynamic field statistics
(PID.TID 0000.0001) // =======================================================
(PID.TID 0000.0001) // =======================================================
(PID.TID 0000.0001) // Begin OBCS MONITOR field statistics
(PID.TID 0000.0001) // =======================================================
(PID.TID 0000.0001) %MON obc_E_uVel_max               =   5.6028564143658E-01
(PID.TID 0000.0001) %MON obc_E_uVel_min               =   5.6028564143658E-01
(PID.TID 0000.0001) %MON obc_E_uVel_mean              =   5.6028564143658E-01
(PID.TID 0000.0001) %MON obc_E_uVel_sd                =   1.0536712127724E-08
(PID.TID 0000.0001) %MON obc_E_uVel_Int               =   5.6028564143658E+05
(PID.TID 0000.0001) %MON obc_W_uVel_max               =   5.6028564143658E-01
(PID.TID 0000.0001) %MON obc_W_uVel_min               =   5.6028564143658E-01
(PID.TID 0000.0001) %MON obc_W_uVel_mean              =   5.6028564143658E-01
(PID.TID 0000.0001) %MON obc_W_uVel_sd                =   1.0536712127724E-08
(PID.TID 0000.0001) %MON obc_W_uVel_Int               =   5.6028564143658E+05
(PID.TID 0000.0001) // =======================================================
(PID.TID 0000.0001) // End OBCS MONITOR field statistics
(PID.TID 0000.0001) // =======================================================
(PID.TID 0000.0001) %CHECKPOINT      2880 0000002880
 cg2d: Sum(rhs),rhsMax =  -3.97237798210881E-11  2.38405688349352E-02
 cg2d: Sum(rhs),rhsMax =  -3.99652533289441E-11  2.37381588552342E-02
 cg2d: Sum(rhs),rhsMax =  -4.02322619663664E-11  2.36239173074226E-02
 cg2d: Sum(rhs),rhsMax =  -4.04952738009001E-11  2.34979356140184E-02
 cg2d: Sum(rhs),rhsMax =  -4.08012512664868E-11  2.33603101266389E-02
 cg2d: Sum(rhs),rhsMax =  -4.10963485464322E-11  2.32111420119543E-02
 cg2d: Sum(rhs),rhsMax =  -4.14351886135478E-11  2.30505371351063E-02
 cg2d: Sum(rhs),rhsMax =  -4.17726964130338E-11  2.28786059407461E-02
 cg2d: Sum(rhs),rhsMax =  -4.22014645451441E-11  2.26954633320035E-02
 cg2d: Sum(rhs),rhsMax =  -4.26282342758100E-11  2.25012285475593E-02
 cg2d: Sum(rhs),rhsMax =  -4.31081836893554E-11  2.22960250370677E-02
 cg2d: Sum(rhs),rhsMax =  -4.36535252390513E-11  2.20799803352071E-02
 cg2d: Sum(rhs),rhsMax =  -4.42185177362830E-11  2.18532259345957E-02
 cg2d: Sum(rhs),rhsMax =  -4.48142634112969E-11  2.16158971577969E-02
 cg2d: Sum(rhs),rhsMax =  -4.54520865389441E-11  2.13681330286514E-02
 cg2d: Sum(rhs),rhsMax =  -4.60494975484949E-11  2.11100761431789E-02
 cg2d: Sum(rhs),rhsMax =  -4.66386929076634E-11  2.08418725403204E-02
 cg2d: Sum(rhs),rhsMax =  -4.73021621871794E-11  2.05636715728084E-02
 cg2d: Sum(rhs),rhsMax =  -4.80140371905691E-11  2.02756257784541E-02
 cg2d: Sum(rhs),rhsMax =  -4.87633267098886E-11  1.99778907521444E-02
 cg2d: Sum(rhs),rhsMax =  -4.95857799265309E-11  1.96706250202654E-02
 cg2d: Sum(rhs),rhsMax =  -5.04268848899869E-11  1.93539899150988E-02
 cg2d: Sum(rhs),rhsMax =  -5.13566966731105E-11  1.90281494484008E-02
 cg2d: Sum(rhs),rhsMax =  -5.23320276002437E-11  1.86932701880697E-02
 cg2d: Sum(rhs),rhsMax =  -5.33666444368919E-11  1.83495211377592E-02
 cg2d: Sum(rhs),rhsMax =  -5.44672085212028E-11  1.79970736192306E-02
 cg2d: Sum(rhs),rhsMax =  -5.56743540158777E-11  1.76361011572678E-02
 cg2d: Sum(rhs),rhsMax =  -5.69705393971276E-11  1.72667793671839E-02
 cg2d: Sum(rhs),rhsMax =  -5.82377479574347E-11  1.68892858450901E-02
 cg2d: Sum(rhs),rhsMax =  -5.97543126090727E-11  1.65038000611310E-02
 cg2d: Sum(rhs),rhsMax =  -6.12783157549757E-11  1.61105032559122E-02
 cg2d: Sum(rhs),rhsMax =  -6.28949115011324E-11  1.57095783402842E-02
 cg2d: Sum(rhs),rhsMax =  -6.46586117980519E-11  1.53026851340923E-02
 cg2d: Sum(rhs),rhsMax =  -6.63488153307412E-11  1.49322920464224E-02
 cg2d: Sum(rhs),rhsMax =  -6.81189549212036E-11  1.45545527345366E-02
 cg2d: Sum(rhs),rhsMax =  -7.00304259027007E-11  1.41696603792877E-02
 cg2d: Sum(rhs),rhsMax =  -7.20725701341962E-11  1.37778119720335E-02
 cg2d: Sum(rhs),rhsMax =  -7.42448325041778E-11  1.33792081744609E-02
 cg2d: Sum(rhs),rhsMax =  -7.66067209667654E-11  1.29740531672767E-02
 cg2d: Sum(rhs),rhsMax =  -7.90997267685611E-11  1.25625544970678E-02
 cg2d: Sum(rhs),rhsMax =  -8.18306533645341E-11  1.21449229295318E-02
 cg2d: Sum(rhs),rhsMax =  -8.48465742109283E-11  1.17213723111579E-02
 cg2d: Sum(rhs),rhsMax =  -8.73360272990453E-11  1.13910248497365E-02
 cg2d: Sum(rhs),rhsMax =  -8.75660655097477E-11  1.13650323946818E-02
 cg2d: Sum(rhs),rhsMax =  -8.77973249657771E-11  1.13384161911590E-02
 cg2d: Sum(rhs),rhsMax =  -8.80012729354007E-11  1.13111062495003E-02
 cg2d: Sum(rhs),rhsMax =  -8.83054740441480E-11  1.12831948546217E-02
 cg2d: Sum(rhs),rhsMax =  -8.85657103211202E-11  1.12547971496119E-02
 cg2d: Sum(rhs),rhsMax =  -8.88151774347534E-11  1.12259734593444E-02
 cg2d: Sum(rhs),rhsMax =  -8.91350326881479E-11  1.11970331856370E-02
 cg2d: Sum(rhs),rhsMax =  -8.94398999307100E-11  1.11682158262677E-02
 cg2d: Sum(rhs),rhsMax =  -8.97221186235697E-11  1.11395680099793E-02
 cg2d: Sum(rhs),rhsMax =  -8.99685881350365E-11  1.11114714783179E-02
 cg2d: Sum(rhs),rhsMax =  -9.02520280732233E-11  1.10832003972510E-02
 cg2d: Sum(rhs),rhsMax =  -9.05262531603057E-11  1.10547648463383E-02
 cg2d: Sum(rhs),rhsMax =  -9.08672581623193E-11  1.10261331007075E-02
 cg2d: Sum(rhs),rhsMax =  -9.08508823727061E-11  1.10320472008969E-02
 cg2d: Sum(rhs),rhsMax =  -9.06646424603252E-11  1.10625841015128E-02
 cg2d: Sum(rhs),rhsMax =  -9.04941122037428E-11  1.10929434010109E-02
 cg2d: Sum(rhs),rhsMax =  -9.02424246440603E-11  1.11231081572500E-02
 cg2d: Sum(rhs),rhsMax =  -9.00600150011144E-11  1.11530584717807E-02
 cg2d: Sum(rhs),rhsMax =  -8.98647267710828E-11  1.11827793546285E-02
 cg2d: Sum(rhs),rhsMax =  -8.96701046748660E-11  1.12120450179904E-02
 cg2d: Sum(rhs),rhsMax =  -8.94747331781076E-11  1.12408349961577E-02
 cg2d: Sum(rhs),rhsMax =  -8.93137924729004E-11  1.12691212153845E-02
 cg2d: Sum(rhs),rhsMax =  -8.91330828589609E-11  1.12969793055647E-02
 cg2d: Sum(rhs),rhsMax =  -8.90273809533992E-11  1.13244342313695E-02
 cg2d: Sum(rhs),rhsMax =  -8.88616402683340E-11  1.13514888753906E-02
 cg2d: Sum(rhs),rhsMax =  -8.86742623773529E-11  1.13781639071916E-02
 cg2d: Sum(rhs),rhsMax =  -8.85417017482126E-11  1.14044499784514E-02
 cg2d: Sum(rhs),rhsMax =  -8.83983997113091E-11  1.14303439224134E-02
 cg2d: Sum(rhs),rhsMax =  -8.83028927756158E-11  1.14559724586160E-02
 cg2d: Sum(rhs),rhsMax =  -8.81408834807473E-11  1.14813789676362E-02
 cg2d: Sum(rhs),rhsMax =  -8.80948092252254E-11  1.15065774762284E-02
 cg2d: Sum(rhs),rhsMax =  -8.79912809281791E-11  1.15315553170518E-02
 cg2d: Sum(rhs),rhsMax =  -8.78743744436861E-11  1.15563533624133E-02
 cg2d: Sum(rhs),rhsMax =  -8.77554140465975E-11  1.15810815127372E-02
 cg2d: Sum(rhs),rhsMax =  -8.75877148587278E-11  1.16058687938609E-02
 cg2d: Sum(rhs),rhsMax =  -8.74400551964527E-11  1.16307120778629E-02
 cg2d: Sum(rhs),rhsMax =  -8.73637828746610E-11  1.16555282569539E-02
 cg2d: Sum(rhs),rhsMax =  -8.72528715945009E-11  1.16802381607736E-02
 cg2d: Sum(rhs),rhsMax =  -8.71046568207134E-11  1.17048337687099E-02
 cg2d: Sum(rhs),rhsMax =  -8.69463390174019E-11  1.17292978736017E-02
 cg2d: Sum(rhs),rhsMax =  -8.68113358976075E-11  1.17536003627648E-02
 cg2d: Sum(rhs),rhsMax =  -8.66214877603966E-11  1.17777621605245E-02
 cg2d: Sum(rhs),rhsMax =  -8.63198401646059E-11  1.18312390325651E-02
 cg2d: Sum(rhs),rhsMax =  -8.28901391969339E-11  1.23457416718528E-02
 cg2d: Sum(rhs),rhsMax =  -7.96581689499476E-11  1.28565129709294E-02
 cg2d: Sum(rhs),rhsMax =  -7.67095276188456E-11  1.33633420321521E-02
 cg2d: Sum(rhs),rhsMax =  -7.39476258004856E-11  1.38660181577906E-02
 cg2d: Sum(rhs),rhsMax =  -7.14541759094800E-11  1.43643309120392E-02
 cg2d: Sum(rhs),rhsMax =  -6.91054991008855E-11  1.48580701875380E-02
 cg2d: Sum(rhs),rhsMax =  -6.69069244452203E-11  1.53470262763906E-02
 cg2d: Sum(rhs),rhsMax =  -6.49093001570122E-11  1.58309899456314E-02
 cg2d: Sum(rhs),rhsMax =  -6.30513419253020E-11  1.63097525170275E-02
 cg2d: Sum(rhs),rhsMax =  -6.13163964047203E-11  1.67831059510720E-02
 cg2d: Sum(rhs),rhsMax =  -5.96749316628120E-11  1.72508429350615E-02
 cg2d: Sum(rhs),rhsMax =  -5.82401904480889E-11  1.77127569735134E-02
 cg2d: Sum(rhs),rhsMax =  -5.68731728378680E-11  1.81686424848965E-02
 cg2d: Sum(rhs),rhsMax =  -5.55555601522428E-11  1.86182949038612E-02
 cg2d: Sum(rhs),rhsMax =  -5.43933786900652E-11  1.90615107838562E-02
 cg2d: Sum(rhs),rhsMax =  -5.32710542344716E-11  1.94980879005963E-02
 cg2d: Sum(rhs),rhsMax =  -5.21697129940435E-11  1.99278253613077E-02
 cg2d: Sum(rhs),rhsMax =  -5.11868325503428E-11  2.03505237178758E-02
 cg2d: Sum(rhs),rhsMax =  -5.02081709541358E-11  2.07659850829352E-02
 cg2d: Sum(rhs),rhsMax =  -4.93600715856246E-11  2.11740132496380E-02
 cg2d: Sum(rhs),rhsMax =  -4.84839945968929E-11  2.15744138134058E-02
 cg2d: Sum(rhs),rhsMax =  -4.76925166026376E-11  2.19669942964627E-02
 cg2d: Sum(rhs),rhsMax =  -4.68672878284337E-11  2.23515642755127E-02
 cg2d: Sum(rhs),rhsMax =  -4.61402027696067E-11  2.27279355125001E-02
 cg2d: Sum(rhs),rhsMax =  -4.54470905353332E-11  2.30959220883170E-02
 cg2d: Sum(rhs),rhsMax =  -4.47966108652054E-11  2.34553405392478E-02
 cg2d: Sum(rhs),rhsMax =  -4.42312853010662E-11  2.38060099959186E-02
 cg2d: Sum(rhs),rhsMax =  -4.36179981022633E-11  2.41477523245381E-02
 cg2d: Sum(rhs),rhsMax =  -4.30883106972146E-11  2.44803922701763E-02
 cg2d: Sum(rhs),rhsMax =  -4.25369739431858E-11  2.48037576018452E-02
 cg2d: Sum(rhs),rhsMax =  -4.20585788418748E-11  2.51176792582841E-02
 cg2d: Sum(rhs),rhsMax =  -4.15307788159680E-11  2.54219914965935E-02
 cg2d: Sum(rhs),rhsMax =  -4.11574108127866E-11  2.57165320410583E-02
 cg2d: Sum(rhs),rhsMax =  -4.07923694822898E-11  2.60011422318540E-02
 cg2d: Sum(rhs),rhsMax =  -4.04780653440184E-11  2.62756671734315E-02
 cg2d: Sum(rhs),rhsMax =  -4.01751965029007E-11  2.65399558823179E-02
 cg2d: Sum(rhs),rhsMax =  -3.98797661560479E-11  2.67938614339432E-02
 cg2d: Sum(rhs),rhsMax =  -3.95801169617016E-11  2.70372411080120E-02
 cg2d: Sum(rhs),rhsMax =  -3.93176602386802E-11  2.72699565319253E-02
 cg2d: Sum(rhs),rhsMax =  -3.90699694818863E-11  2.74918738217941E-02
 cg2d: Sum(rhs),rhsMax =  -3.87824217185084E-11  2.77028637206802E-02
 cg2d: Sum(rhs),rhsMax =  -3.85500520394544E-11  2.79028017337642E-02
 cg2d: Sum(rhs),rhsMax =  -3.83777454260326E-11  2.80915682603483E-02
 cg2d: Sum(rhs),rhsMax =  -3.81830123075133E-11  2.82690487223947E-02
 cg2d: Sum(rhs),rhsMax =  -3.79885012335990E-11  2.84351336888480E-02
 cg2d: Sum(rhs),rhsMax =  -3.78250764043742E-11  2.85897189965846E-02
 cg2d: Sum(rhs),rhsMax =  -3.76899622622773E-11  2.87327058677717E-02
 cg2d: Sum(rhs),rhsMax =  -3.75134368013619E-11  2.88640010233969E-02
 cg2d: Sum(rhs),rhsMax =  -3.74030806327141E-11  2.89835167927965E-02
 cg2d: Sum(rhs),rhsMax =  -3.72888386834802E-11  2.90911712192755E-02
 cg2d: Sum(rhs),rhsMax =  -3.71556119205252E-11  2.91868881616611E-02
 cg2d: Sum(rhs),rhsMax =  -3.70200536892185E-11  2.92705973916332E-02
 cg2d: Sum(rhs),rhsMax =  -3.69922981136028E-11  2.93422346867231E-02
 cg2d: Sum(rhs),rhsMax =  -3.69734243221842E-11  2.94017419189149E-02
 cg2d: Sum(rhs),rhsMax =  -3.69861918869674E-11  2.94490671387553E-02
 cg2d: Sum(rhs),rhsMax =  -3.69912989128807E-11  2.94841646548569E-02
 cg2d: Sum(rhs),rhsMax =  -3.70424801943159E-11  2.95069951086385E-02
 cg2d: Sum(rhs),rhsMax =  -3.70903308066772E-11  2.95175255441223E-02
 cg2d: Sum(rhs),rhsMax =  -3.71623842809754E-11  2.95157294726001E-02
 cg2d: Sum(rhs),rhsMax =  -3.72255559710766E-11  2.95015869318944E-02
 cg2d: Sum(rhs),rhsMax =  -3.72804009884931E-11  2.94750845404717E-02
 cg2d: Sum(rhs),rhsMax =  -3.73516773066740E-11  2.94362155473632E-02
 cg2d: Sum(rhs),rhsMax =  -3.74651420997907E-11  2.93849798735856E-02
 cg2d: Sum(rhs),rhsMax =  -3.75982578404432E-11  2.93213841478304E-02
 cg2d: Sum(rhs),rhsMax =  -3.77641251603222E-11  2.92454417368335E-02
 cg2d: Sum(rhs),rhsMax =  -3.79722919774395E-11  2.91571727700062E-02
 cg2d: Sum(rhs),rhsMax =  -3.81681353189833E-11  2.90566041579226E-02
 cg2d: Sum(rhs),rhsMax =  -3.83623133259903E-11  2.89437696043761E-02
 cg2d: Sum(rhs),rhsMax =  -3.84865472824458E-11  2.88187096118998E-02
 cg2d: Sum(rhs),rhsMax =  -3.86350951231407E-11  2.86814714807529E-02
 cg2d: Sum(rhs),rhsMax =  -3.87543330759854E-11  2.85321093014469E-02
 cg2d: Sum(rhs),rhsMax =  -3.88834520137493E-11  2.83706839409167E-02
 cg2d: Sum(rhs),rhsMax =  -3.90657506343928E-11  2.81972630225296E-02
 cg2d: Sum(rhs),rhsMax =  -3.92675891802696E-11  2.80119209012078E-02
 cg2d: Sum(rhs),rhsMax =  -3.94512200685426E-11  2.78147386299392E-02
 cg2d: Sum(rhs),rhsMax =  -3.96479515885062E-11  2.76058039211133E-02
 cg2d: Sum(rhs),rhsMax =  -3.98734378848076E-11  2.73852111026479E-02
 cg2d: Sum(rhs),rhsMax =  -4.01101374336577E-11  2.71530610688154E-02
 cg2d: Sum(rhs),rhsMax =  -4.03743705135184E-11  2.69094612256294E-02
 cg2d: Sum(rhs),rhsMax =  -4.06746858416795E-11  2.66545254307374E-02
 cg2d: Sum(rhs),rhsMax =  -4.09393630107502E-11  2.63883739278520E-02
 cg2d: Sum(rhs),rhsMax =  -4.12443412756147E-11  2.61111332757957E-02
 cg2d: Sum(rhs),rhsMax =  -4.15510958973186E-11  2.58229362722452E-02
 cg2d: Sum(rhs),rhsMax =  -4.19173584731425E-11  2.55239218722639E-02
 cg2d: Sum(rhs),rhsMax =  -4.23598933707581E-11  2.52142351017125E-02
 cg2d: Sum(rhs),rhsMax =  -4.28331814461558E-11  2.48940269656474E-02
 cg2d: Sum(rhs),rhsMax =  -4.33539870670074E-11  2.45634543518173E-02
 cg2d: Sum(rhs),rhsMax =  -4.39248637462697E-11  2.42226799293675E-02
 cg2d: Sum(rhs),rhsMax =  -4.44799752585823E-11  2.38718720429657E-02
 cg2d: Sum(rhs),rhsMax =  -4.50793846695774E-11  2.35112046026594E-02
 cg2d: Sum(rhs),rhsMax =  -4.57542892462470E-11  2.31408569695784E-02
 cg2d: Sum(rhs),rhsMax =  -4.64618343798406E-11  2.27610138378308E-02
 cg2d: Sum(rhs),rhsMax =  -4.72214489732892E-11  2.23718651128275E-02
 cg2d: Sum(rhs),rhsMax =  -4.79900563732372E-11  2.19736057862422E-02
 cg2d: Sum(rhs),rhsMax =  -4.88011853150283E-11  2.15664358078241E-02
 cg2d: Sum(rhs),rhsMax =  -4.96939156491294E-11  2.11505599542421E-02
 cg2d: Sum(rhs),rhsMax =  -5.06110708897722E-11  2.07261876951429E-02
 cg2d: Sum(rhs),rhsMax =  -5.15946174672877E-11  2.02935330565621E-02
 cg2d: Sum(rhs),rhsMax =  -5.26221288765782E-11  1.98528144780041E-02
 cg2d: Sum(rhs),rhsMax =  -5.37638822351028E-11  1.94042546734535E-02
 cg2d: Sum(rhs),rhsMax =  -5.49498224700073E-11  1.89480804903937E-02
 cg2d: Sum(rhs),rhsMax =  -5.61920510122604E-11  1.84845227644464E-02
 cg2d: Sum(rhs),rhsMax =  -5.75891556664487E-11  1.80138161705543E-02
 cg2d: Sum(rhs),rhsMax =  -5.91784399261996E-11  1.75361990717131E-02
 cg2d: Sum(rhs),rhsMax =  -6.07724981449564E-11  1.70519133659937E-02
 cg2d: Sum(rhs),rhsMax =  -6.25084428662603E-11  1.65612043322479E-02
 cg2d: Sum(rhs),rhsMax =  -6.43860520455064E-11  1.60643204746668E-02
 cg2d: Sum(rhs),rhsMax =  -6.64441834885565E-11  1.55615133662566E-02
 cg2d: Sum(rhs),rhsMax =  -6.86692924745103E-11  1.50530374913389E-02
 cg2d: Sum(rhs),rhsMax =  -7.10946856941064E-11  1.45391500888675E-02
 cg2d: Sum(rhs),rhsMax =  -7.36332106399118E-11  1.40201109915187E-02
 cg2d: Sum(rhs),rhsMax =  -7.64522889440400E-11  1.34961824654590E-02
 cg2d: Sum(rhs),rhsMax =  -7.95640220374594E-11  1.29676290509483E-02
 cg2d: Sum(rhs),rhsMax =  -8.28168644773086E-11  1.24347174062745E-02
 cg2d: Sum(rhs),rhsMax =  -8.62500071363570E-11  1.19321119788564E-02
 cg2d: Sum(rhs),rhsMax =  -8.64242011289207E-11  1.19016316375786E-02
 cg2d: Sum(rhs),rhsMax =  -8.65988392106942E-11  1.18711933627460E-02
 cg2d: Sum(rhs),rhsMax =  -8.67355631761768E-11  1.18408139301947E-02
 cg2d: Sum(rhs),rhsMax =  -8.69107563694627E-11  1.18104563773138E-02
 cg2d: Sum(rhs),rhsMax =  -8.70756244886195E-11  1.17801817524336E-02
 cg2d: Sum(rhs),rhsMax =  -8.72206751267868E-11  1.17500288253646E-02
 cg2d: Sum(rhs),rhsMax =  -8.73718319915895E-11  1.17200120869986E-02
 cg2d: Sum(rhs),rhsMax =  -8.75112760034824E-11  1.16901369950129E-02
 cg2d: Sum(rhs),rhsMax =  -8.77276584709819E-11  1.16603967447871E-02
 cg2d: Sum(rhs),rhsMax =  -8.73927319400281E-11  1.16986581736781E-02
 cg2d: Sum(rhs),rhsMax =  -8.68403959852770E-11  1.17535660800349E-02
 cg2d: Sum(rhs),rhsMax =  -8.63308313725497E-11  1.18068960301250E-02
 cg2d: Sum(rhs),rhsMax =  -8.58805943027008E-11  1.18585522535362E-02
 cg2d: Sum(rhs),rhsMax =  -8.54413484407957E-11  1.19086781193061E-02
 cg2d: Sum(rhs),rhsMax =  -8.50874058710982E-11  1.19574072862368E-02
 cg2d: Sum(rhs),rhsMax =  -8.46603551152292E-11  1.20047683746158E-02
 cg2d: Sum(rhs),rhsMax =  -8.43172129338932E-11  1.20507910451156E-02
 cg2d: Sum(rhs),rhsMax =  -8.39467939606209E-11  1.20955128851430E-02
 cg2d: Sum(rhs),rhsMax =  -8.36130886749942E-11  1.21389755263277E-02
 cg2d: Sum(rhs),rhsMax =  -8.32340030232359E-11  1.21812240253788E-02
 cg2d: Sum(rhs),rhsMax =  -8.29223911757992E-11  1.22223041914576E-02
 cg2d: Sum(rhs),rhsMax =  -8.26428092626230E-11  1.22622638480584E-02
 cg2d: Sum(rhs),rhsMax =  -8.23646151282276E-11  1.23011514929984E-02
 cg2d: Sum(rhs),rhsMax =  -8.20352674679725E-11  1.23390171973248E-02
 cg2d: Sum(rhs),rhsMax =  -8.16782197432531E-11  1.23759106389035E-02
 cg2d: Sum(rhs),rhsMax =  -8.13941136712515E-11  1.24118807588093E-02
 cg2d: Sum(rhs),rhsMax =  -8.10877476276062E-11  1.24469746262287E-02
 cg2d: Sum(rhs),rhsMax =  -8.08086375592154E-11  1.24812377391235E-02
 cg2d: Sum(rhs),rhsMax =  -8.05124300562454E-11  1.25147141931821E-02
 cg2d: Sum(rhs),rhsMax =  -8.02560240487082E-11  1.25474460256892E-02
 cg2d: Sum(rhs),rhsMax =  -7.99812438501135E-11  1.25794729934238E-02
 cg2d: Sum(rhs),rhsMax =  -7.97336641156221E-11  1.26108428718749E-02
 cg2d: Sum(rhs),rhsMax =  -7.94977417228893E-11  1.26416125001031E-02
 cg2d: Sum(rhs),rhsMax =  -7.92599319510146E-11  1.26717797227827E-02
 cg2d: Sum(rhs),rhsMax =  -7.90348897439230E-11  1.27013413454261E-02
 cg2d: Sum(rhs),rhsMax =  -7.88508147664402E-11  1.27303355157242E-02
 cg2d: Sum(rhs),rhsMax =  -7.86031240096463E-11  1.27587832230971E-02
 cg2d: Sum(rhs),rhsMax =  -7.83794140701843E-11  1.27864904897056E-02
 cg2d: Sum(rhs),rhsMax =  -7.81482656364574E-11  1.28134710530937E-02
 cg2d: Sum(rhs),rhsMax =  -7.79639686143696E-11  1.28397693771893E-02
 cg2d: Sum(rhs),rhsMax =  -7.76939623747808E-11  1.28656352921903E-02
 cg2d: Sum(rhs),rhsMax =  -7.74810215986577E-11  1.28913444088676E-02
 cg2d: Sum(rhs),rhsMax =  -7.72392150238943E-11  1.29169344904730E-02
 cg2d: Sum(rhs),rhsMax =  -7.70092878354944E-11  1.29424136539881E-02
 cg2d: Sum(rhs),rhsMax =  -7.68108909809939E-11  1.29680184564973E-02
 cg2d: Sum(rhs),rhsMax =  -7.66290364495603E-11  1.29937726896925E-02
 cg2d: Sum(rhs),rhsMax =  -7.63938912129447E-11  1.30196560930518E-02
 cg2d: Sum(rhs),rhsMax =  -7.45397077395182E-11  1.33399979180354E-02
 cg2d: Sum(rhs),rhsMax =  -7.21809279013996E-11  1.37494364300487E-02
 cg2d: Sum(rhs),rhsMax =  -7.01440017181199E-11  1.41503897877802E-02
 cg2d: Sum(rhs),rhsMax =  -6.82733869439289E-11  1.45426828734573E-02
 cg2d: Sum(rhs),rhsMax =  -6.64550636741978E-11  1.49261454467705E-02
 cg2d: Sum(rhs),rhsMax =  -6.46875886189946E-11  1.53006122189281E-02
 cg2d: Sum(rhs),rhsMax =  -6.30576701965424E-11  1.56659229219317E-02
 cg2d: Sum(rhs),rhsMax =  -6.15749673471555E-11  1.60219223744570E-02
 cg2d: Sum(rhs),rhsMax =  -6.02130567628478E-11  1.63684605496168E-02
 cg2d: Sum(rhs),rhsMax =  -5.89538418083180E-11  1.67053926387878E-02
 cg2d: Sum(rhs),rhsMax =  -5.77808911828015E-11  1.70325791102907E-02
 cg2d: Sum(rhs),rhsMax =  -5.66464652962395E-11  1.73498857567690E-02
 cg2d: Sum(rhs),rhsMax =  -5.55757662112910E-11  1.76571837412276E-02
 cg2d: Sum(rhs),rhsMax =  -5.46174216964346E-11  1.79543496413477E-02
 cg2d: Sum(rhs),rhsMax =  -5.36938271622489E-11  1.82412654912040E-02
 cg2d: Sum(rhs),rhsMax =  -5.28451726822254E-11  1.85178188194548E-02
 cg2d: Sum(rhs),rhsMax =  -5.20736787024134E-11  1.87839026834722E-02
 cg2d: Sum(rhs),rhsMax =  -5.13280529190752E-11  1.90394156993049E-02
 cg2d: Sum(rhs),rhsMax =  -5.05222530478022E-11  1.92842620676556E-02
 cg2d: Sum(rhs),rhsMax =  -4.98170393825603E-11  1.95183515961337E-02
 cg2d: Sum(rhs),rhsMax =  -4.91190421669785E-11  1.97415997180188E-02
 cg2d: Sum(rhs),rhsMax =  -4.85051998566632E-11  1.99539275074277E-02
 cg2d: Sum(rhs),rhsMax =  -4.79425388277832E-11  2.01552616902137E-02
 cg2d: Sum(rhs),rhsMax =  -4.74523753624112E-11  2.03455346533193E-02
 cg2d: Sum(rhs),rhsMax =  -4.69041472328513E-11  2.05246844502516E-02
 cg2d: Sum(rhs),rhsMax =  -4.64843719072405E-11  2.06926548048348E-02
 cg2d: Sum(rhs),rhsMax =  -4.61085614134049E-11  2.08493951102218E-02
 cg2d: Sum(rhs),rhsMax =  -4.57330839864767E-11  2.09948604233854E-02
 cg2d: Sum(rhs),rhsMax =  -4.53928006294291E-11  2.11290114546586E-02
 cg2d: Sum(rhs),rhsMax =  -4.50650627925597E-11  2.12518145537547E-02
 cg2d: Sum(rhs),rhsMax =  -4.49282833159259E-11  2.13632416921663E-02
 cg2d: Sum(rhs),rhsMax =  -4.48325820912032E-11  2.14632704416186E-02
 cg2d: Sum(rhs),rhsMax =  -4.47466508290972E-11  2.15518839482789E-02
 cg2d: Sum(rhs),rhsMax =  -4.46878090087921E-11  2.16290709025806E-02
 cg2d: Sum(rhs),rhsMax =  -4.46382930618938E-11  2.16948255047090E-02
 cg2d: Sum(rhs),rhsMax =  -4.46143122445619E-11  2.17491474259405E-02
 cg2d: Sum(rhs),rhsMax =  -4.46118697539077E-11  2.17920417660857E-02
 cg2d: Sum(rhs),rhsMax =  -4.46220838057343E-11  2.18235190071803E-02
 cg2d: Sum(rhs),rhsMax =  -4.46928050124029E-11  2.18435949640942E-02
 cg2d: Sum(rhs),rhsMax =  -4.47603065723001E-11  2.18522907322226E-02
 cg2d: Sum(rhs),rhsMax =  -4.48296955113392E-11  2.18496326323309E-02
 cg2d: Sum(rhs),rhsMax =  -4.49569270699612E-11  2.18356521528131E-02
 cg2d: Sum(rhs),rhsMax =  -4.51074733121004E-11  2.18103858892077E-02
 cg2d: Sum(rhs),rhsMax =  -4.52284876217846E-11  2.17738754816156E-02
 cg2d: Sum(rhs),rhsMax =  -4.53174164860570E-11  2.17261675499241E-02
 cg2d: Sum(rhs),rhsMax =  -4.54929427462503E-11  2.16673136269110E-02
 cg2d: Sum(rhs),rhsMax =  -4.55866455695286E-11  2.15973700899501E-02
 cg2d: Sum(rhs),rhsMax =  -4.58313387241560E-11  2.15163980896434E-02
 cg2d: Sum(rhs),rhsMax =  -4.60596005780189E-11  2.14244634755139E-02
 cg2d: Sum(rhs),rhsMax =  -4.64562832647175E-11  2.13216367199865E-02
 cg2d: Sum(rhs),rhsMax =  -4.67587080166254E-11  2.12079928404475E-02
 cg2d: Sum(rhs),rhsMax =  -4.70850025635627E-11  2.10836113192276E-02
 cg2d: Sum(rhs),rhsMax =  -4.74319472587581E-11  2.09485760214777E-02
 cg2d: Sum(rhs),rhsMax =  -4.78349582166970E-11  2.08029751110605E-02
 cg2d: Sum(rhs),rhsMax =  -4.82851536531825E-11  2.06469009643619E-02
 cg2d: Sum(rhs),rhsMax =  -4.87251350378415E-11  2.04804500823033E-02
 cg2d: Sum(rhs),rhsMax =  -4.92651475170192E-11  2.03037230009337E-02
 cg2d: Sum(rhs),rhsMax =  -4.97996088810737E-11  2.01168242008199E-02
 cg2d: Sum(rhs),rhsMax =  -5.04418729008194E-11  1.99198620154796E-02
 cg2d: Sum(rhs),rhsMax =  -5.10619324600725E-11  1.97129485391317E-02
 cg2d: Sum(rhs),rhsMax =  -5.17459408655441E-11  1.94961995339244E-02
 cg2d: Sum(rhs),rhsMax =  -5.24441601257308E-11  1.92697343369208E-02
 cg2d: Sum(rhs),rhsMax =  -5.31105159851109E-11  1.90336757671179E-02
 cg2d: Sum(rhs),rhsMax =  -5.38790123627564E-11  1.87881500339277E-02
 cg2d: Sum(rhs),rhsMax =  -5.47047962484726E-11  1.85332866449412E-02
 cg2d: Sum(rhs),rhsMax =  -5.55104850974431E-11  1.82692183123265E-02
 cg2d: Sum(rhs),rhsMax =  -5.64103208589017E-11  1.79960808609951E-02
 cg2d: Sum(rhs),rhsMax =  -5.73879832543867E-11  1.77140131383423E-02
 cg2d: Sum(rhs),rhsMax =  -5.84522430457923E-11  1.74231569252857E-02
 cg2d: Sum(rhs),rhsMax =  -5.95423710336718E-11  1.71236568483600E-02
 cg2d: Sum(rhs),rhsMax =  -6.07357497628414E-11  1.68156602927777E-02
 cg2d: Sum(rhs),rhsMax =  -6.19336804064119E-11  1.64993173164659E-02
 cg2d: Sum(rhs),rhsMax =  -6.32195407135328E-11  1.61747805651487E-02
 cg2d: Sum(rhs),rhsMax =  -6.46416253857751E-11  1.58422051885280E-02
 cg2d: Sum(rhs),rhsMax =  -6.60707044630726E-11  1.55279866153440E-02
 cg2d: Sum(rhs),rhsMax =  -6.74479361251201E-11  1.52229621646535E-02
 cg2d: Sum(rhs),rhsMax =  -6.89170942536066E-11  1.49105440716631E-02
 cg2d: Sum(rhs),rhsMax =  -7.05284719515475E-11  1.45908873193233E-02
 cg2d: Sum(rhs),rhsMax =  -7.22710780109992E-11  1.42641507979432E-02
 cg2d: Sum(rhs),rhsMax =  -7.41404715398630E-11  1.39304972009669E-02
 cg2d: Sum(rhs),rhsMax =  -7.56401608015267E-11  1.36605162105860E-02
 cg2d: Sum(rhs),rhsMax =  -7.57169882348308E-11  1.36475354246045E-02
 cg2d: Sum(rhs),rhsMax =  -7.59172724684731E-11  1.36337928387633E-02
 cg2d: Sum(rhs),rhsMax =  -7.59989848830855E-11  1.36191194656033E-02
 cg2d: Sum(rhs),rhsMax =  -7.61289919992691E-11  1.36034088059460E-02
 cg2d: Sum(rhs),rhsMax =  -7.62442331492252E-11  1.35867416636590E-02
 cg2d: Sum(rhs),rhsMax =  -7.63142882220791E-11  1.35691517898991E-02
 cg2d: Sum(rhs),rhsMax =  -7.64862617685935E-11  1.35506143061317E-02
 cg2d: Sum(rhs),rhsMax =  -7.66195995538510E-11  1.35314479142607E-02
 cg2d: Sum(rhs),rhsMax =  -7.67034213922102E-11  1.35119250615234E-02
 cg2d: Sum(rhs),rhsMax =  -7.68648478199907E-11  1.34922927941168E-02
 cg2d: Sum(rhs),rhsMax =  -7.70273844707958E-11  1.34725370372183E-02
 cg2d: Sum(rhs),rhsMax =  -7.72143460281427E-11  1.34526245104632E-02
 cg2d: Sum(rhs),rhsMax =  -7.73835440170956E-11  1.34325467205210E-02
 cg2d: Sum(rhs),rhsMax =  -7.75606245895233E-11  1.34122671235675E-02
 cg2d: Sum(rhs),rhsMax =  -7.77287123554515E-11  1.33917660046610E-02
 cg2d: Sum(rhs),rhsMax =  -7.77982123167931E-11  1.33710728920921E-02
 cg2d: Sum(rhs),rhsMax =  -7.78918041177690E-11  1.33508057070249E-02
 cg2d: Sum(rhs),rhsMax =  -7.80636666419809E-11  1.33310059727384E-02
 cg2d: Sum(rhs),rhsMax =  -7.82388043241156E-11  1.33115976453225E-02
 cg2d: Sum(rhs),rhsMax =  -7.84098341810591E-11  1.32925176570180E-02
 cg2d: Sum(rhs),rhsMax =  -7.85673748282534E-11  1.32737109016658E-02
 cg2d: Sum(rhs),rhsMax =  -7.87091503084980E-11  1.32551246355009E-02
 cg2d: Sum(rhs),rhsMax =  -7.88733522938401E-11  1.32367210677011E-02
 cg2d: Sum(rhs),rhsMax =  -7.90237320025255E-11  1.32184732379714E-02
 cg2d: Sum(rhs),rhsMax =  -7.91418597323457E-11  1.32003388388207E-02
 cg2d: Sum(rhs),rhsMax =  -7.92703125362948E-11  1.31822764793802E-02
 cg2d: Sum(rhs),rhsMax =  -7.93999310744198E-11  1.31642489376465E-02
 cg2d: Sum(rhs),rhsMax =  -7.95516430507348E-11  1.31462234037482E-02
 cg2d: Sum(rhs),rhsMax =  -7.97134858121495E-11  1.31281728986790E-02
 cg2d: Sum(rhs),rhsMax =  -7.98865001927496E-11  1.31100604111442E-02
 cg2d: Sum(rhs),rhsMax =  -7.99791760597302E-11  1.30917978614069E-02
 cg2d: Sum(rhs),rhsMax =  -8.01536753636256E-11  1.30732921566894E-02
 cg2d: Sum(rhs),rhsMax =  -8.03011546146593E-11  1.30544764937316E-02
 cg2d: Sum(rhs),rhsMax =  -8.04480995708623E-11  1.30353448423653E-02
 cg2d: Sum(rhs),rhsMax =  -8.05998739972225E-11  1.30158954140244E-02
 cg2d: Sum(rhs),rhsMax =  -8.07492683829736E-11  1.29961243678968E-02
 cg2d: Sum(rhs),rhsMax =  -8.09102229659686E-11  1.29760195430406E-02
 cg2d: Sum(rhs),rhsMax =  -8.11063438632686E-11  1.29555904750789E-02
 cg2d: Sum(rhs),rhsMax =  -8.12894196400293E-11  1.29348570677559E-02
 cg2d: Sum(rhs),rhsMax =  -8.15055245517726E-11  1.29137591335539E-02
 cg2d: Sum(rhs),rhsMax =  -8.16750556076329E-11  1.28922641748103E-02
 cg2d: Sum(rhs),rhsMax =  -8.18444756411907E-11  1.28705021295169E-02
 cg2d: Sum(rhs),rhsMax =  -8.20071233142983E-11  1.28485437855232E-02
 cg2d: Sum(rhs),rhsMax =  -8.21879786450097E-11  1.28263794587885E-02
 cg2d: Sum(rhs),rhsMax =  -8.23786039383378E-11  1.28040583171860E-02
 cg2d: Sum(rhs),rhsMax =  -8.26685941923699E-11  1.27816301959418E-02
 cg2d: Sum(rhs),rhsMax =  -8.28450641421341E-11  1.27591504119936E-02
 cg2d: Sum(rhs),rhsMax =  -8.30373547699992E-11  1.27366610130526E-02
 cg2d: Sum(rhs),rhsMax =  -8.32890423296817E-11  1.27142203938562E-02
 cg2d: Sum(rhs),rhsMax =  -8.34720070841399E-11  1.26918726448162E-02
 cg2d: Sum(rhs),rhsMax =  -8.37268032682914E-11  1.26696619904295E-02
 cg2d: Sum(rhs),rhsMax =  -8.39003311270403E-11  1.26476374623298E-02
 cg2d: Sum(rhs),rhsMax =  -8.41278158247860E-11  1.26258514023696E-02
 cg2d: Sum(rhs),rhsMax =  -8.43105585346393E-11  1.26043566874143E-02
 cg2d: Sum(rhs),rhsMax =  -8.22250045828810E-11  1.29290767671788E-02
 cg2d: Sum(rhs),rhsMax =  -7.94457832853368E-11  1.33929332938602E-02
 cg2d: Sum(rhs),rhsMax =  -7.69050378934821E-11  1.38524843012561E-02
 cg2d: Sum(rhs),rhsMax =  -7.45349337805123E-11  1.43075321828710E-02
 cg2d: Sum(rhs),rhsMax =  -7.22772952599371E-11  1.47578803127584E-02
 cg2d: Sum(rhs),rhsMax =  -7.01240177036766E-11  1.52033331201226E-02
 cg2d: Sum(rhs),rhsMax =  -6.81870115926131E-11  1.56436961666284E-02
 cg2d: Sum(rhs),rhsMax =  -6.63725741034682E-11  1.60787762261701E-02
 cg2d: Sum(rhs),rhsMax =  -6.46684927829710E-11  1.65083813668566E-02
 cg2d: Sum(rhs),rhsMax =  -6.31296126485381E-11  1.69323210350563E-02
 cg2d: Sum(rhs),rhsMax =  -6.16574569178852E-11  1.73504061404057E-02
 cg2d: Sum(rhs),rhsMax =  -6.03166405710454E-11  1.77624491447040E-02
 cg2d: Sum(rhs),rhsMax =  -5.90134607847403E-11  1.81682641526922E-02
 cg2d: Sum(rhs),rhsMax =  -5.78023184871768E-11  1.85676670044204E-02
 cg2d: Sum(rhs),rhsMax =  -5.66702240689665E-11  1.89604753693624E-02
 cg2d: Sum(rhs),rhsMax =  -5.56025225861845E-11  1.93465088423775E-02
 cg2d: Sum(rhs),rhsMax =  -5.45951062136396E-11  1.97255890413714E-02
 cg2d: Sum(rhs),rhsMax =  -5.36429789477211E-11  2.00975397078984E-02
 cg2d: Sum(rhs),rhsMax =  -5.27585752863047E-11  2.04621868092453E-02
 cg2d: Sum(rhs),rhsMax =  -5.19377874041993E-11  2.08193586419557E-02
 cg2d: Sum(rhs),rhsMax =  -5.11390929602840E-11  2.11688859367930E-02
 cg2d: Sum(rhs),rhsMax =  -5.03843633481438E-11  2.15106019648657E-02
 cg2d: Sum(rhs),rhsMax =  -4.96689356310753E-11  2.18443426452025E-02
 cg2d: Sum(rhs),rhsMax =  -4.89609464082719E-11  2.21699466548665E-02
 cg2d: Sum(rhs),rhsMax =  -4.83304507525872E-11  2.24872555380083E-02
 cg2d: Sum(rhs),rhsMax =  -4.77080597249824E-11  2.27961138154404E-02
 cg2d: Sum(rhs),rhsMax =  -4.71128691614808E-11  2.30963690947167E-02
 cg2d: Sum(rhs),rhsMax =  -4.65795180204509E-11  2.33878721804348E-02
 cg2d: Sum(rhs),rhsMax =  -4.60469440355382E-11  2.36704771843775E-02
 cg2d: Sum(rhs),rhsMax =  -4.55803172982883E-11  2.39440416351138E-02
 cg2d: Sum(rhs),rhsMax =  -4.51687576230597E-11  2.42084265867415E-02
 cg2d: Sum(rhs),rhsMax =  -4.47806236536508E-11  2.44634967265215E-02
 cg2d: Sum(rhs),rhsMax =  -4.43702852237493E-11  2.47091204812364E-02
 cg2d: Sum(rhs),rhsMax =  -4.40488756581203E-11  2.49451701221283E-02
 cg2d: Sum(rhs),rhsMax =  -4.37194724867140E-11  2.51715218683244E-02
 cg2d: Sum(rhs),rhsMax =  -4.33905134045176E-11  2.53880559886798E-02
 cg2d: Sum(rhs),rhsMax =  -4.30746549540117E-11  2.55946569019704E-02
 cg2d: Sum(rhs),rhsMax =  -4.27995416885096E-11  2.57912132754160E-02
 cg2d: Sum(rhs),rhsMax =  -4.25797175296339E-11  2.59776181214919E-02
 cg2d: Sum(rhs),rhsMax =  -4.23355794865188E-11  2.61537688930048E-02
 cg2d: Sum(rhs),rhsMax =  -4.21154222607356E-11  2.63195675767118E-02
 cg2d: Sum(rhs),rhsMax =  -4.19376755544931E-11  2.64749207844389E-02
 cg2d: Sum(rhs),rhsMax =  -4.17498258187265E-11  2.66197398425140E-02
 cg2d: Sum(rhs),rhsMax =  -4.16068290931548E-11  2.67539408794180E-02
 cg2d: Sum(rhs),rhsMax =  -4.14369649703872E-11  2.68774449113252E-02
 cg2d: Sum(rhs),rhsMax =  -4.12784251224707E-11  2.69901779252360E-02
 cg2d: Sum(rhs),rhsMax =  -4.11287670587512E-11  2.70920709594658E-02
 cg2d: Sum(rhs),rhsMax =  -4.09869915785066E-11  2.71830601812936E-02
 cg2d: Sum(rhs),rhsMax =  -4.09157152603257E-11  2.72630869615522E-02
 cg2d: Sum(rhs),rhsMax =  -4.09051681415917E-11  2.73320979459501E-02
 cg2d: Sum(rhs),rhsMax =  -4.09057232531040E-11  2.73900451228898E-02
 cg2d: Sum(rhs),rhsMax =  -4.09063893869188E-11  2.74368858875651E-02
 cg2d: Sum(rhs),rhsMax =  -4.09022815617277E-11  2.74725831020958E-02
 cg2d: Sum(rhs),rhsMax =  -4.09319245164852E-11  2.74971051515092E-02
 cg2d: Sum(rhs),rhsMax =  -4.10386169491517E-11  2.75104259954185E-02
 cg2d: Sum(rhs),rhsMax =  -4.11620737494900E-11  2.75125252153118E-02
 cg2d: Sum(rhs),rhsMax =  -4.12381240266768E-11  2.75033880573937E-02
 cg2d: Sum(rhs),rhsMax =  -4.13634682061570E-11  2.74830054708368E-02
 cg2d: Sum(rhs),rhsMax =  -4.14637213452806E-11  2.74513741419113E-02
 cg2d: Sum(rhs),rhsMax =  -4.15760759153727E-11  2.74084965234717E-02
 cg2d: Sum(rhs),rhsMax =  -4.17028633847849E-11  2.73543808613854E-02
 cg2d: Sum(rhs),rhsMax =  -4.18842738270087E-11  2.72890412146250E-02
 cg2d: Sum(rhs),rhsMax =  -4.20837809045338E-11  2.72124974709878E-02
 cg2d: Sum(rhs),rhsMax =  -4.22780699338432E-11  2.71247753582028E-02
 cg2d: Sum(rhs),rhsMax =  -4.25118829028293E-11  2.70259064515423E-02
 cg2d: Sum(rhs),rhsMax =  -4.26401136621735E-11  2.69159281775646E-02
 cg2d: Sum(rhs),rhsMax =  -4.28024282683737E-11  2.67948838136424E-02
 cg2d: Sum(rhs),rhsMax =  -4.29415392133592E-11  2.66628224830853E-02
 cg2d: Sum(rhs),rhsMax =  -4.30201430035027E-11  2.65197991457865E-02
 cg2d: Sum(rhs),rhsMax =  -4.32207603040524E-11  2.63658745844025E-02
 cg2d: Sum(rhs),rhsMax =  -4.34516866931745E-11  2.62011153861135E-02
 cg2d: Sum(rhs),rhsMax =  -4.36574110196375E-11  2.60255939199786E-02
 cg2d: Sum(rhs),rhsMax =  -4.38711289518778E-11  2.58393883098929E-02
 cg2d: Sum(rhs),rhsMax =  -4.41433556375159E-11  2.56425824031326E-02
 cg2d: Sum(rhs),rhsMax =  -4.43783898518291E-11  2.54352657344640E-02
 cg2d: Sum(rhs),rhsMax =  -4.46969128375940E-11  2.52175334858074E-02
 cg2d: Sum(rhs),rhsMax =  -4.50192105816427E-11  2.49894864414453E-02
 cg2d: Sum(rhs),rhsMax =  -4.53479476192342E-11  2.47512309387772E-02
 cg2d: Sum(rhs),rhsMax =  -4.56891191547015E-11  2.45028788146392E-02
 cg2d: Sum(rhs),rhsMax =  -4.60340654484526E-11  2.42445473472077E-02
 cg2d: Sum(rhs),rhsMax =  -4.64643878927973E-11  2.39763591935363E-02
 cg2d: Sum(rhs),rhsMax =  -4.68302063794113E-11  2.36984423227753E-02
 cg2d: Sum(rhs),rhsMax =  -4.73235894915547E-11  2.34109299451470E-02
 cg2d: Sum(rhs),rhsMax =  -4.79052353341558E-11  2.31139604367820E-02
 cg2d: Sum(rhs),rhsMax =  -4.85209650236129E-11  2.28076772605246E-02
 cg2d: Sum(rhs),rhsMax =  -4.91312546202494E-11  2.24922288828526E-02
 cg2d: Sum(rhs),rhsMax =  -4.97561991608109E-11  2.21677686870671E-02
 cg2d: Sum(rhs),rhsMax =  -5.04555286440223E-11  2.18344548829297E-02
 cg2d: Sum(rhs),rhsMax =  -5.12015985165704E-11  2.14924504129280E-02
 cg2d: Sum(rhs),rhsMax =  -5.20203879972314E-11  2.11419228553771E-02
 cg2d: Sum(rhs),rhsMax =  -5.28490584628116E-11  2.07830443245304E-02
 cg2d: Sum(rhs),rhsMax =  -5.37108135745257E-11  2.04159913678211E-02
 cg2d: Sum(rhs),rhsMax =  -5.46336309525941E-11  2.00409448604329E-02
 cg2d: Sum(rhs),rhsMax =  -5.55903101329136E-11  1.96580898973535E-02
 cg2d: Sum(rhs),rhsMax =  -5.66213742558830E-11  1.92676156830177E-02
 cg2d: Sum(rhs),rhsMax =  -5.77490277819948E-11  1.88697154186217E-02
 cg2d: Sum(rhs),rhsMax =  -5.89736037781563E-11  1.84645861871352E-02
(PID.TID 0000.0001)      cg2d_init_res =   1.15994576003296E-01
(PID.TID 0000.0001)      cg2d_iters(min,last) =      -1      39
(PID.TID 0000.0001)      cg2d_last_res =   8.61996612718504E-14
(PID.TID 0000.0001) // =======================================================
(PID.TID 0000.0001) // Begin MONITOR dynamic field statistics
(PID.TID 0000.0001) // =======================================================
(PID.TID 0000.0001) %MON time_tsnumber                =                  3360
(PID.TID 0000.0001) %MON time_secondsf                =   5.0400000000000E+04
(PID.TID 0000.0001) %MON dynstat_eta_max              =   3.3212153800408E-03
(PID.TID 0000.0001) %MON dynstat_eta_min              =  -5.7121680422620E-03
(PID.TID 0000.0001) %MON dynstat_eta_mean             =   2.4823803495925E-15
(PID.TID 0000.0001) %MON dynstat_eta_sd               =   2.4627632286002E-03
(PID.TID 0000.0001) %MON dynstat_eta_del2             =   1.0833475819844E-05
(PID.TID 0000.0001) %MON dynstat_uvel_max             =   1.3310197463208E+00
(PID.TID 0000.0001) %MON dynstat_uvel_min             =  -5.0546893873727E-03
(PID.TID 0000.0001) %MON dynstat_uvel_mean            =   5.6197868783885E-01
(PID.TID 0000.0001) %MON dynstat_uvel_sd              =   3.7750607916477E-02
(PID.TID 0000.0001) %MON dynstat_uvel_del2            =   3.8181274941209E-04
(PID.TID 0000.0001) %MON dynstat_vvel_max             =   0.0000000000000E+00
(PID.TID 0000.0001) %MON dynstat_vvel_min             =   0.0000000000000E+00
(PID.TID 0000.0001) %MON dynstat_vvel_mean            =   0.0000000000000E+00
(PID.TID 0000.0001) %MON dynstat_vvel_sd              =   0.0000000000000E+00
(PID.TID 0000.0001) %MON dynstat_vvel_del2            =   0.0000000000000E+00
(PID.TID 0000.0001) %MON dynstat_wvel_max             =   1.6421059884005E-02
(PID.TID 0000.0001) %MON dynstat_wvel_min             =  -1.0172294774678E-02
(PID.TID 0000.0001) %MON dynstat_wvel_mean            =   1.1890491229839E-21
(PID.TID 0000.0001) %MON dynstat_wvel_sd              =   1.5095271617425E-03
(PID.TID 0000.0001) %MON dynstat_wvel_del2            =   3.4025470187443E-05
(PID.TID 0000.0001) %MON dynstat_theta_max            =   1.5000000000012E+01
(PID.TID 0000.0001) %MON dynstat_theta_min            =   9.9999999999967E+00
(PID.TID 0000.0001) %MON dynstat_theta_mean           =   1.4011438361544E+01
(PID.TID 0000.0001) %MON dynstat_theta_sd             =   1.9208536378883E+00
(PID.TID 0000.0001) %MON dynstat_theta_del2           =   3.4046293669987E-04
(PID.TID 0000.0001) %MON dynstat_salt_max             =   3.5000000000000E+01
(PID.TID 0000.0001) %MON dynstat_salt_min             =   3.5000000000000E+01
(PID.TID 0000.0001) %MON dynstat_salt_mean            =   3.5000000000000E+01
(PID.TID 0000.0001) %MON dynstat_salt_sd              =   4.1922021409846E-13
(PID.TID 0000.0001) %MON dynstat_salt_del2            =   0.0000000000000E+00
(PID.TID 0000.0001) %MON dynstat_sst_max              =   1.5000000000000E+01
(PID.TID 0000.0001) %MON dynstat_sst_min              =   1.4999999999999E+01
(PID.TID 0000.0001) %MON dynstat_sst_mean             =   1.5000000000000E+01
(PID.TID 0000.0001) %MON dynstat_sst_sd               =   3.0975084103324E-13
(PID.TID 0000.0001) %MON dynstat_sst_del2             =   4.7776413113452E-15
(PID.TID 0000.0001) %MON dynstat_sss_max              =   3.5000000000000E+01
(PID.TID 0000.0001) %MON dynstat_sss_min              =   3.5000000000000E+01
(PID.TID 0000.0001) %MON dynstat_sss_mean             =   3.5000000000000E+01
(PID.TID 0000.0001) %MON dynstat_sss_sd               =   2.8421709430404E-14
(PID.TID 0000.0001) %MON dynstat_sss_del2             =   0.0000000000000E+00
(PID.TID 0000.0001) %MON forcing_qnet_max             =   0.0000000000000E+00
(PID.TID 0000.0001) %MON forcing_qnet_min             =   0.0000000000000E+00
(PID.TID 0000.0001) %MON forcing_qnet_mean            =   0.0000000000000E+00
(PID.TID 0000.0001) %MON forcing_qnet_sd              =   0.0000000000000E+00
(PID.TID 0000.0001) %MON forcing_qnet_del2            =   0.0000000000000E+00
(PID.TID 0000.0001) %MON forcing_qsw_max              =   0.0000000000000E+00
(PID.TID 0000.0001) %MON forcing_qsw_min              =   0.0000000000000E+00
(PID.TID 0000.0001) %MON forcing_qsw_mean             =   0.0000000000000E+00
(PID.TID 0000.0001) %MON forcing_qsw_sd               =   0.0000000000000E+00
(PID.TID 0000.0001) %MON forcing_qsw_del2             =   0.0000000000000E+00
(PID.TID 0000.0001) %MON forcing_empmr_max            =   0.0000000000000E+00
(PID.TID 0000.0001) %MON forcing_empmr_min            =   0.0000000000000E+00
(PID.TID 0000.0001) %MON forcing_empmr_mean           =   0.0000000000000E+00
(PID.TID 0000.0001) %MON forcing_empmr_sd             =   0.0000000000000E+00
(PID.TID 0000.0001) %MON forcing_empmr_del2           =   0.0000000000000E+00
(PID.TID 0000.0001) %MON forcing_fu_max               =   0.0000000000000E+00
(PID.TID 0000.0001) %MON forcing_fu_min               =   0.0000000000000E+00
(PID.TID 0000.0001) %MON forcing_fu_mean              =   0.0000000000000E+00
(PID.TID 0000.0001) %MON forcing_fu_sd                =   0.0000000000000E+00
(PID.TID 0000.0001) %MON forcing_fu_del2              =   0.0000000000000E+00
(PID.TID 0000.0001) %MON forcing_fv_max               =   0.0000000000000E+00
(PID.TID 0000.0001) %MON forcing_fv_min               =   0.0000000000000E+00
(PID.TID 0000.0001) %MON forcing_fv_mean              =   0.0000000000000E+00
(PID.TID 0000.0001) %MON forcing_fv_sd                =   0.0000000000000E+00
(PID.TID 0000.0001) %MON forcing_fv_del2              =   0.0000000000000E+00
(PID.TID 0000.0001) %MON advcfl_uvel_max              =   9.6121451550713E-02
(PID.TID 0000.0001) %MON advcfl_vvel_max              =   0.0000000000000E+00
(PID.TID 0000.0001) %MON advcfl_wvel_max              =   7.9219340288302E-02
(PID.TID 0000.0001) %MON advcfl_W_hf_max              =   9.7123392677453E-02
(PID.TID 0000.0001) %MON pe_b_mean                    =   1.4906086797120E-07
(PID.TID 0000.0001) %MON ke_max                       =   4.4752008313340E-01
(PID.TID 0000.0001) %MON ke_mean                      =   1.5864767962807E-01
(PID.TID 0000.0001) %MON ke_vol                       =   9.7476098603737E+10
(PID.TID 0000.0001) %MON vort_r_min                   =   0.0000000000000E+00
(PID.TID 0000.0001) %MON vort_r_max                   =   0.0000000000000E+00
(PID.TID 0000.0001) %MON vort_a_mean                  =   0.0000000000000E+00
(PID.TID 0000.0001) %MON vort_a_sd                    =   0.0000000000000E+00
(PID.TID 0000.0001) %MON vort_p_mean                  =   0.0000000000000E+00
(PID.TID 0000.0001) %MON vort_p_sd                    =   0.0000000000000E+00
(PID.TID 0000.0001) %MON surfExpan_theta_mean         =  -3.4857767266023E-19
(PID.TID 0000.0001) %MON surfExpan_salt_mean          =   2.3021256645140E-19
(PID.TID 0000.0001) // =======================================================
(PID.TID 0000.0001) // End MONITOR dynamic field statistics
(PID.TID 0000.0001) // =======================================================
(PID.TID 0000.0001) // =======================================================
(PID.TID 0000.0001) // Begin OBCS MONITOR field statistics
(PID.TID 0000.0001) // =======================================================
(PID.TID 0000.0001) %MON obc_E_uVel_max               =   5.6028564143658E-01
(PID.TID 0000.0001) %MON obc_E_uVel_min               =   5.6028564143658E-01
(PID.TID 0000.0001) %MON obc_E_uVel_mean              =   5.6028564143658E-01
(PID.TID 0000.0001) %MON obc_E_uVel_sd                =   1.0536712127724E-08
(PID.TID 0000.0001) %MON obc_E_uVel_Int               =   5.6028564143658E+05
(PID.TID 0000.0001) %MON obc_W_uVel_max               =   5.6028564143658E-01
(PID.TID 0000.0001) %MON obc_W_uVel_min               =   5.6028564143658E-01
(PID.TID 0000.0001) %MON obc_W_uVel_mean              =   5.6028564143658E-01
(PID.TID 0000.0001) %MON obc_W_uVel_sd                =   1.0536712127724E-08
(PID.TID 0000.0001) %MON obc_W_uVel_Int               =   5.6028564143658E+05
(PID.TID 0000.0001) // =======================================================
(PID.TID 0000.0001) // End OBCS MONITOR field statistics
(PID.TID 0000.0001) // =======================================================
 cg2d: Sum(rhs),rhsMax =  -6.02664584903323E-11  1.80524288360662E-02
 cg2d: Sum(rhs),rhsMax =  -6.16012796328391E-11  1.76334478579915E-02
 cg2d: Sum(rhs),rhsMax =  -6.30102636733909E-11  1.72078512688950E-02
 cg2d: Sum(rhs),rhsMax =  -6.45317133063372E-11  1.67758504817003E-02
 cg2d: Sum(rhs),rhsMax =  -6.62379040505812E-11  1.63376601815394E-02
 cg2d: Sum(rhs),rhsMax =  -6.80916434347978E-11  1.58934982003092E-02
 cg2d: Sum(rhs),rhsMax =  -6.99948987659127E-11  1.54435853874560E-02
 cg2d: Sum(rhs),rhsMax =  -7.20692394651223E-11  1.49881454777310E-02
 cg2d: Sum(rhs),rhsMax =  -7.43533012936837E-11  1.45274049567613E-02
 cg2d: Sum(rhs),rhsMax =  -7.67955699032541E-11  1.40615929251064E-02
 cg2d: Sum(rhs),rhsMax =  -7.93951571154139E-11  1.35909409611806E-02
 cg2d: Sum(rhs),rhsMax =  -8.21984702525924E-11  1.31156829832247E-02
 cg2d: Sum(rhs),rhsMax =  -8.41737790580055E-11  1.27971323365999E-02
 cg2d: Sum(rhs),rhsMax =  -8.39526226315002E-11  1.28259908991191E-02
 cg2d: Sum(rhs),rhsMax =  -8.37790947727513E-11  1.28548455762546E-02
 cg2d: Sum(rhs),rhsMax =  -8.35531088760888E-11  1.28836172012045E-02
 cg2d: Sum(rhs),rhsMax =  -8.33036417624555E-11  1.29121128257908E-02
 cg2d: Sum(rhs),rhsMax =  -8.30797097783886E-11  1.29406891117630E-02
 cg2d: Sum(rhs),rhsMax =  -8.28566104615902E-11  1.29691698399352E-02
 cg2d: Sum(rhs),rhsMax =  -8.25865487108501E-11  1.29973762389016E-02
 cg2d: Sum(rhs),rhsMax =  -8.23099921554160E-11  1.30255596341792E-02
 cg2d: Sum(rhs),rhsMax =  -8.20706835824581E-11  1.30533954482979E-02
 cg2d: Sum(rhs),rhsMax =  -8.18199952234977E-11  1.30811743277551E-02
 cg2d: Sum(rhs),rhsMax =  -8.15978395962702E-11  1.31087341523004E-02
 cg2d: Sum(rhs),rhsMax =  -8.13899780904848E-11  1.31359849014539E-02
 cg2d: Sum(rhs),rhsMax =  -8.11311295922934E-11  1.31632378075093E-02
 cg2d: Sum(rhs),rhsMax =  -8.09192435280437E-11  1.31902155121443E-02
 cg2d: Sum(rhs),rhsMax =  -8.07045125172934E-11  1.32170065027687E-02
 cg2d: Sum(rhs),rhsMax =  -8.04815519783730E-11  1.32433553991796E-02
 cg2d: Sum(rhs),rhsMax =  -8.02397662202914E-11  1.32696365089961E-02
 cg2d: Sum(rhs),rhsMax =  -7.99950713309405E-11  1.32958081271077E-02
 cg2d: Sum(rhs),rhsMax =  -7.98086180475721E-11  1.33217624516595E-02
 cg2d: Sum(rhs),rhsMax =  -7.96298374461379E-11  1.33477557641199E-02
 cg2d: Sum(rhs),rhsMax =  -7.94419252603262E-11  1.33735644675453E-02
 cg2d: Sum(rhs),rhsMax =  -7.92632071089372E-11  1.33994053596289E-02
 cg2d: Sum(rhs),rhsMax =  -7.90370269232454E-11  1.34251701509349E-02
 cg2d: Sum(rhs),rhsMax =  -7.87601373009039E-11  1.34507619865971E-02
 cg2d: Sum(rhs),rhsMax =  -7.85983222950648E-11  1.34763953160574E-02
 cg2d: Sum(rhs),rhsMax =  -7.83368647727656E-11  1.35019585711344E-02
 cg2d: Sum(rhs),rhsMax =  -7.81443243447200E-11  1.35274524478917E-02
 cg2d: Sum(rhs),rhsMax =  -7.79875608536429E-11  1.35528050696685E-02
 cg2d: Sum(rhs),rhsMax =  -7.77998776513300E-11  1.35782219040798E-02
 cg2d: Sum(rhs),rhsMax =  -7.75578490319617E-11  1.36035757438462E-02
 cg2d: Sum(rhs),rhsMax =  -7.73006658683073E-11  1.36288904700363E-02
 cg2d: Sum(rhs),rhsMax =  -7.70645769421208E-11  1.36541745567205E-02
 cg2d: Sum(rhs),rhsMax =  -7.68344277091160E-11  1.36794290493136E-02
 cg2d: Sum(rhs),rhsMax =  -7.66734453705453E-11  1.37044303154778E-02
 cg2d: Sum(rhs),rhsMax =  -7.65160157456535E-11  1.37287417591320E-02
 cg2d: Sum(rhs),rhsMax =  -7.63351604149420E-11  1.37523163046433E-02
 cg2d: Sum(rhs),rhsMax =  -7.61852803066176E-11  1.37751680565613E-02
 cg2d: Sum(rhs),rhsMax =  -7.60107532471466E-11  1.37973875340397E-02
 cg2d: Sum(rhs),rhsMax =  -7.58357820984656E-11  1.38189813059601E-02
 cg2d: Sum(rhs),rhsMax =  -7.56860130124437E-11  1.38399548780514E-02
 cg2d: Sum(rhs),rhsMax =  -7.55177032019105E-11  1.38603215503852E-02
 cg2d: Sum(rhs),rhsMax =  -7.53880291526343E-11  1.38800984804937E-02
 cg2d: Sum(rhs),rhsMax =  -7.53141993214967E-11  1.38994264650462E-02
 cg2d: Sum(rhs),rhsMax =  -7.51260165188228E-11  1.39187891566992E-02
 cg2d: Sum(rhs),rhsMax =  -7.49759143658935E-11  1.39381869897414E-02
 cg2d: Sum(rhs),rhsMax =  -7.47839568049358E-11  1.39576813391807E-02
 cg2d: Sum(rhs),rhsMax =  -7.46364081649631E-11  1.39773514719677E-02
 cg2d: Sum(rhs),rhsMax =  -7.43983763484835E-11  1.39971694895596E-02
 cg2d: Sum(rhs),rhsMax =  -7.42871320014160E-11  1.40170997194563E-02
 cg2d: Sum(rhs),rhsMax =  -7.41023908901184E-11  1.40371164430182E-02
 cg2d: Sum(rhs),rhsMax =  -7.39821537365515E-11  1.40570635389662E-02
 cg2d: Sum(rhs),rhsMax =  -7.37880867518470E-11  1.40767560498284E-02
 cg2d: Sum(rhs),rhsMax =  -7.35917993210933E-11  1.40960082112355E-02
 cg2d: Sum(rhs),rhsMax =  -7.33743066305692E-11  1.41147987708794E-02
 cg2d: Sum(rhs),rhsMax =  -7.31732452408096E-11  1.41331239586328E-02
 cg2d: Sum(rhs),rhsMax =  -7.30382421210152E-11  1.41509770585821E-02
 cg2d: Sum(rhs),rhsMax =  -7.28114235570843E-11  1.41683550228864E-02
 cg2d: Sum(rhs),rhsMax =  -7.19038162344532E-11  1.43288929118820E-02
 cg2d: Sum(rhs),rhsMax =  -7.02811142616611E-11  1.46458212107015E-02
 cg2d: Sum(rhs),rhsMax =  -6.87470080862340E-11  1.49540109490155E-02
 cg2d: Sum(rhs),rhsMax =  -6.73141542506528E-11  1.52533342828438E-02
 cg2d: Sum(rhs),rhsMax =  -6.59621246512643E-11  1.55436680830153E-02
 cg2d: Sum(rhs),rhsMax =  -6.46886988420192E-11  1.58248939775453E-02
 cg2d: Sum(rhs),rhsMax =  -6.35573815799262E-11  1.60968983909417E-02
 cg2d: Sum(rhs),rhsMax =  -6.24492679790478E-11  1.63595725803996E-02
 cg2d: Sum(rhs),rhsMax =  -6.14487349892556E-11  1.66128126688146E-02
 cg2d: Sum(rhs),rhsMax =  -6.05074879089784E-11  1.68565196745579E-02
 cg2d: Sum(rhs),rhsMax =  -5.96058757906803E-11  1.70905995379949E-02
 cg2d: Sum(rhs),rhsMax =  -5.87713211430696E-11  1.73149631438845E-02
 cg2d: Sum(rhs),rhsMax =  -5.78963543773625E-11  1.75295263420996E-02
 cg2d: Sum(rhs),rhsMax =  -5.71352964939820E-11  1.77342099649190E-02
 cg2d: Sum(rhs),rhsMax =  -5.64057689445008E-11  1.79289398403131E-02
 cg2d: Sum(rhs),rhsMax =  -5.57113244425977E-11  1.81136468015513E-02
 cg2d: Sum(rhs),rhsMax =  -5.50661738429881E-11  1.82882666934746E-02
 cg2d: Sum(rhs),rhsMax =  -5.45258282969030E-11  1.84527403756324E-02
 cg2d: Sum(rhs),rhsMax =  -5.39587263759245E-11  1.86070137224344E-02
 cg2d: Sum(rhs),rhsMax =  -5.35261834855305E-11  1.87510376204865E-02
 cg2d: Sum(rhs),rhsMax =  -5.31492627686703E-11  1.88847679619879E-02
 cg2d: Sum(rhs),rhsMax =  -5.26872989681237E-11  1.90081656355000E-02
 cg2d: Sum(rhs),rhsMax =  -5.23356913362250E-11  1.91211965140316E-02
 cg2d: Sum(rhs),rhsMax =  -5.20057330533064E-11  1.92238314403575E-02
 cg2d: Sum(rhs),rhsMax =  -5.17779152886533E-11  1.93160462095251E-02
 cg2d: Sum(rhs),rhsMax =  -5.16671150307957E-11  1.93978215485909E-02
 cg2d: Sum(rhs),rhsMax =  -5.15633091779932E-11  1.94691430936341E-02
 cg2d: Sum(rhs),rhsMax =  -5.14914777483000E-11  1.95300013640523E-02
 cg2d: Sum(rhs),rhsMax =  -5.14274178797791E-11  1.95803917345638E-02
 cg2d: Sum(rhs),rhsMax =  -5.13801223789301E-11  1.96203144048494E-02
 cg2d: Sum(rhs),rhsMax =  -5.13513676025923E-11  1.96497743667746E-02
 cg2d: Sum(rhs),rhsMax =  -5.13590281414622E-11  1.96687813692437E-02
 cg2d: Sum(rhs),rhsMax =  -5.14891462799483E-11  1.96773498808058E-02
 cg2d: Sum(rhs),rhsMax =  -5.17410558842357E-11  1.96754990501885E-02
 cg2d: Sum(rhs),rhsMax =  -5.19454479430692E-11  1.96632526649787E-02
 cg2d: Sum(rhs),rhsMax =  -5.20781195945119E-11  1.96406391082388E-02
 cg2d: Sum(rhs),rhsMax =  -5.22306642380954E-11  1.96076913134825E-02
 cg2d: Sum(rhs),rhsMax =  -5.23485699233106E-11  1.95644467178576E-02
 cg2d: Sum(rhs),rhsMax =  -5.24812415747533E-11  1.95109472135487E-02
 cg2d: Sum(rhs),rhsMax =  -5.27000665329069E-11  1.94472390974582E-02
 cg2d: Sum(rhs),rhsMax =  -5.29485344458180E-11  1.93733730192167E-02
 cg2d: Sum(rhs),rhsMax =  -5.32291988264433E-11  1.92894039275666E-02
 cg2d: Sum(rhs),rhsMax =  -5.35380628718940E-11  1.91953910158299E-02
 cg2d: Sum(rhs),rhsMax =  -5.39077671390942E-11  1.90913976646770E-02
 cg2d: Sum(rhs),rhsMax =  -5.42457190277901E-11  1.89774913828387E-02
 cg2d: Sum(rhs),rhsMax =  -5.46472866957970E-11  1.88537437466464E-02
 cg2d: Sum(rhs),rhsMax =  -5.50988143999120E-11  1.87202303382960E-02
 cg2d: Sum(rhs),rhsMax =  -5.55916424005432E-11  1.85770306827255E-02
 cg2d: Sum(rhs),rhsMax =  -5.61195534487524E-11  1.84242281830692E-02
 cg2d: Sum(rhs),rhsMax =  -5.67029756481929E-11  1.82619100547338E-02
 cg2d: Sum(rhs),rhsMax =  -5.73208147613968E-11  1.80901672582337E-02
 cg2d: Sum(rhs),rhsMax =  -5.79941650258320E-11  1.79090944321716E-02
 cg2d: Sum(rhs),rhsMax =  -5.87334625379299E-11  1.77187898238271E-02
 cg2d: Sum(rhs),rhsMax =  -5.94961857558474E-11  1.75193552178389E-02
 cg2d: Sum(rhs),rhsMax =  -6.02353722456428E-11  1.73108958652280E-02
 cg2d: Sum(rhs),rhsMax =  -6.10609340867541E-11  1.70935204125736E-02
 cg2d: Sum(rhs),rhsMax =  -6.19168050164376E-11  1.68673408310916E-02
 cg2d: Sum(rhs),rhsMax =  -6.28239682498588E-11  1.66324723454195E-02
 cg2d: Sum(rhs),rhsMax =  -6.37966346417329E-11  1.63965477886755E-02
 cg2d: Sum(rhs),rhsMax =  -6.47201181536161E-11  1.61803920589918E-02
 cg2d: Sum(rhs),rhsMax =  -6.56851240066203E-11  1.59564899290001E-02
 cg2d: Sum(rhs),rhsMax =  -6.67095267914419E-11  1.57249481554751E-02
 cg2d: Sum(rhs),rhsMax =  -6.77997658016238E-11  1.54858775288722E-02
 cg2d: Sum(rhs),rhsMax =  -6.90149049020761E-11  1.52393928119433E-02
 cg2d: Sum(rhs),rhsMax =  -7.02372604521884E-11  1.49856126765430E-02
 cg2d: Sum(rhs),rhsMax =  -7.15405512607958E-11  1.47246596388744E-02
 cg2d: Sum(rhs),rhsMax =  -7.29398763610334E-11  1.44566599931188E-02
 cg2d: Sum(rhs),rhsMax =  -7.41617878219358E-11  1.42237285336883E-02
 cg2d: Sum(rhs),rhsMax =  -7.44860839674288E-11  1.41873498468394E-02
 cg2d: Sum(rhs),rhsMax =  -7.47959472136017E-11  1.41498573241632E-02
 cg2d: Sum(rhs),rhsMax =  -7.50659534531906E-11  1.41113398583798E-02
 cg2d: Sum(rhs),rhsMax =  -7.53508366813094E-11  1.40718853246587E-02
 cg2d: Sum(rhs),rhsMax =  -7.56950058189432E-11  1.40316136084098E-02
 cg2d: Sum(rhs),rhsMax =  -7.60447260717001E-11  1.39906366175054E-02
 cg2d: Sum(rhs),rhsMax =  -7.63320517904731E-11  1.39490326265706E-02
 cg2d: Sum(rhs),rhsMax =  -7.65932872681674E-11  1.39068739057151E-02
 cg2d: Sum(rhs),rhsMax =  -7.69264651978574E-11  1.38642876184791E-02
 cg2d: Sum(rhs),rhsMax =  -7.71683827949232E-11  1.38214512045773E-02
 cg2d: Sum(rhs),rhsMax =  -7.74297292949200E-11  1.37784434118318E-02
 cg2d: Sum(rhs),rhsMax =  -7.77307107568959E-11  1.37353285417142E-02
 cg2d: Sum(rhs),rhsMax =  -7.80550069023889E-11  1.36921766523393E-02
 cg2d: Sum(rhs),rhsMax =  -7.83878517651715E-11  1.36490588502940E-02
 cg2d: Sum(rhs),rhsMax =  -7.86584131162726E-11  1.36058445792896E-02
 cg2d: Sum(rhs),rhsMax =  -7.89814880164386E-11  1.35623913899500E-02
 cg2d: Sum(rhs),rhsMax =  -7.92359511336826E-11  1.35187452488519E-02
 cg2d: Sum(rhs),rhsMax =  -7.94708743256933E-11  1.34749853806863E-02
 cg2d: Sum(rhs),rhsMax =  -7.96638310873732E-11  1.34311845754248E-02
 cg2d: Sum(rhs),rhsMax =  -7.99837973630702E-11  1.33874105498775E-02
 cg2d: Sum(rhs),rhsMax =  -8.02691246803988E-11  1.33437326419908E-02
 cg2d: Sum(rhs),rhsMax =  -8.06337219216857E-11  1.33002025774780E-02
 cg2d: Sum(rhs),rhsMax =  -8.09352029840227E-11  1.32567797259563E-02
 cg2d: Sum(rhs),rhsMax =  -8.12968026231431E-11  1.32135090810391E-02
 cg2d: Sum(rhs),rhsMax =  -8.16403611381133E-11  1.31704423117041E-02
 cg2d: Sum(rhs),rhsMax =  -8.19866396994939E-11  1.31277959618537E-02
 cg2d: Sum(rhs),rhsMax =  -8.23253132331558E-11  1.30858163228207E-02
 cg2d: Sum(rhs),rhsMax =  -8.26008705878678E-11  1.30445246163459E-02
 cg2d: Sum(rhs),rhsMax =  -8.29337709618017E-11  1.30038856279006E-02
 cg2d: Sum(rhs),rhsMax =  -8.32209856582722E-11  1.29639027809054E-02
 cg2d: Sum(rhs),rhsMax =  -8.32829361030463E-11  1.29563153456312E-02
 cg2d: Sum(rhs),rhsMax =  -8.30840118926091E-11  1.29984129282251E-02
 cg2d: Sum(rhs),rhsMax =  -8.28140889197471E-11  1.30393338234702E-02
 cg2d: Sum(rhs),rhsMax =  -8.25291224249014E-11  1.30790944028593E-02
 cg2d: Sum(rhs),rhsMax =  -8.23818097073215E-11  1.31177143536845E-02
 cg2d: Sum(rhs),rhsMax =  -8.20954415559072E-11  1.31552166745312E-02
 cg2d: Sum(rhs),rhsMax =  -8.18995773976816E-11  1.31916274295304E-02
 cg2d: Sum(rhs),rhsMax =  -8.17176135786690E-11  1.32269755155514E-02
 cg2d: Sum(rhs),rhsMax =  -8.15609454973831E-11  1.32610661002303E-02
 cg2d: Sum(rhs),rhsMax =  -8.13644707164940E-11  1.32934757477430E-02
 cg2d: Sum(rhs),rhsMax =  -8.12579309394934E-11  1.33242003560468E-02
 cg2d: Sum(rhs),rhsMax =  -8.11111594556380E-11  1.33532872414580E-02
 cg2d: Sum(rhs),rhsMax =  -8.09963207615283E-11  1.33807823159998E-02
 cg2d: Sum(rhs),rhsMax =  -8.08867972601490E-11  1.34067536865165E-02
 cg2d: Sum(rhs),rhsMax =  -8.08102196270255E-11  1.34312739482364E-02
 cg2d: Sum(rhs),rhsMax =  -8.07117983558925E-11  1.34544198130926E-02
 cg2d: Sum(rhs),rhsMax =  -8.06898436955805E-11  1.34761483284072E-02
 cg2d: Sum(rhs),rhsMax =  -8.05546185311812E-11  1.34964579745652E-02
 cg2d: Sum(rhs),rhsMax =  -8.05102096101962E-11  1.35154440712674E-02
 cg2d: Sum(rhs),rhsMax =  -8.04141753185661E-11  1.35332064903733E-02
 cg2d: Sum(rhs),rhsMax =  -8.03281885453089E-11  1.35498450708047E-02
 cg2d: Sum(rhs),rhsMax =  -8.02972688340731E-11  1.35656775064504E-02
 cg2d: Sum(rhs),rhsMax =  -8.02136690403188E-11  1.35807953859762E-02
 cg2d: Sum(rhs),rhsMax =  -8.01626542923373E-11  1.35952703874155E-02
 cg2d: Sum(rhs),rhsMax =  -8.00610133744328E-11  1.36091822386990E-02
 cg2d: Sum(rhs),rhsMax =  -8.00899346842243E-11  1.36226092076185E-02
 cg2d: Sum(rhs),rhsMax =  -8.01400057426349E-11  1.36356270458796E-02
 cg2d: Sum(rhs),rhsMax =  -8.00830513014716E-11  1.36483093023360E-02
 cg2d: Sum(rhs),rhsMax =  -7.99792454486692E-11  1.36607272155759E-02
 cg2d: Sum(rhs),rhsMax =  -7.99721400213116E-11  1.36729490426949E-02
 cg2d: Sum(rhs),rhsMax =  -7.99411647989245E-11  1.36850333888664E-02
 cg2d: Sum(rhs),rhsMax =  -7.99700305975648E-11  1.36972084962011E-02
 cg2d: Sum(rhs),rhsMax =  -7.98509036670225E-11  1.37098421839229E-02
 cg2d: Sum(rhs),rhsMax =  -7.94997401243336E-11  1.37803467155808E-02
 cg2d: Sum(rhs),rhsMax =  -7.72162334072846E-11  1.41945190461750E-02
 cg2d: Sum(rhs),rhsMax =  -7.51174678015332E-11  1.46039683784751E-02
 cg2d: Sum(rhs),rhsMax =  -7.30858706887716E-11  1.50085144133913E-02
 cg2d: Sum(rhs),rhsMax =  -7.11920522533660E-11  1.54079783763585E-02
 cg2d: Sum(rhs),rhsMax =  -6.94835300407703E-11  1.58021830974598E-02
 cg2d: Sum(rhs),rhsMax =  -6.79477585308064E-11  1.61909530920372E-02
 cg2d: Sum(rhs),rhsMax =  -6.64730492871968E-11  1.65741146414498E-02
 cg2d: Sum(rhs),rhsMax =  -6.50316467343259E-11  1.69514958741043E-02
 cg2d: Sum(rhs),rhsMax =  -6.37288000149283E-11  1.73229268469301E-02
 cg2d: Sum(rhs),rhsMax =  -6.25254292785371E-11  1.76882396271284E-02
 cg2d: Sum(rhs),rhsMax =  -6.13165074270228E-11  1.80472683748043E-02
 cg2d: Sum(rhs),rhsMax =  -6.02444760744447E-11  1.83998494261050E-02
 cg2d: Sum(rhs),rhsMax =  -5.91839910413228E-11  1.87458213774458E-02
 cg2d: Sum(rhs),rhsMax =  -5.81628079032726E-11  1.90850251697230E-02
 cg2d: Sum(rhs),rhsMax =  -5.72425440381608E-11  1.94173041727402E-02
 cg2d: Sum(rhs),rhsMax =  -5.63161739464135E-11  1.97425042700753E-02
 cg2d: Sum(rhs),rhsMax =  -5.54573054145635E-11  2.00604739444944E-02
 cg2d: Sum(rhs),rhsMax =  -5.46298561943104E-11  2.03710643638897E-02
 cg2d: Sum(rhs),rhsMax =  -5.38820099649229E-11  2.06741294676249E-02
 cg2d: Sum(rhs),rhsMax =  -5.31847899054583E-11  2.09695260531264E-02
 cg2d: Sum(rhs),rhsMax =  -5.25185450683807E-11  2.12571138625579E-02
 cg2d: Sum(rhs),rhsMax =  -5.18516340974884E-11  2.15367556694279E-02
 cg2d: Sum(rhs),rhsMax =  -5.12511144634686E-11  2.18083173649641E-02
 cg2d: Sum(rhs),rhsMax =  -5.06140684919387E-11  2.20716680440947E-02
 cg2d: Sum(rhs),rhsMax =  -5.01108043948761E-11  2.23266800908787E-02
 cg2d: Sum(rhs),rhsMax =  -4.96546137540577E-11  2.25732292631959E-02
 cg2d: Sum(rhs),rhsMax =  -4.91876539499003E-11  2.28111947765504E-02
 cg2d: Sum(rhs),rhsMax =  -4.88024065603554E-11  2.30404593868224E-02
 cg2d: Sum(rhs),rhsMax =  -4.84110529441750E-11  2.32609094718078E-02
 cg2d: Sum(rhs),rhsMax =  -4.80127049229395E-11  2.34724351115306E-02
 cg2d: Sum(rhs),rhsMax =  -4.76937378479647E-11  2.36749301672511E-02
 cg2d: Sum(rhs),rhsMax =  -4.73554528923614E-11  2.38682923590550E-02
 cg2d: Sum(rhs),rhsMax =  -4.70520289397314E-11  2.40524233419563E-02
 cg2d: Sum(rhs),rhsMax =  -4.67592631281377E-11  2.42272287804992E-02
 cg2d: Sum(rhs),rhsMax =  -4.64930316468326E-11  2.43926184218708E-02
 cg2d: Sum(rhs),rhsMax =  -4.62353488828171E-11  2.45485061675803E-02
 cg2d: Sum(rhs),rhsMax =  -4.60502747046121E-11  2.46948101438320E-02
 cg2d: Sum(rhs),rhsMax =  -4.58051374607749E-11  2.48314527694989E-02
 cg2d: Sum(rhs),rhsMax =  -4.55886439709730E-11  2.49583608227547E-02
 cg2d: Sum(rhs),rhsMax =  -4.54234427849087E-11  2.50754655061017E-02
 cg2d: Sum(rhs),rhsMax =  -4.51915171950645E-11  2.51827025094861E-02
 cg2d: Sum(rhs),rhsMax =  -4.50601778112514E-11  2.52800120711857E-02
 cg2d: Sum(rhs),rhsMax =  -4.49268400259939E-11  2.53673390362234E-02
 cg2d: Sum(rhs),rhsMax =  -4.48139303443895E-11  2.54446329121319E-02
 cg2d: Sum(rhs),rhsMax =  -4.47063497333033E-11  2.55118479218802E-02
 cg2d: Sum(rhs),rhsMax =  -4.46821468713665E-11  2.55689430538271E-02
 cg2d: Sum(rhs),rhsMax =  -4.47870629471936E-11  2.56158821085499E-02
 cg2d: Sum(rhs),rhsMax =  -4.47611947507198E-11  2.56526337424423E-02
 cg2d: Sum(rhs),rhsMax =  -4.48476811243381E-11  2.56791715080152E-02
 cg2d: Sum(rhs),rhsMax =  -4.49075221453654E-11  2.56954738908851E-02
 cg2d: Sum(rhs),rhsMax =  -4.49633663635041E-11  2.57015243434906E-02
 cg2d: Sum(rhs),rhsMax =  -4.50578463428997E-11  2.56973113155977E-02
 cg2d: Sum(rhs),rhsMax =  -4.51161330516925E-11  2.56828282816064E-02
 cg2d: Sum(rhs),rhsMax =  -4.52426984764998E-11  2.56580737651001E-02
 cg2d: Sum(rhs),rhsMax =  -4.54055681942123E-11  2.56230513603407E-02
 cg2d: Sum(rhs),rhsMax =  -4.55403492694018E-11  2.55777697509596E-02
 cg2d: Sum(rhs),rhsMax =  -4.57195392655763E-11  2.55222427258644E-02
 cg2d: Sum(rhs),rhsMax =  -4.59405846697791E-11  2.54564891929306E-02
 cg2d: Sum(rhs),rhsMax =  -4.60670390722839E-11  2.53805331894471E-02
 cg2d: Sum(rhs),rhsMax =  -4.61582994049081E-11  2.52944038882073E-02
 cg2d: Sum(rhs),rhsMax =  -4.62873073203696E-11  2.51981356010944E-02
 cg2d: Sum(rhs),rhsMax =  -4.63995508681592E-11  2.50917677797782E-02
 cg2d: Sum(rhs),rhsMax =  -4.65959493212154E-11  2.49753450131147E-02
 cg2d: Sum(rhs),rhsMax =  -4.67164085193872E-11  2.48489170208561E-02
 cg2d: Sum(rhs),rhsMax =  -4.69215777343379E-11  2.47125386434391E-02
 cg2d: Sum(rhs),rhsMax =  -4.71407357593989E-11  2.45662698277105E-02
 cg2d: Sum(rhs),rhsMax =  -4.73617811636018E-11  2.44101756085620E-02
 cg2d: Sum(rhs),rhsMax =  -4.76544359528930E-11  2.42443260864655E-02
 cg2d: Sum(rhs),rhsMax =  -4.79591921731526E-11  2.40687964009656E-02
 cg2d: Sum(rhs),rhsMax =  -4.82570650106595E-11  2.38836667001650E-02
 cg2d: Sum(rhs),rhsMax =  -4.86057860626943E-11  2.36890221062780E-02
 cg2d: Sum(rhs),rhsMax =  -4.89162044203795E-11  2.34849526773477E-02
 cg2d: Sum(rhs),rhsMax =  -4.92564877774271E-11  2.32715533652013E-02
 cg2d: Sum(rhs),rhsMax =  -4.96633845159522E-11  2.30489239697534E-02
 cg2d: Sum(rhs),rhsMax =  -5.00106622780550E-11  2.28171690897460E-02
 cg2d: Sum(rhs),rhsMax =  -5.04694064318301E-11  2.25763980699973E-02
 cg2d: Sum(rhs),rhsMax =  -5.09251529834387E-11  2.23267249452516E-02
 cg2d: Sum(rhs),rhsMax =  -5.14071007984285E-11  2.20682683806834E-02
 cg2d: Sum(rhs),rhsMax =  -5.20135046144787E-11  2.18011516091288E-02
 cg2d: Sum(rhs),rhsMax =  -5.26555465896195E-11  2.15255023651096E-02
 cg2d: Sum(rhs),rhsMax =  -5.33101340849385E-11  2.12414528157371E-02
 cg2d: Sum(rhs),rhsMax =  -5.39939204458051E-11  2.09491394885789E-02
 cg2d: Sum(rhs),rhsMax =  -5.46935829959239E-11  2.06487031966169E-02
 cg2d: Sum(rhs),rhsMax =  -5.55021584247584E-11  2.03402889604290E-02
 cg2d: Sum(rhs),rhsMax =  -5.63814550602615E-11  2.00240459277418E-02
 cg2d: Sum(rhs),rhsMax =  -5.72569769374809E-11  1.97001272905221E-02
 cg2d: Sum(rhs),rhsMax =  -5.81367176621939E-11  1.93686901997701E-02
 cg2d: Sum(rhs),rhsMax =  -5.91606763578056E-11  1.90298956781591E-02
 cg2d: Sum(rhs),rhsMax =  -6.01969585289908E-11  1.86839085306616E-02
 cg2d: Sum(rhs),rhsMax =  -6.12678796585442E-11  1.83308972532498E-02
 cg2d: Sum(rhs),rhsMax =  -6.24444940200419E-11  1.79710339397329E-02
 cg2d: Sum(rhs),rhsMax =  -6.36480868010381E-11  1.76044941867405E-02
 cg2d: Sum(rhs),rhsMax =  -6.49703624233666E-11  1.72314569968245E-02
 cg2d: Sum(rhs),rhsMax =  -6.63272770040635E-11  1.68521046796219E-02
 cg2d: Sum(rhs),rhsMax =  -6.77775613411313E-11  1.64666227509915E-02
 cg2d: Sum(rhs),rhsMax =  -6.93467505641365E-11  1.60751998300233E-02
 cg2d: Sum(rhs),rhsMax =  -7.10583814012011E-11  1.56780275338586E-02
 cg2d: Sum(rhs),rhsMax =  -7.28198612520714E-11  1.52753003702206E-02
 cg2d: Sum(rhs),rhsMax =  -7.47771844444856E-11  1.48672156276313E-02
 cg2d: Sum(rhs),rhsMax =  -7.65284502435293E-11  1.45125696847699E-02
 cg2d: Sum(rhs),rhsMax =  -7.65409957637075E-11  1.45000176877198E-02
 cg2d: Sum(rhs),rhsMax =  -7.66194885315485E-11  1.44874308793291E-02
 cg2d: Sum(rhs),rhsMax =  -7.66660068762803E-11  1.44747899241856E-02
 cg2d: Sum(rhs),rhsMax =  -7.67578223204168E-11  1.44622240366232E-02
 cg2d: Sum(rhs),rhsMax =  -7.67751973107522E-11  1.44500100701375E-02
 cg2d: Sum(rhs),rhsMax =  -7.67843566507054E-11  1.44381306976667E-02
 cg2d: Sum(rhs),rhsMax =  -7.68202168544008E-11  1.44266431067813E-02
 cg2d: Sum(rhs),rhsMax =  -7.68226593450549E-11  1.44155269982999E-02
 cg2d: Sum(rhs),rhsMax =  -7.68313190846470E-11  1.44047555794925E-02
 cg2d: Sum(rhs),rhsMax =  -7.68896613045911E-11  1.43945642182009E-02
 cg2d: Sum(rhs),rhsMax =  -7.68948793528068E-11  1.43851310154231E-02
 cg2d: Sum(rhs),rhsMax =  -7.68707875131724E-11  1.43763854242522E-02
 cg2d: Sum(rhs),rhsMax =  -7.68347052648721E-11  1.43681824927821E-02
 cg2d: Sum(rhs),rhsMax =  -7.68479169188652E-11  1.43604121091127E-02
 cg2d: Sum(rhs),rhsMax =  -7.68523578109637E-11  1.43530155315666E-02
 cg2d: Sum(rhs),rhsMax =  -7.69123931210203E-11  1.43459163628081E-02
 cg2d: Sum(rhs),rhsMax =  -7.69241614850813E-11  1.43390425340319E-02
 cg2d: Sum(rhs),rhsMax =  -7.69380392728891E-11  1.43323470536058E-02
 cg2d: Sum(rhs),rhsMax =  -7.69300179115362E-11  1.43257924516706E-02
 cg2d: Sum(rhs),rhsMax =  -7.69292546332068E-11  1.43193453915436E-02
 cg2d: Sum(rhs),rhsMax =  -7.69103253306369E-11  1.43129844128801E-02
 cg2d: Sum(rhs),rhsMax =  -7.68762692393565E-11  1.43067062318796E-02
 cg2d: Sum(rhs),rhsMax =  -7.69179893389538E-11  1.43004955752156E-02
 cg2d: Sum(rhs),rhsMax =  -7.68968829584216E-11  1.42943384146087E-02
 cg2d: Sum(rhs),rhsMax =  -7.69464769678763E-11  1.42881955180005E-02
 cg2d: Sum(rhs),rhsMax =  -7.69341951256663E-11  1.42820578534893E-02
 cg2d: Sum(rhs),rhsMax =  -7.68813485096942E-11  1.42759211857795E-02
 cg2d: Sum(rhs),rhsMax =  -7.68598795719555E-11  1.42697797808844E-02
 cg2d: Sum(rhs),rhsMax =  -7.68610730617070E-11  1.42636221455295E-02
 cg2d: Sum(rhs),rhsMax =  -7.68301255948955E-11  1.42574036034862E-02
 cg2d: Sum(rhs),rhsMax =  -7.68340668866330E-11  1.42511239829936E-02
 cg2d: Sum(rhs),rhsMax =  -7.68062557998661E-11  1.42447945691778E-02
 cg2d: Sum(rhs),rhsMax =  -7.68221597446939E-11  1.42384245633868E-02
 cg2d: Sum(rhs),rhsMax =  -7.68417551810785E-11  1.42320286844082E-02
 cg2d: Sum(rhs),rhsMax =  -7.68156649399998E-11  1.42256197221964E-02
 cg2d: Sum(rhs),rhsMax =  -7.68368146886189E-11  1.42191977881379E-02
 cg2d: Sum(rhs),rhsMax =  -7.67809704704803E-11  1.42128304365854E-02
 cg2d: Sum(rhs),rhsMax =  -7.67417795977110E-11  1.42066417712001E-02
 cg2d: Sum(rhs),rhsMax =  -7.67383934174859E-11  1.42006219309887E-02
 cg2d: Sum(rhs),rhsMax =  -7.66712249244961E-11  1.41947571550586E-02
 cg2d: Sum(rhs),rhsMax =  -7.66654517647680E-11  1.41890244910515E-02
 cg2d: Sum(rhs),rhsMax =  -7.66456897949297E-11  1.41833900315297E-02
 cg2d: Sum(rhs),rhsMax =  -7.66266494700574E-11  1.41777942723068E-02
 cg2d: Sum(rhs),rhsMax =  -7.66310348510046E-11  1.41720683672635E-02
 cg2d: Sum(rhs),rhsMax =  -7.66077201674875E-11  1.41662407986201E-02
 cg2d: Sum(rhs),rhsMax =  -7.66171570631968E-11  1.41603303377192E-02
 cg2d: Sum(rhs),rhsMax =  -7.66345875646834E-11  1.41543321585162E-02
 cg2d: Sum(rhs),rhsMax =  -7.66307017840973E-11  1.41482407492514E-02
 cg2d: Sum(rhs),rhsMax =  -7.65595364882188E-11  1.41420530975250E-02
 cg2d: Sum(rhs),rhsMax =  -7.65456587004110E-11  1.41357706130996E-02
 cg2d: Sum(rhs),rhsMax =  -7.64790453189335E-11  1.41294028297037E-02
 cg2d: Sum(rhs),rhsMax =  -7.65851826400876E-11  1.41229495088446E-02
 cg2d: Sum(rhs),rhsMax =  -7.64494023641760E-11  1.41164167099686E-02
 cg2d: Sum(rhs),rhsMax =  -7.64319718626894E-11  1.41098309039199E-02
 cg2d: Sum(rhs),rhsMax =  -7.63835661388157E-11  1.41032321458486E-02
 cg2d: Sum(rhs),rhsMax =  -7.63771268452729E-11  1.40966652535237E-02
 cg2d: Sum(rhs),rhsMax =  -7.63284990767943E-11  1.40901473962646E-02
 cg2d: Sum(rhs),rhsMax =  -7.63045182594624E-11  1.40836921125690E-02
 cg2d: Sum(rhs),rhsMax =  -7.62131469045357E-11  1.40773138417300E-02
 cg2d: Sum(rhs),rhsMax =  -7.61758434109083E-11  1.40710762045683E-02
 cg2d: Sum(rhs),rhsMax =  -7.61234408841460E-11  1.40651266160736E-02
 cg2d: Sum(rhs),rhsMax =  -7.60898011264999E-11  1.40594134878930E-02
 cg2d: Sum(rhs),rhsMax =  -7.60549401235266E-11  1.40539337624821E-02
 cg2d: Sum(rhs),rhsMax =  -7.60277396594233E-11  1.40486928742500E-02
 cg2d: Sum(rhs),rhsMax =  -7.60355112205957E-11  1.40437124811012E-02
 cg2d: Sum(rhs),rhsMax =  -7.60183027637140E-11  1.40389976034649E-02
 cg2d: Sum(rhs),rhsMax =  -7.58136886602756E-11  1.40628923945740E-02
 cg2d: Sum(rhs),rhsMax =  -7.45441486316167E-11  1.42862775773845E-02
 cg2d: Sum(rhs),rhsMax =  -7.33743066305692E-11  1.45031232003705E-02
 cg2d: Sum(rhs),rhsMax =  -7.22192305957492E-11  1.47133260905059E-02
 cg2d: Sum(rhs),rhsMax =  -7.12322423268574E-11  1.49167857827292E-02
 cg2d: Sum(rhs),rhsMax =  -7.02442548572435E-11  1.51134045809869E-02
 cg2d: Sum(rhs),rhsMax =  -6.93257673489711E-11  1.53030876190642E-02
 cg2d: Sum(rhs),rhsMax =  -6.85068668460076E-11  1.54857429212302E-02
 cg2d: Sum(rhs),rhsMax =  -6.76461109350157E-11  1.56612814611800E-02
 cg2d: Sum(rhs),rhsMax =  -6.68028965478129E-11  1.58296172209543E-02
 cg2d: Sum(rhs),rhsMax =  -6.60931309681700E-11  1.59906672526743E-02
 cg2d: Sum(rhs),rhsMax =  -6.52677911716637E-11  1.61443517376246E-02
 cg2d: Sum(rhs),rhsMax =  -6.45822284539577E-11  1.62905940431741E-02
 cg2d: Sum(rhs),rhsMax =  -6.39559516457666E-11  1.64293207786039E-02
 cg2d: Sum(rhs),rhsMax =  -6.33683105988325E-11  1.65634494801683E-02
 cg2d: Sum(rhs),rhsMax =  -6.27685681209300E-11  1.67047623671679E-02
 cg2d: Sum(rhs),rhsMax =  -6.21955820179210E-11  1.68366894140278E-02
 cg2d: Sum(rhs),rhsMax =  -6.17134121583263E-11  1.69591875276989E-02
 cg2d: Sum(rhs),rhsMax =  -6.11556361107546E-11  1.70722180949249E-02
 cg2d: Sum(rhs),rhsMax =  -6.06873440389677E-11  1.71757469767833E-02
 cg2d: Sum(rhs),rhsMax =  -6.02984329134415E-11  1.72697445012590E-02
 cg2d: Sum(rhs),rhsMax =  -6.00052230126380E-11  1.73541854539035E-02
 cg2d: Sum(rhs),rhsMax =  -5.97942806379592E-11  1.74290490664809E-02
 cg2d: Sum(rhs),rhsMax =  -5.95877791553789E-11  1.74943190035853E-02
 cg2d: Sum(rhs),rhsMax =  -5.96227511806546E-11  1.75499833473038E-02
 cg2d: Sum(rhs),rhsMax =  -5.96013238762794E-11  1.75960345800138E-02
 cg2d: Sum(rhs),rhsMax =  -5.94639892881332E-11  1.76324695653767E-02
 cg2d: Sum(rhs),rhsMax =  -5.93778359814223E-11  1.76592895275178E-02
 cg2d: Sum(rhs),rhsMax =  -5.93066706855438E-11  1.76765000283573E-02
 cg2d: Sum(rhs),rhsMax =  -5.92389470810417E-11  1.76841109429953E-02
 cg2d: Sum(rhs),rhsMax =  -5.92381699249245E-11  1.76821364330793E-02
 cg2d: Sum(rhs),rhsMax =  -5.92557114487136E-11  1.76705949181900E-02
 cg2d: Sum(rhs),rhsMax =  -5.93750604238608E-11  1.76495090449156E-02
 cg2d: Sum(rhs),rhsMax =  -5.95127280789143E-11  1.76189056539183E-02
 cg2d: Sum(rhs),rhsMax =  -5.95965499172735E-11  1.75788157447501E-02
 cg2d: Sum(rhs),rhsMax =  -5.98067151358350E-11  1.75292744384372E-02
 cg2d: Sum(rhs),rhsMax =  -6.00027805219838E-11  1.74703209378507E-02
 cg2d: Sum(rhs),rhsMax =  -6.01758642915229E-11  1.74019984859587E-02
 cg2d: Sum(rhs),rhsMax =  -6.04846173146711E-11  1.73243543220452E-02
 cg2d: Sum(rhs),rhsMax =  -6.08055827910903E-11  1.72419022114356E-02
 cg2d: Sum(rhs),rhsMax =  -6.11559691776620E-11  1.71631177484434E-02
 cg2d: Sum(rhs),rhsMax =  -6.15290041139360E-11  1.70762588843675E-02
 cg2d: Sum(rhs),rhsMax =  -6.19735374129959E-11  1.69813629858533E-02
 cg2d: Sum(rhs),rhsMax =  -6.23823215306629E-11  1.68784714516370E-02
 cg2d: Sum(rhs),rhsMax =  -6.28843643823984E-11  1.67676297016402E-02
 cg2d: Sum(rhs),rhsMax =  -6.34526875487040E-11  1.66488871639371E-02
 cg2d: Sum(rhs),rhsMax =  -6.40618669223159E-11  1.65222972594224E-02
 cg2d: Sum(rhs),rhsMax =  -6.46439568541268E-11  1.63879173837427E-02
 cg2d: Sum(rhs),rhsMax =  -6.52913278997858E-11  1.62458088859426E-02
 cg2d: Sum(rhs),rhsMax =  -6.60265175866925E-11  1.60960370433708E-02
 cg2d: Sum(rhs),rhsMax =  -6.67175203972192E-11  1.59386710326776E-02
 cg2d: Sum(rhs),rhsMax =  -6.74670319611437E-11  1.57737838971385E-02
 cg2d: Sum(rhs),rhsMax =  -6.82587320000039E-11  1.56014525109025E-02
 cg2d: Sum(rhs),rhsMax =  -6.90629775590423E-11  1.54217575409740E-02
 cg2d: Sum(rhs),rhsMax =  -6.99621471866863E-11  1.52347834076920E-02
 cg2d: Sum(rhs),rhsMax =  -7.09601266635218E-11  1.50406182441972E-02
 cg2d: Sum(rhs),rhsMax =  -7.20202786297364E-11  1.48393538554691E-02
 cg2d: Sum(rhs),rhsMax =  -7.30647764513037E-11  1.46310856737789E-02
 cg2d: Sum(rhs),rhsMax =  -7.42388372998448E-11  1.44159127123158E-02
 cg2d: Sum(rhs),rhsMax =  -7.54079021447751E-11  1.41939375159282E-02
 cg2d: Sum(rhs),rhsMax =  -7.67044205929324E-11  1.39652661078684E-02
 cg2d: Sum(rhs),rhsMax =  -7.81573694652593E-11  1.37300079327415E-02
 cg2d: Sum(rhs),rhsMax =  -7.94108112600611E-11  1.35329401186113E-02
 cg2d: Sum(rhs),rhsMax =  -7.96194221663882E-11  1.35105788482511E-02
 cg2d: Sum(rhs),rhsMax =  -7.98462407303191E-11  1.34874226215220E-02
 cg2d: Sum(rhs),rhsMax =  -8.00239874365616E-11  1.34635607351304E-02
 cg2d: Sum(rhs),rhsMax =  -8.02831134905091E-11  1.34390539345297E-02
 cg2d: Sum(rhs),rhsMax =  -8.05261413105995E-11  1.34198768640429E-02
 cg2d: Sum(rhs),rhsMax =  -8.04316613312039E-11  1.34406234988866E-02
 cg2d: Sum(rhs),rhsMax =  -8.04512012564373E-11  1.34618066951058E-02
 cg2d: Sum(rhs),rhsMax =  -8.03864752541017E-11  1.34835156039827E-02
 cg2d: Sum(rhs),rhsMax =  -8.03392907755551E-11  1.35057098524051E-02
 cg2d: Sum(rhs),rhsMax =  -8.03115351999395E-11  1.35283437598313E-02
 cg2d: Sum(rhs),rhsMax =  -8.01885224888110E-11  1.35513647215003E-02
 cg2d: Sum(rhs),rhsMax =  -8.02099497931863E-11  1.35748810383265E-02
 cg2d: Sum(rhs),rhsMax =  -8.00945976209277E-11  1.35989327769448E-02
 cg2d: Sum(rhs),rhsMax =  -7.99427191111590E-11  1.36234537011090E-02
 cg2d: Sum(rhs),rhsMax =  -7.98263677381783E-11  1.36483695108274E-02
 cg2d: Sum(rhs),rhsMax =  -7.97275578889867E-11  1.36736393036218E-02
 cg2d: Sum(rhs),rhsMax =  -7.95618015914101E-11  1.36992157999265E-02
 cg2d: Sum(rhs),rhsMax =  -7.94505572443427E-11  1.37250704508494E-02
 cg2d: Sum(rhs),rhsMax =  -7.93857202197046E-11  1.37511856808349E-02
 cg2d: Sum(rhs),rhsMax =  -7.91863241644819E-11  1.37775368269167E-02
 cg2d: Sum(rhs),rhsMax =  -7.90675303008470E-11  1.38040804080766E-02
 cg2d: Sum(rhs),rhsMax =  -7.89057152950079E-11  1.38307737539913E-02
 cg2d: Sum(rhs),rhsMax =  -7.88168974530379E-11  1.38575589190458E-02
 cg2d: Sum(rhs),rhsMax =  -7.86873899372154E-11  1.38844326294080E-02
 cg2d: Sum(rhs),rhsMax =  -7.85225773292098E-11  1.39113996684415E-02
 cg2d: Sum(rhs),rhsMax =  -7.84090015137906E-11  1.39385411785454E-02
 cg2d: Sum(rhs),rhsMax =  -7.82531262011332E-11  1.39656823053440E-02
 cg2d: Sum(rhs),rhsMax =  -7.81140152561477E-11  1.39933430430793E-02
 cg2d: Sum(rhs),rhsMax =  -7.80076003792374E-11  1.40212506867362E-02
 cg2d: Sum(rhs),rhsMax =  -7.79281084106742E-11  1.40494347396966E-02
 cg2d: Sum(rhs),rhsMax =  -7.78248021582328E-11  1.40778242156793E-02
 cg2d: Sum(rhs),rhsMax =  -7.77692910070016E-11  1.41061568344283E-02
 cg2d: Sum(rhs),rhsMax =  -7.76656516876528E-11  1.41348634119610E-02
 cg2d: Sum(rhs),rhsMax =  -7.75640107697484E-11  1.41636995504252E-02
 cg2d: Sum(rhs),rhsMax =  -7.74375563672436E-11  1.41926214840396E-02
 cg2d: Sum(rhs),rhsMax =  -7.72856501018993E-11  1.42214019433041E-02
 cg2d: Sum(rhs),rhsMax =  -7.71608887895070E-11  1.42505167885421E-02
 cg2d: Sum(rhs),rhsMax =  -7.70210839551311E-11  1.42797407431208E-02
 cg2d: Sum(rhs),rhsMax =  -7.69619229457064E-11  1.43090145796328E-02
 cg2d: Sum(rhs),rhsMax =  -7.68345456703123E-11  1.43381137402472E-02
 cg2d: Sum(rhs),rhsMax =  -7.67519034439168E-11  1.43673772451481E-02
 cg2d: Sum(rhs),rhsMax =  -7.65703125904516E-11  1.43965823329855E-02
 cg2d: Sum(rhs),rhsMax =  -7.64387719787152E-11  1.44254833806496E-02
 cg2d: Sum(rhs),rhsMax =  -7.62586660485454E-11  1.44544138280941E-02
 cg2d: Sum(rhs),rhsMax =  -7.61389840064908E-11  1.44830102652278E-02
 cg2d: Sum(rhs),rhsMax =  -7.60684015777002E-11  1.45115300764960E-02
 cg2d: Sum(rhs),rhsMax =  -7.58906548714577E-11  1.45397124565424E-02
 cg2d: Sum(rhs),rhsMax =  -7.57833795717033E-11  1.45673821984155E-02
 cg2d: Sum(rhs),rhsMax =  -7.56855689232339E-11  1.45948694543399E-02
(PID.TID 0000.0001)      cg2d_init_res =   1.55692049183875E-01
(PID.TID 0000.0001)      cg2d_iters(min,last) =      -1      40
(PID.TID 0000.0001)      cg2d_last_res =   3.83410092940252E-14
(PID.TID 0000.0001) // =======================================================
(PID.TID 0000.0001) // Begin MONITOR dynamic field statistics
(PID.TID 0000.0001) // =======================================================
(PID.TID 0000.0001) %MON time_tsnumber                =                  3840
(PID.TID 0000.0001) %MON time_secondsf                =   5.7600000000000E+04
(PID.TID 0000.0001) %MON dynstat_eta_max              =   1.2539166437383E-03
(PID.TID 0000.0001) %MON dynstat_eta_min              =  -5.7703597654505E-03
(PID.TID 0000.0001) %MON dynstat_eta_mean             =   2.5234240419680E-15
(PID.TID 0000.0001) %MON dynstat_eta_sd               =   1.6203680494003E-03
(PID.TID 0000.0001) %MON dynstat_eta_del2             =   1.2243425138101E-05
(PID.TID 0000.0001) %MON dynstat_uvel_max             =   1.3509984904756E+00
(PID.TID 0000.0001) %MON dynstat_uvel_min             =  -1.5306974760946E-02
(PID.TID 0000.0001) %MON dynstat_uvel_mean            =   5.6098012851170E-01
(PID.TID 0000.0001) %MON dynstat_uvel_sd              =   4.0939361124634E-02
(PID.TID 0000.0001) %MON dynstat_uvel_del2            =   3.9715908341789E-04
(PID.TID 0000.0001) %MON dynstat_vvel_max             =   0.0000000000000E+00
(PID.TID 0000.0001) %MON dynstat_vvel_min             =   0.0000000000000E+00
(PID.TID 0000.0001) %MON dynstat_vvel_mean            =   0.0000000000000E+00
(PID.TID 0000.0001) %MON dynstat_vvel_sd              =   0.0000000000000E+00
(PID.TID 0000.0001) %MON dynstat_vvel_del2            =   0.0000000000000E+00
(PID.TID 0000.0001) %MON dynstat_wvel_max             =   1.7275917278998E-02
(PID.TID 0000.0001) %MON dynstat_wvel_min             =  -1.0476234144419E-02
(PID.TID 0000.0001) %MON dynstat_wvel_mean            =   1.3848900990869E-20
(PID.TID 0000.0001) %MON dynstat_wvel_sd              =   1.5767230420450E-03
(PID.TID 0000.0001) %MON dynstat_wvel_del2            =   3.5156685935307E-05
(PID.TID 0000.0001) %MON dynstat_theta_max            =   1.5000000000013E+01
(PID.TID 0000.0001) %MON dynstat_theta_min            =   9.9999999999969E+00
(PID.TID 0000.0001) %MON dynstat_theta_mean           =   1.4011078512181E+01
(PID.TID 0000.0001) %MON dynstat_theta_sd             =   1.9188375899527E+00
(PID.TID 0000.0001) %MON dynstat_theta_del2           =   3.6017446534022E-04
(PID.TID 0000.0001) %MON dynstat_salt_max             =   3.5000000000000E+01
(PID.TID 0000.0001) %MON dynstat_salt_min             =   3.5000000000000E+01
(PID.TID 0000.0001) %MON dynstat_salt_mean            =   3.5000000000000E+01
(PID.TID 0000.0001) %MON dynstat_salt_sd              =   4.1922021409846E-13
(PID.TID 0000.0001) %MON dynstat_salt_del2            =   0.0000000000000E+00
(PID.TID 0000.0001) %MON dynstat_sst_max              =   1.5000000000000E+01
(PID.TID 0000.0001) %MON dynstat_sst_min              =   1.4999999999999E+01
(PID.TID 0000.0001) %MON dynstat_sst_mean             =   1.5000000000000E+01
(PID.TID 0000.0001) %MON dynstat_sst_sd               =   3.4809217098906E-13
(PID.TID 0000.0001) %MON dynstat_sst_del2             =   5.1851384760362E-15
(PID.TID 0000.0001) %MON dynstat_sss_max              =   3.5000000000000E+01
(PID.TID 0000.0001) %MON dynstat_sss_min              =   3.5000000000000E+01
(PID.TID 0000.0001) %MON dynstat_sss_mean             =   3.5000000000000E+01
(PID.TID 0000.0001) %MON dynstat_sss_sd               =   2.8421709430404E-14
(PID.TID 0000.0001) %MON dynstat_sss_del2             =   0.0000000000000E+00
(PID.TID 0000.0001) %MON forcing_qnet_max             =   0.0000000000000E+00
(PID.TID 0000.0001) %MON forcing_qnet_min             =   0.0000000000000E+00
(PID.TID 0000.0001) %MON forcing_qnet_mean            =   0.0000000000000E+00
(PID.TID 0000.0001) %MON forcing_qnet_sd              =   0.0000000000000E+00
(PID.TID 0000.0001) %MON forcing_qnet_del2            =   0.0000000000000E+00
(PID.TID 0000.0001) %MON forcing_qsw_max              =   0.0000000000000E+00
(PID.TID 0000.0001) %MON forcing_qsw_min              =   0.0000000000000E+00
(PID.TID 0000.0001) %MON forcing_qsw_mean             =   0.0000000000000E+00
(PID.TID 0000.0001) %MON forcing_qsw_sd               =   0.0000000000000E+00
(PID.TID 0000.0001) %MON forcing_qsw_del2             =   0.0000000000000E+00
(PID.TID 0000.0001) %MON forcing_empmr_max            =   0.0000000000000E+00
(PID.TID 0000.0001) %MON forcing_empmr_min            =   0.0000000000000E+00
(PID.TID 0000.0001) %MON forcing_empmr_mean           =   0.0000000000000E+00
(PID.TID 0000.0001) %MON forcing_empmr_sd             =   0.0000000000000E+00
(PID.TID 0000.0001) %MON forcing_empmr_del2           =   0.0000000000000E+00
(PID.TID 0000.0001) %MON forcing_fu_max               =   0.0000000000000E+00
(PID.TID 0000.0001) %MON forcing_fu_min               =   0.0000000000000E+00
(PID.TID 0000.0001) %MON forcing_fu_mean              =   0.0000000000000E+00
(PID.TID 0000.0001) %MON forcing_fu_sd                =   0.0000000000000E+00
(PID.TID 0000.0001) %MON forcing_fu_del2              =   0.0000000000000E+00
(PID.TID 0000.0001) %MON forcing_fv_max               =   0.0000000000000E+00
(PID.TID 0000.0001) %MON forcing_fv_min               =   0.0000000000000E+00
(PID.TID 0000.0001) %MON forcing_fv_mean              =   0.0000000000000E+00
(PID.TID 0000.0001) %MON forcing_fv_sd                =   0.0000000000000E+00
(PID.TID 0000.0001) %MON forcing_fv_del2              =   0.0000000000000E+00
(PID.TID 0000.0001) %MON advcfl_uvel_max              =   9.7564244487205E-02
(PID.TID 0000.0001) %MON advcfl_vvel_max              =   0.0000000000000E+00
(PID.TID 0000.0001) %MON advcfl_wvel_max              =   8.5311369105880E-02
(PID.TID 0000.0001) %MON advcfl_W_hf_max              =   9.8581224853959E-02
(PID.TID 0000.0001) %MON pe_b_mean                    =   6.4527622944551E-08
(PID.TID 0000.0001) %MON ke_max                       =   4.6105555637705E-01
(PID.TID 0000.0001) %MON ke_mean                      =   1.5820733005542E-01
(PID.TID 0000.0001) %MON ke_vol                       =   9.7476098603737E+10
(PID.TID 0000.0001) %MON vort_r_min                   =   0.0000000000000E+00
(PID.TID 0000.0001) %MON vort_r_max                   =   0.0000000000000E+00
(PID.TID 0000.0001) %MON vort_a_mean                  =   0.0000000000000E+00
(PID.TID 0000.0001) %MON vort_a_sd                    =   0.0000000000000E+00
(PID.TID 0000.0001) %MON vort_p_mean                  =   0.0000000000000E+00
(PID.TID 0000.0001) %MON vort_p_sd                    =   0.0000000000000E+00
(PID.TID 0000.0001) %MON surfExpan_theta_mean         =   5.3235201160196E-19
(PID.TID 0000.0001) %MON surfExpan_salt_mean          =  -1.8598568310886E-19
(PID.TID 0000.0001) // =======================================================
(PID.TID 0000.0001) // End MONITOR dynamic field statistics
(PID.TID 0000.0001) // =======================================================
(PID.TID 0000.0001) // =======================================================
(PID.TID 0000.0001) // Begin OBCS MONITOR field statistics
(PID.TID 0000.0001) // =======================================================
(PID.TID 0000.0001) %MON obc_E_uVel_max               =   5.6028564143658E-01
(PID.TID 0000.0001) %MON obc_E_uVel_min               =   5.6028564143658E-01
(PID.TID 0000.0001) %MON obc_E_uVel_mean              =   5.6028564143658E-01
(PID.TID 0000.0001) %MON obc_E_uVel_sd                =   1.0536712127724E-08
(PID.TID 0000.0001) %MON obc_E_uVel_Int               =   5.6028564143658E+05
(PID.TID 0000.0001) %MON obc_W_uVel_max               =   5.6028564143658E-01
(PID.TID 0000.0001) %MON obc_W_uVel_min               =   5.6028564143658E-01
(PID.TID 0000.0001) %MON obc_W_uVel_mean              =   5.6028564143658E-01
(PID.TID 0000.0001) %MON obc_W_uVel_sd                =   1.0536712127724E-08
(PID.TID 0000.0001) %MON obc_W_uVel_Int               =   5.6028564143658E+05
(PID.TID 0000.0001) // =======================================================
(PID.TID 0000.0001) // End OBCS MONITOR field statistics
(PID.TID 0000.0001) // =======================================================
 cg2d: Sum(rhs),rhsMax =  -7.55376039496269E-11  1.46219056479197E-02
 cg2d: Sum(rhs),rhsMax =  -7.54620810283768E-11  1.46486046566055E-02
 cg2d: Sum(rhs),rhsMax =  -7.53587747759354E-11  1.46750875205632E-02
 cg2d: Sum(rhs),rhsMax =  -7.52999884667815E-11  1.47011053715070E-02
 cg2d: Sum(rhs),rhsMax =  -7.51427253753434E-11  1.47268738827262E-02
 cg2d: Sum(rhs),rhsMax =  -7.50151052386627E-11  1.47521222918075E-02
 cg2d: Sum(rhs),rhsMax =  -7.49100781405332E-11  1.47769809559097E-02
 cg2d: Sum(rhs),rhsMax =  -7.48298090158528E-11  1.48015639289723E-02
 cg2d: Sum(rhs),rhsMax =  -7.47426565084197E-11  1.48256369397967E-02
 cg2d: Sum(rhs),rhsMax =  -7.47573669634960E-11  1.48491987548486E-02
 cg2d: Sum(rhs),rhsMax =  -7.46620543168319E-11  1.48723293468285E-02
 cg2d: Sum(rhs),rhsMax =  -7.45961070691692E-11  1.48949941087074E-02
 cg2d: Sum(rhs),rhsMax =  -7.44845296551944E-11  1.49173966108870E-02
 cg2d: Sum(rhs),rhsMax =  -7.43642925016275E-11  1.49395537992487E-02
 cg2d: Sum(rhs),rhsMax =  -7.42172989731671E-11  1.49614777009313E-02
 cg2d: Sum(rhs),rhsMax =  -7.42568229128437E-11  1.49831481421492E-02
 cg2d: Sum(rhs),rhsMax =  -7.42773620387993E-11  1.50043018671965E-02
 cg2d: Sum(rhs),rhsMax =  -7.42881312021382E-11  1.50250216179663E-02
 cg2d: Sum(rhs),rhsMax =  -7.42320649393946E-11  1.50452982021878E-02
 cg2d: Sum(rhs),rhsMax =  -7.42615968718496E-11  1.50651164689914E-02
 cg2d: Sum(rhs),rhsMax =  -7.42648165186210E-11  1.50844699130776E-02
 cg2d: Sum(rhs),rhsMax =  -7.41743333421141E-11  1.51340370570170E-02
 cg2d: Sum(rhs),rhsMax =  -7.25887128183444E-11  1.54903546263111E-02
 cg2d: Sum(rhs),rhsMax =  -7.10584924235036E-11  1.58413457848352E-02
 cg2d: Sum(rhs),rhsMax =  -6.96521729182109E-11  1.61868531581836E-02
 cg2d: Sum(rhs),rhsMax =  -6.83110235044637E-11  1.65267214051429E-02
 cg2d: Sum(rhs),rhsMax =  -6.69587718604703E-11  1.68607972922380E-02
 cg2d: Sum(rhs),rhsMax =  -6.57310872398398E-11  1.71889297681683E-02
 cg2d: Sum(rhs),rhsMax =  -6.45421494027687E-11  1.75109700386368E-02
 cg2d: Sum(rhs),rhsMax =  -6.34947650013373E-11  1.78267716406584E-02
 cg2d: Sum(rhs),rhsMax =  -6.25188789626918E-11  1.81361905164643E-02
 cg2d: Sum(rhs),rhsMax =  -6.15218986865784E-11  1.84390850871456E-02
 cg2d: Sum(rhs),rhsMax =  -6.06387162704891E-11  1.87353163261461E-02
 cg2d: Sum(rhs),rhsMax =  -5.97689675529978E-11  1.90247478326183E-02
 cg2d: Sum(rhs),rhsMax =  -5.88837867354641E-11  1.93072459046125E-02
 cg2d: Sum(rhs),rhsMax =  -5.81341641492372E-11  1.95826796120087E-02
 cg2d: Sum(rhs),rhsMax =  -5.73948666371393E-11  1.98509208691102E-02
 cg2d: Sum(rhs),rhsMax =  -5.67020874697732E-11  2.01118445068028E-02
 cg2d: Sum(rhs),rhsMax =  -5.59673418720763E-11  2.03653283441983E-02
 cg2d: Sum(rhs),rhsMax =  -5.53296297667316E-11  2.06112532596616E-02
 cg2d: Sum(rhs),rhsMax =  -5.47516476601118E-11  2.08495032611038E-02
 cg2d: Sum(rhs),rhsMax =  -5.42843547890470E-11  2.10799655554552E-02
 cg2d: Sum(rhs),rhsMax =  -5.38049604870139E-11  2.13025306171882E-02
 cg2d: Sum(rhs),rhsMax =  -5.33733057750396E-11  2.15170922558012E-02
 cg2d: Sum(rhs),rhsMax =  -5.29464250220713E-11  2.17235476821705E-02
 cg2d: Sum(rhs),rhsMax =  -5.26055865535113E-11  2.19217975736987E-02
 cg2d: Sum(rhs),rhsMax =  -5.22371035316382E-11  2.21117461382029E-02
 cg2d: Sum(rhs),rhsMax =  -5.18882714573010E-11  2.22933011765234E-02
 cg2d: Sum(rhs),rhsMax =  -5.14712716892518E-11  2.24663741438071E-02
 cg2d: Sum(rhs),rhsMax =  -5.11850561935034E-11  2.26308802094728E-02
 cg2d: Sum(rhs),rhsMax =  -5.08775244156823E-11  2.27867383158316E-02
 cg2d: Sum(rhs),rhsMax =  -5.06112929343772E-11  2.29338712353424E-02
 cg2d: Sum(rhs),rhsMax =  -5.03640462667931E-11  2.30722056264765E-02
 cg2d: Sum(rhs),rhsMax =  -5.01038099898210E-11  2.32016720884532E-02
 cg2d: Sum(rhs),rhsMax =  -4.98807661841738E-11  2.33222052138661E-02
 cg2d: Sum(rhs),rhsMax =  -4.96220842194361E-11  2.34337436397407E-02
 cg2d: Sum(rhs),rhsMax =  -4.94139174023189E-11  2.35362300971710E-02
 cg2d: Sum(rhs),rhsMax =  -4.91998664031712E-11  2.36296114592994E-02
 cg2d: Sum(rhs),rhsMax =  -4.90028018163002E-11  2.37138387873649E-02
 cg2d: Sum(rhs),rhsMax =  -4.88824536404309E-11  2.37888673746402E-02
 cg2d: Sum(rhs),rhsMax =  -4.87188067666011E-11  2.38546567881018E-02
 cg2d: Sum(rhs),rhsMax =  -4.86042317504598E-11  2.39111709077290E-02
 cg2d: Sum(rhs),rhsMax =  -4.84773332587451E-11  2.39583779633328E-02
 cg2d: Sum(rhs),rhsMax =  -4.83956208441327E-11  2.39962505687955E-02
 cg2d: Sum(rhs),rhsMax =  -4.83200146561558E-11  2.40247657536156E-02
 cg2d: Sum(rhs),rhsMax =  -4.83072470913726E-11  2.40439049916511E-02
 cg2d: Sum(rhs),rhsMax =  -4.83191264777361E-11  2.40536542269726E-02
 cg2d: Sum(rhs),rhsMax =  -4.84442486126113E-11  2.40540038967873E-02
 cg2d: Sum(rhs),rhsMax =  -4.85415041495685E-11  2.40449489513662E-02
 cg2d: Sum(rhs),rhsMax =  -4.85964601892874E-11  2.40264888710575E-02
 cg2d: Sum(rhs),rhsMax =  -4.87104800939164E-11  2.39986276804901E-02
 cg2d: Sum(rhs),rhsMax =  -4.88212803517740E-11  2.39613739598548E-02
 cg2d: Sum(rhs),rhsMax =  -4.89912554968441E-11  2.39147408534426E-02
 cg2d: Sum(rhs),rhsMax =  -4.92882401559314E-11  2.38587460755021E-02
 cg2d: Sum(rhs),rhsMax =  -4.94178031829051E-11  2.37934119134862E-02
 cg2d: Sum(rhs),rhsMax =  -4.95619101315015E-11  2.37187652287206E-02
 cg2d: Sum(rhs),rhsMax =  -4.97064611693077E-11  2.36348374553484E-02
 cg2d: Sum(rhs),rhsMax =  -4.98039387508697E-11  2.35416645955274E-02
 cg2d: Sum(rhs),rhsMax =  -4.99686958477241E-11  2.34392872115644E-02
 cg2d: Sum(rhs),rhsMax =  -5.01347852122080E-11  2.33277504159328E-02
 cg2d: Sum(rhs),rhsMax =  -5.02844432759275E-11  2.32071038588961E-02
 cg2d: Sum(rhs),rhsMax =  -5.04956076952112E-11  2.30774017134497E-02
 cg2d: Sum(rhs),rhsMax =  -5.07295316864997E-11  2.29387026573378E-02
 cg2d: Sum(rhs),rhsMax =  -5.10242958995377E-11  2.27910698520314E-02
 cg2d: Sum(rhs),rhsMax =  -5.13042941463482E-11  2.26345709186391E-02
 cg2d: Sum(rhs),rhsMax =  -5.15693043823262E-11  2.24692779107858E-02
 cg2d: Sum(rhs),rhsMax =  -5.18755038925178E-11  2.22952672845376E-02
 cg2d: Sum(rhs),rhsMax =  -5.22174525841024E-11  2.21126198654361E-02
 cg2d: Sum(rhs),rhsMax =  -5.26052534866039E-11  2.19214208127487E-02
 cg2d: Sum(rhs),rhsMax =  -5.29896126977292E-11  2.17217595809997E-02
 cg2d: Sum(rhs),rhsMax =  -5.34031707744020E-11  2.15137298788604E-02
 cg2d: Sum(rhs),rhsMax =  -5.38961097973356E-11  2.12974296254564E-02
 cg2d: Sum(rhs),rhsMax =  -5.43129985430824E-11  2.10729609041283E-02
 cg2d: Sum(rhs),rhsMax =  -5.48276979372986E-11  2.08404299136558E-02
 cg2d: Sum(rhs),rhsMax =  -5.53294077221267E-11  2.05999469169473E-02
 cg2d: Sum(rhs),rhsMax =  -5.59966517599264E-11  2.03516261871763E-02
 cg2d: Sum(rhs),rhsMax =  -5.66319213746169E-11  2.00955859513271E-02
 cg2d: Sum(rhs),rhsMax =  -5.73142644455515E-11  1.98319483311266E-02
 cg2d: Sum(rhs),rhsMax =  -5.81159564916334E-11  1.95608392813315E-02
 cg2d: Sum(rhs),rhsMax =  -5.88612492080642E-11  1.92823885253453E-02
 cg2d: Sum(rhs),rhsMax =  -5.96822591347745E-11  1.89967294881658E-02
 cg2d: Sum(rhs),rhsMax =  -6.05909766804302E-11  1.87039992266704E-02
 cg2d: Sum(rhs),rhsMax =  -6.15246742441400E-11  1.84043383572840E-02
 cg2d: Sum(rhs),rhsMax =  -6.24804652460398E-11  1.80978909810858E-02
 cg2d: Sum(rhs),rhsMax =  -6.35228536438603E-11  1.77848046064500E-02
 cg2d: Sum(rhs),rhsMax =  -6.45998810000492E-11  1.74652300693426E-02
 cg2d: Sum(rhs),rhsMax =  -6.57380816448949E-11  1.71393214514324E-02
 cg2d: Sum(rhs),rhsMax =  -6.69331257086014E-11  1.68072359961943E-02
 cg2d: Sum(rhs),rhsMax =  -6.82370826510237E-11  1.64691340231968E-02
 cg2d: Sum(rhs),rhsMax =  -6.96015467482880E-11  1.61251788407896E-02
 cg2d: Sum(rhs),rhsMax =  -7.10339564946594E-11  1.57755366573845E-02
 cg2d: Sum(rhs),rhsMax =  -7.26239068882251E-11  1.54203764915172E-02
 cg2d: Sum(rhs),rhsMax =  -7.42854666668791E-11  1.50598700808350E-02
 cg2d: Sum(rhs),rhsMax =  -7.48410222684015E-11  1.49188038961021E-02
 cg2d: Sum(rhs),rhsMax =  -7.48920925275343E-11  1.48939400870756E-02
 cg2d: Sum(rhs),rhsMax =  -7.49190709470327E-11  1.48681627162654E-02
 cg2d: Sum(rhs),rhsMax =  -7.49719175630048E-11  1.48415230161749E-02
 cg2d: Sum(rhs),rhsMax =  -7.49790229903624E-11  1.48140773803949E-02
 cg2d: Sum(rhs),rhsMax =  -7.50506878866020E-11  1.47858441913743E-02
 cg2d: Sum(rhs),rhsMax =  -7.51889661643190E-11  1.47568737312857E-02
 cg2d: Sum(rhs),rhsMax =  -7.53265227970701E-11  1.47272323086524E-02
 cg2d: Sum(rhs),rhsMax =  -7.54256102020179E-11  1.46969918243518E-02
 cg2d: Sum(rhs),rhsMax =  -7.55278617425859E-11  1.46662122657325E-02
 cg2d: Sum(rhs),rhsMax =  -7.56913975941131E-11  1.46349477440606E-02
 cg2d: Sum(rhs),rhsMax =  -7.58167972847446E-11  1.46033131580003E-02
 cg2d: Sum(rhs),rhsMax =  -7.58507701092981E-11  1.45714398330791E-02
 cg2d: Sum(rhs),rhsMax =  -7.60062013327456E-11  1.45393842608129E-02
 cg2d: Sum(rhs),rhsMax =  -7.61135598992269E-11  1.45072162815638E-02
 cg2d: Sum(rhs),rhsMax =  -7.62828689104822E-11  1.44753314492860E-02
 cg2d: Sum(rhs),rhsMax =  -7.64019125742976E-11  1.44437798397764E-02
 cg2d: Sum(rhs),rhsMax =  -7.65639218691661E-11  1.44125521800038E-02
 cg2d: Sum(rhs),rhsMax =  -7.66667562768220E-11  1.43816564926534E-02
 cg2d: Sum(rhs),rhsMax =  -7.68006491735918E-11  1.43511162389859E-02
 cg2d: Sum(rhs),rhsMax =  -7.69429242541975E-11  1.43209371294457E-02
 cg2d: Sum(rhs),rhsMax =  -7.70799257754362E-11  1.42911194851854E-02
 cg2d: Sum(rhs),rhsMax =  -7.72203273546879E-11  1.42616641275911E-02
 cg2d: Sum(rhs),rhsMax =  -7.73384689622958E-11  1.42325315097440E-02
 cg2d: Sum(rhs),rhsMax =  -7.74187935981274E-11  1.42037422620248E-02
 cg2d: Sum(rhs),rhsMax =  -7.75135684805139E-11  1.41753082766660E-02
 cg2d: Sum(rhs),rhsMax =  -7.76226600357477E-11  1.41472778220380E-02
 cg2d: Sum(rhs),rhsMax =  -7.77030072229845E-11  1.41196738095159E-02
 cg2d: Sum(rhs),rhsMax =  -7.78398942524738E-11  1.40924978973259E-02
 cg2d: Sum(rhs),rhsMax =  -7.79422915098138E-11  1.40657513774779E-02
 cg2d: Sum(rhs),rhsMax =  -7.80533832012154E-11  1.40394309294995E-02
 cg2d: Sum(rhs),rhsMax =  -7.80980141668053E-11  1.40135292021727E-02
 cg2d: Sum(rhs),rhsMax =  -7.81962550266968E-11  1.39880406090912E-02
 cg2d: Sum(rhs),rhsMax =  -7.83434705997621E-11  1.39629665824742E-02
 cg2d: Sum(rhs),rhsMax =  -7.83206555166061E-11  1.39583610925997E-02
 cg2d: Sum(rhs),rhsMax =  -7.79178388476964E-11  1.40127636217877E-02
 cg2d: Sum(rhs),rhsMax =  -7.74985353668711E-11  1.40666336345883E-02
 cg2d: Sum(rhs),rhsMax =  -7.71722130643582E-11  1.41199516591021E-02
 cg2d: Sum(rhs),rhsMax =  -7.67948482582881E-11  1.41727097492482E-02
 cg2d: Sum(rhs),rhsMax =  -7.65343899367110E-11  1.42249055590133E-02
 cg2d: Sum(rhs),rhsMax =  -7.62346852312135E-11  1.42765458752507E-02
 cg2d: Sum(rhs),rhsMax =  -7.59095009073008E-11  1.43276428051988E-02
 cg2d: Sum(rhs),rhsMax =  -7.55331353019528E-11  1.43782202423071E-02
 cg2d: Sum(rhs),rhsMax =  -7.52424234029547E-11  1.44282872812292E-02
 cg2d: Sum(rhs),rhsMax =  -7.48420214691237E-11  1.44778505773238E-02
 cg2d: Sum(rhs),rhsMax =  -7.45517536593354E-11  1.45269209973357E-02
 cg2d: Sum(rhs),rhsMax =  -7.42566563793901E-11  1.45755244981523E-02
 cg2d: Sum(rhs),rhsMax =  -7.39058814147597E-11  1.46236486700156E-02
 cg2d: Sum(rhs),rhsMax =  -7.35537741824999E-11  1.46712765563999E-02
 cg2d: Sum(rhs),rhsMax =  -7.32168770056774E-11  1.47179746717652E-02
 cg2d: Sum(rhs),rhsMax =  -7.29737381632845E-11  1.47634582347892E-02
 cg2d: Sum(rhs),rhsMax =  -7.25733917406046E-11  1.48077179184668E-02
 cg2d: Sum(rhs),rhsMax =  -7.23006099434542E-11  1.48507784784390E-02
 cg2d: Sum(rhs),rhsMax =  -7.20321580160999E-11  1.48926593880339E-02
 cg2d: Sum(rhs),rhsMax =  -7.17185200116432E-11  1.49333854700784E-02
 cg2d: Sum(rhs),rhsMax =  -7.14166503712477E-11  1.49729880268393E-02
 cg2d: Sum(rhs),rhsMax =  -7.11604108971642E-11  1.50115040061994E-02
 cg2d: Sum(rhs),rhsMax =  -7.09126091180678E-11  1.50489753878516E-02
 cg2d: Sum(rhs),rhsMax =  -7.06626979152247E-11  1.50854460609513E-02
 cg2d: Sum(rhs),rhsMax =  -7.03650471223227E-11  1.51209641818103E-02
 cg2d: Sum(rhs),rhsMax =  -7.02287117348988E-11  1.51555802043539E-02
 cg2d: Sum(rhs),rhsMax =  -6.99637014989207E-11  1.51893532654100E-02
 cg2d: Sum(rhs),rhsMax =  -6.96744884010059E-11  1.52223395202894E-02
 cg2d: Sum(rhs),rhsMax =  -6.94501123277291E-11  1.52545940318269E-02
 cg2d: Sum(rhs),rhsMax =  -6.92924606582324E-11  1.52861681779337E-02
 cg2d: Sum(rhs),rhsMax =  -6.91157131527120E-11  1.53171189018709E-02
 cg2d: Sum(rhs),rhsMax =  -6.89061030456628E-11  1.53474789486008E-02
 cg2d: Sum(rhs),rhsMax =  -6.87415679934134E-11  1.53772927622830E-02
 cg2d: Sum(rhs),rhsMax =  -6.85473899864064E-11  1.54067367973935E-02
 cg2d: Sum(rhs),rhsMax =  -6.83191281325435E-11  1.54362245557743E-02
 cg2d: Sum(rhs),rhsMax =  -6.80671075059536E-11  1.54658274770638E-02
 cg2d: Sum(rhs),rhsMax =  -6.78220812844188E-11  1.54956169413806E-02
 cg2d: Sum(rhs),rhsMax =  -6.76434463997566E-11  1.55256500007946E-02
 cg2d: Sum(rhs),rhsMax =  -6.74930111799199E-11  1.55559210081370E-02
 cg2d: Sum(rhs),rhsMax =  -6.73217037672202E-11  1.55864223415036E-02
 cg2d: Sum(rhs),rhsMax =  -6.71925848294563E-11  1.56171776086719E-02
 cg2d: Sum(rhs),rhsMax =  -6.70044020267824E-11  1.56481890193782E-02
 cg2d: Sum(rhs),rhsMax =  -6.67433885936930E-11  1.56794350638644E-02
 cg2d: Sum(rhs),rhsMax =  -6.64759358670608E-11  1.57108975442294E-02
 cg2d: Sum(rhs),rhsMax =  -6.62845334176154E-11  1.57425410750943E-02
 cg2d: Sum(rhs),rhsMax =  -6.60635990357150E-11  1.57743357864519E-02
 cg2d: Sum(rhs),rhsMax =  -6.58445520329565E-11  1.58060924077545E-02
 cg2d: Sum(rhs),rhsMax =  -6.56479315352954E-11  1.58377060434174E-02
 cg2d: Sum(rhs),rhsMax =  -6.54293286217467E-11  1.58691006333075E-02
 cg2d: Sum(rhs),rhsMax =  -6.52101705966857E-11  1.59002358042019E-02
 cg2d: Sum(rhs),rhsMax =  -6.50736131646568E-11  1.59310756565819E-02
 cg2d: Sum(rhs),rhsMax =  -6.49091891347098E-11  1.59615829150263E-02
 cg2d: Sum(rhs),rhsMax =  -6.47369935435904E-11  1.59917237927784E-02
 cg2d: Sum(rhs),rhsMax =  -6.46929176895128E-11  1.60214637893472E-02
 cg2d: Sum(rhs),rhsMax =  -6.45418163358613E-11  1.60507578099733E-02
 cg2d: Sum(rhs),rhsMax =  -6.43745057260503E-11  1.60795505499132E-02
 cg2d: Sum(rhs),rhsMax =  -6.41887654140305E-11  1.61075675334603E-02
 cg2d: Sum(rhs),rhsMax =  -6.40522079820016E-11  1.61345829776642E-02
 cg2d: Sum(rhs),rhsMax =  -6.39777120170493E-11  1.61604644792396E-02
 cg2d: Sum(rhs),rhsMax =  -6.39589492479331E-11  1.61845740717155E-02
 cg2d: Sum(rhs),rhsMax =  -6.39974739868876E-11  1.62068542472611E-02
 cg2d: Sum(rhs),rhsMax =  -6.39623909393094E-11  1.62271443615056E-02
 cg2d: Sum(rhs),rhsMax =  -6.39309716277126E-11  1.62454487545268E-02
 cg2d: Sum(rhs),rhsMax =  -6.40981712152211E-11  1.62618342199395E-02
 cg2d: Sum(rhs),rhsMax =  -6.41265929246515E-11  1.62763670358823E-02
 cg2d: Sum(rhs),rhsMax =  -6.39841513105921E-11  1.62891214482277E-02
 cg2d: Sum(rhs),rhsMax =  -6.38002983777142E-11  1.63001699447110E-02
 cg2d: Sum(rhs),rhsMax =  -6.37803143632709E-11  1.63095832079943E-02
 cg2d: Sum(rhs),rhsMax =  -6.37481178955568E-11  1.63174354872133E-02
 cg2d: Sum(rhs),rhsMax =  -6.36780628227029E-11  1.63238018432430E-02
 cg2d: Sum(rhs),rhsMax =  -6.36261043851505E-11  1.63287592317134E-02
 cg2d: Sum(rhs),rhsMax =  -6.36340979909278E-11  1.63323853886896E-02
 cg2d: Sum(rhs),rhsMax =  -6.36550812060932E-11  1.63347613861643E-02
 cg2d: Sum(rhs),rhsMax =  -6.36476427118282E-11  1.63359649069736E-02
 cg2d: Sum(rhs),rhsMax =  -6.36735109083020E-11  1.63360712290049E-02
 cg2d: Sum(rhs),rhsMax =  -6.37548902560070E-11  1.63351500483725E-02
 cg2d: Sum(rhs),rhsMax =  -6.37987440654797E-11  1.63332045881185E-02
 cg2d: Sum(rhs),rhsMax =  -6.39306385608052E-11  1.63303150895930E-02
 cg2d: Sum(rhs),rhsMax =  -6.39697184112720E-11  1.63265599950600E-02
 cg2d: Sum(rhs),rhsMax =  -6.40690833719759E-11  1.63220120050637E-02
 cg2d: Sum(rhs),rhsMax =  -6.41889874586354E-11  1.63167427992026E-02
 cg2d: Sum(rhs),rhsMax =  -6.42622621782607E-11  1.63108153501284E-02
 cg2d: Sum(rhs),rhsMax =  -6.43465281058297E-11  1.63042618139590E-02
 cg2d: Sum(rhs),rhsMax =  -6.44317932341210E-11  1.62971253691781E-02
 cg2d: Sum(rhs),rhsMax =  -6.45347109085037E-11  1.62894716013228E-02
 cg2d: Sum(rhs),rhsMax =  -6.46491749023426E-11  1.62807904181995E-02
 cg2d: Sum(rhs),rhsMax =  -6.47149001054004E-11  1.62709753527137E-02
 cg2d: Sum(rhs),rhsMax =  -6.48667786151691E-11  1.62601406996102E-02
 cg2d: Sum(rhs),rhsMax =  -6.49733600255331E-11  1.62483915922271E-02
 cg2d: Sum(rhs),rhsMax =  -6.50258735745979E-11  1.62358168854664E-02
 cg2d: Sum(rhs),rhsMax =  -6.51192433309689E-11  1.62225045939642E-02
 cg2d: Sum(rhs),rhsMax =  -6.52655707256145E-11  1.62085371851200E-02
 cg2d: Sum(rhs),rhsMax =  -6.53926912619340E-11  1.61939881924764E-02
 cg2d: Sum(rhs),rhsMax =  -6.55204779320684E-11  1.61789353715029E-02
 cg2d: Sum(rhs),rhsMax =  -6.56259491194078E-11  1.61634516094681E-02
 cg2d: Sum(rhs),rhsMax =  -6.57581766816406E-11  1.61476015959471E-02
 cg2d: Sum(rhs),rhsMax =  -6.58572085754372E-11  1.61314229146170E-02
 cg2d: Sum(rhs),rhsMax =  -6.60103083305330E-11  1.61149624188440E-02
 cg2d: Sum(rhs),rhsMax =  -6.61621868403017E-11  1.60982679452717E-02
 cg2d: Sum(rhs),rhsMax =  -6.63109567256015E-11  1.60813662078333E-02
 cg2d: Sum(rhs),rhsMax =  -6.65076882455651E-11  1.60642508165278E-02
 cg2d: Sum(rhs),rhsMax =  -6.66616761790806E-11  1.60466742362440E-02
 cg2d: Sum(rhs),rhsMax =  -6.68639588141673E-11  1.60284354274873E-02
 cg2d: Sum(rhs),rhsMax =  -6.70317135131882E-11  1.60095657420747E-02
 cg2d: Sum(rhs),rhsMax =  -6.72104594201528E-11  1.59901178372347E-02
 cg2d: Sum(rhs),rhsMax =  -6.73900935055372E-11  1.59701325969464E-02
 cg2d: Sum(rhs),rhsMax =  -6.75631772750762E-11  1.59496160981432E-02
 cg2d: Sum(rhs),rhsMax =  -6.77526923453797E-11  1.59285872482937E-02
 cg2d: Sum(rhs),rhsMax =  -6.78932465802973E-11  1.59070883342863E-02
 cg2d: Sum(rhs),rhsMax =  -6.80743239556136E-11  1.58851588783542E-02
 cg2d: Sum(rhs),rhsMax =  -6.82277567776168E-11  1.58628330150628E-02
 cg2d: Sum(rhs),rhsMax =  -6.83648693211580E-11  1.58403408360851E-02
 cg2d: Sum(rhs),rhsMax =  -6.85358436669503E-11  1.58177978362662E-02
 cg2d: Sum(rhs),rhsMax =  -6.86583012665665E-11  1.57952102759228E-02
 cg2d: Sum(rhs),rhsMax =  -6.88781809365935E-11  1.57725783209599E-02
 cg2d: Sum(rhs),rhsMax =  -6.91179335987613E-11  1.57498991703069E-02
 cg2d: Sum(rhs),rhsMax =  -6.93470836310439E-11  1.57272149329358E-02
 cg2d: Sum(rhs),rhsMax =  -6.95046242782382E-11  1.57046874826711E-02
 cg2d: Sum(rhs),rhsMax =  -6.97457647191868E-11  1.56823749184830E-02
 cg2d: Sum(rhs),rhsMax =  -6.99228452916145E-11  1.56601625737128E-02
 cg2d: Sum(rhs),rhsMax =  -7.01600999519769E-11  1.56377945338585E-02
 cg2d: Sum(rhs),rhsMax =  -7.03537228474715E-11  1.56152177282278E-02
 cg2d: Sum(rhs),rhsMax =  -7.05265290612545E-11  1.55923981483953E-02
 cg2d: Sum(rhs),rhsMax =  -7.07497394003553E-11  1.55692953296518E-02
 cg2d: Sum(rhs),rhsMax =  -7.09347580674091E-11  1.55458721376881E-02
 cg2d: Sum(rhs),rhsMax =  -7.11011249876492E-11  1.55220935552561E-02
 cg2d: Sum(rhs),rhsMax =  -7.14128201018127E-11  1.54979313223952E-02
 cg2d: Sum(rhs),rhsMax =  -7.15837944476050E-11  1.54733483194492E-02
 cg2d: Sum(rhs),rhsMax =  -7.18080872541549E-11  1.54483093710090E-02
 cg2d: Sum(rhs),rhsMax =  -7.20731807568598E-11  1.54227859454279E-02
 cg2d: Sum(rhs),rhsMax =  -7.22206461301056E-11  1.53971084794789E-02
 cg2d: Sum(rhs),rhsMax =  -7.23063275920310E-11  1.53714356198761E-02
 cg2d: Sum(rhs),rhsMax =  -7.25076249041834E-11  1.53457303570281E-02
 cg2d: Sum(rhs),rhsMax =  -7.26741167245137E-11  1.53199411936461E-02
 cg2d: Sum(rhs),rhsMax =  -7.27720800286491E-11  1.52940313648557E-02
 cg2d: Sum(rhs),rhsMax =  -7.29694499268518E-11  1.52679731759515E-02
 cg2d: Sum(rhs),rhsMax =  -7.31687210819842E-11  1.52417418487881E-02
 cg2d: Sum(rhs),rhsMax =  -7.33477115849590E-11  1.52152784142905E-02
 cg2d: Sum(rhs),rhsMax =  -7.34251097422867E-11  1.51889728232590E-02
 cg2d: Sum(rhs),rhsMax =  -7.35421168407413E-11  1.51630265263860E-02
 cg2d: Sum(rhs),rhsMax =  -7.36906577425422E-11  1.51373787492085E-02
 cg2d: Sum(rhs),rhsMax =  -7.38257788235330E-11  1.51120684349616E-02
 cg2d: Sum(rhs),rhsMax =  -7.39480421341199E-11  1.50871100440196E-02
 cg2d: Sum(rhs),rhsMax =  -7.41282313310165E-11  1.50624580768700E-02
 cg2d: Sum(rhs),rhsMax =  -7.43136385761289E-11  1.50380444686660E-02
 cg2d: Sum(rhs),rhsMax =  -7.44606321045893E-11  1.50138145808732E-02
 cg2d: Sum(rhs),rhsMax =  -7.45932204893052E-11  1.49895915199647E-02
 cg2d: Sum(rhs),rhsMax =  -7.47401862621899E-11  1.49653048296470E-02
 cg2d: Sum(rhs),rhsMax =  -7.48773820724580E-11  1.49409340934478E-02
 cg2d: Sum(rhs),rhsMax =  -7.50310369390661E-11  1.49164855324195E-02
 cg2d: Sum(rhs),rhsMax =  -7.51938511456274E-11  1.48919400526847E-02
 cg2d: Sum(rhs),rhsMax =  -7.53488382798650E-11  1.48672949134619E-02
 cg2d: Sum(rhs),rhsMax =  -7.54763473942432E-11  1.48425355385872E-02
 cg2d: Sum(rhs),rhsMax =  -7.56681939328985E-11  1.48175795632800E-02
 cg2d: Sum(rhs),rhsMax =  -7.58002549616776E-11  1.47926719606030E-02
 cg2d: Sum(rhs),rhsMax =  -7.59731721977630E-11  1.47678354811662E-02
 cg2d: Sum(rhs),rhsMax =  -7.60821405876300E-11  1.47430678641356E-02
 cg2d: Sum(rhs),rhsMax =  -7.63973884154723E-11  1.47183869413826E-02
 cg2d: Sum(rhs),rhsMax =  -7.65790209023010E-11  1.46938214992901E-02
 cg2d: Sum(rhs),rhsMax =  -7.68020647079481E-11  1.46694401494532E-02
 cg2d: Sum(rhs),rhsMax =  -7.70309371844746E-11  1.46452536654846E-02
 cg2d: Sum(rhs),rhsMax =  -7.72617525512942E-11  1.46212733862125E-02
 cg2d: Sum(rhs),rhsMax =  -7.75065567282240E-11  1.45975157249547E-02
 cg2d: Sum(rhs),rhsMax =  -7.76837483229542E-11  1.45740070367291E-02
 cg2d: Sum(rhs),rhsMax =  -7.79170061804280E-11  1.45507771737217E-02
 cg2d: Sum(rhs),rhsMax =  -7.81498199486919E-11  1.45278528889358E-02
 cg2d: Sum(rhs),rhsMax =  -7.83071385512812E-11  1.45052596096524E-02
 cg2d: Sum(rhs),rhsMax =  -7.84496911876431E-11  1.44831167313014E-02
 cg2d: Sum(rhs),rhsMax =  -7.83909603896404E-11  1.45138969623442E-02
 cg2d: Sum(rhs),rhsMax =  -7.68262120587337E-11  1.48406833339086E-02
 cg2d: Sum(rhs),rhsMax =  -7.52907736156772E-11  1.51624404770867E-02
 cg2d: Sum(rhs),rhsMax =  -7.37752081647614E-11  1.54790242820662E-02
 cg2d: Sum(rhs),rhsMax =  -7.24476034719146E-11  1.57902926867932E-02
 cg2d: Sum(rhs),rhsMax =  -7.11543046705287E-11  1.60961057425480E-02
 cg2d: Sum(rhs),rhsMax =  -6.99039715001959E-11  1.63963256797122E-02
 cg2d: Sum(rhs),rhsMax =  -6.87478962646537E-11  1.66908169732018E-02
 cg2d: Sum(rhs),rhsMax =  -6.76800837595692E-11  1.69794464077003E-02
 cg2d: Sum(rhs),rhsMax =  -6.66663391157840E-11  1.72620831428016E-02
 cg2d: Sum(rhs),rhsMax =  -6.56175114244206E-11  1.75385987780886E-02
 cg2d: Sum(rhs),rhsMax =  -6.47197850867087E-11  1.78088674180850E-02
 cg2d: Sum(rhs),rhsMax =  -6.37756514265675E-11  1.80727657369379E-02
 cg2d: Sum(rhs),rhsMax =  -6.29877261459910E-11  1.83301730426561E-02
 cg2d: Sum(rhs),rhsMax =  -6.21726004013112E-11  1.85809713407405E-02
 cg2d: Sum(rhs),rhsMax =  -6.14207573690351E-11  1.88250453970398E-02
 cg2d: Sum(rhs),rhsMax =  -6.06644734446604E-11  1.90622827997074E-02
 cg2d: Sum(rhs),rhsMax =  -6.00003380313296E-11  1.92925740201440E-02
 cg2d: Sum(rhs),rhsMax =  -5.93782800706322E-11  1.95158124728712E-02
 cg2d: Sum(rhs),rhsMax =  -5.88847859361863E-11  1.97318945743018E-02
 cg2d: Sum(rhs),rhsMax =  -5.83841863743828E-11  1.99407198004281E-02
 cg2d: Sum(rhs),rhsMax =  -5.78493919434209E-11  2.01421907434900E-02
 cg2d: Sum(rhs),rhsMax =  -5.73483482924075E-11  2.03362131676988E-02
 cg2d: Sum(rhs),rhsMax =  -5.68947111645457E-11  2.05226960641125E-02
 cg2d: Sum(rhs),rhsMax =  -5.64942537195634E-11  2.07015517047436E-02
 cg2d: Sum(rhs),rhsMax =  -5.60991253450993E-11  2.08726956959363E-02
 cg2d: Sum(rhs),rhsMax =  -5.57186519145603E-11  2.10360470310048E-02
 cg2d: Sum(rhs),rhsMax =  -5.53728174423895E-11  2.11915281420680E-02
 cg2d: Sum(rhs),rhsMax =  -5.50182122083243E-11  2.13390649509477E-02
 cg2d: Sum(rhs),rhsMax =  -5.47010214901889E-11  2.14785869189577E-02
 cg2d: Sum(rhs),rhsMax =  -5.44108091915518E-11  2.16100270953716E-02
 cg2d: Sum(rhs),rhsMax =  -5.41247047181059E-11  2.17333221643405E-02
 cg2d: Sum(rhs),rhsMax =  -5.39148725664518E-11  2.18484124900748E-02
 cg2d: Sum(rhs),rhsMax =  -5.36801714190460E-11  2.19552421603030E-02
 cg2d: Sum(rhs),rhsMax =  -5.34505772975535E-11  2.20537590268037E-02
 cg2d: Sum(rhs),rhsMax =  -5.32680566323052E-11  2.21439147439504E-02
 cg2d: Sum(rhs),rhsMax =  -5.30219201877458E-11  2.22256648050852E-02
 cg2d: Sum(rhs),rhsMax =  -5.28171950620049E-11  2.22989685765250E-02
 cg2d: Sum(rhs),rhsMax =  -5.25961496578020E-11  2.23637893291136E-02
 cg2d: Sum(rhs),rhsMax =  -5.24682519653652E-11  2.24200942673187E-02
 cg2d: Sum(rhs),rhsMax =  -5.22996090879246E-11  2.24678545559707E-02
 cg2d: Sum(rhs),rhsMax =  -5.21460652436190E-11  2.25070453447654E-02
 cg2d: Sum(rhs),rhsMax =  -5.19841947266286E-11  2.25376457906555E-02
 cg2d: Sum(rhs),rhsMax =  -5.18157738937930E-11  2.25596390782231E-02
 cg2d: Sum(rhs),rhsMax =  -5.17290654755698E-11  2.25730124380905E-02
 cg2d: Sum(rhs),rhsMax =  -5.17368370367421E-11  2.25777571633948E-02
 cg2d: Sum(rhs),rhsMax =  -5.18430853801988E-11  2.25738686243211E-02
 cg2d: Sum(rhs),rhsMax =  -5.20018472727202E-11  2.25613462805641E-02
 cg2d: Sum(rhs),rhsMax =  -5.20959941852084E-11  2.25401936919498E-02
 cg2d: Sum(rhs),rhsMax =  -5.22372145539407E-11  2.25104185268238E-02
 cg2d: Sum(rhs),rhsMax =  -5.23822096809567E-11  2.24720325682784E-02
 cg2d: Sum(rhs),rhsMax =  -5.23998622270483E-11  2.24250517181290E-02
 cg2d: Sum(rhs),rhsMax =  -5.25501864245825E-11  2.23694959985767E-02
 cg2d: Sum(rhs),rhsMax =  -5.26850785220745E-11  2.23053895514953E-02
 cg2d: Sum(rhs),rhsMax =  -5.28075361216906E-11  2.22327606353157E-02
 cg2d: Sum(rhs),rhsMax =  -5.29282173644674E-11  2.21516416194930E-02
 cg2d: Sum(rhs),rhsMax =  -5.30729904468785E-11  2.20620689765579E-02
 cg2d: Sum(rhs),rhsMax =  -5.32265342911842E-11  2.19640832722896E-02
 cg2d: Sum(rhs),rhsMax =  -5.34123856255064E-11  2.18577291531020E-02
 cg2d: Sum(rhs),rhsMax =  -5.36087840785626E-11  2.17430553301779E-02
 cg2d: Sum(rhs),rhsMax =  -5.38734612476333E-11  2.16201145617750E-02
 cg2d: Sum(rhs),rhsMax =  -5.41396927289384E-11  2.14889636335299E-02
 cg2d: Sum(rhs),rhsMax =  -5.44528866441851E-11  2.13496633365634E-02
 cg2d: Sum(rhs),rhsMax =  -5.47472067680133E-11  2.12022784431897E-02
 cg2d: Sum(rhs),rhsMax =  -5.50870460358510E-11  2.10468776801146E-02
 cg2d: Sum(rhs),rhsMax =  -5.54672974217851E-11  2.08835336990684E-02
 cg2d: Sum(rhs),rhsMax =  -5.58282309270908E-11  2.07123230448518E-02
 cg2d: Sum(rhs),rhsMax =  -5.61976021273836E-11  2.05333261208015E-02
 cg2d: Sum(rhs),rhsMax =  -5.66476865415666E-11  2.03466271516840E-02
 cg2d: Sum(rhs),rhsMax =  -5.70721248038808E-11  2.01523141440632E-02
 cg2d: Sum(rhs),rhsMax =  -5.75435255001366E-11  1.99504788441991E-02
 cg2d: Sum(rhs),rhsMax =  -5.80332448762988E-11  1.97412166935751E-02
 cg2d: Sum(rhs),rhsMax =  -5.85179682488501E-11  1.95246267821852E-02
 cg2d: Sum(rhs),rhsMax =  -5.90715254489282E-11  1.93008117997317E-02
 cg2d: Sum(rhs),rhsMax =  -5.97468741148077E-11  1.90698779849071E-02
 cg2d: Sum(rhs),rhsMax =  -6.04100103274163E-11  1.88319350729112E-02
 cg2d: Sum(rhs),rhsMax =  -6.11731776345437E-11  1.85870962413491E-02
 cg2d: Sum(rhs),rhsMax =  -6.19659878964285E-11  1.83354780546019E-02
 cg2d: Sum(rhs),rhsMax =  -6.28743723751768E-11  1.80772004067278E-02
 cg2d: Sum(rhs),rhsMax =  -6.37244701451323E-11  1.78123864628881E-02
 cg2d: Sum(rhs),rhsMax =  -6.46359632483495E-11  1.75411625992395E-02
 cg2d: Sum(rhs),rhsMax =  -6.56666943044115E-11  1.72636583411992E-02
 cg2d: Sum(rhs),rhsMax =  -6.66884325539741E-11  1.69800062999286E-02
 cg2d: Sum(rhs),rhsMax =  -6.77781164526436E-11  1.66903421068918E-02
 cg2d: Sum(rhs),rhsMax =  -6.89750478954920E-11  1.63948043463188E-02
 cg2d: Sum(rhs),rhsMax =  -7.02073954528259E-11  1.60935344854413E-02
 cg2d: Sum(rhs),rhsMax =  -7.14729386785962E-11  1.57866768023918E-02
 cg2d: Sum(rhs),rhsMax =  -7.28120896908990E-11  1.54743783117032E-02
 cg2d: Sum(rhs),rhsMax =  -7.42702566114417E-11  1.51567886874316E-02
 cg2d: Sum(rhs),rhsMax =  -7.57870433076846E-11  1.48340601839415E-02
 cg2d: Sum(rhs),rhsMax =  -7.74220687560501E-11  1.45063475544973E-02
 cg2d: Sum(rhs),rhsMax =  -7.79345477042170E-11  1.43953478559148E-02
 cg2d: Sum(rhs),rhsMax =  -7.78686004565543E-11  1.43843230815750E-02
 cg2d: Sum(rhs),rhsMax =  -7.78852538019237E-11  1.43722178473785E-02
 cg2d: Sum(rhs),rhsMax =  -7.78647146759681E-11  1.43590401880640E-02
 cg2d: Sum(rhs),rhsMax =  -7.79167841358230E-11  1.43448251137685E-02
 cg2d: Sum(rhs),rhsMax =  -7.78659914324464E-11  1.43296753413898E-02
 cg2d: Sum(rhs),rhsMax =  -7.78788700195321E-11  1.43137428220354E-02
 cg2d: Sum(rhs),rhsMax =  -7.79066255951477E-11  1.42969114942853E-02
 cg2d: Sum(rhs),rhsMax =  -7.79125652883295E-11  1.42792816553437E-02
 cg2d: Sum(rhs),rhsMax =  -7.78845321569577E-11  1.42609753438371E-02
 cg2d: Sum(rhs),rhsMax =  -7.78066500117802E-11  1.42419514539050E-02
 cg2d: Sum(rhs),rhsMax =  -7.78164199743969E-11  1.42222036622881E-02
 cg2d: Sum(rhs),rhsMax =  -7.78785924637759E-11  1.42017511415563E-02
 cg2d: Sum(rhs),rhsMax =  -7.79251663196590E-11  1.41806090123055E-02
 cg2d: Sum(rhs),rhsMax =  -7.80108200260088E-11  1.41588022152689E-02
 cg2d: Sum(rhs),rhsMax =  -7.80372988451461E-11  1.41363511828924E-02
 cg2d: Sum(rhs),rhsMax =  -7.81556208639955E-11  1.41132488298368E-02
 cg2d: Sum(rhs),rhsMax =  -7.81809894601082E-11  1.40894929334876E-02
 cg2d: Sum(rhs),rhsMax =  -7.83548781413401E-11  1.40651325806743E-02
 cg2d: Sum(rhs),rhsMax =  -7.84656228880465E-11  1.40402606553496E-02
 cg2d: Sum(rhs),rhsMax =  -7.85694564964246E-11  1.40149663383601E-02
 cg2d: Sum(rhs),rhsMax =  -7.86244958028703E-11  1.39972005949524E-02
 cg2d: Sum(rhs),rhsMax =  -7.82404280252891E-11  1.40472664241286E-02
 cg2d: Sum(rhs),rhsMax =  -7.79067088618746E-11  1.40969251779774E-02
 cg2d: Sum(rhs),rhsMax =  -7.75252362306134E-11  1.41461798380279E-02
 cg2d: Sum(rhs),rhsMax =  -7.72006417126825E-11  1.41950041937964E-02
 cg2d: Sum(rhs),rhsMax =  -7.68807465606480E-11  1.42434777984767E-02
 cg2d: Sum(rhs),rhsMax =  -7.65670599839341E-11  1.42916516898684E-02
 cg2d: Sum(rhs),rhsMax =  -7.62402779797000E-11  1.43395059588565E-02
 cg2d: Sum(rhs),rhsMax =  -7.60046192649355E-11  1.43870287866021E-02
 cg2d: Sum(rhs),rhsMax =  -7.57101326076537E-11  1.44343913486298E-02
 cg2d: Sum(rhs),rhsMax =  -7.53789530794080E-11  1.44816152789140E-02
 cg2d: Sum(rhs),rhsMax =  -7.51056578041087E-11  1.45287069046137E-02
 cg2d: Sum(rhs),rhsMax =  -7.48352768642491E-11  1.45756732727114E-02
 cg2d: Sum(rhs),rhsMax =  -7.45020711789834E-11  1.46224960910148E-02
 cg2d: Sum(rhs),rhsMax =  -7.41640082679851E-11  1.46691515584389E-02
 cg2d: Sum(rhs),rhsMax =  -7.37851724164074E-11  1.47155571344137E-02
 cg2d: Sum(rhs),rhsMax =  -7.34274585578731E-11  1.47616633136731E-02
 cg2d: Sum(rhs),rhsMax =  -7.31329163894401E-11  1.48074304252219E-02
 cg2d: Sum(rhs),rhsMax =  -7.28657134629884E-11  1.48528754101980E-02
 cg2d: Sum(rhs),rhsMax =  -7.25463022988038E-11  1.48979637854761E-02
 cg2d: Sum(rhs),rhsMax =  -7.22270576680728E-11  1.49426629410945E-02
 cg2d: Sum(rhs),rhsMax =  -7.19157511319679E-11  1.49869400963048E-02
 cg2d: Sum(rhs),rhsMax =  -7.15991710364960E-11  1.50307671033143E-02
 cg2d: Sum(rhs),rhsMax =  -7.12690462201238E-11  1.50741358014934E-02
 cg2d: Sum(rhs),rhsMax =  -7.09889924621621E-11  1.51165780996779E-02
 cg2d: Sum(rhs),rhsMax =  -7.07024438995063E-11  1.51589784653280E-02
 cg2d: Sum(rhs),rhsMax =  -7.04165614706653E-11  1.52008793381422E-02
 cg2d: Sum(rhs),rhsMax =  -7.01834701466453E-11  1.52422050575320E-02
 cg2d: Sum(rhs),rhsMax =  -6.99462709974341E-11  1.52829674227701E-02
 cg2d: Sum(rhs),rhsMax =  -6.97118474057845E-11  1.53233832827116E-02
 cg2d: Sum(rhs),rhsMax =  -6.94851953753073E-11  1.53634629695355E-02
 cg2d: Sum(rhs),rhsMax =  -6.92286228343164E-11  1.54031576289627E-02
 cg2d: Sum(rhs),rhsMax =  -6.89526213903946E-11  1.54423955867934E-02
 cg2d: Sum(rhs),rhsMax =  -6.87100376595140E-11  1.54811955400992E-02
 cg2d: Sum(rhs),rhsMax =  -6.84655665494915E-11  1.55195955632362E-02
 cg2d: Sum(rhs),rhsMax =  -6.81950051983904E-11  1.55576130847792E-02
 cg2d: Sum(rhs),rhsMax =  -6.78894718220135E-11  1.55952699501239E-02
 cg2d: Sum(rhs),rhsMax =  -6.76887434991613E-11  1.56325873177006E-02
 cg2d: Sum(rhs),rhsMax =  -6.74571509762245E-11  1.56695933752021E-02
 cg2d: Sum(rhs),rhsMax =  -6.72248923194729E-11  1.57062783063198E-02
 cg2d: Sum(rhs),rhsMax =  -6.69940769526534E-11  1.57426301871416E-02
 cg2d: Sum(rhs),rhsMax =  -6.67904620499371E-11  1.57786353726217E-02
 cg2d: Sum(rhs),rhsMax =  -6.65804078536780E-11  1.58142758629918E-02
 cg2d: Sum(rhs),rhsMax =  -6.63440413717353E-11  1.58494169116739E-02
 cg2d: Sum(rhs),rhsMax =  -6.61268817481186E-11  1.58843155754440E-02
 cg2d: Sum(rhs),rhsMax =  -6.59114984813414E-11  1.59187124358673E-02
 cg2d: Sum(rhs),rhsMax =  -6.56753540440036E-11  1.59531034747179E-02
 cg2d: Sum(rhs),rhsMax =  -6.55161480622724E-11  1.59873784676135E-02
 cg2d: Sum(rhs),rhsMax =  -6.53522791438377E-11  1.60213769987606E-02
 cg2d: Sum(rhs),rhsMax =  -6.51256826245117E-11  1.60553110819820E-02
 cg2d: Sum(rhs),rhsMax =  -6.49091891347098E-11  1.60888571899251E-02
 cg2d: Sum(rhs),rhsMax =  -6.47154552169127E-11  1.61221931809895E-02
(PID.TID 0000.0001)      cg2d_init_res =   6.90870664807397E-02
(PID.TID 0000.0001)      cg2d_iters(min,last) =      -1      39
(PID.TID 0000.0001)      cg2d_last_res =   4.60187808729686E-14
(PID.TID 0000.0001) // =======================================================
(PID.TID 0000.0001) // Begin MONITOR dynamic field statistics
(PID.TID 0000.0001) // =======================================================
(PID.TID 0000.0001) %MON time_tsnumber                =                  4320
(PID.TID 0000.0001) %MON time_secondsf                =   6.4800000000000E+04
(PID.TID 0000.0001) %MON dynstat_eta_max              =   2.7717475232242E-03
(PID.TID 0000.0001) %MON dynstat_eta_min              =  -6.0797841228149E-03
(PID.TID 0000.0001) %MON dynstat_eta_mean             =   2.3812737588468E-15
(PID.TID 0000.0001) %MON dynstat_eta_sd               =   2.3008664180842E-03
(PID.TID 0000.0001) %MON dynstat_eta_del2             =   1.3210674461941E-05
(PID.TID 0000.0001) %MON dynstat_uvel_max             =   1.3755078185397E+00
(PID.TID 0000.0001) %MON dynstat_uvel_min             =  -1.2033514269811E-02
(PID.TID 0000.0001) %MON dynstat_uvel_mean            =   5.6174552274469E-01
(PID.TID 0000.0001) %MON dynstat_uvel_sd              =   4.3892271384436E-02
(PID.TID 0000.0001) %MON dynstat_uvel_del2            =   4.1156916771859E-04
(PID.TID 0000.0001) %MON dynstat_vvel_max             =   0.0000000000000E+00
(PID.TID 0000.0001) %MON dynstat_vvel_min             =   0.0000000000000E+00
(PID.TID 0000.0001) %MON dynstat_vvel_mean            =   0.0000000000000E+00
(PID.TID 0000.0001) %MON dynstat_vvel_sd              =   0.0000000000000E+00
(PID.TID 0000.0001) %MON dynstat_vvel_del2            =   0.0000000000000E+00
(PID.TID 0000.0001) %MON dynstat_wvel_max             =   1.8002025123924E-02
(PID.TID 0000.0001) %MON dynstat_wvel_min             =  -1.1079053132551E-02
(PID.TID 0000.0001) %MON dynstat_wvel_mean            =  -8.8932957589016E-21
(PID.TID 0000.0001) %MON dynstat_wvel_sd              =   1.6314025724478E-03
(PID.TID 0000.0001) %MON dynstat_wvel_del2            =   3.5953660091134E-05
(PID.TID 0000.0001) %MON dynstat_theta_max            =   1.5000000000014E+01
(PID.TID 0000.0001) %MON dynstat_theta_min            =   9.9999999999983E+00
(PID.TID 0000.0001) %MON dynstat_theta_mean           =   1.4010691761459E+01
(PID.TID 0000.0001) %MON dynstat_theta_sd             =   1.9168422219135E+00
(PID.TID 0000.0001) %MON dynstat_theta_del2           =   3.7087031762802E-04
(PID.TID 0000.0001) %MON dynstat_salt_max             =   3.5000000000000E+01
(PID.TID 0000.0001) %MON dynstat_salt_min             =   3.5000000000000E+01
(PID.TID 0000.0001) %MON dynstat_salt_mean            =   3.5000000000000E+01
(PID.TID 0000.0001) %MON dynstat_salt_sd              =   4.1922021409846E-13
(PID.TID 0000.0001) %MON dynstat_salt_del2            =   0.0000000000000E+00
(PID.TID 0000.0001) %MON dynstat_sst_max              =   1.5000000000000E+01
(PID.TID 0000.0001) %MON dynstat_sst_min              =   1.4999999999999E+01
(PID.TID 0000.0001) %MON dynstat_sst_mean             =   1.5000000000000E+01
(PID.TID 0000.0001) %MON dynstat_sst_sd               =   3.4855306791804E-13
(PID.TID 0000.0001) %MON dynstat_sst_del2             =   4.7644996076253E-15
(PID.TID 0000.0001) %MON dynstat_sss_max              =   3.5000000000000E+01
(PID.TID 0000.0001) %MON dynstat_sss_min              =   3.5000000000000E+01
(PID.TID 0000.0001) %MON dynstat_sss_mean             =   3.5000000000000E+01
(PID.TID 0000.0001) %MON dynstat_sss_sd               =   2.8421709430404E-14
(PID.TID 0000.0001) %MON dynstat_sss_del2             =   0.0000000000000E+00
(PID.TID 0000.0001) %MON forcing_qnet_max             =   0.0000000000000E+00
(PID.TID 0000.0001) %MON forcing_qnet_min             =   0.0000000000000E+00
(PID.TID 0000.0001) %MON forcing_qnet_mean            =   0.0000000000000E+00
(PID.TID 0000.0001) %MON forcing_qnet_sd              =   0.0000000000000E+00
(PID.TID 0000.0001) %MON forcing_qnet_del2            =   0.0000000000000E+00
(PID.TID 0000.0001) %MON forcing_qsw_max              =   0.0000000000000E+00
(PID.TID 0000.0001) %MON forcing_qsw_min              =   0.0000000000000E+00
(PID.TID 0000.0001) %MON forcing_qsw_mean             =   0.0000000000000E+00
(PID.TID 0000.0001) %MON forcing_qsw_sd               =   0.0000000000000E+00
(PID.TID 0000.0001) %MON forcing_qsw_del2             =   0.0000000000000E+00
(PID.TID 0000.0001) %MON forcing_empmr_max            =   0.0000000000000E+00
(PID.TID 0000.0001) %MON forcing_empmr_min            =   0.0000000000000E+00
(PID.TID 0000.0001) %MON forcing_empmr_mean           =   0.0000000000000E+00
(PID.TID 0000.0001) %MON forcing_empmr_sd             =   0.0000000000000E+00
(PID.TID 0000.0001) %MON forcing_empmr_del2           =   0.0000000000000E+00
(PID.TID 0000.0001) %MON forcing_fu_max               =   0.0000000000000E+00
(PID.TID 0000.0001) %MON forcing_fu_min               =   0.0000000000000E+00
(PID.TID 0000.0001) %MON forcing_fu_mean              =   0.0000000000000E+00
(PID.TID 0000.0001) %MON forcing_fu_sd                =   0.0000000000000E+00
(PID.TID 0000.0001) %MON forcing_fu_del2              =   0.0000000000000E+00
(PID.TID 0000.0001) %MON forcing_fv_max               =   0.0000000000000E+00
(PID.TID 0000.0001) %MON forcing_fv_min               =   0.0000000000000E+00
(PID.TID 0000.0001) %MON forcing_fv_mean              =   0.0000000000000E+00
(PID.TID 0000.0001) %MON forcing_fv_sd                =   0.0000000000000E+00
(PID.TID 0000.0001) %MON forcing_fv_del2              =   0.0000000000000E+00
(PID.TID 0000.0001) %MON advcfl_uvel_max              =   9.9334219873792E-02
(PID.TID 0000.0001) %MON advcfl_vvel_max              =   0.0000000000000E+00
(PID.TID 0000.0001) %MON advcfl_wvel_max              =   8.9764814594012E-02
(PID.TID 0000.0001) %MON advcfl_W_hf_max              =   1.0036964993210E-01
(PID.TID 0000.0001) %MON pe_b_mean                    =   1.3010714157819E-07
(PID.TID 0000.0001) %MON ke_max                       =   4.7793590628276E-01
(PID.TID 0000.0001) %MON ke_mean                      =   1.5876879844937E-01
(PID.TID 0000.0001) %MON ke_vol                       =   9.7476098603737E+10
(PID.TID 0000.0001) %MON vort_r_min                   =   0.0000000000000E+00
(PID.TID 0000.0001) %MON vort_r_max                   =   0.0000000000000E+00
(PID.TID 0000.0001) %MON vort_a_mean                  =   0.0000000000000E+00
(PID.TID 0000.0001) %MON vort_a_sd                    =   0.0000000000000E+00
(PID.TID 0000.0001) %MON vort_p_mean                  =   0.0000000000000E+00
(PID.TID 0000.0001) %MON vort_p_sd                    =   0.0000000000000E+00
(PID.TID 0000.0001) %MON surfExpan_theta_mean         =  -1.0672645269764E-18
(PID.TID 0000.0001) %MON surfExpan_salt_mean          =  -1.7427719767660E-18
(PID.TID 0000.0001) // =======================================================
(PID.TID 0000.0001) // End MONITOR dynamic field statistics
(PID.TID 0000.0001) // =======================================================
(PID.TID 0000.0001) // =======================================================
(PID.TID 0000.0001) // Begin OBCS MONITOR field statistics
(PID.TID 0000.0001) // =======================================================
(PID.TID 0000.0001) %MON obc_E_uVel_max               =   5.6028564143658E-01
(PID.TID 0000.0001) %MON obc_E_uVel_min               =   5.6028564143658E-01
(PID.TID 0000.0001) %MON obc_E_uVel_mean              =   5.6028564143658E-01
(PID.TID 0000.0001) %MON obc_E_uVel_sd                =   1.0536712127724E-08
(PID.TID 0000.0001) %MON obc_E_uVel_Int               =   5.6028564143658E+05
(PID.TID 0000.0001) %MON obc_W_uVel_max               =   5.6028564143658E-01
(PID.TID 0000.0001) %MON obc_W_uVel_min               =   5.6028564143658E-01
(PID.TID 0000.0001) %MON obc_W_uVel_mean              =   5.6028564143658E-01
(PID.TID 0000.0001) %MON obc_W_uVel_sd                =   1.0536712127724E-08
(PID.TID 0000.0001) %MON obc_W_uVel_Int               =   5.6028564143658E+05
(PID.TID 0000.0001) // =======================================================
(PID.TID 0000.0001) // End OBCS MONITOR field statistics
(PID.TID 0000.0001) // =======================================================
(PID.TID 0000.0001) %CHECKPOINT      4320 0000004320
 cg2d: Sum(rhs),rhsMax =  -6.45775655172542E-11  1.61550957133158E-02
 cg2d: Sum(rhs),rhsMax =  -6.44652109471622E-11  1.61877510095756E-02
 cg2d: Sum(rhs),rhsMax =  -6.42772501890931E-11  1.62199662250243E-02
 cg2d: Sum(rhs),rhsMax =  -6.40233421833614E-11  1.62519177926147E-02
 cg2d: Sum(rhs),rhsMax =  -6.38045172252077E-11  1.62834249021646E-02
 cg2d: Sum(rhs),rhsMax =  -6.35990149433496E-11  1.63145746817632E-02
 cg2d: Sum(rhs),rhsMax =  -6.34146068989594E-11  1.63454714894326E-02
 cg2d: Sum(rhs),rhsMax =  -6.31904528702876E-11  1.63759405231020E-02
 cg2d: Sum(rhs),rhsMax =  -6.29762908488374E-11  1.64060632905983E-02
 cg2d: Sum(rhs),rhsMax =  -6.28073149044894E-11  1.64358765257830E-02
 cg2d: Sum(rhs),rhsMax =  -6.26185769903032E-11  1.64651474774129E-02
 cg2d: Sum(rhs),rhsMax =  -6.24247320502036E-11  1.64939659830492E-02
 cg2d: Sum(rhs),rhsMax =  -6.23179285952347E-11  1.65223548464990E-02
 cg2d: Sum(rhs),rhsMax =  -6.21385165544552E-11  1.65500065581565E-02
 cg2d: Sum(rhs),rhsMax =  -6.19760909259526E-11  1.65767596197403E-02
 cg2d: Sum(rhs),rhsMax =  -6.18398665608311E-11  1.66026164933399E-02
 cg2d: Sum(rhs),rhsMax =  -6.16674489251068E-11  1.66275991439239E-02
 cg2d: Sum(rhs),rhsMax =  -6.14852613267658E-11  1.66517393084343E-02
 cg2d: Sum(rhs),rhsMax =  -6.13077366651282E-11  1.66750593089183E-02
 cg2d: Sum(rhs),rhsMax =  -6.12050410353504E-11  1.66977371157423E-02
 cg2d: Sum(rhs),rhsMax =  -6.11124484350967E-11  1.67198030693075E-02
 cg2d: Sum(rhs),rhsMax =  -6.09761130476727E-11  1.67409488177582E-02
 cg2d: Sum(rhs),rhsMax =  -6.08841865812337E-11  1.67609659306733E-02
 cg2d: Sum(rhs),rhsMax =  -6.06809047454249E-11  1.67799753108371E-02
 cg2d: Sum(rhs),rhsMax =  -6.07137673469538E-11  1.67980075590656E-02
 cg2d: Sum(rhs),rhsMax =  -6.07175421052375E-11  1.68149680556261E-02
 cg2d: Sum(rhs),rhsMax =  -6.07827121967830E-11  1.68305931757865E-02
 cg2d: Sum(rhs),rhsMax =  -6.07184302836572E-11  1.68448754819919E-02
 cg2d: Sum(rhs),rhsMax =  -6.07249805995025E-11  1.68578543221668E-02
 cg2d: Sum(rhs),rhsMax =  -6.06783512324682E-11  1.68695561421348E-02
 cg2d: Sum(rhs),rhsMax =  -6.06023009552814E-11  1.68800035391600E-02
 cg2d: Sum(rhs),rhsMax =  -6.05157035593606E-11  1.68892188401696E-02
 cg2d: Sum(rhs),rhsMax =  -6.05127059571942E-11  1.68972261977739E-02
 cg2d: Sum(rhs),rhsMax =  -6.04736261067274E-11  1.69040557102552E-02
 cg2d: Sum(rhs),rhsMax =  -6.04774008650111E-11  1.69097311189320E-02
 cg2d: Sum(rhs),rhsMax =  -6.04488681332782E-11  1.69142756581699E-02
 cg2d: Sum(rhs),rhsMax =  -6.05031580391824E-11  1.69181287033145E-02
 cg2d: Sum(rhs),rhsMax =  -6.05524519414757E-11  1.69214547964800E-02
 cg2d: Sum(rhs),rhsMax =  -6.05711036882894E-11  1.69242900573973E-02
 cg2d: Sum(rhs),rhsMax =  -6.05949734833189E-11  1.69266283862566E-02
 cg2d: Sum(rhs),rhsMax =  -6.06736882957648E-11  1.69284780879774E-02
 cg2d: Sum(rhs),rhsMax =  -6.06531491698092E-11  1.69298644633802E-02
 cg2d: Sum(rhs),rhsMax =  -6.07408567887546E-11  1.69307882647491E-02
 cg2d: Sum(rhs),rhsMax =  -6.08619821207412E-11  1.69312518631995E-02
 cg2d: Sum(rhs),rhsMax =  -6.09496897396866E-11  1.69311424964434E-02
 cg2d: Sum(rhs),rhsMax =  -6.10395067823788E-11  1.69304639764172E-02
 cg2d: Sum(rhs),rhsMax =  -6.11809491957160E-11  1.69292277914302E-02
 cg2d: Sum(rhs),rhsMax =  -6.12300210534045E-11  1.69274154064921E-02
 cg2d: Sum(rhs),rhsMax =  -6.13206152522139E-11  1.69250515458576E-02
 cg2d: Sum(rhs),rhsMax =  -6.14368556028921E-11  1.69221651347534E-02
 cg2d: Sum(rhs),rhsMax =  -6.15910655810126E-11  1.69187685445483E-02
 cg2d: Sum(rhs),rhsMax =  -6.17240702993627E-11  1.69149058362177E-02
 cg2d: Sum(rhs),rhsMax =  -6.18082252046293E-11  1.69066399321703E-02
 cg2d: Sum(rhs),rhsMax =  -6.18477491443059E-11  1.69033807825880E-02
 cg2d: Sum(rhs),rhsMax =  -6.19604367813054E-11  1.69001119637510E-02
 cg2d: Sum(rhs),rhsMax =  -6.20321571886961E-11  1.68960721784007E-02
 cg2d: Sum(rhs),rhsMax =  -6.21135365364012E-11  1.68916355586076E-02
 cg2d: Sum(rhs),rhsMax =  -6.22518703252695E-11  1.68869326957325E-02
 cg2d: Sum(rhs),rhsMax =  -6.23533447097202E-11  1.68820169519264E-02
 cg2d: Sum(rhs),rhsMax =  -6.24779117330831E-11  1.68768802020966E-02
 cg2d: Sum(rhs),rhsMax =  -6.25738350024108E-11  1.68714541371159E-02
 cg2d: Sum(rhs),rhsMax =  -6.26296792205494E-11  1.68656491322564E-02
 cg2d: Sum(rhs),rhsMax =  -6.27504714856286E-11  1.68594328437693E-02
 cg2d: Sum(rhs),rhsMax =  -6.28317398110312E-11  1.68527145870615E-02
 cg2d: Sum(rhs),rhsMax =  -6.29556407005794E-11  1.68454285435173E-02
 cg2d: Sum(rhs),rhsMax =  -6.30620000663384E-11  1.68375463894039E-02
 cg2d: Sum(rhs),rhsMax =  -6.31459329270001E-11  1.68290406770179E-02
 cg2d: Sum(rhs),rhsMax =  -6.32117691523604E-11  1.68198866101457E-02
 cg2d: Sum(rhs),rhsMax =  -6.33015861950526E-11  1.68100691007801E-02
 cg2d: Sum(rhs),rhsMax =  -6.34127195198175E-11  1.67995839242633E-02
 cg2d: Sum(rhs),rhsMax =  -6.35633767842592E-11  1.67884872762879E-02
 cg2d: Sum(rhs),rhsMax =  -6.36829478040113E-11  1.67769146406827E-02
 cg2d: Sum(rhs),rhsMax =  -6.38227248828116E-11  1.67648872465545E-02
 cg2d: Sum(rhs),rhsMax =  -6.39301389604441E-11  1.67523818348257E-02
 cg2d: Sum(rhs),rhsMax =  -6.40676400820439E-11  1.67393558423505E-02
 cg2d: Sum(rhs),rhsMax =  -6.42537689721223E-11  1.67256783674606E-02
 cg2d: Sum(rhs),rhsMax =  -6.43660125199119E-11  1.67111317857456E-02
 cg2d: Sum(rhs),rhsMax =  -6.44674869043627E-11  1.66956956384934E-02
 cg2d: Sum(rhs),rhsMax =  -6.46385167613062E-11  1.66793614054323E-02
 cg2d: Sum(rhs),rhsMax =  -6.47988329660620E-11  1.66621399473778E-02
 cg2d: Sum(rhs),rhsMax =  -6.49740261593479E-11  1.66440620766540E-02
 cg2d: Sum(rhs),rhsMax =  -6.51416143249151E-11  1.66254199118144E-02
 cg2d: Sum(rhs),rhsMax =  -6.52774501119779E-11  1.66063164540819E-02
 cg2d: Sum(rhs),rhsMax =  -6.54345466699624E-11  1.65867541447619E-02
 cg2d: Sum(rhs),rhsMax =  -6.55950294081720E-11  1.65658405330658E-02
 cg2d: Sum(rhs),rhsMax =  -6.57731646924731E-11  1.65448570372151E-02
 cg2d: Sum(rhs),rhsMax =  -6.59847176898154E-11  1.65229689760901E-02
 cg2d: Sum(rhs),rhsMax =  -6.61307120175536E-11  1.65001353508346E-02
 cg2d: Sum(rhs),rhsMax =  -6.63669952327695E-11  1.64762926282017E-02
 cg2d: Sum(rhs),rhsMax =  -6.65155430734643E-11  1.64513829631000E-02
 cg2d: Sum(rhs),rhsMax =  -6.67244870466988E-11  1.64254186505851E-02
 cg2d: Sum(rhs),rhsMax =  -6.69196364988522E-11  1.63983857751446E-02
 cg2d: Sum(rhs),rhsMax =  -6.70978272943046E-11  1.63695447385311E-02
 cg2d: Sum(rhs),rhsMax =  -6.73017197527770E-11  1.63406547943014E-02
 cg2d: Sum(rhs),rhsMax =  -6.75446087949894E-11  1.63109181007921E-02
 cg2d: Sum(rhs),rhsMax =  -6.77555511696681E-11  1.62802688409633E-02
 cg2d: Sum(rhs),rhsMax =  -6.78805345266653E-11  1.62488106544061E-02
 cg2d: Sum(rhs),rhsMax =  -6.81619899411956E-11  1.62166155092900E-02
 cg2d: Sum(rhs),rhsMax =  -6.83694906244980E-11  1.61837295748826E-02
 cg2d: Sum(rhs),rhsMax =  -6.85520737397916E-11  1.61501959550686E-02
 cg2d: Sum(rhs),rhsMax =  -6.87960634640494E-11  1.61162081481578E-02
 cg2d: Sum(rhs),rhsMax =  -6.90120252611059E-11  1.60818740603802E-02
 cg2d: Sum(rhs),rhsMax =  -6.92416471381740E-11  1.60472442165658E-02
 cg2d: Sum(rhs),rhsMax =  -6.94837173909058E-11  1.60123525442029E-02
 cg2d: Sum(rhs),rhsMax =  -6.97063656796004E-11  1.59772432727239E-02
 cg2d: Sum(rhs),rhsMax =  -6.99708208040661E-11  1.59418813462677E-02
 cg2d: Sum(rhs),rhsMax =  -7.02188168721918E-11  1.59062759427765E-02
 cg2d: Sum(rhs),rhsMax =  -7.04498404058285E-11  1.58704425828462E-02
 cg2d: Sum(rhs),rhsMax =  -7.06989744525544E-11  1.58343965720528E-02
 cg2d: Sum(rhs),rhsMax =  -7.09700076484410E-11  1.57981646361904E-02
 cg2d: Sum(rhs),rhsMax =  -7.12549186321354E-11  1.57617757653206E-02
 cg2d: Sum(rhs),rhsMax =  -7.15684456142895E-11  1.57252546492067E-02
 cg2d: Sum(rhs),rhsMax =  -7.18786419273698E-11  1.56886192463610E-02
 cg2d: Sum(rhs),rhsMax =  -7.21281367965787E-11  1.56518654282799E-02
 cg2d: Sum(rhs),rhsMax =  -7.23739956853819E-11  1.56148814803530E-02
 cg2d: Sum(rhs),rhsMax =  -7.26499416181525E-11  1.55776773159849E-02
 cg2d: Sum(rhs),rhsMax =  -7.28935800609065E-11  1.55402764618285E-02
 cg2d: Sum(rhs),rhsMax =  -7.31966709466292E-11  1.55026924110916E-02
 cg2d: Sum(rhs),rhsMax =  -7.34493577070339E-11  1.54649237083200E-02
 cg2d: Sum(rhs),rhsMax =  -7.37928607108529E-11  1.54271107867098E-02
 cg2d: Sum(rhs),rhsMax =  -7.40403294230418E-11  1.53895089706295E-02
 cg2d: Sum(rhs),rhsMax =  -7.42900740924313E-11  1.53523023075931E-02
 cg2d: Sum(rhs),rhsMax =  -7.45686290493097E-11  1.53155026483323E-02
 cg2d: Sum(rhs),rhsMax =  -7.48038297970766E-11  1.52791688443323E-02
 cg2d: Sum(rhs),rhsMax =  -7.51022022349446E-11  1.52433038240138E-02
 cg2d: Sum(rhs),rhsMax =  -7.53755946547585E-11  1.52079091599006E-02
 cg2d: Sum(rhs),rhsMax =  -7.57239826398859E-11  1.51729943926418E-02
 cg2d: Sum(rhs),rhsMax =  -7.59260432303677E-11  1.51385594714796E-02
 cg2d: Sum(rhs),rhsMax =  -7.62029328527092E-11  1.51045934546403E-02
 cg2d: Sum(rhs),rhsMax =  -7.63925589453152E-11  1.50708213468151E-02
 cg2d: Sum(rhs),rhsMax =  -7.66262608919988E-11  1.50370987976672E-02
 cg2d: Sum(rhs),rhsMax =  -7.67966801262787E-11  1.50034103395196E-02
 cg2d: Sum(rhs),rhsMax =  -7.70534747118745E-11  1.49697530654571E-02
 cg2d: Sum(rhs),rhsMax =  -7.73530128839184E-11  1.49361521263271E-02
 cg2d: Sum(rhs),rhsMax =  -7.76457786955120E-11  1.49026551148883E-02
 cg2d: Sum(rhs),rhsMax =  -7.67347296815046E-11  1.50829458194916E-02
 cg2d: Sum(rhs),rhsMax =  -7.54073470332628E-11  1.53631300884126E-02
 cg2d: Sum(rhs),rhsMax =  -7.41815497917742E-11  1.56380748907542E-02
 cg2d: Sum(rhs),rhsMax =  -7.29286631084847E-11  1.59076565751974E-02
 cg2d: Sum(rhs),rhsMax =  -7.18490822393392E-11  1.61717537552434E-02
 cg2d: Sum(rhs),rhsMax =  -7.08175740271599E-11  1.64302473679454E-02
 cg2d: Sum(rhs),rhsMax =  -6.97663038451424E-11  1.66830207311519E-02
 cg2d: Sum(rhs),rhsMax =  -6.87493395545857E-11  1.69299595992571E-02
 cg2d: Sum(rhs),rhsMax =  -6.78196387937646E-11  1.71709522175393E-02
 cg2d: Sum(rhs),rhsMax =  -6.69512223439028E-11  1.74058893752302E-02
 cg2d: Sum(rhs),rhsMax =  -6.61545263014318E-11  1.76346644575099E-02
 cg2d: Sum(rhs),rhsMax =  -6.54070131389517E-11  1.78571734966447E-02
 cg2d: Sum(rhs),rhsMax =  -6.46896980427414E-11  1.80733152224881E-02
 cg2d: Sum(rhs),rhsMax =  -6.39400754565145E-11  1.82829911125165E-02
 cg2d: Sum(rhs),rhsMax =  -6.32727203964123E-11  1.84861054415367E-02
 cg2d: Sum(rhs),rhsMax =  -6.26688700933187E-11  1.86825653311303E-02
 cg2d: Sum(rhs),rhsMax =  -6.21273033019065E-11  1.88722807988329E-02
 cg2d: Sum(rhs),rhsMax =  -6.16597883862369E-11  1.90551648069968E-02
 cg2d: Sum(rhs),rhsMax =  -6.11699579877722E-11  1.92311333112057E-02
 cg2d: Sum(rhs),rhsMax =  -6.07145445030710E-11  1.94001053080706E-02
 cg2d: Sum(rhs),rhsMax =  -6.02711214270357E-11  1.95620028822208E-02
 cg2d: Sum(rhs),rhsMax =  -5.98777694094110E-11  1.97167512522641E-02
 cg2d: Sum(rhs),rhsMax =  -5.94767568529164E-11  1.98642788155134E-02
 cg2d: Sum(rhs),rhsMax =  -5.91678928074657E-11  2.00045171913168E-02
 cg2d: Sum(rhs),rhsMax =  -5.87938586704695E-11  2.01374012628334E-02
 cg2d: Sum(rhs),rhsMax =  -5.84925441415862E-11  2.02628692171870E-02
 cg2d: Sum(rhs),rhsMax =  -5.81831249846232E-11  2.03808625839387E-02
 cg2d: Sum(rhs),rhsMax =  -5.79026826486029E-11  2.04913262718862E-02
 cg2d: Sum(rhs),rhsMax =  -5.76380054795322E-11  2.05942086042063E-02
 cg2d: Sum(rhs),rhsMax =  -5.74318370638593E-11  2.06894613521189E-02
 cg2d: Sum(rhs),rhsMax =  -5.72240033136495E-11  2.07770397668157E-02
 cg2d: Sum(rhs),rhsMax =  -5.70504754549006E-11  2.08569026094284E-02
 cg2d: Sum(rhs),rhsMax =  -5.68520786004001E-11  2.09290121796362E-02
 cg2d: Sum(rhs),rhsMax =  -5.67157432129761E-11  2.09933343427422E-02
 cg2d: Sum(rhs),rhsMax =  -5.65970603716437E-11  2.10498385550243E-02
 cg2d: Sum(rhs),rhsMax =  -5.64885915821378E-11  2.10984978871894E-02
 cg2d: Sum(rhs),rhsMax =  -5.63850077739403E-11  2.11392890458182E-02
 cg2d: Sum(rhs),rhsMax =  -5.63232793737711E-11  2.11721923927270E-02
 cg2d: Sum(rhs),rhsMax =  -5.62149216065677E-11  2.11971919621907E-02
 cg2d: Sum(rhs),rhsMax =  -5.62206947662958E-11  2.12142754760005E-02
 cg2d: Sum(rhs),rhsMax =  -5.62119240044012E-11  2.12234343563300E-02
 cg2d: Sum(rhs),rhsMax =  -5.62641044865586E-11  2.12246637364209E-02
 cg2d: Sum(rhs),rhsMax =  -5.62646595980709E-11  2.12179624691005E-02
 cg2d: Sum(rhs),rhsMax =  -5.63520341501089E-11  2.12033331331112E-02
 cg2d: Sum(rhs),rhsMax =  -5.64921442958166E-11  2.11807820376249E-02
 cg2d: Sum(rhs),rhsMax =  -5.64436275496405E-11  2.11503192246515E-02
 cg2d: Sum(rhs),rhsMax =  -5.66111602040564E-11  2.11119584695479E-02
 cg2d: Sum(rhs),rhsMax =  -5.67427216324745E-11  2.10657172796644E-02
 cg2d: Sum(rhs),rhsMax =  -5.69428948438144E-11  2.10116168911371E-02
 cg2d: Sum(rhs),rhsMax =  -5.70458125181972E-11  2.09496822638155E-02
 cg2d: Sum(rhs),rhsMax =  -5.71896974221886E-11  2.08799420742901E-02
 cg2d: Sum(rhs),rhsMax =  -5.73660008384991E-11  2.08024287069698E-02
 cg2d: Sum(rhs),rhsMax =  -5.75481884368401E-11  2.07171782431687E-02
 cg2d: Sum(rhs),rhsMax =  -5.76709791033636E-11  2.06242304481543E-02
 cg2d: Sum(rhs),rhsMax =  -5.78558312369637E-11  2.05236287561097E-02
 cg2d: Sum(rhs),rhsMax =  -5.80543391137667E-11  2.04154202530025E-02
 cg2d: Sum(rhs),rhsMax =  -5.84078341248073E-11  2.02996556580580E-02
 cg2d: Sum(rhs),rhsMax =  -5.86751758291371E-11  2.01763893020397E-02
 cg2d: Sum(rhs),rhsMax =  -5.89800430716991E-11  2.00456791033965E-02
 cg2d: Sum(rhs),rhsMax =  -5.93316507035979E-11  1.99075865428839E-02
 cg2d: Sum(rhs),rhsMax =  -5.96901417182494E-11  1.97621766366190E-02
 cg2d: Sum(rhs),rhsMax =  -6.00701710595786E-11  1.96095179075014E-02
 cg2d: Sum(rhs),rhsMax =  -6.05836492084677E-11  1.94496823549769E-02
 cg2d: Sum(rhs),rhsMax =  -6.10382855370517E-11  1.92827454231483E-02
 cg2d: Sum(rhs),rhsMax =  -6.15243411772326E-11  1.91087859672752E-02
 cg2d: Sum(rhs),rhsMax =  -6.20247186944312E-11  1.89278862186678E-02
 cg2d: Sum(rhs),rhsMax =  -6.25368645756907E-11  1.87401317479430E-02
 cg2d: Sum(rhs),rhsMax =  -6.30493435238577E-11  1.85456114265697E-02
 cg2d: Sum(rhs),rhsMax =  -6.36469765780134E-11  1.83444173865989E-02
 cg2d: Sum(rhs),rhsMax =  -6.42790265459325E-11  1.81366449784581E-02
 cg2d: Sum(rhs),rhsMax =  -6.48896492094764E-11  1.79223927266989E-02
 cg2d: Sum(rhs),rhsMax =  -6.55933085624838E-11  1.77017622835940E-02
 cg2d: Sum(rhs),rhsMax =  -6.63367138997728E-11  1.74748583805247E-02
 cg2d: Sum(rhs),rhsMax =  -6.71561695142486E-11  1.72417887771327E-02
 cg2d: Sum(rhs),rhsMax =  -6.80396849972453E-11  1.70026642082519E-02
 cg2d: Sum(rhs),rhsMax =  -6.90022483595953E-11  1.67575983286734E-02
 cg2d: Sum(rhs),rhsMax =  -6.99869051601354E-11  1.65067076558445E-02
 cg2d: Sum(rhs),rhsMax =  -7.10419501004367E-11  1.62501115106208E-02
 cg2d: Sum(rhs),rhsMax =  -7.21366300027171E-11  1.59879319562257E-02
 cg2d: Sum(rhs),rhsMax =  -7.23706650163081E-11  1.59137608614950E-02
 cg2d: Sum(rhs),rhsMax =  -7.21600557085367E-11  1.59456769611195E-02
 cg2d: Sum(rhs),rhsMax =  -7.19745374411218E-11  1.59766658960483E-02
 cg2d: Sum(rhs),rhsMax =  -7.17835790808863E-11  1.60067618194636E-02
 cg2d: Sum(rhs),rhsMax =  -7.16138259804211E-11  1.60359839434425E-02
 cg2d: Sum(rhs),rhsMax =  -7.14563963555293E-11  1.60642613681836E-02
 cg2d: Sum(rhs),rhsMax =  -7.12859771212493E-11  1.60915548358474E-02
 cg2d: Sum(rhs),rhsMax =  -7.11076753034945E-11  1.61178923038400E-02
 cg2d: Sum(rhs),rhsMax =  -7.09294289968909E-11  1.61432193934895E-02
 cg2d: Sum(rhs),rhsMax =  -7.07647829223390E-11  1.61675727194257E-02
 cg2d: Sum(rhs),rhsMax =  -7.05625557984035E-11  1.61910213316668E-02
 cg2d: Sum(rhs),rhsMax =  -7.03928026979384E-11  1.62135891687825E-02
 cg2d: Sum(rhs),rhsMax =  -7.02369828964322E-11  1.62353048436777E-02
 cg2d: Sum(rhs),rhsMax =  -7.00954849719437E-11  1.62561968544118E-02
 cg2d: Sum(rhs),rhsMax =  -6.99214020016825E-11  1.62762975999831E-02
 cg2d: Sum(rhs),rhsMax =  -6.97565338825257E-11  1.62956399475358E-02
 cg2d: Sum(rhs),rhsMax =  -6.95420943053193E-11  1.63142601621395E-02
 cg2d: Sum(rhs),rhsMax =  -6.93304302856745E-11  1.63321965137217E-02
 cg2d: Sum(rhs),rhsMax =  -6.91885992942787E-11  1.63494846339768E-02
 cg2d: Sum(rhs),rhsMax =  -6.90559831539872E-11  1.63661604793569E-02
 cg2d: Sum(rhs),rhsMax =  -6.89583945501226E-11  1.63822605040171E-02
 cg2d: Sum(rhs),rhsMax =  -6.88416823546589E-11  1.63978039338650E-02
 cg2d: Sum(rhs),rhsMax =  -6.87193912884965E-11  1.64128278923332E-02
 cg2d: Sum(rhs),rhsMax =  -6.85986267789929E-11  1.64273731058886E-02
 cg2d: Sum(rhs),rhsMax =  -6.84797774042067E-11  1.64414809261137E-02
 cg2d: Sum(rhs),rhsMax =  -6.83402778811626E-11  1.64552039542827E-02
 cg2d: Sum(rhs),rhsMax =  -6.82278677999193E-11  1.64685964711737E-02
 cg2d: Sum(rhs),rhsMax =  -6.80615286352548E-11  1.64816904614153E-02
 cg2d: Sum(rhs),rhsMax =  -6.78885281324426E-11  1.64945133664865E-02
 cg2d: Sum(rhs),rhsMax =  -6.77438938279096E-11  1.65070943611758E-02
 cg2d: Sum(rhs),rhsMax =  -6.76459027681986E-11  1.65189194657590E-02
 cg2d: Sum(rhs),rhsMax =  -6.75151046181099E-11  1.65298118361014E-02
 cg2d: Sum(rhs),rhsMax =  -6.74558811586401E-11  1.65397826143909E-02
 cg2d: Sum(rhs),rhsMax =  -6.73138871032375E-11  1.65488966151590E-02
 cg2d: Sum(rhs),rhsMax =  -6.72165667309904E-11  1.65572082031856E-02
 cg2d: Sum(rhs),rhsMax =  -6.70574255845491E-11  1.65647696956400E-02
 cg2d: Sum(rhs),rhsMax =  -6.69407029807445E-11  1.65716316695872E-02
 cg2d: Sum(rhs),rhsMax =  -6.68412547533137E-11  1.65778559884127E-02
 cg2d: Sum(rhs),rhsMax =  -6.66895011436353E-11  1.65835371719813E-02
 cg2d: Sum(rhs),rhsMax =  -6.65370952779298E-11  1.65888422769462E-02
 cg2d: Sum(rhs),rhsMax =  -6.64708427189353E-11  1.65938128102175E-02
 cg2d: Sum(rhs),rhsMax =  -6.63502724984610E-11  1.65984733275832E-02
 cg2d: Sum(rhs),rhsMax =  -6.62779831017701E-11  1.66028582777638E-02
 cg2d: Sum(rhs),rhsMax =  -6.61724286477039E-11  1.66069881221586E-02
 cg2d: Sum(rhs),rhsMax =  -6.60705379296189E-11  1.66108802000748E-02
 cg2d: Sum(rhs),rhsMax =  -6.59989285445306E-11  1.66145497390186E-02
 cg2d: Sum(rhs),rhsMax =  -6.58725018976014E-11  1.66178852904303E-02
 cg2d: Sum(rhs),rhsMax =  -6.57578436147332E-11  1.66208504616057E-02
 cg2d: Sum(rhs),rhsMax =  -6.56478482685685E-11  1.66231684537868E-02
 cg2d: Sum(rhs),rhsMax =  -6.55550613792855E-11  1.66246387468745E-02
 cg2d: Sum(rhs),rhsMax =  -6.54986065384833E-11  1.66251657749112E-02
 cg2d: Sum(rhs),rhsMax =  -6.54181708803492E-11  1.66248226857155E-02
 cg2d: Sum(rhs),rhsMax =  -6.53298526387402E-11  1.66236750937605E-02
 cg2d: Sum(rhs),rhsMax =  -6.52172760240433E-11  1.66217733792518E-02
 cg2d: Sum(rhs),rhsMax =  -6.51781961735765E-11  1.66191680334164E-02
 cg2d: Sum(rhs),rhsMax =  -6.51446674382328E-11  1.66159059461129E-02
 cg2d: Sum(rhs),rhsMax =  -6.50700049398267E-11  1.66119941104559E-02
 cg2d: Sum(rhs),rhsMax =  -6.49816866982178E-11  1.66074617930372E-02
 cg2d: Sum(rhs),rhsMax =  -6.49384990225599E-11  1.66023539941486E-02
 cg2d: Sum(rhs),rhsMax =  -6.48757714216686E-11  1.65966891768981E-02
 cg2d: Sum(rhs),rhsMax =  -6.48029407912531E-11  1.65906571317206E-02
 cg2d: Sum(rhs),rhsMax =  -6.47278897147885E-11  1.65843394394903E-02
 cg2d: Sum(rhs),rhsMax =  -6.46817044369641E-11  1.65777502964630E-02
 cg2d: Sum(rhs),rhsMax =  -6.47000231168704E-11  1.65706866866414E-02
 cg2d: Sum(rhs),rhsMax =  -6.46513953483918E-11  1.65632277864465E-02
 cg2d: Sum(rhs),rhsMax =  -6.46964704031916E-11  1.65554160471991E-02
 cg2d: Sum(rhs),rhsMax =  -6.46391828951209E-11  1.65472530123446E-02
 cg2d: Sum(rhs),rhsMax =  -6.45513642538731E-11  1.65388826511691E-02
 cg2d: Sum(rhs),rhsMax =  -6.45565823020888E-11  1.65306565140335E-02
 cg2d: Sum(rhs),rhsMax =  -6.45475894955894E-11  1.65226126568742E-02
 cg2d: Sum(rhs),rhsMax =  -6.44390096837810E-11  1.65147321060026E-02
 cg2d: Sum(rhs),rhsMax =  -6.44375663938490E-11  1.65068367501731E-02
 cg2d: Sum(rhs),rhsMax =  -6.44325703902382E-11  1.64989002635506E-02
 cg2d: Sum(rhs),rhsMax =  -6.44504449809347E-11  1.64909146991195E-02
 cg2d: Sum(rhs),rhsMax =  -6.43574082914711E-11  1.64828541786629E-02
 cg2d: Sum(rhs),rhsMax =  -6.43415321022189E-11  1.64746323137433E-02
 cg2d: Sum(rhs),rhsMax =  -6.43088915452950E-11  1.64659979018923E-02
 cg2d: Sum(rhs),rhsMax =  -6.43098907460171E-11  1.64568965700767E-02
 cg2d: Sum(rhs),rhsMax =  -6.42600417322114E-11  1.64473312068697E-02
 cg2d: Sum(rhs),rhsMax =  -6.41655617528158E-11  1.64374304125462E-02
 cg2d: Sum(rhs),rhsMax =  -6.41410258239716E-11  1.64275333033074E-02
 cg2d: Sum(rhs),rhsMax =  -6.40490993575327E-11  1.64177087208449E-02
 cg2d: Sum(rhs),rhsMax =  -6.40333341905830E-11  1.64079491892094E-02
 cg2d: Sum(rhs),rhsMax =  -6.39763797494197E-11  1.63982292465500E-02
 cg2d: Sum(rhs),rhsMax =  -6.39719388573212E-11  1.63885246590646E-02
 cg2d: Sum(rhs),rhsMax =  -6.38852304390980E-11  1.63788160706931E-02
 cg2d: Sum(rhs),rhsMax =  -6.37845332107645E-11  1.63690866911095E-02
 cg2d: Sum(rhs),rhsMax =  -6.37855324114867E-11  1.63593505622301E-02
 cg2d: Sum(rhs),rhsMax =  -6.37855324114867E-11  1.63496787585249E-02
 cg2d: Sum(rhs),rhsMax =  -6.37349062415637E-11  1.63402861423374E-02
 cg2d: Sum(rhs),rhsMax =  -6.37317976170948E-11  1.63311938482982E-02
 cg2d: Sum(rhs),rhsMax =  -6.37534469660750E-11  1.63224676066847E-02
 cg2d: Sum(rhs),rhsMax =  -6.37419006466189E-11  1.63140829877260E-02
 cg2d: Sum(rhs),rhsMax =  -6.36817265586842E-11  1.63062920675465E-02
 cg2d: Sum(rhs),rhsMax =  -6.36684038823887E-11  1.62991961160836E-02
 cg2d: Sum(rhs),rhsMax =  -6.36839470047335E-11  1.62926876480889E-02
 cg2d: Sum(rhs),rhsMax =  -6.37153663163303E-11  1.62866473158335E-02
 cg2d: Sum(rhs),rhsMax =  -6.36289909650145E-11  1.62809484260274E-02
 cg2d: Sum(rhs),rhsMax =  -6.36075636606392E-11  1.62753553530599E-02
 cg2d: Sum(rhs),rhsMax =  -6.35481667288218E-11  1.62697528639309E-02
 cg2d: Sum(rhs),rhsMax =  -6.35055341646762E-11  1.62640961124926E-02
 cg2d: Sum(rhs),rhsMax =  -6.35385077885076E-11  1.62583327083463E-02
 cg2d: Sum(rhs),rhsMax =  -6.35553831784819E-11  1.62524346433268E-02
 cg2d: Sum(rhs),rhsMax =  -6.35258512460268E-11  1.62463891280908E-02
 cg2d: Sum(rhs),rhsMax =  -6.35662633641232E-11  1.62402031263284E-02
 cg2d: Sum(rhs),rhsMax =  -6.34526875487040E-11  1.62339001907801E-02
 cg2d: Sum(rhs),rhsMax =  -6.35045349639540E-11  1.62274754060844E-02
 cg2d: Sum(rhs),rhsMax =  -6.36094510397811E-11  1.62209129620052E-02
 cg2d: Sum(rhs),rhsMax =  -6.36672936593641E-11  1.62142004880073E-02
 cg2d: Sum(rhs),rhsMax =  -6.36620756111483E-11  1.62075270373547E-02
 cg2d: Sum(rhs),rhsMax =  -6.37467856279272E-11  1.62010159070383E-02
 cg2d: Sum(rhs),rhsMax =  -6.38001873554117E-11  1.61946415528342E-02
 cg2d: Sum(rhs),rhsMax =  -6.38606945102538E-11  1.61883737244969E-02
 cg2d: Sum(rhs),rhsMax =  -6.38933350671778E-11  1.61822144805999E-02
 cg2d: Sum(rhs),rhsMax =  -6.38596953095316E-11  1.61761681639468E-02
 cg2d: Sum(rhs),rhsMax =  -6.39485131515016E-11  1.61702068461658E-02
 cg2d: Sum(rhs),rhsMax =  -6.40375530380766E-11  1.61643702642029E-02
 cg2d: Sum(rhs),rhsMax =  -6.41572350801312E-11  1.61588362414838E-02
 cg2d: Sum(rhs),rhsMax =  -6.42146336105043E-11  1.61536061598803E-02
 cg2d: Sum(rhs),rhsMax =  -6.43141095935107E-11  1.61485672517331E-02
 cg2d: Sum(rhs),rhsMax =  -6.43192166194240E-11  1.61437540531237E-02
 cg2d: Sum(rhs),rhsMax =  -6.43272102252013E-11  1.61390947309102E-02
 cg2d: Sum(rhs),rhsMax =  -6.44905240321236E-11  1.61345954672180E-02
 cg2d: Sum(rhs),rhsMax =  -6.46136477655546E-11  1.61302623213972E-02
 cg2d: Sum(rhs),rhsMax =  -6.47037978751541E-11  1.61260847158443E-02
 cg2d: Sum(rhs),rhsMax =  -6.48329168129180E-11  1.61219731958443E-02
 cg2d: Sum(rhs),rhsMax =  -6.48840980943532E-11  1.61180454951648E-02
 cg2d: Sum(rhs),rhsMax =  -6.49829079435449E-11  1.61143492011389E-02
 cg2d: Sum(rhs),rhsMax =  -6.50609566221760E-11  1.61109169110638E-02
 cg2d: Sum(rhs),rhsMax =  -6.51749765268050E-11  1.61076613647555E-02
 cg2d: Sum(rhs),rhsMax =  -6.52644605025898E-11  1.61044861276116E-02
 cg2d: Sum(rhs),rhsMax =  -6.53826992547124E-11  1.61014087089736E-02
 cg2d: Sum(rhs),rhsMax =  -6.54678533607012E-11  1.60985243998905E-02
 cg2d: Sum(rhs),rhsMax =  -6.54500897923072E-11  1.60957980260675E-02
 cg2d: Sum(rhs),rhsMax =  -6.54750698103612E-11  1.60932361693488E-02
 cg2d: Sum(rhs),rhsMax =  -6.55389076342772E-11  1.60908318732927E-02
 cg2d: Sum(rhs),rhsMax =  -6.56227294726364E-11  1.60885393275782E-02
 cg2d: Sum(rhs),rhsMax =  -6.56604770554736E-11  1.60863164878397E-02
 cg2d: Sum(rhs),rhsMax =  -6.57324195074693E-11  1.60841338313682E-02
 cg2d: Sum(rhs),rhsMax =  -6.58094689853783E-11  1.60819405697251E-02
 cg2d: Sum(rhs),rhsMax =  -6.59423626814259E-11  1.60797361282023E-02
 cg2d: Sum(rhs),rhsMax =  -6.60059784607370E-11  1.60775153435649E-02
 cg2d: Sum(rhs),rhsMax =  -6.59845511563617E-11  1.60752397822828E-02
 cg2d: Sum(rhs),rhsMax =  -6.60883570091642E-11  1.60727838535543E-02
 cg2d: Sum(rhs),rhsMax =  -6.61526389222900E-11  1.60701367808213E-02
 cg2d: Sum(rhs),rhsMax =  -6.62436772103092E-11  1.60673220690440E-02
 cg2d: Sum(rhs),rhsMax =  -6.63360477659580E-11  1.60642804145164E-02
 cg2d: Sum(rhs),rhsMax =  -6.64222010726689E-11  1.60609876944992E-02
 cg2d: Sum(rhs),rhsMax =  -6.64357457935694E-11  1.60574779626694E-02
 cg2d: Sum(rhs),rhsMax =  -6.65389965348595E-11  1.60537791408743E-02
 cg2d: Sum(rhs),rhsMax =  -6.66530164394885E-11  1.60497690118863E-02
 cg2d: Sum(rhs),rhsMax =  -6.67350619210083E-11  1.60453338294505E-02
 cg2d: Sum(rhs),rhsMax =  -6.67516042440752E-11  1.60404723765292E-02
 cg2d: Sum(rhs),rhsMax =  -6.68343158594098E-11  1.60351403139552E-02
 cg2d: Sum(rhs),rhsMax =  -6.69691524457505E-11  1.60293884121299E-02
 cg2d: Sum(rhs),rhsMax =  -6.70271060876360E-11  1.60232500293256E-02
 cg2d: Sum(rhs),rhsMax =  -6.71313005184970E-11  1.60167378626040E-02
 cg2d: Sum(rhs),rhsMax =  -6.72459310457896E-11  1.60098700347083E-02
 cg2d: Sum(rhs),rhsMax =  -6.73178179866341E-11  1.60026678161350E-02
 cg2d: Sum(rhs),rhsMax =  -6.74175160142454E-11  1.59951392972742E-02
 cg2d: Sum(rhs),rhsMax =  -6.75244304915168E-11  1.59871373009265E-02
 cg2d: Sum(rhs),rhsMax =  -6.76387834630532E-11  1.59786011760591E-02
 cg2d: Sum(rhs),rhsMax =  -6.77007339078273E-11  1.59695478733923E-02
 cg2d: Sum(rhs),rhsMax =  -6.78011535804046E-11  1.59600112603667E-02
 cg2d: Sum(rhs),rhsMax =  -6.78866407533008E-11  1.59500260390396E-02
 cg2d: Sum(rhs),rhsMax =  -6.80233647187833E-11  1.59396014490026E-02
 cg2d: Sum(rhs),rhsMax =  -6.81311673744744E-11  1.59287327380630E-02
 cg2d: Sum(rhs),rhsMax =  -6.82678913399570E-11  1.59174411221005E-02
 cg2d: Sum(rhs),rhsMax =  -6.84418355323402E-11  1.59057551493744E-02
 cg2d: Sum(rhs),rhsMax =  -6.86393442084210E-11  1.58937191323309E-02
 cg2d: Sum(rhs),rhsMax =  -6.87676859900677E-11  1.58814130013501E-02
 cg2d: Sum(rhs),rhsMax =  -6.88796519821011E-11  1.58688564513538E-02
 cg2d: Sum(rhs),rhsMax =  -6.90656143387258E-11  1.58560007460718E-02
 cg2d: Sum(rhs),rhsMax =  -6.92380597300257E-11  1.58428593227639E-02
 cg2d: Sum(rhs),rhsMax =  -6.93682888908143E-11  1.58293559914836E-02
 cg2d: Sum(rhs),rhsMax =  -6.94828500291678E-11  1.58154762247339E-02
 cg2d: Sum(rhs),rhsMax =  -6.95769553082926E-11  1.58012607778423E-02
 cg2d: Sum(rhs),rhsMax =  -6.97333718546744E-11  1.57866163109491E-02
 cg2d: Sum(rhs),rhsMax =  -6.99174745877329E-11  1.57713827035044E-02
 cg2d: Sum(rhs),rhsMax =  -7.01051022788945E-11  1.57555593648933E-02
 cg2d: Sum(rhs),rhsMax =  -7.02426727894334E-11  1.57391871787455E-02
 cg2d: Sum(rhs),rhsMax =  -7.03419857084331E-11  1.57223364191536E-02
 cg2d: Sum(rhs),rhsMax =  -7.05184331067921E-11  1.57049896573940E-02
 cg2d: Sum(rhs),rhsMax =  -7.07139173605764E-11  1.56867996281834E-02
 cg2d: Sum(rhs),rhsMax =  -7.08590061626602E-11  1.56676728718367E-02
 cg2d: Sum(rhs),rhsMax =  -7.09987763025666E-11  1.56476638187000E-02
 cg2d: Sum(rhs),rhsMax =  -7.11876807502065E-11  1.56267974042765E-02
 cg2d: Sum(rhs),rhsMax =  -7.13503145455263E-11  1.56050826609016E-02
 cg2d: Sum(rhs),rhsMax =  -7.15958681229978E-11  1.55825586324205E-02
 cg2d: Sum(rhs),rhsMax =  -7.17505777014793E-11  1.55592704642558E-02
 cg2d: Sum(rhs),rhsMax =  -7.18717307890415E-11  1.55351816089257E-02
 cg2d: Sum(rhs),rhsMax =  -7.20582760127542E-11  1.55101937403069E-02
 cg2d: Sum(rhs),rhsMax =  -7.22555903998057E-11  1.54844045086121E-02
 cg2d: Sum(rhs),rhsMax =  -7.24735271795396E-11  1.54578414804821E-02
 cg2d: Sum(rhs),rhsMax =  -7.27054250138082E-11  1.54305595089276E-02
 cg2d: Sum(rhs),rhsMax =  -7.29292182199970E-11  1.54025893737173E-02
 cg2d: Sum(rhs),rhsMax =  -7.31120164410015E-11  1.53739707200332E-02
 cg2d: Sum(rhs),rhsMax =  -7.33060834257060E-11  1.53447850100546E-02
 cg2d: Sum(rhs),rhsMax =  -7.35048688582651E-11  1.53150972274017E-02
 cg2d: Sum(rhs),rhsMax =  -7.37421235186275E-11  1.52849355554047E-02
 cg2d: Sum(rhs),rhsMax =  -7.39367456148443E-11  1.52543491616845E-02
 cg2d: Sum(rhs),rhsMax =  -7.41259831293917E-11  1.52234127382289E-02
 cg2d: Sum(rhs),rhsMax =  -7.43512473810881E-11  1.51921871846642E-02
 cg2d: Sum(rhs),rhsMax =  -7.46011585839312E-11  1.51606928506609E-02
 cg2d: Sum(rhs),rhsMax =  -7.48857087451427E-11  1.51289069921202E-02
 cg2d: Sum(rhs),rhsMax =  -7.50661199866443E-11  1.50969750141045E-02
 cg2d: Sum(rhs),rhsMax =  -7.53017648236209E-11  1.50650196800847E-02
 cg2d: Sum(rhs),rhsMax =  -7.54845630446255E-11  1.50330567601791E-02
 cg2d: Sum(rhs),rhsMax =  -7.56718021577285E-11  1.50010108900470E-02
 cg2d: Sum(rhs),rhsMax =  -7.59062812605293E-11  1.49687372937494E-02
 cg2d: Sum(rhs),rhsMax =  -7.61050111819372E-11  1.49362568110347E-02
 cg2d: Sum(rhs),rhsMax =  -7.63168417350357E-11  1.49036110446021E-02
 cg2d: Sum(rhs),rhsMax =  -7.65348895370721E-11  1.48708495019582E-02
 cg2d: Sum(rhs),rhsMax =  -7.68021202190994E-11  1.48380148882681E-02
 cg2d: Sum(rhs),rhsMax =  -7.69949659584768E-11  1.48051291477129E-02
 cg2d: Sum(rhs),rhsMax =  -7.72086838907171E-11  1.47722105789276E-02
 cg2d: Sum(rhs),rhsMax =  -7.74174058193466E-11  1.47393253411895E-02
 cg2d: Sum(rhs),rhsMax =  -7.76734232488252E-11  1.47065458824239E-02
 cg2d: Sum(rhs),rhsMax =  -7.66072760782777E-11  1.49197910231231E-02
 cg2d: Sum(rhs),rhsMax =  -7.54273310477060E-11  1.51665852921448E-02
 cg2d: Sum(rhs),rhsMax =  -7.42882422244406E-11  1.54082667870448E-02
 cg2d: Sum(rhs),rhsMax =  -7.31983362811661E-11  1.56447270382986E-02
 cg2d: Sum(rhs),rhsMax =  -7.20939974385715E-11  1.58758598397785E-02
 cg2d: Sum(rhs),rhsMax =  -7.12108150224822E-11  1.61015613019876E-02
 cg2d: Sum(rhs),rhsMax =  -7.03195279783131E-11  1.63217299043406E-02
 cg2d: Sum(rhs),rhsMax =  -6.94357904507115E-11  1.65362665462305E-02
 cg2d: Sum(rhs),rhsMax =  -6.86476431255301E-11  1.67450745966409E-02
 cg2d: Sum(rhs),rhsMax =  -6.78811451493289E-11  1.69480599421192E-02
 cg2d: Sum(rhs),rhsMax =  -6.71720457035008E-11  1.71451310329907E-02
 cg2d: Sum(rhs),rhsMax =  -6.64291954777241E-11  1.73361989277710E-02
 cg2d: Sum(rhs),rhsMax =  -6.57313092844447E-11  1.75211773358269E-02
 cg2d: Sum(rhs),rhsMax =  -6.52528031608313E-11  1.76999826584176E-02
 cg2d: Sum(rhs),rhsMax =  -6.47139009046782E-11  1.78725340283038E-02
 cg2d: Sum(rhs),rhsMax =  -6.42216280155594E-11  1.80387533481846E-02
 cg2d: Sum(rhs),rhsMax =  -6.37142560933057E-11  1.81985653282171E-02
 cg2d: Sum(rhs),rhsMax =  -6.32648378129375E-11  1.83518975228943E-02
 cg2d: Sum(rhs),rhsMax =  -6.27647933626463E-11  1.84986803675170E-02
 cg2d: Sum(rhs),rhsMax =  -6.23624485385221E-11  1.86388472144336E-02
 cg2d: Sum(rhs),rhsMax =  -6.19180262617647E-11  1.87723343691577E-02
 cg2d: Sum(rhs),rhsMax =  -6.15675288528905E-11  1.88990811263857E-02
 cg2d: Sum(rhs),rhsMax =  -6.12206951799976E-11  1.90190298058328E-02
 cg2d: Sum(rhs),rhsMax =  -6.08878503172150E-11  1.91321257877176E-02
 cg2d: Sum(rhs),rhsMax =  -6.06132921632252E-11  1.92383175476538E-02
 cg2d: Sum(rhs),rhsMax =  -6.03129768350641E-11  1.93375566906431E-02
 cg2d: Sum(rhs),rhsMax =  -6.01022565049902E-11  1.94297979838115E-02
 cg2d: Sum(rhs),rhsMax =  -5.99490457275920E-11  1.95149993876094E-02
 cg2d: Sum(rhs),rhsMax =  -5.97754068465406E-11  1.95931220851802E-02
 cg2d: Sum(rhs),rhsMax =  -5.96643845440781E-11  1.96641305089349E-02
 cg2d: Sum(rhs),rhsMax =  -5.95151705695685E-11  1.97279923649191E-02
 cg2d: Sum(rhs),rhsMax =  -5.94437832290851E-11  1.97846786547277E-02
 cg2d: Sum(rhs),rhsMax =  -5.93612936583554E-11  1.98341636947815E-02
 cg2d: Sum(rhs),rhsMax =  -5.92482729544486E-11  1.98764251329135E-02
 cg2d: Sum(rhs),rhsMax =  -5.91620086254352E-11  1.99114439623334E-02
 cg2d: Sum(rhs),rhsMax =  -5.91302562469309E-11  1.99392045331643E-02
 cg2d: Sum(rhs),rhsMax =  -5.91384718973131E-11  1.99596945617921E-02
 cg2d: Sum(rhs),rhsMax =  -5.91608984024106E-11  1.99729051383008E-02
 cg2d: Sum(rhs),rhsMax =  -5.91547921757751E-11  1.99788307322386E-02
 cg2d: Sum(rhs),rhsMax =  -5.91724447218667E-11  1.99774691969497E-02
 cg2d: Sum(rhs),rhsMax =  -5.92491611328683E-11  1.99688217725875E-02
 cg2d: Sum(rhs),rhsMax =  -5.93302074136659E-11  1.99528930881803E-02
 cg2d: Sum(rhs),rhsMax =  -5.92756954631568E-11  1.99296911625572E-02
 cg2d: Sum(rhs),rhsMax =  -5.93433080453565E-11  1.98992274042995E-02
 cg2d: Sum(rhs),rhsMax =  -5.93637361490096E-11  1.98615166106914E-02
 cg2d: Sum(rhs),rhsMax =  -5.93861626541070E-11  1.98165769655971E-02
 cg2d: Sum(rhs),rhsMax =  -5.94978510903843E-11  1.97644300361519E-02
 cg2d: Sum(rhs),rhsMax =  -5.95717919438243E-11  1.97051007681415E-02
(PID.TID 0000.0001)      cg2d_init_res =   2.04662328468520E-02
(PID.TID 0000.0001)      cg2d_iters(min,last) =      -1      37
(PID.TID 0000.0001)      cg2d_last_res =   6.45399594152784E-14
(PID.TID 0000.0001) // =======================================================
(PID.TID 0000.0001) // Begin MONITOR dynamic field statistics
(PID.TID 0000.0001) // =======================================================
(PID.TID 0000.0001) %MON time_tsnumber                =                  4800
(PID.TID 0000.0001) %MON time_secondsf                =   7.2000000000000E+04
(PID.TID 0000.0001) %MON dynstat_eta_max              =   3.5496645516717E-03
(PID.TID 0000.0001) %MON dynstat_eta_min              =  -6.0926867738345E-03
(PID.TID 0000.0001) %MON dynstat_eta_mean             =   2.6783975491988E-15
(PID.TID 0000.0001) %MON dynstat_eta_sd               =   2.7864176971728E-03
(PID.TID 0000.0001) %MON dynstat_eta_del2             =   1.3877448685025E-05
(PID.TID 0000.0001) %MON dynstat_uvel_max             =   1.3929176209105E+00
(PID.TID 0000.0001) %MON dynstat_uvel_min             =  -1.0894125527209E-02
(PID.TID 0000.0001) %MON dynstat_uvel_mean            =   5.6158381227690E-01
(PID.TID 0000.0001) %MON dynstat_uvel_sd              =   4.6634035336840E-02
(PID.TID 0000.0001) %MON dynstat_uvel_del2            =   4.2612438005618E-04
(PID.TID 0000.0001) %MON dynstat_vvel_max             =   0.0000000000000E+00
(PID.TID 0000.0001) %MON dynstat_vvel_min             =   0.0000000000000E+00
(PID.TID 0000.0001) %MON dynstat_vvel_mean            =   0.0000000000000E+00
(PID.TID 0000.0001) %MON dynstat_vvel_sd              =   0.0000000000000E+00
(PID.TID 0000.0001) %MON dynstat_vvel_del2            =   0.0000000000000E+00
(PID.TID 0000.0001) %MON dynstat_wvel_max             =   1.8546078659927E-02
(PID.TID 0000.0001) %MON dynstat_wvel_min             =  -1.1503610564057E-02
(PID.TID 0000.0001) %MON dynstat_wvel_mean            =   5.1987419710524E-21
(PID.TID 0000.0001) %MON dynstat_wvel_sd              =   1.6797576597550E-03
(PID.TID 0000.0001) %MON dynstat_wvel_del2            =   3.6697363967081E-05
(PID.TID 0000.0001) %MON dynstat_theta_max            =   1.5000000000016E+01
(PID.TID 0000.0001) %MON dynstat_theta_min            =   9.9999999999989E+00
(PID.TID 0000.0001) %MON dynstat_theta_mean           =   1.4010247901128E+01
(PID.TID 0000.0001) %MON dynstat_theta_sd             =   1.9150323075134E+00
(PID.TID 0000.0001) %MON dynstat_theta_del2           =   3.6459712191304E-04
(PID.TID 0000.0001) %MON dynstat_salt_max             =   3.5000000000000E+01
(PID.TID 0000.0001) %MON dynstat_salt_min             =   3.5000000000000E+01
(PID.TID 0000.0001) %MON dynstat_salt_mean            =   3.5000000000000E+01
(PID.TID 0000.0001) %MON dynstat_salt_sd              =   4.1922021409846E-13
(PID.TID 0000.0001) %MON dynstat_salt_del2            =   0.0000000000000E+00
(PID.TID 0000.0001) %MON dynstat_sst_max              =   1.5000000000000E+01
(PID.TID 0000.0001) %MON dynstat_sst_min              =   1.4999999999999E+01
(PID.TID 0000.0001) %MON dynstat_sst_mean             =   1.5000000000000E+01
(PID.TID 0000.0001) %MON dynstat_sst_sd               =   3.5265267151950E-13
(PID.TID 0000.0001) %MON dynstat_sst_del2             =   5.0562656288063E-15
(PID.TID 0000.0001) %MON dynstat_sss_max              =   3.5000000000000E+01
(PID.TID 0000.0001) %MON dynstat_sss_min              =   3.5000000000000E+01
(PID.TID 0000.0001) %MON dynstat_sss_mean             =   3.5000000000000E+01
(PID.TID 0000.0001) %MON dynstat_sss_sd               =   2.8421709430404E-14
(PID.TID 0000.0001) %MON dynstat_sss_del2             =   0.0000000000000E+00
(PID.TID 0000.0001) %MON forcing_qnet_max             =   0.0000000000000E+00
(PID.TID 0000.0001) %MON forcing_qnet_min             =   0.0000000000000E+00
(PID.TID 0000.0001) %MON forcing_qnet_mean            =   0.0000000000000E+00
(PID.TID 0000.0001) %MON forcing_qnet_sd              =   0.0000000000000E+00
(PID.TID 0000.0001) %MON forcing_qnet_del2            =   0.0000000000000E+00
(PID.TID 0000.0001) %MON forcing_qsw_max              =   0.0000000000000E+00
(PID.TID 0000.0001) %MON forcing_qsw_min              =   0.0000000000000E+00
(PID.TID 0000.0001) %MON forcing_qsw_mean             =   0.0000000000000E+00
(PID.TID 0000.0001) %MON forcing_qsw_sd               =   0.0000000000000E+00
(PID.TID 0000.0001) %MON forcing_qsw_del2             =   0.0000000000000E+00
(PID.TID 0000.0001) %MON forcing_empmr_max            =   0.0000000000000E+00
(PID.TID 0000.0001) %MON forcing_empmr_min            =   0.0000000000000E+00
(PID.TID 0000.0001) %MON forcing_empmr_mean           =   0.0000000000000E+00
(PID.TID 0000.0001) %MON forcing_empmr_sd             =   0.0000000000000E+00
(PID.TID 0000.0001) %MON forcing_empmr_del2           =   0.0000000000000E+00
(PID.TID 0000.0001) %MON forcing_fu_max               =   0.0000000000000E+00
(PID.TID 0000.0001) %MON forcing_fu_min               =   0.0000000000000E+00
(PID.TID 0000.0001) %MON forcing_fu_mean              =   0.0000000000000E+00
(PID.TID 0000.0001) %MON forcing_fu_sd                =   0.0000000000000E+00
(PID.TID 0000.0001) %MON forcing_fu_del2              =   0.0000000000000E+00
(PID.TID 0000.0001) %MON forcing_fv_max               =   0.0000000000000E+00
(PID.TID 0000.0001) %MON forcing_fv_min               =   0.0000000000000E+00
(PID.TID 0000.0001) %MON forcing_fv_mean              =   0.0000000000000E+00
(PID.TID 0000.0001) %MON forcing_fv_sd                =   0.0000000000000E+00
(PID.TID 0000.0001) %MON forcing_fv_del2              =   0.0000000000000E+00
(PID.TID 0000.0001) %MON advcfl_uvel_max              =   1.0059149308835E-01
(PID.TID 0000.0001) %MON advcfl_vvel_max              =   0.0000000000000E+00
(PID.TID 0000.0001) %MON advcfl_wvel_max              =   9.2295734481521E-02
(PID.TID 0000.0001) %MON advcfl_W_hf_max              =   1.0164002858484E-01
(PID.TID 0000.0001) %MON pe_b_mean                    =   1.9081423222528E-07
(PID.TID 0000.0001) %MON ke_max                       =   4.9011094091660E-01
(PID.TID 0000.0001) %MON ke_mean                      =   1.5880246529285E-01
(PID.TID 0000.0001) %MON ke_vol                       =   9.7476098603737E+10
(PID.TID 0000.0001) %MON vort_r_min                   =   0.0000000000000E+00
(PID.TID 0000.0001) %MON vort_r_max                   =   0.0000000000000E+00
(PID.TID 0000.0001) %MON vort_a_mean                  =   0.0000000000000E+00
(PID.TID 0000.0001) %MON vort_a_sd                    =   0.0000000000000E+00
(PID.TID 0000.0001) %MON vort_p_mean                  =   0.0000000000000E+00
(PID.TID 0000.0001) %MON vort_p_sd                    =   0.0000000000000E+00
(PID.TID 0000.0001) %MON surfExpan_theta_mean         =  -1.1461164045147E-19
(PID.TID 0000.0001) %MON surfExpan_salt_mean          =   2.4441172373505E-21
(PID.TID 0000.0001) // =======================================================
(PID.TID 0000.0001) // End MONITOR dynamic field statistics
(PID.TID 0000.0001) // =======================================================
(PID.TID 0000.0001) // =======================================================
(PID.TID 0000.0001) // Begin OBCS MONITOR field statistics
(PID.TID 0000.0001) // =======================================================
(PID.TID 0000.0001) %MON obc_E_uVel_max               =   5.6028564143658E-01
(PID.TID 0000.0001) %MON obc_E_uVel_min               =   5.6028564143658E-01
(PID.TID 0000.0001) %MON obc_E_uVel_mean              =   5.6028564143658E-01
(PID.TID 0000.0001) %MON obc_E_uVel_sd                =   1.0536712127724E-08
(PID.TID 0000.0001) %MON obc_E_uVel_Int               =   5.6028564143658E+05
(PID.TID 0000.0001) %MON obc_W_uVel_max               =   5.6028564143658E-01
(PID.TID 0000.0001) %MON obc_W_uVel_min               =   5.6028564143658E-01
(PID.TID 0000.0001) %MON obc_W_uVel_mean              =   5.6028564143658E-01
(PID.TID 0000.0001) %MON obc_W_uVel_sd                =   1.0536712127724E-08
(PID.TID 0000.0001) %MON obc_W_uVel_Int               =   5.6028564143658E+05
(PID.TID 0000.0001) // =======================================================
(PID.TID 0000.0001) // End OBCS MONITOR field statistics
(PID.TID 0000.0001) // =======================================================
 cg2d: Sum(rhs),rhsMax =  -5.97047966621744E-11  1.96386174798938E-02
 cg2d: Sum(rhs),rhsMax =  -5.99024163605577E-11  1.95650118545372E-02
 cg2d: Sum(rhs),rhsMax =  -6.00925975646760E-11  1.94843189304421E-02
 cg2d: Sum(rhs),rhsMax =  -6.03462835258028E-11  1.93965770896803E-02
 cg2d: Sum(rhs),rhsMax =  -6.05645533724442E-11  1.93018280443426E-02
 cg2d: Sum(rhs),rhsMax =  -6.08972872129243E-11  1.92001168205925E-02
 cg2d: Sum(rhs),rhsMax =  -6.12169204217139E-11  1.90914917403809E-02
 cg2d: Sum(rhs),rhsMax =  -6.15252293556523E-11  1.89760044008236E-02
 cg2d: Sum(rhs),rhsMax =  -6.19229112430730E-11  1.88537096512877E-02
 cg2d: Sum(rhs),rhsMax =  -6.22825124807491E-11  1.87246655685926E-02
 cg2d: Sum(rhs),rhsMax =  -6.26722007623925E-11  1.85889334300737E-02
 cg2d: Sum(rhs),rhsMax =  -6.31247276672298E-11  1.84465776838500E-02
 cg2d: Sum(rhs),rhsMax =  -6.36484198679454E-11  1.82976659176225E-02
 cg2d: Sum(rhs),rhsMax =  -6.41482422736317E-11  1.81422688259907E-02
 cg2d: Sum(rhs),rhsMax =  -6.45951070410433E-11  1.79804601762485E-02
 cg2d: Sum(rhs),rhsMax =  -6.50839382387858E-11  1.78123167726259E-02
 cg2d: Sum(rhs),rhsMax =  -6.56370513496540E-11  1.76379184189944E-02
 cg2d: Sum(rhs),rhsMax =  -6.62518928606914E-11  1.74573478801098E-02
 cg2d: Sum(rhs),rhsMax =  -6.68630706357476E-11  1.72706908414697E-02
 cg2d: Sum(rhs),rhsMax =  -6.74923450461051E-11  1.70780358678704E-02
 cg2d: Sum(rhs),rhsMax =  -6.81642520206083E-11  1.68794743607051E-02
 cg2d: Sum(rhs),rhsMax =  -6.88411549987222E-11  1.66751005140362E-02
 cg2d: Sum(rhs),rhsMax =  -6.95856705590359E-11  1.64847448206675E-02
 cg2d: Sum(rhs),rhsMax =  -6.93823887232270E-11  1.65191154026938E-02
 cg2d: Sum(rhs),rhsMax =  -6.92051971284968E-11  1.65532027420250E-02
 cg2d: Sum(rhs),rhsMax =  -6.89890367056023E-11  1.65868841432541E-02
 cg2d: Sum(rhs),rhsMax =  -6.87995216352988E-11  1.66200786371142E-02
 cg2d: Sum(rhs),rhsMax =  -6.85900225505520E-11  1.66525347807945E-02
 cg2d: Sum(rhs),rhsMax =  -6.84367007508513E-11  1.66841380427646E-02
 cg2d: Sum(rhs),rhsMax =  -6.82817136166136E-11  1.67150873671463E-02
 cg2d: Sum(rhs),rhsMax =  -6.80968059718623E-11  1.67451974194320E-02
 cg2d: Sum(rhs),rhsMax =  -6.79468148412354E-11  1.67746479432705E-02
 cg2d: Sum(rhs),rhsMax =  -6.78180289703789E-11  1.68032802049467E-02
 cg2d: Sum(rhs),rhsMax =  -6.76896871887323E-11  1.68312672602300E-02
 cg2d: Sum(rhs),rhsMax =  -6.75561828700211E-11  1.68584840636289E-02
 cg2d: Sum(rhs),rhsMax =  -6.74152400570449E-11  1.68851260118190E-02
 cg2d: Sum(rhs),rhsMax =  -6.71809829988490E-11  1.69110511734706E-02
 cg2d: Sum(rhs),rhsMax =  -6.70526967283536E-11  1.69364364249644E-02
 cg2d: Sum(rhs),rhsMax =  -6.68977651052671E-11  1.69611465759719E-02
 cg2d: Sum(rhs),rhsMax =  -6.67683686117471E-11  1.69852772633491E-02
 cg2d: Sum(rhs),rhsMax =  -6.66250388192680E-11  1.70089394959508E-02
 cg2d: Sum(rhs),rhsMax =  -6.64700516850303E-11  1.70319969169906E-02
 cg2d: Sum(rhs),rhsMax =  -6.62634946912988E-11  1.70541629296205E-02
 cg2d: Sum(rhs),rhsMax =  -6.60683174835697E-11  1.70752313115298E-02
 cg2d: Sum(rhs),rhsMax =  -6.58721410751184E-11  1.70952124884948E-02
 cg2d: Sum(rhs),rhsMax =  -6.56567022971899E-11  1.71141897987248E-02
 cg2d: Sum(rhs),rhsMax =  -6.54725718085558E-11  1.71323078565263E-02
 cg2d: Sum(rhs),rhsMax =  -6.53594678379221E-11  1.71495985542163E-02
 cg2d: Sum(rhs),rhsMax =  -6.52036202808404E-11  1.71661039313375E-02
 cg2d: Sum(rhs),rhsMax =  -6.51100839910157E-11  1.71819159148712E-02
 cg2d: Sum(rhs),rhsMax =  -6.49930942397958E-11  1.71970705155486E-02
 cg2d: Sum(rhs),rhsMax =  -6.48773257339030E-11  1.72115913973381E-02
 cg2d: Sum(rhs),rhsMax =  -6.47289444266619E-11  1.72258367946991E-02
 cg2d: Sum(rhs),rhsMax =  -6.46016018457374E-11  1.72400034439022E-02
 cg2d: Sum(rhs),rhsMax =  -6.44681252826018E-11  1.72541506757993E-02
 cg2d: Sum(rhs),rhsMax =  -6.43118058807346E-11  1.72682031196172E-02
 cg2d: Sum(rhs),rhsMax =  -6.41816461088851E-11  1.72821695924598E-02
 cg2d: Sum(rhs),rhsMax =  -6.40370673155033E-11  1.72960561332533E-02
 cg2d: Sum(rhs),rhsMax =  -6.39540503888369E-11  1.73098596274843E-02
 cg2d: Sum(rhs),rhsMax =  -6.38200048364013E-11  1.73235871472858E-02
 cg2d: Sum(rhs),rhsMax =  -6.36278807419899E-11  1.73372389547983E-02
 cg2d: Sum(rhs),rhsMax =  -6.35102075097205E-11  1.73508024549191E-02
 cg2d: Sum(rhs),rhsMax =  -6.33859197768372E-11  1.73642417039407E-02
 cg2d: Sum(rhs),rhsMax =  -6.32479589535162E-11  1.73775327089268E-02
 cg2d: Sum(rhs),rhsMax =  -6.31062979650210E-11  1.73907283184543E-02
 cg2d: Sum(rhs),rhsMax =  -6.30134971979501E-11  1.74037592837332E-02
 cg2d: Sum(rhs),rhsMax =  -6.29277255304039E-11  1.74165172033830E-02
 cg2d: Sum(rhs),rhsMax =  -6.28420926407358E-11  1.74289876544191E-02
 cg2d: Sum(rhs),rhsMax =  -6.27127516583670E-11  1.74411428474559E-02
 cg2d: Sum(rhs),rhsMax =  -6.25436785695044E-11  1.74529662493064E-02
 cg2d: Sum(rhs),rhsMax =  -6.24097995505224E-11  1.74644500033627E-02
 cg2d: Sum(rhs),rhsMax =  -6.22571716402121E-11  1.74755782285030E-02
 cg2d: Sum(rhs),rhsMax =  -6.20895557190693E-11  1.74863355589543E-02
 cg2d: Sum(rhs),rhsMax =  -6.19905793364239E-11  1.74965860815481E-02
 cg2d: Sum(rhs),rhsMax =  -6.18672335583881E-11  1.75062868220779E-02
 cg2d: Sum(rhs),rhsMax =  -6.18088358272928E-11  1.75154265998212E-02
 cg2d: Sum(rhs),rhsMax =  -6.17429163352057E-11  1.75239869927391E-02
 cg2d: Sum(rhs),rhsMax =  -6.16475204218148E-11  1.75319563375893E-02
 cg2d: Sum(rhs),rhsMax =  -6.15815731741520E-11  1.75393492695356E-02
 cg2d: Sum(rhs),rhsMax =  -6.14913675534012E-11  1.75461641586931E-02
 cg2d: Sum(rhs),rhsMax =  -6.14023276668263E-11  1.75523906445968E-02
 cg2d: Sum(rhs),rhsMax =  -6.13668560411895E-11  1.75580218048597E-02
 cg2d: Sum(rhs),rhsMax =  -6.13070705313135E-11  1.75630673703576E-02
 cg2d: Sum(rhs),rhsMax =  -6.12296879864971E-11  1.75675130460362E-02
 cg2d: Sum(rhs),rhsMax =  -6.11481421053384E-11  1.75713202862297E-02
 cg2d: Sum(rhs),rhsMax =  -6.10576034176802E-11  1.75744808733044E-02
 cg2d: Sum(rhs),rhsMax =  -6.09913231031101E-11  1.75770490849487E-02
 cg2d: Sum(rhs),rhsMax =  -6.09623462821673E-11  1.75754444301223E-02
 cg2d: Sum(rhs),rhsMax =  -6.08427752624152E-11  1.75761110716540E-02
 cg2d: Sum(rhs),rhsMax =  -6.07538463981427E-11  1.75760662134273E-02
 cg2d: Sum(rhs),rhsMax =  -6.06877881281775E-11  1.75749047585999E-02
 cg2d: Sum(rhs),rhsMax =  -6.05515637630560E-11  1.75728054026625E-02
 cg2d: Sum(rhs),rhsMax =  -6.05424599342541E-11  1.75698230747212E-02
 cg2d: Sum(rhs),rhsMax =  -6.05036021283922E-11  1.75659708593701E-02
 cg2d: Sum(rhs),rhsMax =  -6.04907790524578E-11  1.75612646203405E-02
 cg2d: Sum(rhs),rhsMax =  -6.04662986347648E-11  1.75557277596398E-02
 cg2d: Sum(rhs),rhsMax =  -6.03563865553269E-11  1.75493894565954E-02
 cg2d: Sum(rhs),rhsMax =  -6.03501137952378E-11  1.75422847865917E-02
 cg2d: Sum(rhs),rhsMax =  -6.02816685457697E-11  1.75344366085682E-02
 cg2d: Sum(rhs),rhsMax =  -6.03230798645882E-11  1.75258594291369E-02
 cg2d: Sum(rhs),rhsMax =  -6.02777827651835E-11  1.75165845372766E-02
 cg2d: Sum(rhs),rhsMax =  -6.02284888628901E-11  1.75066446096351E-02
 cg2d: Sum(rhs),rhsMax =  -6.01773075814549E-11  1.74960681636667E-02
 cg2d: Sum(rhs),rhsMax =  -6.01276806122542E-11  1.74848686950367E-02
 cg2d: Sum(rhs),rhsMax =  -6.00025584773789E-11  1.74730686798829E-02
 cg2d: Sum(rhs),rhsMax =  -5.99101879217301E-11  1.74606945978909E-02
 cg2d: Sum(rhs),rhsMax =  -5.98325833323088E-11  1.74478610729043E-02
 cg2d: Sum(rhs),rhsMax =  -5.97629723486648E-11  1.74347223883018E-02
 cg2d: Sum(rhs),rhsMax =  -5.97440985572462E-11  1.74213436679631E-02
 cg2d: Sum(rhs),rhsMax =  -5.96854787815460E-11  1.74074379791455E-02
 cg2d: Sum(rhs),rhsMax =  -5.96106497496862E-11  1.73928013383392E-02
 cg2d: Sum(rhs),rhsMax =  -5.96094285043591E-11  1.73773786867328E-02
 cg2d: Sum(rhs),rhsMax =  -5.95733462560588E-11  1.73613505036559E-02
 cg2d: Sum(rhs),rhsMax =  -5.95005156256434E-11  1.73449245732733E-02
 cg2d: Sum(rhs),rhsMax =  -5.94891913507922E-11  1.73281301265249E-02
 cg2d: Sum(rhs),rhsMax =  -5.94252425045738E-11  1.73109699085945E-02
 cg2d: Sum(rhs),rhsMax =  -5.93949334160015E-11  1.72934567033655E-02
 cg2d: Sum(rhs),rhsMax =  -5.94024829325690E-11  1.72749240260897E-02
 cg2d: Sum(rhs),rhsMax =  -5.94172488987965E-11  1.72565412661731E-02
 cg2d: Sum(rhs),rhsMax =  -5.94214677462901E-11  1.72378333579879E-02
 cg2d: Sum(rhs),rhsMax =  -5.94093663153217E-11  1.72187237929317E-02
 cg2d: Sum(rhs),rhsMax =  -5.94603255521520E-11  1.71992353662251E-02
 cg2d: Sum(rhs),rhsMax =  -5.94647664442505E-11  1.71793878736947E-02
 cg2d: Sum(rhs),rhsMax =  -5.94423399391530E-11  1.71591961992851E-02
 cg2d: Sum(rhs),rhsMax =  -5.94151394750497E-11  1.71385156392034E-02
 cg2d: Sum(rhs),rhsMax =  -5.93812776727987E-11  1.71172819386962E-02
 cg2d: Sum(rhs),rhsMax =  -5.93721738439967E-11  1.70956500589203E-02
 cg2d: Sum(rhs),rhsMax =  -5.93608495691456E-11  1.70737254675714E-02
 cg2d: Sum(rhs),rhsMax =  -5.93767257583977E-11  1.70515199442435E-02
 cg2d: Sum(rhs),rhsMax =  -5.94153615196547E-11  1.70290569716419E-02
 cg2d: Sum(rhs),rhsMax =  -5.94219118354999E-11  1.70063638490015E-02
 cg2d: Sum(rhs),rhsMax =  -5.94291282851600E-11  1.69836257353934E-02
 cg2d: Sum(rhs),rhsMax =  -5.95080651422109E-11  1.69608696599183E-02
 cg2d: Sum(rhs),rhsMax =  -5.94604365744544E-11  1.69381127260308E-02
 cg2d: Sum(rhs),rhsMax =  -5.93781690483297E-11  1.69153720038921E-02
 cg2d: Sum(rhs),rhsMax =  -5.94817528565272E-11  1.68926559104116E-02
 cg2d: Sum(rhs),rhsMax =  -5.95951066273415E-11  1.68699986672000E-02
 cg2d: Sum(rhs),rhsMax =  -5.96883653614100E-11  1.68474070575237E-02
 cg2d: Sum(rhs),rhsMax =  -5.97530913637456E-11  1.68250601275091E-02
 cg2d: Sum(rhs),rhsMax =  -5.98692206921214E-11  1.68030458029624E-02
 cg2d: Sum(rhs),rhsMax =  -5.99379434973457E-11  1.67813475222343E-02
 cg2d: Sum(rhs),rhsMax =  -5.99849059312874E-11  1.67599315802549E-02
 cg2d: Sum(rhs),rhsMax =  -6.00884897394849E-11  1.67387651604640E-02
 cg2d: Sum(rhs),rhsMax =  -6.02349281564329E-11  1.67177285343573E-02
 cg2d: Sum(rhs),rhsMax =  -6.03570526891417E-11  1.66967525819886E-02
 cg2d: Sum(rhs),rhsMax =  -6.05083760873981E-11  1.66758607036459E-02
 cg2d: Sum(rhs),rhsMax =  -6.06616978870989E-11  1.66550218387466E-02
 cg2d: Sum(rhs),rhsMax =  -6.08157968429168E-11  1.66342220774451E-02
 cg2d: Sum(rhs),rhsMax =  -6.10455019867118E-11  1.66134211883106E-02
 cg2d: Sum(rhs),rhsMax =  -6.11389827653852E-11  1.65926563476170E-02
 cg2d: Sum(rhs),rhsMax =  -6.13280537464789E-11  1.65719007044192E-02
 cg2d: Sum(rhs),rhsMax =  -6.14839290591362E-11  1.65511468929829E-02
 cg2d: Sum(rhs),rhsMax =  -6.16903195194141E-11  1.65303631052962E-02
 cg2d: Sum(rhs),rhsMax =  -6.17801365621062E-11  1.65094178294719E-02
 cg2d: Sum(rhs),rhsMax =  -6.19010398494879E-11  1.64882183402514E-02
 cg2d: Sum(rhs),rhsMax =  -6.20770101988910E-11  1.64667291935234E-02
 cg2d: Sum(rhs),rhsMax =  -6.22343288014804E-11  1.64449240977926E-02
 cg2d: Sum(rhs),rhsMax =  -6.24321705444686E-11  1.64227737317001E-02
 cg2d: Sum(rhs),rhsMax =  -6.26185769903032E-11  1.64002236340320E-02
 cg2d: Sum(rhs),rhsMax =  -6.28048724138353E-11  1.63772499824194E-02
 cg2d: Sum(rhs),rhsMax =  -6.29986063316323E-11  1.63538359002607E-02
 cg2d: Sum(rhs),rhsMax =  -6.32087715501939E-11  1.63299674374633E-02
 cg2d: Sum(rhs),rhsMax =  -6.33950669737260E-11  1.63056134487166E-02
 cg2d: Sum(rhs),rhsMax =  -6.35949071181585E-11  1.62807570590568E-02
 cg2d: Sum(rhs),rhsMax =  -6.37832009431349E-11  1.62553967789388E-02
 cg2d: Sum(rhs),rhsMax =  -6.39458486162425E-11  1.62296063773455E-02
 cg2d: Sum(rhs),rhsMax =  -6.40458797107613E-11  1.62033921802461E-02
 cg2d: Sum(rhs),rhsMax =  -6.41662278866306E-11  1.61767427548886E-02
 cg2d: Sum(rhs),rhsMax =  -6.42775832560005E-11  1.61496626362170E-02
 cg2d: Sum(rhs),rhsMax =  -6.44685416162361E-11  1.61221659564326E-02
 cg2d: Sum(rhs),rhsMax =  -6.45724584913410E-11  1.60942916752303E-02
 cg2d: Sum(rhs),rhsMax =  -6.47458753277874E-11  1.60660714528119E-02
 cg2d: Sum(rhs),rhsMax =  -6.48795461799523E-11  1.60375457711878E-02
 cg2d: Sum(rhs),rhsMax =  -6.50623999121080E-11  1.60087288310154E-02
 cg2d: Sum(rhs),rhsMax =  -6.52305987003388E-11  1.59796103419853E-02
 cg2d: Sum(rhs),rhsMax =  -6.53885834367429E-11  1.59501606348772E-02
 cg2d: Sum(rhs),rhsMax =  -6.56258380971053E-11  1.59203762942510E-02
 cg2d: Sum(rhs),rhsMax =  -6.58024745803232E-11  1.58902072258917E-02
 cg2d: Sum(rhs),rhsMax =  -6.59584609152830E-11  1.58596143065266E-02
 cg2d: Sum(rhs),rhsMax =  -6.61506405208456E-11  1.58286215915357E-02
 cg2d: Sum(rhs),rhsMax =  -6.62865873302110E-11  1.57972480868721E-02
 cg2d: Sum(rhs),rhsMax =  -6.65389410237083E-11  1.57655146934562E-02
 cg2d: Sum(rhs),rhsMax =  -6.66967592266587E-11  1.57333504411608E-02
 cg2d: Sum(rhs),rhsMax =  -6.68971544826036E-11  1.57006752127463E-02
 cg2d: Sum(rhs),rhsMax =  -6.70695721183279E-11  1.56674922403427E-02
 cg2d: Sum(rhs),rhsMax =  -6.73124334049646E-11  1.56338187697159E-02
 cg2d: Sum(rhs),rhsMax =  -6.76186329151562E-11  1.55996772837973E-02
 cg2d: Sum(rhs),rhsMax =  -6.78086475858208E-11  1.55650943180658E-02
 cg2d: Sum(rhs),rhsMax =  -6.79864498032146E-11  1.55300872275609E-02
 cg2d: Sum(rhs),rhsMax =  -6.82167655696730E-11  1.54947173469324E-02
 cg2d: Sum(rhs),rhsMax =  -6.84433620889990E-11  1.54590968961416E-02
 cg2d: Sum(rhs),rhsMax =  -6.86640189151433E-11  1.54232558374247E-02
 cg2d: Sum(rhs),rhsMax =  -6.88932799697284E-11  1.53871849484195E-02
 cg2d: Sum(rhs),rhsMax =  -6.90988932738890E-11  1.53515998558410E-02
 cg2d: Sum(rhs),rhsMax =  -6.90628665367399E-11  1.53812037513019E-02
 cg2d: Sum(rhs),rhsMax =  -6.89271972831307E-11  1.54106052831939E-02
 cg2d: Sum(rhs),rhsMax =  -6.89497903216818E-11  1.54397444144999E-02
 cg2d: Sum(rhs),rhsMax =  -6.88670787063472E-11  1.54685060745233E-02
 cg2d: Sum(rhs),rhsMax =  -6.88364920620188E-11  1.54968840678509E-02
 cg2d: Sum(rhs),rhsMax =  -6.87734036386445E-11  1.55247907144360E-02
 cg2d: Sum(rhs),rhsMax =  -6.87322976311577E-11  1.55518250098102E-02
 cg2d: Sum(rhs),rhsMax =  -6.86151691020598E-11  1.55778764154909E-02
 cg2d: Sum(rhs),rhsMax =  -6.85736467609388E-11  1.56029412667970E-02
 cg2d: Sum(rhs),rhsMax =  -6.85138057399115E-11  1.56270528520856E-02
 cg2d: Sum(rhs),rhsMax =  -6.84531736849792E-11  1.56502437339392E-02
 cg2d: Sum(rhs),rhsMax =  -6.84980544507496E-11  1.56725455702508E-02
 cg2d: Sum(rhs),rhsMax =  -6.84844264631224E-11  1.56940048965445E-02
 cg2d: Sum(rhs),rhsMax =  -6.85188294990979E-11  1.57146717318547E-02
 cg2d: Sum(rhs),rhsMax =  -6.84981446563704E-11  1.57345923763452E-02
 cg2d: Sum(rhs),rhsMax =  -6.85296402958002E-11  1.57538192395564E-02
 cg2d: Sum(rhs),rhsMax =  -6.85233206981772E-11  1.57724116238020E-02
 cg2d: Sum(rhs),rhsMax =  -6.84989790583623E-11  1.57904141757791E-02
 cg2d: Sum(rhs),rhsMax =  -6.84610458601131E-11  1.58078687005208E-02
 cg2d: Sum(rhs),rhsMax =  -6.84405240813923E-11  1.58247845601240E-02
 cg2d: Sum(rhs),rhsMax =  -6.84138856676952E-11  1.58411563545418E-02
 cg2d: Sum(rhs),rhsMax =  -6.84424183994281E-11  1.58570241124908E-02
 cg2d: Sum(rhs),rhsMax =  -6.84231005187996E-11  1.58724326945883E-02
 cg2d: Sum(rhs),rhsMax =  -6.84835244069149E-11  1.58874268167414E-02
 cg2d: Sum(rhs),rhsMax =  -6.85260043153946E-11  1.59019791826807E-02
 cg2d: Sum(rhs),rhsMax =  -6.85807244327208E-11  1.59160493837343E-02
 cg2d: Sum(rhs),rhsMax =  -6.85476397865870E-11  1.59297857904681E-02
 cg2d: Sum(rhs),rhsMax =  -6.85609347073068E-11  1.59436058889273E-02
 cg2d: Sum(rhs),rhsMax =  -6.85735912497876E-11  1.59575916798828E-02
 cg2d: Sum(rhs),rhsMax =  -6.85261014599092E-11  1.59717491518543E-02
 cg2d: Sum(rhs),rhsMax =  -6.85320411530910E-11  1.59860970882579E-02
 cg2d: Sum(rhs),rhsMax =  -6.85901335728545E-11  1.60006616554736E-02
 cg2d: Sum(rhs),rhsMax =  -6.86117829218347E-11  1.60154788558423E-02
 cg2d: Sum(rhs),rhsMax =  -6.85566048375108E-11  1.60305676683992E-02
 cg2d: Sum(rhs),rhsMax =  -6.85161927194144E-11  1.60459402833276E-02
 cg2d: Sum(rhs),rhsMax =  -6.84534096073719E-11  1.60616066304093E-02
 cg2d: Sum(rhs),rhsMax =  -6.84632350811398E-11  1.60775897233252E-02
 cg2d: Sum(rhs),rhsMax =  -6.84465817357705E-11  1.60939070646915E-02
 cg2d: Sum(rhs),rhsMax =  -6.84596823674610E-11  1.61105591105718E-02
 cg2d: Sum(rhs),rhsMax =  -6.84463596911655E-11  1.61274221518530E-02
 cg2d: Sum(rhs),rhsMax =  -6.84089451752357E-11  1.61446526517856E-02
 cg2d: Sum(rhs),rhsMax =  -6.84223233626824E-11  1.61622506907063E-02
 cg2d: Sum(rhs),rhsMax =  -6.84412526652523E-11  1.61802071285337E-02
 cg2d: Sum(rhs),rhsMax =  -6.84705070419511E-11  1.61984465156211E-02
 cg2d: Sum(rhs),rhsMax =  -6.85136947176090E-11  1.62169125390450E-02
 cg2d: Sum(rhs),rhsMax =  -6.84600709455196E-11  1.62355904586676E-02
 cg2d: Sum(rhs),rhsMax =  -6.84984846621717E-11  1.62544372433261E-02
 cg2d: Sum(rhs),rhsMax =  -6.84713397092196E-11  1.62731898357940E-02
 cg2d: Sum(rhs),rhsMax =  -6.84512446724739E-11  1.62916976486454E-02
 cg2d: Sum(rhs),rhsMax =  -6.84612921908467E-11  1.63099384881568E-02
 cg2d: Sum(rhs),rhsMax =  -6.84512446724739E-11  1.63279301266944E-02
 cg2d: Sum(rhs),rhsMax =  -6.84780010473673E-11  1.63457217382758E-02
 cg2d: Sum(rhs),rhsMax =  -6.84504675163566E-11  1.63633108021805E-02
 cg2d: Sum(rhs),rhsMax =  -6.84632350811398E-11  1.63801452980468E-02
 cg2d: Sum(rhs),rhsMax =  -6.84668988171211E-11  1.63961331152594E-02
 cg2d: Sum(rhs),rhsMax =  -6.84439172005114E-11  1.64112866354305E-02
 cg2d: Sum(rhs),rhsMax =  -6.84129419781243E-11  1.64256152775303E-02
 cg2d: Sum(rhs),rhsMax =  -6.83495482434182E-11  1.64390894980939E-02
 cg2d: Sum(rhs),rhsMax =  -6.83497702880231E-11  1.64516576026202E-02
 cg2d: Sum(rhs),rhsMax =  -6.83139100843277E-11  1.64633442423193E-02
 cg2d: Sum(rhs),rhsMax =  -6.83205714224755E-11  1.64741912256182E-02
 cg2d: Sum(rhs),rhsMax =  -6.83741951945649E-11  1.64842290469638E-02
 cg2d: Sum(rhs),rhsMax =  -6.84009515694584E-11  1.64934869112073E-02
 cg2d: Sum(rhs),rhsMax =  -6.84289291896789E-11  1.65019997317356E-02
 cg2d: Sum(rhs),rhsMax =  -6.85493883878507E-11  1.65098048340895E-02
 cg2d: Sum(rhs),rhsMax =  -6.81658063328427E-11  1.66275201613965E-02
 cg2d: Sum(rhs),rhsMax =  -6.76204647831469E-11  1.67902926674084E-02
 cg2d: Sum(rhs),rhsMax =  -6.70662414492540E-11  1.69472759202143E-02
 cg2d: Sum(rhs),rhsMax =  -6.66069421839666E-11  1.70983996868292E-02
 cg2d: Sum(rhs),rhsMax =  -6.61094512466320E-11  1.72435963563074E-02
 cg2d: Sum(rhs),rhsMax =  -6.56736887094667E-11  1.73828009729264E-02
 cg2d: Sum(rhs),rhsMax =  -6.52075060614266E-11  1.75159512686309E-02
 cg2d: Sum(rhs),rhsMax =  -6.48521236712440E-11  1.76429876946954E-02
 cg2d: Sum(rhs),rhsMax =  -6.45292708156830E-11  1.77638534525289E-02
 cg2d: Sum(rhs),rhsMax =  -6.42027542241408E-11  1.78784945235708E-02
 cg2d: Sum(rhs),rhsMax =  -6.39033270743994E-11  1.79868596981992E-02
 cg2d: Sum(rhs),rhsMax =  -6.35504981971735E-11  1.80889006036104E-02
 cg2d: Sum(rhs),rhsMax =  -6.33023633511698E-11  1.81845717306136E-02
 cg2d: Sum(rhs),rhsMax =  -6.31287244701184E-11  1.82738304593143E-02
 cg2d: Sum(rhs),rhsMax =  -6.29595264811655E-11  1.83566370836587E-02
 cg2d: Sum(rhs),rhsMax =  -6.27655705187635E-11  1.84329548351536E-02
 cg2d: Sum(rhs),rhsMax =  -6.25786089614166E-11  1.85027499047187E-02
 cg2d: Sum(rhs),rhsMax =  -6.24659213244172E-11  1.85659914636249E-02
 cg2d: Sum(rhs),rhsMax =  -6.23204821081913E-11  1.86226516834192E-02
 cg2d: Sum(rhs),rhsMax =  -6.21984685977850E-11  1.86727057546817E-02
 cg2d: Sum(rhs),rhsMax =  -6.21055429306239E-11  1.87161319044538E-02
 cg2d: Sum(rhs),rhsMax =  -6.19053697192840E-11  1.87529114122270E-02
 cg2d: Sum(rhs),rhsMax =  -6.18826101472791E-11  1.87830286243835E-02
 cg2d: Sum(rhs),rhsMax =  -6.18768369875511E-11  1.88064709669967E-02
 cg2d: Sum(rhs),rhsMax =  -6.17911277700500E-11  1.88232289568735E-02
 cg2d: Sum(rhs),rhsMax =  -6.18550766162684E-11  1.88332962107179E-02
 cg2d: Sum(rhs),rhsMax =  -6.19596596251881E-11  1.88366694522674E-02
 cg2d: Sum(rhs),rhsMax =  -6.21038775960869E-11  1.88333485173044E-02
 cg2d: Sum(rhs),rhsMax =  -6.22353280022026E-11  1.88233363564020E-02
 cg2d: Sum(rhs),rhsMax =  -6.21855900106993E-11  1.88066390356074E-02
 cg2d: Sum(rhs),rhsMax =  -6.23032736513096E-11  1.87832657348374E-02
 cg2d: Sum(rhs),rhsMax =  -6.24078566602293E-11  1.87532287441675E-02
 cg2d: Sum(rhs),rhsMax =  -6.24413853955730E-11  1.87165434581100E-02
 cg2d: Sum(rhs),rhsMax =  -6.25071105986308E-11  1.86732283680405E-02
 cg2d: Sum(rhs),rhsMax =  -6.26750873422566E-11  1.86233050528991E-02
 cg2d: Sum(rhs),rhsMax =  -6.28312957218213E-11  1.85667981683143E-02
 cg2d: Sum(rhs),rhsMax =  -6.30152596770017E-11  1.85037354342430E-02
 cg2d: Sum(rhs),rhsMax =  -6.31700247666345E-11  1.84341476212355E-02
 cg2d: Sum(rhs),rhsMax =  -6.33557650786543E-11  1.83580685353979E-02
 cg2d: Sum(rhs),rhsMax =  -6.35543839777597E-11  1.82755350021459E-02
 cg2d: Sum(rhs),rhsMax =  -6.37990771323871E-11  1.81865868488400E-02
 cg2d: Sum(rhs),rhsMax =  -6.40993924605482E-11  1.80912668863871E-02
 cg2d: Sum(rhs),rhsMax =  -6.43856079562966E-11  1.79896208898702E-02
 cg2d: Sum(rhs),rhsMax =  -6.47570885803361E-11  1.78816975782568E-02
 cg2d: Sum(rhs),rhsMax =  -6.51896314707301E-11  1.77675485931722E-02
 cg2d: Sum(rhs),rhsMax =  -6.55969722984651E-11  1.76472284766974E-02
 cg2d: Sum(rhs),rhsMax =  -6.59479137965491E-11  1.75207946481211E-02
 cg2d: Sum(rhs),rhsMax =  -6.63940014078435E-11  1.73883073795368E-02
 cg2d: Sum(rhs),rhsMax =  -6.68822774940736E-11  1.72498297701878E-02
 cg2d: Sum(rhs),rhsMax =  -6.74108546760976E-11  1.71054277195489E-02
 cg2d: Sum(rhs),rhsMax =  -6.78780365248599E-11  1.69551698992747E-02
 cg2d: Sum(rhs),rhsMax =  -6.84132750450317E-11  1.67991277225837E-02
 cg2d: Sum(rhs),rhsMax =  -6.89441836954074E-11  1.66373753123312E-02
 cg2d: Sum(rhs),rhsMax =  -6.96178670267500E-11  1.64699894676327E-02
 cg2d: Sum(rhs),rhsMax =  -7.02545799313725E-11  1.62988540087574E-02
 cg2d: Sum(rhs),rhsMax =  -7.01828595239817E-11  1.62919822217646E-02
 cg2d: Sum(rhs),rhsMax =  -7.01223523691397E-11  1.62855664240713E-02
 cg2d: Sum(rhs),rhsMax =  -6.99967861450546E-11  1.62799930520882E-02
 cg2d: Sum(rhs),rhsMax =  -6.98552327094148E-11  1.62753780645292E-02
 cg2d: Sum(rhs),rhsMax =  -6.98044955171895E-11  1.62716746687837E-02
 cg2d: Sum(rhs),rhsMax =  -6.97197855004106E-11  1.62688306683084E-02
 cg2d: Sum(rhs),rhsMax =  -6.96651625275990E-11  1.62667814653173E-02
 cg2d: Sum(rhs),rhsMax =  -6.96058766180840E-11  1.62654195255281E-02
 cg2d: Sum(rhs),rhsMax =  -6.95158930419382E-11  1.62646143901153E-02
 cg2d: Sum(rhs),rhsMax =  -6.94405644097174E-11  1.62643499988516E-02
 cg2d: Sum(rhs),rhsMax =  -6.94154178582096E-11  1.62646019194118E-02
 cg2d: Sum(rhs),rhsMax =  -6.93267665496933E-11  1.62653393910125E-02
 cg2d: Sum(rhs),rhsMax =  -6.92653712164315E-11  1.62665270115691E-02
 cg2d: Sum(rhs),rhsMax =  -6.92335633267760E-11  1.62680005232805E-02
 cg2d: Sum(rhs),rhsMax =  -6.92058632623116E-11  1.62695425800662E-02
 cg2d: Sum(rhs),rhsMax =  -6.91565138488670E-11  1.62711387224314E-02
 cg2d: Sum(rhs),rhsMax =  -6.91010582087870E-11  1.62731305312657E-02
 cg2d: Sum(rhs),rhsMax =  -6.90473234143951E-11  1.62754836738771E-02
 cg2d: Sum(rhs),rhsMax =  -6.90530410629719E-11  1.62781175780511E-02
 cg2d: Sum(rhs),rhsMax =  -6.89829859901181E-11  1.62809904349809E-02
 cg2d: Sum(rhs),rhsMax =  -6.88910040125279E-11  1.62840599128103E-02
 cg2d: Sum(rhs),rhsMax =  -6.88156198691559E-11  1.62872799384735E-02
 cg2d: Sum(rhs),rhsMax =  -6.86870560429043E-11  1.62906459992668E-02
 cg2d: Sum(rhs),rhsMax =  -6.86057877175017E-11  1.62941350219346E-02
 cg2d: Sum(rhs),rhsMax =  -6.85296819291636E-11  1.62977216739217E-02
 cg2d: Sum(rhs),rhsMax =  -6.85090872920568E-11  1.63013917656918E-02
 cg2d: Sum(rhs),rhsMax =  -6.84285961227715E-11  1.63051331349613E-02
 cg2d: Sum(rhs),rhsMax =  -6.83484102648180E-11  1.63089282970021E-02
 cg2d: Sum(rhs),rhsMax =  -6.82847112187801E-11  1.63128962762297E-02
 cg2d: Sum(rhs),rhsMax =  -6.81782408307186E-11  1.63171917570844E-02
 cg2d: Sum(rhs),rhsMax =  -6.80763501126336E-11  1.63217939250766E-02
 cg2d: Sum(rhs),rhsMax =  -6.80486500481692E-11  1.63267002498139E-02
 cg2d: Sum(rhs),rhsMax =  -6.79118428159597E-11  1.63318923515007E-02
 cg2d: Sum(rhs),rhsMax =  -6.78268829990003E-11  1.63373365062217E-02
 cg2d: Sum(rhs),rhsMax =  -6.77262690373936E-11  1.63430008698207E-02
 cg2d: Sum(rhs),rhsMax =  -6.76895484108542E-11  1.63488875199514E-02
 cg2d: Sum(rhs),rhsMax =  -6.75850209130857E-11  1.63550304399324E-02
 cg2d: Sum(rhs),rhsMax =  -6.75000055849750E-11  1.63614339561151E-02
 cg2d: Sum(rhs),rhsMax =  -6.74045819160085E-11  1.63682327730055E-02
 cg2d: Sum(rhs),rhsMax =  -6.72853439631638E-11  1.63755044454687E-02
 cg2d: Sum(rhs),rhsMax =  -6.71644406757821E-11  1.63832827173579E-02
 cg2d: Sum(rhs),rhsMax =  -6.70625811827197E-11  1.63915846034317E-02
 cg2d: Sum(rhs),rhsMax =  -6.69369438349721E-11  1.64004145977481E-02
 cg2d: Sum(rhs),rhsMax =  -6.67764498210599E-11  1.64099479820135E-02
 cg2d: Sum(rhs),rhsMax =  -6.67047216074135E-11  1.64202152715342E-02
 cg2d: Sum(rhs),rhsMax =  -6.66166358187503E-11  1.64311700071495E-02
 cg2d: Sum(rhs),rhsMax =  -6.64576657594118E-11  1.64426176696521E-02
 cg2d: Sum(rhs),rhsMax =  -6.63220312002721E-11  1.64544935432479E-02
 cg2d: Sum(rhs),rhsMax =  -6.61870974694168E-11  1.64667426980214E-02
 cg2d: Sum(rhs),rhsMax =  -6.61131566159767E-11  1.64794560435643E-02
 cg2d: Sum(rhs),rhsMax =  -6.60089760629035E-11  1.64925837185748E-02
 cg2d: Sum(rhs),rhsMax =  -6.58884058424292E-11  1.65060991969361E-02
 cg2d: Sum(rhs),rhsMax =  -6.57730259145950E-11  1.65199805162927E-02
 cg2d: Sum(rhs),rhsMax =  -6.56561194301020E-11  1.65342053604442E-02
 cg2d: Sum(rhs),rhsMax =  -6.55312470954073E-11  1.65487846039149E-02
 cg2d: Sum(rhs),rhsMax =  -6.54197807037349E-11  1.65637274668124E-02
 cg2d: Sum(rhs),rhsMax =  -6.52550513624561E-11  1.65789028998207E-02
 cg2d: Sum(rhs),rhsMax =  -6.50967058035690E-11  1.65942775855050E-02
 cg2d: Sum(rhs),rhsMax =  -6.49470199842739E-11  1.66099023340305E-02
 cg2d: Sum(rhs),rhsMax =  -6.47664422093186E-11  1.66257727393329E-02
 cg2d: Sum(rhs),rhsMax =  -6.45851150338217E-11  1.66418274287983E-02
 cg2d: Sum(rhs),rhsMax =  -6.45145603606068E-11  1.66580101618068E-02
 cg2d: Sum(rhs),rhsMax =  -6.44173603348008E-11  1.66743054163640E-02
 cg2d: Sum(rhs),rhsMax =  -6.42874087297685E-11  1.66907243117893E-02
 cg2d: Sum(rhs),rhsMax =  -6.41977027093787E-11  1.67074061132950E-02
 cg2d: Sum(rhs),rhsMax =  -6.41114938915166E-11  1.67243407564589E-02
 cg2d: Sum(rhs),rhsMax =  -6.39438502147982E-11  1.67415078936765E-02
 cg2d: Sum(rhs),rhsMax =  -6.38374353378879E-11  1.67589270146092E-02
 cg2d: Sum(rhs),rhsMax =  -6.37140895598520E-11  1.67766277792873E-02
 cg2d: Sum(rhs),rhsMax =  -6.35485553068804E-11  1.67945554123090E-02
 cg2d: Sum(rhs),rhsMax =  -6.34763908102798E-11  1.68126053184815E-02
 cg2d: Sum(rhs),rhsMax =  -6.33378904879578E-11  1.68307271767628E-02
 cg2d: Sum(rhs),rhsMax =  -6.31804053519147E-11  1.68487561315148E-02
 cg2d: Sum(rhs),rhsMax =  -6.30491214792528E-11  1.68666178935239E-02
 cg2d: Sum(rhs),rhsMax =  -6.29326590839696E-11  1.68842824471499E-02
 cg2d: Sum(rhs),rhsMax =  -6.28410101732868E-11  1.69017028597728E-02
 cg2d: Sum(rhs),rhsMax =  -6.27132235031524E-11  1.69187053937333E-02
 cg2d: Sum(rhs),rhsMax =  -6.25809959409196E-11  1.69352449395605E-02
 cg2d: Sum(rhs),rhsMax =  -6.24710283503305E-11  1.69513135540876E-02
 cg2d: Sum(rhs),rhsMax =  -6.23777696162620E-11  1.69669293416663E-02
 cg2d: Sum(rhs),rhsMax =  -6.22818463469343E-11  1.69820663934362E-02
 cg2d: Sum(rhs),rhsMax =  -6.21221962759932E-11  1.69966873599384E-02
 cg2d: Sum(rhs),rhsMax =  -6.19394535661399E-11  1.70107036014396E-02
 cg2d: Sum(rhs),rhsMax =  -6.17748074915880E-11  1.70239475332474E-02
 cg2d: Sum(rhs),rhsMax =  -6.16501294459226E-11  1.70361891562585E-02
 cg2d: Sum(rhs),rhsMax =  -6.15248962887449E-11  1.70473701107467E-02
 cg2d: Sum(rhs),rhsMax =  -6.13727957343713E-11  1.70574394372986E-02
 cg2d: Sum(rhs),rhsMax =  -6.12826456247717E-11  1.70663973753963E-02
 cg2d: Sum(rhs),rhsMax =  -6.10976824688692E-11  1.70743015331253E-02
 cg2d: Sum(rhs),rhsMax =  -6.10004269319120E-11  1.70812148804580E-02
 cg2d: Sum(rhs),rhsMax =  -6.08988415251588E-11  1.70872086910490E-02
 cg2d: Sum(rhs),rhsMax =  -6.08125771961454E-11  1.70924033114492E-02
 cg2d: Sum(rhs),rhsMax =  -6.07031092059174E-11  1.70968465485247E-02
 cg2d: Sum(rhs),rhsMax =  -6.05886452120785E-11  1.71005660578772E-02
 cg2d: Sum(rhs),rhsMax =  -6.04094552159040E-11  1.71035786944844E-02
 cg2d: Sum(rhs),rhsMax =  -6.03568306445368E-11  1.71059241695573E-02
 cg2d: Sum(rhs),rhsMax =  -6.02951022443676E-11  1.71076931826134E-02
 cg2d: Sum(rhs),rhsMax =  -6.01702021540973E-11  1.71089275015510E-02
 cg2d: Sum(rhs),rhsMax =  -6.01466654259752E-11  1.71096234370877E-02
 cg2d: Sum(rhs),rhsMax =  -6.00764993308189E-11  1.71097901224156E-02
 cg2d: Sum(rhs),rhsMax =  -5.99970073622558E-11  1.71094377747174E-02
 cg2d: Sum(rhs),rhsMax =  -5.99563731995545E-11  1.71086120395578E-02
 cg2d: Sum(rhs),rhsMax =  -5.99583716009988E-11  1.71073375864466E-02
 cg2d: Sum(rhs),rhsMax =  -5.98581184618752E-11  1.71056205517681E-02
 cg2d: Sum(rhs),rhsMax =  -5.97963900617060E-11  1.71034670193825E-02
 cg2d: Sum(rhs),rhsMax =  -5.96527272023195E-11  1.71008560786660E-02
 cg2d: Sum(rhs),rhsMax =  -5.96168669986241E-11  1.70977808991303E-02
 cg2d: Sum(rhs),rhsMax =  -5.95395954761102E-11  1.70942612050928E-02
 cg2d: Sum(rhs),rhsMax =  -5.95551385984550E-11  1.70903189409104E-02
 cg2d: Sum(rhs),rhsMax =  -5.94949645105203E-11  1.70859656784367E-02
 cg2d: Sum(rhs),rhsMax =  -5.94726490277253E-11  1.70811055959283E-02
 cg2d: Sum(rhs),rhsMax =  -5.94317928204191E-11  1.70757855746151E-02
 cg2d: Sum(rhs),rhsMax =  -5.93814997174036E-11  1.70699943076953E-02
 cg2d: Sum(rhs),rhsMax =  -5.92522697573372E-11  1.70637155485213E-02
 cg2d: Sum(rhs),rhsMax =  -5.91718896103544E-11  1.70569583926345E-02
 cg2d: Sum(rhs),rhsMax =  -5.92318416536841E-11  1.70497514154998E-02
 cg2d: Sum(rhs),rhsMax =  -5.93299853690610E-11  1.70421076320347E-02
 cg2d: Sum(rhs),rhsMax =  -5.91582338671515E-11  1.70340241487579E-02
 cg2d: Sum(rhs),rhsMax =  -5.90744120287923E-11  1.70253844505785E-02
 cg2d: Sum(rhs),rhsMax =  -5.91330318044925E-11  1.70161400059720E-02
 cg2d: Sum(rhs),rhsMax =  -5.92480509098436E-11  1.70060984816542E-02
 cg2d: Sum(rhs),rhsMax =  -5.92632609652810E-11  1.69951625901484E-02
 cg2d: Sum(rhs),rhsMax =  -5.93309845697831E-11  1.69833904127304E-02
 cg2d: Sum(rhs),rhsMax =  -5.94748694737746E-11  1.69708503736025E-02
 cg2d: Sum(rhs),rhsMax =  -5.95252735990925E-11  1.69575696870567E-02
 cg2d: Sum(rhs),rhsMax =  -5.96775961980711E-11  1.69435302212350E-02
 cg2d: Sum(rhs),rhsMax =  -5.98530114359619E-11  1.69285172332748E-02
 cg2d: Sum(rhs),rhsMax =  -6.00033356334961E-11  1.69125588786804E-02
 cg2d: Sum(rhs),rhsMax =  -6.01643179720668E-11  1.68956685301261E-02
 cg2d: Sum(rhs),rhsMax =  -6.03593841574934E-11  1.68778628138554E-02
 cg2d: Sum(rhs),rhsMax =  -6.04516436908398E-11  1.68591592208224E-02
 cg2d: Sum(rhs),rhsMax =  -6.05669958630983E-11  1.68395842632416E-02
 cg2d: Sum(rhs),rhsMax =  -6.07383032757980E-11  1.68191763784421E-02
 cg2d: Sum(rhs),rhsMax =  -6.08428862847177E-11  1.67979557046026E-02
 cg2d: Sum(rhs),rhsMax =  -6.09886585678510E-11  1.67759227322663E-02
 cg2d: Sum(rhs),rhsMax =  -6.10991257588012E-11  1.67530968417046E-02
 cg2d: Sum(rhs),rhsMax =  -6.13308293040404E-11  1.67295055100242E-02
 cg2d: Sum(rhs),rhsMax =  -6.14757134087540E-11  1.67051865570855E-02
 cg2d: Sum(rhs),rhsMax =  -6.17011997050554E-11  1.66801671516033E-02
 cg2d: Sum(rhs),rhsMax =  -6.18899376192417E-11  1.66543679382619E-02
 cg2d: Sum(rhs),rhsMax =  -6.20713480614654E-11  1.66278013240787E-02
 cg2d: Sum(rhs),rhsMax =  -6.22911722203412E-11  1.66005718095295E-02
 cg2d: Sum(rhs),rhsMax =  -6.25201002080189E-11  1.65727366286473E-02
 cg2d: Sum(rhs),rhsMax =  -6.26954044236072E-11  1.65443291762289E-02
 cg2d: Sum(rhs),rhsMax =  -6.29404306451420E-11  1.65153723956379E-02
 cg2d: Sum(rhs),rhsMax =  -6.31358298974760E-11  1.64859524324710E-02
 cg2d: Sum(rhs),rhsMax =  -6.33604280153577E-11  1.64559690336833E-02
 cg2d: Sum(rhs),rhsMax =  -6.35672625648454E-11  1.64253322745412E-02
 cg2d: Sum(rhs),rhsMax =  -6.37974117978501E-11  1.63942230960427E-02
 cg2d: Sum(rhs),rhsMax =  -6.39672759206178E-11  1.63626912730544E-02
 cg2d: Sum(rhs),rhsMax =  -6.41265929246515E-11  1.63307531595240E-02
 cg2d: Sum(rhs),rhsMax =  -6.43149977719304E-11  1.62983387921450E-02
 cg2d: Sum(rhs),rhsMax =  -6.45138387156408E-11  1.62654376051731E-02
 cg2d: Sum(rhs),rhsMax =  -6.46820375038715E-11  1.62320693858107E-02
 cg2d: Sum(rhs),rhsMax =  -6.48778808454153E-11  1.61982860349209E-02
 cg2d: Sum(rhs),rhsMax =  -6.50616227559908E-11  1.61641075277226E-02
 cg2d: Sum(rhs),rhsMax =  -6.52963239033966E-11  1.61295348575196E-02
 cg2d: Sum(rhs),rhsMax =  -6.54750698103612E-11  1.60945891880189E-02
 cg2d: Sum(rhs),rhsMax =  -6.56233400952999E-11  1.60592687008845E-02
 cg2d: Sum(rhs),rhsMax =  -6.58327281577442E-11  1.60235709414124E-02
 cg2d: Sum(rhs),rhsMax =  -6.59999832564040E-11  1.59875324815218E-02
 cg2d: Sum(rhs),rhsMax =  -6.61884991259853E-11  1.59513395736115E-02
 cg2d: Sum(rhs),rhsMax =  -6.63817889545726E-11  1.59150372352765E-02
 cg2d: Sum(rhs),rhsMax =  -6.66245947300581E-11  1.58785859775983E-02
 cg2d: Sum(rhs),rhsMax =  -6.68651245483431E-11  1.58419949294773E-02
 cg2d: Sum(rhs),rhsMax =  -6.70328792473640E-11  1.58052866666120E-02
(PID.TID 0000.0001)      cg2d_init_res =   8.37243988490212E-02
(PID.TID 0000.0001)      cg2d_iters(min,last) =      -1      39
(PID.TID 0000.0001)      cg2d_last_res =   6.28877301949757E-14
(PID.TID 0000.0001) // =======================================================
(PID.TID 0000.0001) // Begin MONITOR dynamic field statistics
(PID.TID 0000.0001) // =======================================================
(PID.TID 0000.0001) %MON time_tsnumber                =                  5280
(PID.TID 0000.0001) %MON time_secondsf                =   7.9200000000000E+04
(PID.TID 0000.0001) %MON dynstat_eta_max              =   2.2555543211948E-03
(PID.TID 0000.0001) %MON dynstat_eta_min              =  -6.2280394579192E-03
(PID.TID 0000.0001) %MON dynstat_eta_mean             =   2.4210038780621E-15
(PID.TID 0000.0001) %MON dynstat_eta_sd               =   1.9027265553524E-03
(PID.TID 0000.0001) %MON dynstat_eta_del2             =   1.4302098989880E-05
(PID.TID 0000.0001) %MON dynstat_uvel_max             =   1.4092639956482E+00
(PID.TID 0000.0001) %MON dynstat_uvel_min             =  -2.7971367534784E-02
(PID.TID 0000.0001) %MON dynstat_uvel_mean            =   5.6119529134044E-01
(PID.TID 0000.0001) %MON dynstat_uvel_sd              =   4.9131706690054E-02
(PID.TID 0000.0001) %MON dynstat_uvel_del2            =   4.3953501059347E-04
(PID.TID 0000.0001) %MON dynstat_vvel_max             =   0.0000000000000E+00
(PID.TID 0000.0001) %MON dynstat_vvel_min             =   0.0000000000000E+00
(PID.TID 0000.0001) %MON dynstat_vvel_mean            =   0.0000000000000E+00
(PID.TID 0000.0001) %MON dynstat_vvel_sd              =   0.0000000000000E+00
(PID.TID 0000.0001) %MON dynstat_vvel_del2            =   0.0000000000000E+00
(PID.TID 0000.0001) %MON dynstat_wvel_max             =   1.8396262978905E-02
(PID.TID 0000.0001) %MON dynstat_wvel_min             =  -1.1950341380920E-02
(PID.TID 0000.0001) %MON dynstat_wvel_mean            =  -2.2479742483108E-20
(PID.TID 0000.0001) %MON dynstat_wvel_sd              =   1.7151020993380E-03
(PID.TID 0000.0001) %MON dynstat_wvel_del2            =   3.7318677536278E-05
(PID.TID 0000.0001) %MON dynstat_theta_max            =   1.5000000000017E+01
(PID.TID 0000.0001) %MON dynstat_theta_min            =   9.9999999999995E+00
(PID.TID 0000.0001) %MON dynstat_theta_mean           =   1.4009768794621E+01
(PID.TID 0000.0001) %MON dynstat_theta_sd             =   1.9136670333667E+00
(PID.TID 0000.0001) %MON dynstat_theta_del2           =   3.7594274416157E-04
(PID.TID 0000.0001) %MON dynstat_salt_max             =   3.5000000000000E+01
(PID.TID 0000.0001) %MON dynstat_salt_min             =   3.5000000000000E+01
(PID.TID 0000.0001) %MON dynstat_salt_mean            =   3.5000000000000E+01
(PID.TID 0000.0001) %MON dynstat_salt_sd              =   4.1922021409846E-13
(PID.TID 0000.0001) %MON dynstat_salt_del2            =   0.0000000000000E+00
(PID.TID 0000.0001) %MON dynstat_sst_max              =   1.5000000000000E+01
(PID.TID 0000.0001) %MON dynstat_sst_min              =   1.4999999999999E+01
(PID.TID 0000.0001) %MON dynstat_sst_mean             =   1.5000000000000E+01
(PID.TID 0000.0001) %MON dynstat_sst_sd               =   3.6325556983736E-13
(PID.TID 0000.0001) %MON dynstat_sst_del2             =   4.7975464150769E-15
(PID.TID 0000.0001) %MON dynstat_sss_max              =   3.5000000000000E+01
(PID.TID 0000.0001) %MON dynstat_sss_min              =   3.5000000000000E+01
(PID.TID 0000.0001) %MON dynstat_sss_mean             =   3.5000000000000E+01
(PID.TID 0000.0001) %MON dynstat_sss_sd               =   2.8421709430404E-14
(PID.TID 0000.0001) %MON dynstat_sss_del2             =   0.0000000000000E+00
(PID.TID 0000.0001) %MON forcing_qnet_max             =   0.0000000000000E+00
(PID.TID 0000.0001) %MON forcing_qnet_min             =   0.0000000000000E+00
(PID.TID 0000.0001) %MON forcing_qnet_mean            =   0.0000000000000E+00
(PID.TID 0000.0001) %MON forcing_qnet_sd              =   0.0000000000000E+00
(PID.TID 0000.0001) %MON forcing_qnet_del2            =   0.0000000000000E+00
(PID.TID 0000.0001) %MON forcing_qsw_max              =   0.0000000000000E+00
(PID.TID 0000.0001) %MON forcing_qsw_min              =   0.0000000000000E+00
(PID.TID 0000.0001) %MON forcing_qsw_mean             =   0.0000000000000E+00
(PID.TID 0000.0001) %MON forcing_qsw_sd               =   0.0000000000000E+00
(PID.TID 0000.0001) %MON forcing_qsw_del2             =   0.0000000000000E+00
(PID.TID 0000.0001) %MON forcing_empmr_max            =   0.0000000000000E+00
(PID.TID 0000.0001) %MON forcing_empmr_min            =   0.0000000000000E+00
(PID.TID 0000.0001) %MON forcing_empmr_mean           =   0.0000000000000E+00
(PID.TID 0000.0001) %MON forcing_empmr_sd             =   0.0000000000000E+00
(PID.TID 0000.0001) %MON forcing_empmr_del2           =   0.0000000000000E+00
(PID.TID 0000.0001) %MON forcing_fu_max               =   0.0000000000000E+00
(PID.TID 0000.0001) %MON forcing_fu_min               =   0.0000000000000E+00
(PID.TID 0000.0001) %MON forcing_fu_mean              =   0.0000000000000E+00
(PID.TID 0000.0001) %MON forcing_fu_sd                =   0.0000000000000E+00
(PID.TID 0000.0001) %MON forcing_fu_del2              =   0.0000000000000E+00
(PID.TID 0000.0001) %MON forcing_fv_max               =   0.0000000000000E+00
(PID.TID 0000.0001) %MON forcing_fv_min               =   0.0000000000000E+00
(PID.TID 0000.0001) %MON forcing_fv_mean              =   0.0000000000000E+00
(PID.TID 0000.0001) %MON forcing_fv_sd                =   0.0000000000000E+00
(PID.TID 0000.0001) %MON forcing_fv_del2              =   0.0000000000000E+00
(PID.TID 0000.0001) %MON advcfl_uvel_max              =   1.0177196938986E-01
(PID.TID 0000.0001) %MON advcfl_vvel_max              =   0.0000000000000E+00
(PID.TID 0000.0001) %MON advcfl_wvel_max              =   9.0318990144073E-02
(PID.TID 0000.0001) %MON advcfl_W_hf_max              =   1.0283280981659E-01
(PID.TID 0000.0001) %MON pe_b_mean                    =   8.8975632422924E-08
(PID.TID 0000.0001) %MON ke_max                       =   5.0168168433344E-01
(PID.TID 0000.0001) %MON ke_mean                      =   1.5870278574241E-01
(PID.TID 0000.0001) %MON ke_vol                       =   9.7476098603737E+10
(PID.TID 0000.0001) %MON vort_r_min                   =   0.0000000000000E+00
(PID.TID 0000.0001) %MON vort_r_max                   =   0.0000000000000E+00
(PID.TID 0000.0001) %MON vort_a_mean                  =   0.0000000000000E+00
(PID.TID 0000.0001) %MON vort_a_sd                    =   0.0000000000000E+00
(PID.TID 0000.0001) %MON vort_p_mean                  =   0.0000000000000E+00
(PID.TID 0000.0001) %MON vort_p_sd                    =   0.0000000000000E+00
(PID.TID 0000.0001) %MON surfExpan_theta_mean         =  -8.1586961113462E-20
(PID.TID 0000.0001) %MON surfExpan_salt_mean          =  -1.1843493812990E-18
(PID.TID 0000.0001) // =======================================================
(PID.TID 0000.0001) // End MONITOR dynamic field statistics
(PID.TID 0000.0001) // =======================================================
(PID.TID 0000.0001) // =======================================================
(PID.TID 0000.0001) // Begin OBCS MONITOR field statistics
(PID.TID 0000.0001) // =======================================================
(PID.TID 0000.0001) %MON obc_E_uVel_max               =   5.6028564143658E-01
(PID.TID 0000.0001) %MON obc_E_uVel_min               =   5.6028564143658E-01
(PID.TID 0000.0001) %MON obc_E_uVel_mean              =   5.6028564143658E-01
(PID.TID 0000.0001) %MON obc_E_uVel_sd                =   1.0536712127724E-08
(PID.TID 0000.0001) %MON obc_E_uVel_Int               =   5.6028564143658E+05
(PID.TID 0000.0001) %MON obc_W_uVel_max               =   5.6028564143658E-01
(PID.TID 0000.0001) %MON obc_W_uVel_min               =   5.6028564143658E-01
(PID.TID 0000.0001) %MON obc_W_uVel_mean              =   5.6028564143658E-01
(PID.TID 0000.0001) %MON obc_W_uVel_sd                =   1.0536712127724E-08
(PID.TID 0000.0001) %MON obc_W_uVel_Int               =   5.6028564143658E+05
(PID.TID 0000.0001) // =======================================================
(PID.TID 0000.0001) // End OBCS MONITOR field statistics
(PID.TID 0000.0001) // =======================================================
 cg2d: Sum(rhs),rhsMax =  -6.72006894575361E-11  1.57684872489512E-02
 cg2d: Sum(rhs),rhsMax =  -6.74610922679619E-11  1.57316055641029E-02
 cg2d: Sum(rhs),rhsMax =  -6.76343980821059E-11  1.56946785761381E-02
 cg2d: Sum(rhs),rhsMax =  -6.78467282355655E-11  1.56577479211054E-02
 cg2d: Sum(rhs),rhsMax =  -6.80431821997729E-11  1.56208552160565E-02
 cg2d: Sum(rhs),rhsMax =  -6.81716905148733E-11  1.56034131479907E-02
 cg2d: Sum(rhs),rhsMax =  -6.81554812587137E-11  1.56302491300209E-02
 cg2d: Sum(rhs),rhsMax =  -6.80959177934426E-11  1.56562304046092E-02
 cg2d: Sum(rhs),rhsMax =  -6.80719924872619E-11  1.56814330808422E-02
 cg2d: Sum(rhs),rhsMax =  -6.81022460646830E-11  1.57059172534589E-02
 cg2d: Sum(rhs),rhsMax =  -6.80845657630158E-11  1.57297599153087E-02
 cg2d: Sum(rhs),rhsMax =  -6.80764888905117E-11  1.57530102925494E-02
 cg2d: Sum(rhs),rhsMax =  -6.80334122371562E-11  1.57756636777246E-02
 cg2d: Sum(rhs),rhsMax =  -6.79956091431677E-11  1.57977130944264E-02
 cg2d: Sum(rhs),rhsMax =  -6.80155931576110E-11  1.58191555538605E-02
 cg2d: Sum(rhs),rhsMax =  -6.80459577573345E-11  1.58400080452620E-02
 cg2d: Sum(rhs),rhsMax =  -6.80679679287977E-11  1.58603515569644E-02
 cg2d: Sum(rhs),rhsMax =  -6.80554224086194E-11  1.58805251253591E-02
 cg2d: Sum(rhs),rhsMax =  -6.80242251416274E-11  1.59006554729759E-02
 cg2d: Sum(rhs),rhsMax =  -6.79646894319319E-11  1.59207437053239E-02
 cg2d: Sum(rhs),rhsMax =  -6.79363787448040E-11  1.59408179137690E-02
 cg2d: Sum(rhs),rhsMax =  -6.78955364152856E-11  1.59609127583825E-02
 cg2d: Sum(rhs),rhsMax =  -6.78827966060780E-11  1.59811938125401E-02
 cg2d: Sum(rhs),rhsMax =  -6.78775785578623E-11  1.60016877244681E-02
 cg2d: Sum(rhs),rhsMax =  -6.78325798308954E-11  1.60223913179307E-02
 cg2d: Sum(rhs),rhsMax =  -6.78253165437015E-11  1.60433252506246E-02
 cg2d: Sum(rhs),rhsMax =  -6.78534137514217E-11  1.60644949394953E-02
 cg2d: Sum(rhs),rhsMax =  -6.78650746710474E-11  1.60858725288057E-02
 cg2d: Sum(rhs),rhsMax =  -6.78069406179205E-11  1.61074492027972E-02
 cg2d: Sum(rhs),rhsMax =  -6.77732800435926E-11  1.61292218950318E-02
 cg2d: Sum(rhs),rhsMax =  -6.76850242520288E-11  1.61512084170746E-02
 cg2d: Sum(rhs),rhsMax =  -6.76429606771833E-11  1.61734086176948E-02
 cg2d: Sum(rhs),rhsMax =  -6.75696582019825E-11  1.61958120007837E-02
 cg2d: Sum(rhs),rhsMax =  -6.75666189664526E-11  1.62184259390972E-02
 cg2d: Sum(rhs),rhsMax =  -6.75164646413151E-11  1.62412065866848E-02
 cg2d: Sum(rhs),rhsMax =  -6.74631184249819E-11  1.62641575870590E-02
 cg2d: Sum(rhs),rhsMax =  -6.74327260696828E-11  1.62872708565266E-02
 cg2d: Sum(rhs),rhsMax =  -6.74099109865267E-11  1.63105299853533E-02
 cg2d: Sum(rhs),rhsMax =  -6.73917310844985E-11  1.63335440475905E-02
 cg2d: Sum(rhs),rhsMax =  -6.73866240585852E-11  1.63570320598189E-02
 cg2d: Sum(rhs),rhsMax =  -6.72930045020337E-11  1.63806206002052E-02
 cg2d: Sum(rhs),rhsMax =  -6.72751299113372E-11  1.64042494768252E-02
 cg2d: Sum(rhs),rhsMax =  -6.71979138999745E-11  1.64279417083290E-02
 cg2d: Sum(rhs),rhsMax =  -6.71822875109029E-11  1.64518016154496E-02
 cg2d: Sum(rhs),rhsMax =  -6.71509514660329E-11  1.64758214128826E-02
 cg2d: Sum(rhs),rhsMax =  -6.71056543666282E-11  1.64999854613240E-02
 cg2d: Sum(rhs),rhsMax =  -6.71124822382296E-11  1.65242718630442E-02
 cg2d: Sum(rhs),rhsMax =  -6.70594690888038E-11  1.65486475152156E-02
 cg2d: Sum(rhs),rhsMax =  -6.69919120177553E-11  1.65731035594669E-02
 cg2d: Sum(rhs),rhsMax =  -6.69564959032698E-11  1.65976281031905E-02
 cg2d: Sum(rhs),rhsMax =  -6.68959332372765E-11  1.66222144014232E-02
 cg2d: Sum(rhs),rhsMax =  -6.68333721698389E-11  1.66468515433277E-02
 cg2d: Sum(rhs),rhsMax =  -6.68405331083477E-11  1.66715577457789E-02
 cg2d: Sum(rhs),rhsMax =  -6.67679800336884E-11  1.66963127859487E-02
 cg2d: Sum(rhs),rhsMax =  -6.67613742066919E-11  1.67210759353818E-02
 cg2d: Sum(rhs),rhsMax =  -6.66980359831371E-11  1.67456089254687E-02
 cg2d: Sum(rhs),rhsMax =  -6.66491861700536E-11  1.67698525580155E-02
 cg2d: Sum(rhs),rhsMax =  -6.66062205390006E-11  1.67938256108009E-02
 cg2d: Sum(rhs),rhsMax =  -6.65547617018092E-11  1.68175126617029E-02
 cg2d: Sum(rhs),rhsMax =  -6.64935329020011E-11  1.68408931817597E-02
 cg2d: Sum(rhs),rhsMax =  -6.63636368081200E-11  1.68639476182111E-02
 cg2d: Sum(rhs),rhsMax =  -6.63007981849262E-11  1.68863641032477E-02
 cg2d: Sum(rhs),rhsMax =  -6.62308541343748E-11  1.69088830416825E-02
 cg2d: Sum(rhs),rhsMax =  -6.61952159752843E-11  1.69312365904299E-02
 cg2d: Sum(rhs),rhsMax =  -6.61478094521328E-11  1.69533552610415E-02
 cg2d: Sum(rhs),rhsMax =  -6.60609345004559E-11  1.69752348889138E-02
 cg2d: Sum(rhs),rhsMax =  -6.60199672708472E-11  1.69968546171302E-02
 cg2d: Sum(rhs),rhsMax =  -6.59349241871610E-11  1.70181862322821E-02
 cg2d: Sum(rhs),rhsMax =  -6.59606813613323E-11  1.70392085014280E-02
 cg2d: Sum(rhs),rhsMax =  -6.59589050044929E-11  1.70599072815053E-02
 cg2d: Sum(rhs),rhsMax =  -6.59780008405164E-11  1.70802716233892E-02
 cg2d: Sum(rhs),rhsMax =  -6.59777787959115E-11  1.71001810612092E-02
 cg2d: Sum(rhs),rhsMax =  -6.59923227175341E-11  1.71198567931384E-02
 cg2d: Sum(rhs),rhsMax =  -6.59859944462937E-11  1.71389974673312E-02
 cg2d: Sum(rhs),rhsMax =  -6.60370647054265E-11  1.71577819556359E-02
 cg2d: Sum(rhs),rhsMax =  -6.60093091298108E-11  1.71760957712984E-02
 cg2d: Sum(rhs),rhsMax =  -6.59776677736090E-11  1.71938380683889E-02
 cg2d: Sum(rhs),rhsMax =  -6.59816645764977E-11  1.72112322491614E-02
 cg2d: Sum(rhs),rhsMax =  -6.60064225499468E-11  1.72280786394957E-02
 cg2d: Sum(rhs),rhsMax =  -6.59431398375432E-11  1.72445712427046E-02
 cg2d: Sum(rhs),rhsMax =  -6.58980647827434E-11  1.72605280648933E-02
 cg2d: Sum(rhs),rhsMax =  -6.58260113084452E-11  1.72761431705298E-02
 cg2d: Sum(rhs),rhsMax =  -6.58471055459131E-11  1.72912155649521E-02
 cg2d: Sum(rhs),rhsMax =  -6.57900400824474E-11  1.73059367550564E-02
 cg2d: Sum(rhs),rhsMax =  -6.57625065514367E-11  1.73199975681955E-02
 cg2d: Sum(rhs),rhsMax =  -6.57818244320652E-11  1.73332603680994E-02
 cg2d: Sum(rhs),rhsMax =  -6.57351950650309E-11  1.73455793014895E-02
 cg2d: Sum(rhs),rhsMax =  -6.58394450070432E-11  1.73571108781205E-02
 cg2d: Sum(rhs),rhsMax =  -6.59199361763285E-11  1.73679727278517E-02
 cg2d: Sum(rhs),rhsMax =  -6.57610632615047E-11  1.74274818709761E-02
 cg2d: Sum(rhs),rhsMax =  -6.56795728914972E-11  1.74895985767702E-02
 cg2d: Sum(rhs),rhsMax =  -6.55374643443452E-11  1.75456810610539E-02
 cg2d: Sum(rhs),rhsMax =  -6.53826992547124E-11  1.75957053548066E-02
 cg2d: Sum(rhs),rhsMax =  -6.52252696298206E-11  1.76396502708220E-02
 cg2d: Sum(rhs),rhsMax =  -6.51793063966011E-11  1.76774974162700E-02
 cg2d: Sum(rhs),rhsMax =  -6.50105524968581E-11  1.77092312040382E-02
 cg2d: Sum(rhs),rhsMax =  -6.49472697844544E-11  1.77348388627464E-02
 cg2d: Sum(rhs),rhsMax =  -6.49295062160604E-11  1.77543104452896E-02
 cg2d: Sum(rhs),rhsMax =  -6.48784359569277E-11  1.77676388357833E-02
 cg2d: Sum(rhs),rhsMax =  -6.50137721436295E-11  1.77748197548138E-02
 cg2d: Sum(rhs),rhsMax =  -6.51130260820310E-11  1.77758517629658E-02
 cg2d: Sum(rhs),rhsMax =  -6.52733422867868E-11  1.77707362626487E-02
 cg2d: Sum(rhs),rhsMax =  -6.53960219310079E-11  1.77594774982482E-02
 cg2d: Sum(rhs),rhsMax =  -6.54958309809217E-11  1.77420825548720E-02
 cg2d: Sum(rhs),rhsMax =  -6.55135945493157E-11  1.77185613554798E-02
 cg2d: Sum(rhs),rhsMax =  -6.56191767589576E-11  1.76889266565458E-02
 cg2d: Sum(rhs),rhsMax =  -6.56725784864420E-11  1.76531940422527E-02
 cg2d: Sum(rhs),rhsMax =  -6.57723875363558E-11  1.76113819172390E-02
 cg2d: Sum(rhs),rhsMax =  -6.59903243160898E-11  1.75635114978781E-02
 cg2d: Sum(rhs),rhsMax =  -6.61088961351197E-11  1.75383697832227E-02
 cg2d: Sum(rhs),rhsMax =  -6.60774768235228E-11  1.75465489947868E-02
 cg2d: Sum(rhs),rhsMax =  -6.60779209127327E-11  1.75546387039863E-02
 cg2d: Sum(rhs),rhsMax =  -6.59942100966759E-11  1.75626248436131E-02
 cg2d: Sum(rhs),rhsMax =  -6.59244880907295E-11  1.75704913863923E-02
 cg2d: Sum(rhs),rhsMax =  -6.57971455098050E-11  1.75781939534795E-02
 cg2d: Sum(rhs),rhsMax =  -6.57222054556428E-11  1.75857084273420E-02
 cg2d: Sum(rhs),rhsMax =  -6.56712462188125E-11  1.75928617724779E-02
 cg2d: Sum(rhs),rhsMax =  -6.55835385998671E-11  1.75995719926930E-02
 cg2d: Sum(rhs),rhsMax =  -6.55051568543286E-11  1.76058368927429E-02
 cg2d: Sum(rhs),rhsMax =  -6.54363230268018E-11  1.76116281595365E-02
 cg2d: Sum(rhs),rhsMax =  -6.54043486036926E-11  1.76168838821082E-02
 cg2d: Sum(rhs),rhsMax =  -6.53327392186043E-11  1.76213821518494E-02
 cg2d: Sum(rhs),rhsMax =  -6.52983223048409E-11  1.76250751734374E-02
 cg2d: Sum(rhs),rhsMax =  -6.52530252054362E-11  1.76279197423754E-02
 cg2d: Sum(rhs),rhsMax =  -6.52131681988521E-11  1.76298850129182E-02
 cg2d: Sum(rhs),rhsMax =  -6.51079190561177E-11  1.76309932679572E-02
 cg2d: Sum(rhs),rhsMax =  -6.50526299494913E-11  1.76312670053265E-02
 cg2d: Sum(rhs),rhsMax =  -6.49210685210733E-11  1.76307507025306E-02
 cg2d: Sum(rhs),rhsMax =  -6.48426312643835E-11  1.76294728002504E-02
 cg2d: Sum(rhs),rhsMax =  -6.47112918805703E-11  1.76274569811225E-02
 cg2d: Sum(rhs),rhsMax =  -6.46119269198664E-11  1.76247393953695E-02
 cg2d: Sum(rhs),rhsMax =  -6.45335451743279E-11  1.76213440828482E-02
 cg2d: Sum(rhs),rhsMax =  -6.43999298333142E-11  1.76172791693861E-02
 cg2d: Sum(rhs),rhsMax =  -6.42709219178528E-11  1.76125979634816E-02
 cg2d: Sum(rhs),rhsMax =  -6.42282338425559E-11  1.76073856649763E-02
 cg2d: Sum(rhs),rhsMax =  -6.40557606956804E-11  1.76016862755685E-02
 cg2d: Sum(rhs),rhsMax =  -6.39873709573635E-11  1.75955587397314E-02
 cg2d: Sum(rhs),rhsMax =  -6.38281094644810E-11  1.75857176379541E-02
 cg2d: Sum(rhs),rhsMax =  -6.37612185272474E-11  1.75788829390366E-02
 cg2d: Sum(rhs),rhsMax =  -6.36763419770148E-11  1.75721160880541E-02
 cg2d: Sum(rhs),rhsMax =  -6.35912988933285E-11  1.75649711760618E-02
 cg2d: Sum(rhs),rhsMax =  -6.35159147499564E-11  1.75576265441505E-02
 cg2d: Sum(rhs),rhsMax =  -6.34329810900169E-11  1.75501441149249E-02
 cg2d: Sum(rhs),rhsMax =  -6.34564067958365E-11  1.75425171296137E-02
 cg2d: Sum(rhs),rhsMax =  -6.34631236451355E-11  1.75345959408858E-02
 cg2d: Sum(rhs),rhsMax =  -6.34395314058622E-11  1.75263929323039E-02
 cg2d: Sum(rhs),rhsMax =  -6.33841867880847E-11  1.75179311880730E-02
 cg2d: Sum(rhs),rhsMax =  -6.33896268809053E-11  1.75091771506142E-02
 cg2d: Sum(rhs),rhsMax =  -6.33590402365769E-11  1.75000949699723E-02
 cg2d: Sum(rhs),rhsMax =  -6.33296748375756E-11  1.74907445295222E-02
 cg2d: Sum(rhs),rhsMax =  -6.33350594192450E-11  1.74811158851705E-02
 cg2d: Sum(rhs),rhsMax =  -6.33314511944150E-11  1.74711056153064E-02
 cg2d: Sum(rhs),rhsMax =  -6.33365582203282E-11  1.74607226595506E-02
 cg2d: Sum(rhs),rhsMax =  -6.33076091549611E-11  1.74500002064018E-02
 cg2d: Sum(rhs),rhsMax =  -6.32701668834557E-11  1.74389819201157E-02
 cg2d: Sum(rhs),rhsMax =  -6.33096353119811E-11  1.74277137166390E-02
 cg2d: Sum(rhs),rhsMax =  -6.32404961731226E-11  1.74162055206477E-02
 cg2d: Sum(rhs),rhsMax =  -6.32433272418353E-11  1.74044780873609E-02
 cg2d: Sum(rhs),rhsMax =  -6.32338903461260E-11  1.73925422203665E-02
 cg2d: Sum(rhs),rhsMax =  -6.31974195197671E-11  1.73802744201002E-02
 cg2d: Sum(rhs),rhsMax =  -6.31748819923672E-11  1.73676067987350E-02
 cg2d: Sum(rhs),rhsMax =  -6.31394658778817E-11  1.73545765514970E-02
 cg2d: Sum(rhs),rhsMax =  -6.31386332106132E-11  1.73412656636506E-02
 cg2d: Sum(rhs),rhsMax =  -6.30760166320243E-11  1.73277056084829E-02
 cg2d: Sum(rhs),rhsMax =  -6.30577534632693E-11  1.73138198243329E-02
 cg2d: Sum(rhs),rhsMax =  -6.30235724718986E-11  1.72993639943790E-02
 cg2d: Sum(rhs),rhsMax =  -6.29795521289722E-11  1.72846050019496E-02
 cg2d: Sum(rhs),rhsMax =  -6.29782545558122E-11  1.72698346010122E-02
 cg2d: Sum(rhs),rhsMax =  -6.29860885670297E-11  1.72550556435302E-02
 cg2d: Sum(rhs),rhsMax =  -6.29399206364400E-11  1.72402394581744E-02
 cg2d: Sum(rhs),rhsMax =  -6.29233054549871E-11  1.72253896456339E-02
 cg2d: Sum(rhs),rhsMax =  -6.29277695490121E-11  1.72105322679297E-02
 cg2d: Sum(rhs),rhsMax =  -6.28924742146486E-11  1.71956915065966E-02
 cg2d: Sum(rhs),rhsMax =  -6.28155652493412E-11  1.71808934600676E-02
 cg2d: Sum(rhs),rhsMax =  -6.28123317247820E-11  1.71662110145204E-02
 cg2d: Sum(rhs),rhsMax =  -6.28348970077575E-11  1.71516816102509E-02
 cg2d: Sum(rhs),rhsMax =  -6.27982249534753E-11  1.71373206265738E-02
 cg2d: Sum(rhs),rhsMax =  -6.28011809222784E-11  1.71231217933634E-02
 cg2d: Sum(rhs),rhsMax =  -6.28061630481014E-11  1.71092020098626E-02
 cg2d: Sum(rhs),rhsMax =  -6.28254254175786E-11  1.70950198626133E-02
 cg2d: Sum(rhs),rhsMax =  -6.27799479069324E-11  1.70819177746038E-02
 cg2d: Sum(rhs),rhsMax =  -6.27622120941140E-11  1.70694696841518E-02
 cg2d: Sum(rhs),rhsMax =  -6.27839724653967E-11  1.70575486291198E-02
 cg2d: Sum(rhs),rhsMax =  -6.27896623583979E-11  1.70461716245939E-02
 cg2d: Sum(rhs),rhsMax =  -6.27367602312745E-11  1.70353316156684E-02
 cg2d: Sum(rhs),rhsMax =  -6.27699558997108E-11  1.70250044049782E-02
 cg2d: Sum(rhs),rhsMax =  -6.27001228714619E-11  1.70151753537097E-02
 cg2d: Sum(rhs),rhsMax =  -6.26912133316893E-11  1.70058472509770E-02
 cg2d: Sum(rhs),rhsMax =  -6.26319274221743E-11  1.69970332482301E-02
 cg2d: Sum(rhs),rhsMax =  -6.26584062413116E-11  1.69887804058003E-02
 cg2d: Sum(rhs),rhsMax =  -6.26027008010510E-11  1.69810662010082E-02
 cg2d: Sum(rhs),rhsMax =  -6.25017815281126E-11  1.69737583070612E-02
 cg2d: Sum(rhs),rhsMax =  -6.24614804323187E-11  1.69667663688248E-02
 cg2d: Sum(rhs),rhsMax =  -6.24154061767968E-11  1.69600684162836E-02
 cg2d: Sum(rhs),rhsMax =  -6.24127416415377E-11  1.69536248590450E-02
 cg2d: Sum(rhs),rhsMax =  -6.23961438073195E-11  1.69473851851692E-02
 cg2d: Sum(rhs),rhsMax =  -6.23392448773075E-11  1.69413010336345E-02
 cg2d: Sum(rhs),rhsMax =  -6.23592288917507E-11  1.69354277792249E-02
 cg2d: Sum(rhs),rhsMax =  -6.23530671539640E-11  1.69296860122244E-02
 cg2d: Sum(rhs),rhsMax =  -6.22876750178136E-11  1.69240132917950E-02
 cg2d: Sum(rhs),rhsMax =  -6.22541462824699E-11  1.69183589108570E-02
 cg2d: Sum(rhs),rhsMax =  -6.22604745537103E-11  1.69126771905983E-02
 cg2d: Sum(rhs),rhsMax =  -6.22246698611661E-11  1.69069250836539E-02
 cg2d: Sum(rhs),rhsMax =  -6.22080720269480E-11  1.69010507894068E-02
 cg2d: Sum(rhs),rhsMax =  -6.21570017678152E-11  1.68949900163090E-02
 cg2d: Sum(rhs),rhsMax =  -6.21095952446638E-11  1.68886843457373E-02
 cg2d: Sum(rhs),rhsMax =  -6.20764550873787E-11  1.68820479088824E-02
 cg2d: Sum(rhs),rhsMax =  -6.19569395787778E-11  1.68749900105840E-02
 cg2d: Sum(rhs),rhsMax =  -6.18886608627633E-11  1.68674741210648E-02
 cg2d: Sum(rhs),rhsMax =  -6.17654816181812E-11  1.68594749820026E-02
 cg2d: Sum(rhs),rhsMax =  -6.16686146592826E-11  1.68509830539420E-02
 cg2d: Sum(rhs),rhsMax =  -6.15843487317136E-11  1.68419810394329E-02
 cg2d: Sum(rhs),rhsMax =  -6.15335560283370E-11  1.68324336176392E-02
 cg2d: Sum(rhs),rhsMax =  -6.15275608240040E-11  1.68223026389374E-02
 cg2d: Sum(rhs),rhsMax =  -6.14683859367915E-11  1.68115747852811E-02
 cg2d: Sum(rhs),rhsMax =  -6.13867845444815E-11  1.68003270595562E-02
 cg2d: Sum(rhs),rhsMax =  -6.13090689327578E-11  1.67885243805575E-02
 cg2d: Sum(rhs),rhsMax =  -6.12602191196743E-11  1.67761329854537E-02
 cg2d: Sum(rhs),rhsMax =  -6.11742878575683E-11  1.67631330147324E-02
 cg2d: Sum(rhs),rhsMax =  -6.11075634537883E-11  1.67495066031487E-02
 cg2d: Sum(rhs),rhsMax =  -6.10872463724377E-11  1.67352396404206E-02
 cg2d: Sum(rhs),rhsMax =  -6.10483885665758E-11  1.67203149914344E-02
 cg2d: Sum(rhs),rhsMax =  -6.10179684557011E-11  1.67046629536700E-02
 cg2d: Sum(rhs),rhsMax =  -6.10415051838231E-11  1.66883823961781E-02
 cg2d: Sum(rhs),rhsMax =  -6.09866601664066E-11  1.66714168063852E-02
 cg2d: Sum(rhs),rhsMax =  -6.10000938650046E-11  1.66537078457333E-02
 cg2d: Sum(rhs),rhsMax =  -6.09673422857782E-11  1.66352362585729E-02
 cg2d: Sum(rhs),rhsMax =  -6.09819972297032E-11  1.66159637533193E-02
 cg2d: Sum(rhs),rhsMax =  -6.09573502785565E-11  1.65959521815660E-02
 cg2d: Sum(rhs),rhsMax =  -6.09142736252011E-11  1.65752481654215E-02
 cg2d: Sum(rhs),rhsMax =  -6.09025052611400E-11  1.65538512192463E-02
 cg2d: Sum(rhs),rhsMax =  -6.09302608367557E-11  1.65317547975206E-02
 cg2d: Sum(rhs),rhsMax =  -6.09611250368403E-11  1.65089584636331E-02
 cg2d: Sum(rhs),rhsMax =  -6.09290395914286E-11  1.64855461826556E-02
 cg2d: Sum(rhs),rhsMax =  -6.09410300000945E-11  1.64615930155479E-02
 cg2d: Sum(rhs),rhsMax =  -6.09916561700174E-11  1.64371082795111E-02
 cg2d: Sum(rhs),rhsMax =  -6.10691497371363E-11  1.64121020293389E-02
 cg2d: Sum(rhs),rhsMax =  -6.11852790655121E-11  1.63865658988210E-02
 cg2d: Sum(rhs),rhsMax =  -6.12777606434634E-11  1.63605005430038E-02
 cg2d: Sum(rhs),rhsMax =  -6.13088468881529E-11  1.63339283402088E-02
 cg2d: Sum(rhs),rhsMax =  -6.13473716271073E-11  1.63068698322884E-02
 cg2d: Sum(rhs),rhsMax =  -6.14881479066298E-11  1.62793378644721E-02
 cg2d: Sum(rhs),rhsMax =  -6.15956174954135E-11  1.62513442983639E-02
 cg2d: Sum(rhs),rhsMax =  -6.16932060992781E-11  1.62229499721948E-02
 cg2d: Sum(rhs),rhsMax =  -6.18090023607465E-11  1.61944611618297E-02
 cg2d: Sum(rhs),rhsMax =  -6.19942985835564E-11  1.61659521821970E-02
 cg2d: Sum(rhs),rhsMax =  -6.18871620616801E-11  1.61951829679226E-02
 cg2d: Sum(rhs),rhsMax =  -6.17652595735763E-11  1.62317916855960E-02
 cg2d: Sum(rhs),rhsMax =  -6.16341422343680E-11  1.62676814110021E-02
 cg2d: Sum(rhs),rhsMax =  -6.14873707505126E-11  1.63026517644991E-02
 cg2d: Sum(rhs),rhsMax =  -6.14227557704794E-11  1.63366847670120E-02
 cg2d: Sum(rhs),rhsMax =  -6.13828987638954E-11  1.63697787818873E-02
 cg2d: Sum(rhs),rhsMax =  -6.13222805867508E-11  1.64019732917667E-02
 cg2d: Sum(rhs),rhsMax =  -6.12786488218831E-11  1.64332660512014E-02
 cg2d: Sum(rhs),rhsMax =  -6.12976336356041E-11  1.64636506650836E-02
 cg2d: Sum(rhs),rhsMax =  -6.12677686362417E-11  1.64931246596558E-02
 cg2d: Sum(rhs),rhsMax =  -6.13210593414237E-11  1.65216878572049E-02
 cg2d: Sum(rhs),rhsMax =  -6.13830097861978E-11  1.65493455194309E-02
 cg2d: Sum(rhs),rhsMax =  -6.13927797488145E-11  1.65761009122498E-02
 cg2d: Sum(rhs),rhsMax =  -6.13334938392995E-11  1.66019479387845E-02
 cg2d: Sum(rhs),rhsMax =  -6.12959683010672E-11  1.66269065161485E-02
 cg2d: Sum(rhs),rhsMax =  -6.12866424276604E-11  1.66509838487928E-02
 cg2d: Sum(rhs),rhsMax =  -6.12576656067176E-11  1.66741894789917E-02
 cg2d: Sum(rhs),rhsMax =  -6.12725425952476E-11  1.66965380647839E-02
 cg2d: Sum(rhs),rhsMax =  -6.12272454958429E-11  1.67180378084778E-02
 cg2d: Sum(rhs),rhsMax =  -6.11836137309751E-11  1.67386996944982E-02
 cg2d: Sum(rhs),rhsMax =  -6.11592998467358E-11  1.67585461079856E-02
 cg2d: Sum(rhs),rhsMax =  -6.11575234898964E-11  1.67775958003019E-02
 cg2d: Sum(rhs),rhsMax =  -6.11565242891743E-11  1.67958675202066E-02
 cg2d: Sum(rhs),rhsMax =  -6.11642958503467E-11  1.68133648745476E-02
 cg2d: Sum(rhs),rhsMax =  -6.12133677080351E-11  1.68301153395243E-02
 cg2d: Sum(rhs),rhsMax =  -6.12223605145346E-11  1.68461386477793E-02
 cg2d: Sum(rhs),rhsMax =  -6.12276895850528E-11  1.68614561649265E-02
 cg2d: Sum(rhs),rhsMax =  -6.12813133571422E-11  1.68763093700858E-02
 cg2d: Sum(rhs),rhsMax =  -6.13352701961389E-11  1.68908332340255E-02
 cg2d: Sum(rhs),rhsMax =  -6.13632478163595E-11  1.69050430914274E-02
 cg2d: Sum(rhs),rhsMax =  -6.13903372581603E-11  1.69189447168742E-02
 cg2d: Sum(rhs),rhsMax =  -6.14834849699264E-11  1.69325525498327E-02
 cg2d: Sum(rhs),rhsMax =  -6.15122397462642E-11  1.69458840613270E-02
 cg2d: Sum(rhs),rhsMax =  -6.15957285177160E-11  1.69589596328997E-02
 cg2d: Sum(rhs),rhsMax =  -6.17363382637848E-11  1.69717832624680E-02
 cg2d: Sum(rhs),rhsMax =  -6.18100570726199E-11  1.69843834787667E-02
 cg2d: Sum(rhs),rhsMax =  -6.18005091546081E-11  1.69967719069798E-02
 cg2d: Sum(rhs),rhsMax =  -6.17635387278881E-11  1.70089631232539E-02
 cg2d: Sum(rhs),rhsMax =  -6.17811357628284E-11  1.70209671057232E-02
 cg2d: Sum(rhs),rhsMax =  -6.17795259394427E-11  1.70327960809538E-02
 cg2d: Sum(rhs),rhsMax =  -6.18019524445401E-11  1.70444532053299E-02
 cg2d: Sum(rhs),rhsMax =  -6.18405882057971E-11  1.70559457404893E-02
 cg2d: Sum(rhs),rhsMax =  -6.17833006977264E-11  1.70671830902076E-02
 cg2d: Sum(rhs),rhsMax =  -6.18003426211544E-11  1.70783495517986E-02
 cg2d: Sum(rhs),rhsMax =  -6.18534667928827E-11  1.70894049423226E-02
 cg2d: Sum(rhs),rhsMax =  -6.18946005559451E-11  1.71003361176810E-02
 cg2d: Sum(rhs),rhsMax =  -6.18716189393353E-11  1.71111397006062E-02
 cg2d: Sum(rhs),rhsMax =  -6.18738393853846E-11  1.71217761978906E-02
 cg2d: Sum(rhs),rhsMax =  -6.18123885409716E-11  1.71320283364153E-02
 cg2d: Sum(rhs),rhsMax =  -6.17796924728964E-11  1.71418626351190E-02
 cg2d: Sum(rhs),rhsMax =  -6.18509132799261E-11  1.71512908515565E-02
 cg2d: Sum(rhs),rhsMax =  -6.18550766162684E-11  1.71603174012743E-02
 cg2d: Sum(rhs),rhsMax =  -6.18972650912042E-11  1.71689136447145E-02
 cg2d: Sum(rhs),rhsMax =  -6.19526652201330E-11  1.71770805862479E-02
 cg2d: Sum(rhs),rhsMax =  -6.20004048101919E-11  1.71845260003753E-02
 cg2d: Sum(rhs),rhsMax =  -6.20452023092355E-11  1.71910520139118E-02
 cg2d: Sum(rhs),rhsMax =  -6.21247775445255E-11  1.71966743133993E-02
 cg2d: Sum(rhs),rhsMax =  -6.21670770417637E-11  1.72014359138360E-02
 cg2d: Sum(rhs),rhsMax =  -6.21953599733160E-11  1.72053749394307E-02
 cg2d: Sum(rhs),rhsMax =  -6.22827900365053E-11  1.72085298107504E-02
 cg2d: Sum(rhs),rhsMax =  -6.23083529216473E-11  1.72109391255804E-02
 cg2d: Sum(rhs),rhsMax =  -6.24118812186936E-11  1.72126176459663E-02
 cg2d: Sum(rhs),rhsMax =  -6.24742757526775E-11  1.72135469251781E-02
 cg2d: Sum(rhs),rhsMax =  -6.25674234644436E-11  1.72137550665816E-02
 cg2d: Sum(rhs),rhsMax =  -6.26425300520594E-11  1.72132878302932E-02
 cg2d: Sum(rhs),rhsMax =  -6.27412011233730E-11  1.72121877705198E-02
 cg2d: Sum(rhs),rhsMax =  -6.27868590452607E-11  1.72104944488957E-02
 cg2d: Sum(rhs),rhsMax =  -6.28495866461520E-11  1.72082449933625E-02
 cg2d: Sum(rhs),rhsMax =  -6.29222368653259E-11  1.72054850316538E-02
 cg2d: Sum(rhs),rhsMax =  -6.29437474364281E-11  1.72022573879861E-02
 cg2d: Sum(rhs),rhsMax =  -6.30147878322163E-11  1.71986058675903E-02
 cg2d: Sum(rhs),rhsMax =  -6.30851690330836E-11  1.71945703955114E-02
 cg2d: Sum(rhs),rhsMax =  -6.32114222076652E-11  1.71901953160794E-02
 cg2d: Sum(rhs),rhsMax =  -6.32995149352222E-11  1.71855265290507E-02
 cg2d: Sum(rhs),rhsMax =  -6.33489129209241E-11  1.71806193737230E-02
 cg2d: Sum(rhs),rhsMax =  -6.34389533092639E-11  1.71755636595879E-02
 cg2d: Sum(rhs),rhsMax =  -6.34928255804912E-11  1.71703655814934E-02
 cg2d: Sum(rhs),rhsMax =  -6.36674810094995E-11  1.71650630569210E-02
 cg2d: Sum(rhs),rhsMax =  -6.37157826499646E-11  1.71596963122797E-02
 cg2d: Sum(rhs),rhsMax =  -6.38729832913576E-11  1.71543009660580E-02
 cg2d: Sum(rhs),rhsMax =  -6.39628211507315E-11  1.71489108377691E-02
 cg2d: Sum(rhs),rhsMax =  -6.39871489127586E-11  1.71435613334069E-02
 cg2d: Sum(rhs),rhsMax =  -6.39990560546977E-11  1.71382852794539E-02
 cg2d: Sum(rhs),rhsMax =  -6.41107167353994E-11  1.71331108614993E-02
 cg2d: Sum(rhs),rhsMax =  -6.42326053457154E-11  1.71280668832943E-02
 cg2d: Sum(rhs),rhsMax =  -6.43151087942329E-11  1.71231786117955E-02
 cg2d: Sum(rhs),rhsMax =  -6.44612141442735E-11  1.71182282625727E-02
 cg2d: Sum(rhs),rhsMax =  -6.45495046303068E-11  1.71129573245462E-02
 cg2d: Sum(rhs),rhsMax =  -6.46007136673177E-11  1.71073799894717E-02
 cg2d: Sum(rhs),rhsMax =  -6.46854514396722E-11  1.71015415668433E-02
 cg2d: Sum(rhs),rhsMax =  -6.47839837331077E-11  1.70954543291206E-02
 cg2d: Sum(rhs),rhsMax =  -6.48814058035185E-11  1.70891392682745E-02
 cg2d: Sum(rhs),rhsMax =  -6.49464093616103E-11  1.70826260588711E-02
 cg2d: Sum(rhs),rhsMax =  -6.50174358796107E-11  1.70759437369663E-02
 cg2d: Sum(rhs),rhsMax =  -6.51204923318716E-11  1.70690684654571E-02
 cg2d: Sum(rhs),rhsMax =  -6.52171094905896E-11  1.70620221944884E-02
 cg2d: Sum(rhs),rhsMax =  -6.52953802138256E-11  1.70548319884901E-02
 cg2d: Sum(rhs),rhsMax =  -6.54065135385906E-11  1.70475219629338E-02
 cg2d: Sum(rhs),rhsMax =  -6.54837295499533E-11  1.70401150791517E-02
 cg2d: Sum(rhs),rhsMax =  -6.55447918163077E-11  1.70326442919230E-02
 cg2d: Sum(rhs),rhsMax =  -6.56518173158815E-11  1.70251149064383E-02
 cg2d: Sum(rhs),rhsMax =  -6.57250365243556E-11  1.70175454728092E-02
 cg2d: Sum(rhs),rhsMax =  -6.57814358540065E-11  1.70099574975199E-02
 cg2d: Sum(rhs),rhsMax =  -6.58331722469541E-11  1.70023698535389E-02
 cg2d: Sum(rhs),rhsMax =  -6.59099441691069E-11  1.69947973375145E-02
 cg2d: Sum(rhs),rhsMax =  -6.60439480881791E-11  1.69872530471147E-02
 cg2d: Sum(rhs),rhsMax =  -6.61308230398561E-11  1.69797334851114E-02
 cg2d: Sum(rhs),rhsMax =  -6.61939947299572E-11  1.69722168670452E-02
 cg2d: Sum(rhs),rhsMax =  -6.62530585948673E-11  1.69645856099676E-02
 cg2d: Sum(rhs),rhsMax =  -6.63470389739018E-11  1.69565873654642E-02
 cg2d: Sum(rhs),rhsMax =  -6.63936683409361E-11  1.69482163409492E-02
 cg2d: Sum(rhs),rhsMax =  -6.65355548434832E-11  1.69395242499237E-02
 cg2d: Sum(rhs),rhsMax =  -6.66354194045482E-11  1.69304917753347E-02
 cg2d: Sum(rhs),rhsMax =  -6.66156574347099E-11  1.69210974990500E-02
 cg2d: Sum(rhs),rhsMax =  -6.67419453037610E-11  1.69113519395838E-02
 cg2d: Sum(rhs),rhsMax =  -6.68569644091122E-11  1.69012823712214E-02
 cg2d: Sum(rhs),rhsMax =  -6.69653221763156E-11  1.68909240252313E-02
 cg2d: Sum(rhs),rhsMax =  -6.71216415781828E-11  1.68803087369101E-02
 cg2d: Sum(rhs),rhsMax =  -6.72482625141413E-11  1.68695479186607E-02
 cg2d: Sum(rhs),rhsMax =  -6.74159617020109E-11  1.68588651466162E-02
 cg2d: Sum(rhs),rhsMax =  -6.75343669875872E-11  1.68485044391600E-02
 cg2d: Sum(rhs),rhsMax =  -6.76626532580826E-11  1.68384769894783E-02
 cg2d: Sum(rhs),rhsMax =  -6.78197498160671E-11  1.68288791882642E-02
 cg2d: Sum(rhs),rhsMax =  -6.79704070805087E-11  1.68197296558136E-02
 cg2d: Sum(rhs),rhsMax =  -6.80769884908727E-11  1.68110335972921E-02
 cg2d: Sum(rhs),rhsMax =  -6.81749101616447E-11  1.68028324807842E-02
 cg2d: Sum(rhs),rhsMax =  -6.82764955683979E-11  1.67949151807313E-02
 cg2d: Sum(rhs),rhsMax =  -6.83556544700537E-11  1.67872617883721E-02
 cg2d: Sum(rhs),rhsMax =  -6.84577949883192E-11  1.67800708871719E-02
 cg2d: Sum(rhs),rhsMax =  -6.85808076994476E-11  1.67732999419897E-02
 cg2d: Sum(rhs),rhsMax =  -6.86564138874246E-11  1.67668325330476E-02
 cg2d: Sum(rhs),rhsMax =  -6.86771750579851E-11  1.67605653761834E-02
 cg2d: Sum(rhs),rhsMax =  -6.87335743876361E-11  1.67544924359972E-02
 cg2d: Sum(rhs),rhsMax =  -6.88887835664787E-11  1.67485977754456E-02
 cg2d: Sum(rhs),rhsMax =  -6.89299728406922E-11  1.67428631322826E-02
 cg2d: Sum(rhs),rhsMax =  -6.89940327092131E-11  1.67372699825095E-02
 cg2d: Sum(rhs),rhsMax =  -6.91876556047077E-11  1.67318028031963E-02
 cg2d: Sum(rhs),rhsMax =  -6.92135238011815E-11  1.67264415123863E-02
 cg2d: Sum(rhs),rhsMax =  -6.93383128691494E-11  1.67211567619202E-02
 cg2d: Sum(rhs),rhsMax =  -6.93874957491403E-11  1.67159417638139E-02
 cg2d: Sum(rhs),rhsMax =  -6.94435620118838E-11  1.67107958138664E-02
 cg2d: Sum(rhs),rhsMax =  -6.95414836826558E-11  1.67057889538403E-02
 cg2d: Sum(rhs),rhsMax =  -6.94124757671943E-11  1.67393045665368E-02
 cg2d: Sum(rhs),rhsMax =  -6.93765045411965E-11  1.67722879677984E-02
 cg2d: Sum(rhs),rhsMax =  -6.92939039481644E-11  1.67996303585552E-02
 cg2d: Sum(rhs),rhsMax =  -6.92448320904759E-11  1.68213217775404E-02
 cg2d: Sum(rhs),rhsMax =  -6.91854351586585E-11  1.68373548907312E-02
 cg2d: Sum(rhs),rhsMax =  -6.91776635974861E-11  1.68477249892358E-02
 cg2d: Sum(rhs),rhsMax =  -6.92204071839342E-11  1.68524299857312E-02
 cg2d: Sum(rhs),rhsMax =  -6.93919366412388E-11  1.68514704096945E-02
 cg2d: Sum(rhs),rhsMax =  -6.93997082024111E-11  1.68448494016183E-02
 cg2d: Sum(rhs),rhsMax =  -6.94976298731831E-11  1.68325727065764E-02
 cg2d: Sum(rhs),rhsMax =  -6.96436242009213E-11  1.68146486670472E-02
 cg2d: Sum(rhs),rhsMax =  -6.97615298861365E-11  1.67910882151762E-02
 cg2d: Sum(rhs),rhsMax =  -6.98635593820995E-11  1.67619048645126E-02
 cg2d: Sum(rhs),rhsMax =  -6.99548197147237E-11  1.67271147012555E-02
 cg2d: Sum(rhs),rhsMax =  -7.00987046187151E-11  1.66867363749904E-02
 cg2d: Sum(rhs),rhsMax =  -7.01464442087740E-11  1.66591840712378E-02
 cg2d: Sum(rhs),rhsMax =  -7.01094737820540E-11  1.66591236044608E-02
 cg2d: Sum(rhs),rhsMax =  -7.00320912372376E-11  1.66595477210893E-02
 cg2d: Sum(rhs),rhsMax =  -7.00481894710947E-11  1.66604383897823E-02
 cg2d: Sum(rhs),rhsMax =  -6.99458269082243E-11  1.66617849532221E-02
 cg2d: Sum(rhs),rhsMax =  -6.99107438606461E-11  1.66635716629992E-02
 cg2d: Sum(rhs),rhsMax =  -6.98201496618367E-11  1.66658171379288E-02
 cg2d: Sum(rhs),rhsMax =  -6.96743773787034E-11  1.66685358170776E-02
 cg2d: Sum(rhs),rhsMax =  -6.95711266374133E-11  1.66717066458794E-02
 cg2d: Sum(rhs),rhsMax =  -6.95017376983742E-11  1.66752971932111E-02
 cg2d: Sum(rhs),rhsMax =  -6.94658774946788E-11  1.66792836603919E-02
 cg2d: Sum(rhs),rhsMax =  -6.94510005061488E-11  1.66836557766314E-02
 cg2d: Sum(rhs),rhsMax =  -6.93891610836772E-11  1.66883856877408E-02
 cg2d: Sum(rhs),rhsMax =  -6.92276236335942E-11  1.66934827727947E-02
 cg2d: Sum(rhs),rhsMax =  -6.89986956459165E-11  1.66989498845266E-02
 cg2d: Sum(rhs),rhsMax =  -6.89366341788400E-11  1.67048019331123E-02
 cg2d: Sum(rhs),rhsMax =  -6.87652157438379E-11  1.67110802050066E-02
 cg2d: Sum(rhs),rhsMax =  -6.87189749548622E-11  1.67177896000383E-02
 cg2d: Sum(rhs),rhsMax =  -6.85936862865333E-11  1.67251323733380E-02
 cg2d: Sum(rhs),rhsMax =  -6.84761691793767E-11  1.67331106794997E-02
 cg2d: Sum(rhs),rhsMax =  -6.83537115797606E-11  1.67416857568735E-02
 cg2d: Sum(rhs),rhsMax =  -6.82298106902124E-11  1.67508074755737E-02
 cg2d: Sum(rhs),rhsMax =  -6.80704936861787E-11  1.67604589722374E-02
 cg2d: Sum(rhs),rhsMax =  -6.79404865699951E-11  1.67706455741052E-02
 cg2d: Sum(rhs),rhsMax =  -6.78082034966110E-11  1.67813512601188E-02
 cg2d: Sum(rhs),rhsMax =  -6.76371181285162E-11  1.67925503086587E-02
 cg2d: Sum(rhs),rhsMax =  -6.75344780098897E-11  1.68042172174599E-02
 cg2d: Sum(rhs),rhsMax =  -6.74029720926228E-11  1.68162127575543E-02
 cg2d: Sum(rhs),rhsMax =  -6.72598643447486E-11  1.68284974520545E-02
 cg2d: Sum(rhs),rhsMax =  -6.70966060489775E-11  1.68411112999258E-02
 cg2d: Sum(rhs),rhsMax =  -6.69145849840902E-11  1.68541124671428E-02
 cg2d: Sum(rhs),rhsMax =  -6.67337851645300E-11  1.68674909922506E-02
 cg2d: Sum(rhs),rhsMax =  -6.65739130489840E-11  1.68812173776147E-02
 cg2d: Sum(rhs),rhsMax =  -6.63366583886216E-11  1.68953866539540E-02
 cg2d: Sum(rhs),rhsMax =  -6.61746213381775E-11  1.69099422114528E-02
 cg2d: Sum(rhs),rhsMax =  -6.59628462962303E-11  1.69247791782054E-02
 cg2d: Sum(rhs),rhsMax =  -6.57401910686417E-11  1.69397276183290E-02
 cg2d: Sum(rhs),rhsMax =  -6.56437681989530E-11  1.69547461568192E-02
 cg2d: Sum(rhs),rhsMax =  -6.54910015107646E-11  1.69698162915614E-02
 cg2d: Sum(rhs),rhsMax =  -6.53694320895681E-11  1.69849167717905E-02
 cg2d: Sum(rhs),rhsMax =  -6.53360698876781E-11  1.70000349469897E-02
 cg2d: Sum(rhs),rhsMax =  -6.51850795563291E-11  1.70151470742061E-02
 cg2d: Sum(rhs),rhsMax =  -6.50707265847927E-11  1.70302280718224E-02
 cg2d: Sum(rhs),rhsMax =  -6.48876785636077E-11  1.70451175546660E-02
 cg2d: Sum(rhs),rhsMax =  -6.47293330047205E-11  1.70597168769645E-02
 cg2d: Sum(rhs),rhsMax =  -6.45637709961733E-11  1.70740544912899E-02
 cg2d: Sum(rhs),rhsMax =  -6.45062614434977E-11  1.70881288002974E-02
 cg2d: Sum(rhs),rhsMax =  -6.43914643827515E-11  1.71018561352246E-02
 cg2d: Sum(rhs),rhsMax =  -6.42962905139655E-11  1.71152443284261E-02
 cg2d: Sum(rhs),rhsMax =  -6.41735831141688E-11  1.71282859988691E-02
 cg2d: Sum(rhs),rhsMax =  -6.40599240320228E-11  1.71409717329500E-02
 cg2d: Sum(rhs),rhsMax =  -6.39540920222004E-11  1.71533034392961E-02
 cg2d: Sum(rhs),rhsMax =  -6.39120978362939E-11  1.71652828201699E-02
 cg2d: Sum(rhs),rhsMax =  -6.38030739352757E-11  1.71769132174581E-02
 cg2d: Sum(rhs),rhsMax =  -6.37246366785860E-11  1.71881992655183E-02
 cg2d: Sum(rhs),rhsMax =  -6.36560248956641E-11  1.71991465339775E-02
 cg2d: Sum(rhs),rhsMax =  -6.35391184111711E-11  1.72097219380159E-02
 cg2d: Sum(rhs),rhsMax =  -6.34775843000313E-11  1.72198730998844E-02
 cg2d: Sum(rhs),rhsMax =  -6.33805855021485E-11  1.72296410937877E-02
 cg2d: Sum(rhs),rhsMax =  -6.32870700290056E-11  1.72390623752006E-02
 cg2d: Sum(rhs),rhsMax =  -6.31859703448256E-11  1.72481585724786E-02
 cg2d: Sum(rhs),rhsMax =  -6.30852453609165E-11  1.72568579471279E-02
 cg2d: Sum(rhs),rhsMax =  -6.29864042867023E-11  1.72651803219949E-02
 cg2d: Sum(rhs),rhsMax =  -6.28971874583328E-11  1.72730281912792E-02
 cg2d: Sum(rhs),rhsMax =  -6.28028150317927E-11  1.72803980276185E-02
 cg2d: Sum(rhs),rhsMax =  -6.26734220077196E-11  1.72873247984264E-02
 cg2d: Sum(rhs),rhsMax =  -6.25475990445601E-11  1.72938689871190E-02
 cg2d: Sum(rhs),rhsMax =  -6.24735818632871E-11  1.73000597115022E-02
 cg2d: Sum(rhs),rhsMax =  -6.23316537273766E-11  1.73059113180703E-02
 cg2d: Sum(rhs),rhsMax =  -6.22893542301384E-11  1.73114240014951E-02
 cg2d: Sum(rhs),rhsMax =  -6.22054630028401E-11  1.73165936002287E-02
 cg2d: Sum(rhs),rhsMax =  -6.21610263262795E-11  1.73214315957398E-02
 cg2d: Sum(rhs),rhsMax =  -6.20938994666531E-11  1.73259121712202E-02
 cg2d: Sum(rhs),rhsMax =  -6.20511697579929E-11  1.73299979418218E-02
 cg2d: Sum(rhs),rhsMax =  -6.20090090386327E-11  1.73336667990393E-02
 cg2d: Sum(rhs),rhsMax =  -6.19904405585459E-11  1.73369290977086E-02
 cg2d: Sum(rhs),rhsMax =  -6.19889140018870E-11  1.73398172181244E-02
(PID.TID 0000.0001)      cg2d_init_res =   7.50021296539279E-02
(PID.TID 0000.0001)      cg2d_iters(min,last) =      -1      39
(PID.TID 0000.0001)      cg2d_last_res =   5.19121111936396E-14
(PID.TID 0000.0001) // =======================================================
(PID.TID 0000.0001) // Begin MONITOR dynamic field statistics
(PID.TID 0000.0001) // =======================================================
(PID.TID 0000.0001) %MON time_tsnumber                =                  5760
(PID.TID 0000.0001) %MON time_secondsf                =   8.6400000000000E+04
(PID.TID 0000.0001) %MON dynstat_eta_max              =   1.9500224727556E-03
(PID.TID 0000.0001) %MON dynstat_eta_min              =  -6.2937220674151E-03
(PID.TID 0000.0001) %MON dynstat_eta_mean             =   2.4521775421324E-15
(PID.TID 0000.0001) %MON dynstat_eta_sd               =   1.8862354817991E-03
(PID.TID 0000.0001) %MON dynstat_eta_del2             =   1.4163253469297E-05
(PID.TID 0000.0001) %MON dynstat_uvel_max             =   1.4093011365460E+00
(PID.TID 0000.0001) %MON dynstat_uvel_min             =  -2.5342396049729E-02
(PID.TID 0000.0001) %MON dynstat_uvel_mean            =   5.6178818704977E-01
(PID.TID 0000.0001) %MON dynstat_uvel_sd              =   5.1226910892273E-02
(PID.TID 0000.0001) %MON dynstat_uvel_del2            =   4.4679501715907E-04
(PID.TID 0000.0001) %MON dynstat_vvel_max             =   0.0000000000000E+00
(PID.TID 0000.0001) %MON dynstat_vvel_min             =   0.0000000000000E+00
(PID.TID 0000.0001) %MON dynstat_vvel_mean            =   0.0000000000000E+00
(PID.TID 0000.0001) %MON dynstat_vvel_sd              =   0.0000000000000E+00
(PID.TID 0000.0001) %MON dynstat_vvel_del2            =   0.0000000000000E+00
(PID.TID 0000.0001) %MON dynstat_wvel_max             =   1.7588218335667E-02
(PID.TID 0000.0001) %MON dynstat_wvel_min             =  -1.1655556461631E-02
(PID.TID 0000.0001) %MON dynstat_wvel_mean            =   4.2876596869561E-20
(PID.TID 0000.0001) %MON dynstat_wvel_sd              =   1.7365259019049E-03
(PID.TID 0000.0001) %MON dynstat_wvel_del2            =   3.7971625997700E-05
(PID.TID 0000.0001) %MON dynstat_theta_max            =   1.5000000000018E+01
(PID.TID 0000.0001) %MON dynstat_theta_min            =   9.9999999999995E+00
(PID.TID 0000.0001) %MON dynstat_theta_mean           =   1.4009270226548E+01
(PID.TID 0000.0001) %MON dynstat_theta_sd             =   1.9124906975016E+00
(PID.TID 0000.0001) %MON dynstat_theta_del2           =   3.6214322929864E-04
(PID.TID 0000.0001) %MON dynstat_salt_max             =   3.5000000000000E+01
(PID.TID 0000.0001) %MON dynstat_salt_min             =   3.5000000000000E+01
(PID.TID 0000.0001) %MON dynstat_salt_mean            =   3.5000000000000E+01
(PID.TID 0000.0001) %MON dynstat_salt_sd              =   4.1922021409846E-13
(PID.TID 0000.0001) %MON dynstat_salt_del2            =   0.0000000000000E+00
(PID.TID 0000.0001) %MON dynstat_sst_max              =   1.5000000000000E+01
(PID.TID 0000.0001) %MON dynstat_sst_min              =   1.4999999999999E+01
(PID.TID 0000.0001) %MON dynstat_sst_mean             =   1.5000000000000E+01
(PID.TID 0000.0001) %MON dynstat_sst_sd               =   3.6700326819320E-13
(PID.TID 0000.0001) %MON dynstat_sst_del2             =   4.6824522442035E-15
(PID.TID 0000.0001) %MON dynstat_sss_max              =   3.5000000000000E+01
(PID.TID 0000.0001) %MON dynstat_sss_min              =   3.5000000000000E+01
(PID.TID 0000.0001) %MON dynstat_sss_mean             =   3.5000000000000E+01
(PID.TID 0000.0001) %MON dynstat_sss_sd               =   2.8421709430404E-14
(PID.TID 0000.0001) %MON dynstat_sss_del2             =   0.0000000000000E+00
(PID.TID 0000.0001) %MON forcing_qnet_max             =   0.0000000000000E+00
(PID.TID 0000.0001) %MON forcing_qnet_min             =   0.0000000000000E+00
(PID.TID 0000.0001) %MON forcing_qnet_mean            =   0.0000000000000E+00
(PID.TID 0000.0001) %MON forcing_qnet_sd              =   0.0000000000000E+00
(PID.TID 0000.0001) %MON forcing_qnet_del2            =   0.0000000000000E+00
(PID.TID 0000.0001) %MON forcing_qsw_max              =   0.0000000000000E+00
(PID.TID 0000.0001) %MON forcing_qsw_min              =   0.0000000000000E+00
(PID.TID 0000.0001) %MON forcing_qsw_mean             =   0.0000000000000E+00
(PID.TID 0000.0001) %MON forcing_qsw_sd               =   0.0000000000000E+00
(PID.TID 0000.0001) %MON forcing_qsw_del2             =   0.0000000000000E+00
(PID.TID 0000.0001) %MON forcing_empmr_max            =   0.0000000000000E+00
(PID.TID 0000.0001) %MON forcing_empmr_min            =   0.0000000000000E+00
(PID.TID 0000.0001) %MON forcing_empmr_mean           =   0.0000000000000E+00
(PID.TID 0000.0001) %MON forcing_empmr_sd             =   0.0000000000000E+00
(PID.TID 0000.0001) %MON forcing_empmr_del2           =   0.0000000000000E+00
(PID.TID 0000.0001) %MON forcing_fu_max               =   0.0000000000000E+00
(PID.TID 0000.0001) %MON forcing_fu_min               =   0.0000000000000E+00
(PID.TID 0000.0001) %MON forcing_fu_mean              =   0.0000000000000E+00
(PID.TID 0000.0001) %MON forcing_fu_sd                =   0.0000000000000E+00
(PID.TID 0000.0001) %MON forcing_fu_del2              =   0.0000000000000E+00
(PID.TID 0000.0001) %MON forcing_fv_max               =   0.0000000000000E+00
(PID.TID 0000.0001) %MON forcing_fv_min               =   0.0000000000000E+00
(PID.TID 0000.0001) %MON forcing_fv_mean              =   0.0000000000000E+00
(PID.TID 0000.0001) %MON forcing_fv_sd                =   0.0000000000000E+00
(PID.TID 0000.0001) %MON forcing_fv_del2              =   0.0000000000000E+00
(PID.TID 0000.0001) %MON advcfl_uvel_max              =   1.0177465157171E-01
(PID.TID 0000.0001) %MON advcfl_vvel_max              =   0.0000000000000E+00
(PID.TID 0000.0001) %MON advcfl_wvel_max              =   8.4473870993537E-02
(PID.TID 0000.0001) %MON advcfl_W_hf_max              =   1.0283551995670E-01
(PID.TID 0000.0001) %MON pe_b_mean                    =   8.7439999171678E-08
(PID.TID 0000.0001) %MON ke_max                       =   5.0170812814202E-01
(PID.TID 0000.0001) %MON ke_mean                      =   1.5914600166322E-01
(PID.TID 0000.0001) %MON ke_vol                       =   9.7476098603737E+10
(PID.TID 0000.0001) %MON vort_r_min                   =   0.0000000000000E+00
(PID.TID 0000.0001) %MON vort_r_max                   =   0.0000000000000E+00
(PID.TID 0000.0001) %MON vort_a_mean                  =   0.0000000000000E+00
(PID.TID 0000.0001) %MON vort_a_sd                    =   0.0000000000000E+00
(PID.TID 0000.0001) %MON vort_p_mean                  =   0.0000000000000E+00
(PID.TID 0000.0001) %MON vort_p_sd                    =   0.0000000000000E+00
(PID.TID 0000.0001) %MON surfExpan_theta_mean         =   4.5571147823076E-19
(PID.TID 0000.0001) %MON surfExpan_salt_mean          =   2.0774996517479E-18
(PID.TID 0000.0001) // =======================================================
(PID.TID 0000.0001) // End MONITOR dynamic field statistics
(PID.TID 0000.0001) // =======================================================
(PID.TID 0000.0001) // =======================================================
(PID.TID 0000.0001) // Begin OBCS MONITOR field statistics
(PID.TID 0000.0001) // =======================================================
(PID.TID 0000.0001) %MON obc_E_uVel_max               =   5.6028564143658E-01
(PID.TID 0000.0001) %MON obc_E_uVel_min               =   5.6028564143658E-01
(PID.TID 0000.0001) %MON obc_E_uVel_mean              =   5.6028564143658E-01
(PID.TID 0000.0001) %MON obc_E_uVel_sd                =   1.0536712127724E-08
(PID.TID 0000.0001) %MON obc_E_uVel_Int               =   5.6028564143658E+05
(PID.TID 0000.0001) %MON obc_W_uVel_max               =   5.6028564143658E-01
(PID.TID 0000.0001) %MON obc_W_uVel_min               =   5.6028564143658E-01
(PID.TID 0000.0001) %MON obc_W_uVel_mean              =   5.6028564143658E-01
(PID.TID 0000.0001) %MON obc_W_uVel_sd                =   1.0536712127724E-08
(PID.TID 0000.0001) %MON obc_W_uVel_Int               =   5.6028564143658E+05
(PID.TID 0000.0001) // =======================================================
(PID.TID 0000.0001) // End OBCS MONITOR field statistics
(PID.TID 0000.0001) // =======================================================
(PID.TID 0000.0001) %CHECKPOINT      5760 0000005760
 cg2d: Sum(rhs),rhsMax =  -6.18941287111596E-11  1.73423104880670E-02
 cg2d: Sum(rhs),rhsMax =  -6.17945139502751E-11  1.73443017405526E-02
 cg2d: Sum(rhs),rhsMax =  -6.17844664319023E-11  1.73457888693535E-02
 cg2d: Sum(rhs),rhsMax =  -6.17793594059890E-11  1.73467828346525E-02
 cg2d: Sum(rhs),rhsMax =  -6.17663420410253E-11  1.73472877222892E-02
 cg2d: Sum(rhs),rhsMax =  -6.17377260425656E-11  1.73473287168996E-02
 cg2d: Sum(rhs),rhsMax =  -6.16641737671841E-11  1.73469322117092E-02
 cg2d: Sum(rhs),rhsMax =  -6.16489082005955E-11  1.73459549251125E-02
 cg2d: Sum(rhs),rhsMax =  -6.16151574206469E-11  1.73443602469386E-02
 cg2d: Sum(rhs),rhsMax =  -6.15740791687358E-11  1.73421766337046E-02
 cg2d: Sum(rhs),rhsMax =  -6.15208994858563E-11  1.73394285682428E-02
 cg2d: Sum(rhs),rhsMax =  -6.14401862719660E-11  1.73361346025647E-02
 cg2d: Sum(rhs),rhsMax =  -6.13967210405519E-11  1.73323498120648E-02
 cg2d: Sum(rhs),rhsMax =  -6.13494255397029E-11  1.73281102070352E-02
 cg2d: Sum(rhs),rhsMax =  -6.12530581811654E-11  1.73234429062596E-02
 cg2d: Sum(rhs),rhsMax =  -6.11638517611368E-11  1.73182450529815E-02
 cg2d: Sum(rhs),rhsMax =  -6.10537731482452E-11  1.73123581976296E-02
 cg2d: Sum(rhs),rhsMax =  -6.09971517739893E-11  1.73057756393999E-02
 cg2d: Sum(rhs),rhsMax =  -6.08764705312126E-11  1.72985091389050E-02
 cg2d: Sum(rhs),rhsMax =  -6.08098016385838E-11  1.72905711966238E-02
 cg2d: Sum(rhs),rhsMax =  -6.06773520317461E-11  1.72819599406301E-02
 cg2d: Sum(rhs),rhsMax =  -6.05876460113564E-11  1.72726850709450E-02
 cg2d: Sum(rhs),rhsMax =  -6.04419847505255E-11  1.72627481777845E-02
 cg2d: Sum(rhs),rhsMax =  -6.03629923823235E-11  1.72521664351277E-02
 cg2d: Sum(rhs),rhsMax =  -6.02856098375071E-11  1.72409740432959E-02
 cg2d: Sum(rhs),rhsMax =  -6.02676242245082E-11  1.72292079443905E-02
 cg2d: Sum(rhs),rhsMax =  -6.02080052480858E-11  1.72168876226944E-02
 cg2d: Sum(rhs),rhsMax =  -6.01744210015909E-11  1.72040559996977E-02
 cg2d: Sum(rhs),rhsMax =  -6.01124705568168E-11  1.71907676273048E-02
 cg2d: Sum(rhs),rhsMax =  -6.01376171083245E-11  1.71770528421392E-02
 cg2d: Sum(rhs),rhsMax =  -6.01587113457924E-11  1.71629071655541E-02
 cg2d: Sum(rhs),rhsMax =  -6.01689253976190E-11  1.71483013894337E-02
 cg2d: Sum(rhs),rhsMax =  -6.01003691258484E-11  1.71332397165071E-02
 cg2d: Sum(rhs),rhsMax =  -6.01032557057124E-11  1.71177714931987E-02
 cg2d: Sum(rhs),rhsMax =  -6.00205440903778E-11  1.71017172896214E-02
 cg2d: Sum(rhs),rhsMax =  -5.99511551513388E-11  1.70849946470292E-02
 cg2d: Sum(rhs),rhsMax =  -5.99291727354512E-11  1.70676177952940E-02
 cg2d: Sum(rhs),rhsMax =  -5.99252869548650E-11  1.70496079411627E-02
 cg2d: Sum(rhs),rhsMax =  -5.98942007101755E-11  1.70310137271289E-02
 cg2d: Sum(rhs),rhsMax =  -5.98493476999806E-11  1.70118699791373E-02
 cg2d: Sum(rhs),rhsMax =  -5.99186256167172E-11  1.69921866281850E-02
 cg2d: Sum(rhs),rhsMax =  -5.99138516577113E-11  1.69719769552392E-02
 cg2d: Sum(rhs),rhsMax =  -5.99296168246610E-11  1.69512607790326E-02
 cg2d: Sum(rhs),rhsMax =  -5.99641447607269E-11  1.69300358931921E-02
 cg2d: Sum(rhs),rhsMax =  -5.99615912477702E-11  1.69082938906609E-02
 cg2d: Sum(rhs),rhsMax =  -5.99735816564362E-11  1.68860025606692E-02
 cg2d: Sum(rhs),rhsMax =  -5.98856519928859E-11  1.68633146908230E-02
 cg2d: Sum(rhs),rhsMax =  -5.98463500978141E-11  1.68403004574539E-02
 cg2d: Sum(rhs),rhsMax =  -5.97977223293356E-11  1.68169657889879E-02
 cg2d: Sum(rhs),rhsMax =  -5.97587535011712E-11  1.67933556595563E-02
 cg2d: Sum(rhs),rhsMax =  -5.97815130731760E-11  1.67694251409007E-02
 cg2d: Sum(rhs),rhsMax =  -5.97883964559287E-11  1.67451580911033E-02
 cg2d: Sum(rhs),rhsMax =  -5.97424332227092E-11  1.67205625215308E-02
 cg2d: Sum(rhs),rhsMax =  -5.97862870321819E-11  1.66956579630776E-02
 cg2d: Sum(rhs),rhsMax =  -5.98259219941610E-11  1.66704637551352E-02
 cg2d: Sum(rhs),rhsMax =  -5.98217031466675E-11  1.66450033346379E-02
 cg2d: Sum(rhs),rhsMax =  -5.99214011742788E-11  1.66193014724806E-02
 cg2d: Sum(rhs),rhsMax =  -5.99392757649753E-11  1.65933475493286E-02
 cg2d: Sum(rhs),rhsMax =  -5.99492677721969E-11  1.65671480165604E-02
 cg2d: Sum(rhs),rhsMax =  -6.01023675272927E-11  1.65407114333566E-02
 cg2d: Sum(rhs),rhsMax =  -6.02976557573243E-11  1.65139965957913E-02
 cg2d: Sum(rhs),rhsMax =  -6.04490901778831E-11  1.64868890060308E-02
 cg2d: Sum(rhs),rhsMax =  -6.05663297292836E-11  1.64593565545406E-02
 cg2d: Sum(rhs),rhsMax =  -6.06759087418141E-11  1.64501212998266E-02
 cg2d: Sum(rhs),rhsMax =  -6.05179240054099E-11  1.64903143956302E-02
 cg2d: Sum(rhs),rhsMax =  -6.04742922405421E-11  1.65295337126693E-02
 cg2d: Sum(rhs),rhsMax =  -6.03889160899485E-11  1.65678082586861E-02
 cg2d: Sum(rhs),rhsMax =  -6.02828897910967E-11  1.66050652908356E-02
 cg2d: Sum(rhs),rhsMax =  -6.02179417441562E-11  1.66412319054178E-02
 cg2d: Sum(rhs),rhsMax =  -6.01333427496797E-11  1.66763743959317E-02
 cg2d: Sum(rhs),rhsMax =  -6.01448890691358E-11  1.67105007092358E-02
 cg2d: Sum(rhs),rhsMax =  -6.00470784206664E-11  1.67436893999759E-02
 cg2d: Sum(rhs),rhsMax =  -6.00505201120427E-11  1.67759500866069E-02
 cg2d: Sum(rhs),rhsMax =  -6.00964833452622E-11  1.68072788217513E-02
 cg2d: Sum(rhs),rhsMax =  -6.00893779179046E-11  1.68377139875281E-02
 cg2d: Sum(rhs),rhsMax =  -6.00698379926712E-11  1.68672718660559E-02
 cg2d: Sum(rhs),rhsMax =  -5.99822413960283E-11  1.68959648946396E-02
 cg2d: Sum(rhs),rhsMax =  -5.99640337384244E-11  1.69238150175579E-02
 cg2d: Sum(rhs),rhsMax =  -5.99048588512119E-11  1.69507983435363E-02
 cg2d: Sum(rhs),rhsMax =  -5.97970561955208E-11  1.69769079047153E-02
 cg2d: Sum(rhs),rhsMax =  -5.97777383148923E-11  1.70021577414612E-02
 cg2d: Sum(rhs),rhsMax =  -5.97543126090727E-11  1.70265663287212E-02
 cg2d: Sum(rhs),rhsMax =  -5.97309979255556E-11  1.70503469492616E-02
 cg2d: Sum(rhs),rhsMax =  -5.96740434843923E-11  1.70736812273228E-02
 cg2d: Sum(rhs),rhsMax =  -5.96321880763639E-11  1.70965964136581E-02
 cg2d: Sum(rhs),rhsMax =  -5.96347415893206E-11  1.71190953460343E-02
 cg2d: Sum(rhs),rhsMax =  -5.96344085224132E-11  1.71412068098864E-02
 cg2d: Sum(rhs),rhsMax =  -5.96882543391075E-11  1.71630608976017E-02
 cg2d: Sum(rhs),rhsMax =  -5.97292215687162E-11  1.71847029315492E-02
 cg2d: Sum(rhs),rhsMax =  -5.97618621256402E-11  1.72061479235265E-02
 cg2d: Sum(rhs),rhsMax =  -5.97931149037834E-11  1.72274102908169E-02
 cg2d: Sum(rhs),rhsMax =  -5.97683569303342E-11  1.72484869735329E-02
 cg2d: Sum(rhs),rhsMax =  -5.97309424144044E-11  1.72693473877685E-02
 cg2d: Sum(rhs),rhsMax =  -5.98054938905079E-11  1.72899631396363E-02
 cg2d: Sum(rhs),rhsMax =  -5.97718541328618E-11  1.73103857964185E-02
 cg2d: Sum(rhs),rhsMax =  -5.98687766029116E-11  1.73306368670754E-02
 cg2d: Sum(rhs),rhsMax =  -5.99135741019552E-11  1.73507325331618E-02
 cg2d: Sum(rhs),rhsMax =  -5.99102989440325E-11  1.73706479125543E-02
 cg2d: Sum(rhs),rhsMax =  -5.99623684038875E-11  1.73903905279828E-02
 cg2d: Sum(rhs),rhsMax =  -5.99819638402721E-11  1.74099440994571E-02
 cg2d: Sum(rhs),rhsMax =  -6.00995919697311E-11  1.74292877449315E-02
 cg2d: Sum(rhs),rhsMax =  -6.01098615327089E-11  1.74484154579900E-02
 cg2d: Sum(rhs),rhsMax =  -6.01151350920759E-11  1.74673280503003E-02
 cg2d: Sum(rhs),rhsMax =  -6.00689498142515E-11  1.74860164192676E-02
 cg2d: Sum(rhs),rhsMax =  -6.00346994339418E-11  1.75045356320403E-02
 cg2d: Sum(rhs),rhsMax =  -6.00329785882536E-11  1.75229210567920E-02
 cg2d: Sum(rhs),rhsMax =  -5.99830185521455E-11  1.75411759476809E-02
 cg2d: Sum(rhs),rhsMax =  -5.99592597794185E-11  1.75592845128206E-02
 cg2d: Sum(rhs),rhsMax =  -5.99233440645719E-11  1.75772302347348E-02
 cg2d: Sum(rhs),rhsMax =  -5.98933680429070E-11  1.75949983298622E-02
 cg2d: Sum(rhs),rhsMax =  -5.98788241212844E-11  1.76127028123139E-02
 cg2d: Sum(rhs),rhsMax =  -5.98452398747895E-11  1.76300330708493E-02
 cg2d: Sum(rhs),rhsMax =  -5.98227578585409E-11  1.76476063045767E-02
 cg2d: Sum(rhs),rhsMax =  -5.97944471714129E-11  1.76649948475413E-02
 cg2d: Sum(rhs),rhsMax =  -5.97741300900623E-11  1.76820010071111E-02
 cg2d: Sum(rhs),rhsMax =  -5.97398797097526E-11  1.76986121579030E-02
 cg2d: Sum(rhs),rhsMax =  -5.97651095279872E-11  1.77148680962100E-02
 cg2d: Sum(rhs),rhsMax =  -5.97927540813004E-11  1.77307895630607E-02
 cg2d: Sum(rhs),rhsMax =  -5.97989158190870E-11  1.77464138714352E-02
 cg2d: Sum(rhs),rhsMax =  -5.98313898425573E-11  1.77617340044489E-02
 cg2d: Sum(rhs),rhsMax =  -5.98924798644873E-11  1.77767492626572E-02
 cg2d: Sum(rhs),rhsMax =  -5.98646410221448E-11  1.77914594099490E-02
 cg2d: Sum(rhs),rhsMax =  -5.98729954504051E-11  1.78058589431719E-02
 cg2d: Sum(rhs),rhsMax =  -5.98603666635000E-11  1.78199351139780E-02
 cg2d: Sum(rhs),rhsMax =  -5.98826543907194E-11  1.78336982221536E-02
 cg2d: Sum(rhs),rhsMax =  -5.98333882440016E-11  1.78471508579046E-02
 cg2d: Sum(rhs),rhsMax =  -5.98465305090556E-11  1.78602863141881E-02
 cg2d: Sum(rhs),rhsMax =  -5.99141292134675E-11  1.78730958768765E-02
 cg2d: Sum(rhs),rhsMax =  -5.98596866518974E-11  1.78853321245476E-02
 cg2d: Sum(rhs),rhsMax =  -5.98899957404697E-11  1.78975199636011E-02
 cg2d: Sum(rhs),rhsMax =  -5.98754101854837E-11  1.79093982258073E-02
 cg2d: Sum(rhs),rhsMax =  -5.98839727805611E-11  1.79209249920008E-02
 cg2d: Sum(rhs),rhsMax =  -5.98709554155974E-11  1.79321098255534E-02
 cg2d: Sum(rhs),rhsMax =  -5.98702545873131E-11  1.79429508987162E-02
 cg2d: Sum(rhs),rhsMax =  -5.99273027035441E-11  1.79534380636174E-02
 cg2d: Sum(rhs),rhsMax =  -5.99388975952575E-11  1.79635556966885E-02
 cg2d: Sum(rhs),rhsMax =  -5.99021795708032E-11  1.79732952128549E-02
 cg2d: Sum(rhs),rhsMax =  -5.98961808970233E-11  1.79826662781612E-02
 cg2d: Sum(rhs),rhsMax =  -5.99046732358000E-11  1.79917329852445E-02
 cg2d: Sum(rhs),rhsMax =  -5.99276669954740E-11  1.80004996083338E-02
 cg2d: Sum(rhs),rhsMax =  -5.99534588641149E-11  1.80089568542271E-02
 cg2d: Sum(rhs),rhsMax =  -5.99823871128002E-11  1.80169930290919E-02
 cg2d: Sum(rhs),rhsMax =  -6.00484731383411E-11  1.80248185996629E-02
 cg2d: Sum(rhs),rhsMax =  -6.00739180622867E-11  1.80321765753644E-02
 cg2d: Sum(rhs),rhsMax =  -6.00885313728483E-11  1.80392330798183E-02
 cg2d: Sum(rhs),rhsMax =  -6.01458466364946E-11  1.80457849289983E-02
 cg2d: Sum(rhs),rhsMax =  -6.01350497175801E-11  1.80520070748653E-02
 cg2d: Sum(rhs),rhsMax =  -6.01424882118451E-11  1.80577304755610E-02
 cg2d: Sum(rhs),rhsMax =  -6.01867722327398E-11  1.80631454809329E-02
 cg2d: Sum(rhs),rhsMax =  -6.02975447350218E-11  1.80679651408965E-02
 cg2d: Sum(rhs),rhsMax =  -6.03776195706729E-11  1.80721423901859E-02
 cg2d: Sum(rhs),rhsMax =  -6.04113981061971E-11  1.80754154559694E-02
 cg2d: Sum(rhs),rhsMax =  -6.04663541459161E-11  1.80778193173293E-02
 cg2d: Sum(rhs),rhsMax =  -6.05420158450443E-11  1.80794671102164E-02
 cg2d: Sum(rhs),rhsMax =  -6.06107941614198E-11  1.80803522258710E-02
 cg2d: Sum(rhs),rhsMax =  -6.05915595475182E-11  1.80808586329867E-02
 cg2d: Sum(rhs),rhsMax =  -6.06328320884586E-11  1.80810425216986E-02
 cg2d: Sum(rhs),rhsMax =  -6.06396322044844E-11  1.80808885785312E-02
 cg2d: Sum(rhs),rhsMax =  -6.07021932719221E-11  1.80804104376050E-02
 cg2d: Sum(rhs),rhsMax =  -6.07252581552586E-11  1.80796194823055E-02
 cg2d: Sum(rhs),rhsMax =  -6.07952577169613E-11  1.80785308894764E-02
 cg2d: Sum(rhs),rhsMax =  -6.08372241472921E-11  1.80771527263064E-02
 cg2d: Sum(rhs),rhsMax =  -6.08852968042584E-11  1.80754804825732E-02
 cg2d: Sum(rhs),rhsMax =  -6.09468031598226E-11  1.80736241655651E-02
 cg2d: Sum(rhs),rhsMax =  -6.10420047841842E-11  1.80716439236987E-02
 cg2d: Sum(rhs),rhsMax =  -6.10829720137929E-11  1.80695505109409E-02
 cg2d: Sum(rhs),rhsMax =  -6.12394024379626E-11  1.80673512004861E-02
 cg2d: Sum(rhs),rhsMax =  -6.13560868778507E-11  1.80651025974468E-02
 cg2d: Sum(rhs),rhsMax =  -6.14734374515535E-11  1.80628378489367E-02
 cg2d: Sum(rhs),rhsMax =  -6.16552364718359E-11  1.80605850854297E-02
 cg2d: Sum(rhs),rhsMax =  -6.17837447869363E-11  1.80583744551024E-02
 cg2d: Sum(rhs),rhsMax =  -6.18691209375299E-11  1.80562005206651E-02
 cg2d: Sum(rhs),rhsMax =  -6.19885254238284E-11  1.80540215221323E-02
 cg2d: Sum(rhs),rhsMax =  -6.20912765647574E-11  1.80517421253991E-02
 cg2d: Sum(rhs),rhsMax =  -6.22053519805377E-11  1.80492822756103E-02
 cg2d: Sum(rhs),rhsMax =  -6.22876750178136E-11  1.80465931059368E-02
 cg2d: Sum(rhs),rhsMax =  -6.24109652846982E-11  1.80435694323648E-02
 cg2d: Sum(rhs),rhsMax =  -6.25221541206145E-11  1.80400751789444E-02
 cg2d: Sum(rhs),rhsMax =  -6.26249607726947E-11  1.80360906964511E-02
 cg2d: Sum(rhs),rhsMax =  -6.26709795170655E-11  1.80316291483106E-02
 cg2d: Sum(rhs),rhsMax =  -6.27393137442311E-11  1.80267051259008E-02
 cg2d: Sum(rhs),rhsMax =  -6.28357366139198E-11  1.80213225985367E-02
 cg2d: Sum(rhs),rhsMax =  -6.29099550231160E-11  1.80154371431482E-02
 cg2d: Sum(rhs),rhsMax =  -6.29942209506851E-11  1.80090321274826E-02
 cg2d: Sum(rhs),rhsMax =  -6.30465124551449E-11  1.80021113142197E-02
 cg2d: Sum(rhs),rhsMax =  -6.31575347576074E-11  1.79946815062916E-02
 cg2d: Sum(rhs),rhsMax =  -6.32948138346023E-11  1.79866219199790E-02
 cg2d: Sum(rhs),rhsMax =  -6.33539887218149E-11  1.79779153802564E-02
 cg2d: Sum(rhs),rhsMax =  -6.35238528445825E-11  1.79685883157119E-02
 cg2d: Sum(rhs),rhsMax =  -6.35541619331548E-11  1.79586651326019E-02
 cg2d: Sum(rhs),rhsMax =  -6.36118935304353E-11  1.79481641630377E-02
 cg2d: Sum(rhs),rhsMax =  -6.37011554616151E-11  1.79371161331335E-02
 cg2d: Sum(rhs),rhsMax =  -6.38143982101269E-11  1.79254544220415E-02
 cg2d: Sum(rhs),rhsMax =  -6.38897823534990E-11  1.79132039822727E-02
 cg2d: Sum(rhs),rhsMax =  -6.40767439108458E-11  1.79003901678276E-02
 cg2d: Sum(rhs),rhsMax =  -6.42308983778150E-11  1.78870431526954E-02
 cg2d: Sum(rhs),rhsMax =  -6.43946007627960E-11  1.78732056585203E-02
 cg2d: Sum(rhs),rhsMax =  -6.45049569314438E-11  1.78589400340463E-02
 cg2d: Sum(rhs),rhsMax =  -6.46705466955666E-11  1.78442642608162E-02
 cg2d: Sum(rhs),rhsMax =  -6.47805697973070E-11  1.78291770497798E-02
 cg2d: Sum(rhs),rhsMax =  -6.48906484101985E-11  1.78136833479379E-02
 cg2d: Sum(rhs),rhsMax =  -6.49278408815235E-11  1.77978163419856E-02
 cg2d: Sum(rhs),rhsMax =  -6.50204334817772E-11  1.77816085797776E-02
 cg2d: Sum(rhs),rhsMax =  -6.51808607088356E-11  1.77650096265860E-02
 cg2d: Sum(rhs),rhsMax =  -6.53482823409490E-11  1.77480590496139E-02
 cg2d: Sum(rhs),rhsMax =  -6.54385434728511E-11  1.77277451898627E-02
 cg2d: Sum(rhs),rhsMax =  -6.55604459609549E-11  1.77102350686547E-02
 cg2d: Sum(rhs),rhsMax =  -6.56640297691524E-11  1.76927502650628E-02
 cg2d: Sum(rhs),rhsMax =  -6.58119114760325E-11  1.76747122691256E-02
 cg2d: Sum(rhs),rhsMax =  -6.59151622173226E-11  1.76563020980678E-02
 cg2d: Sum(rhs),rhsMax =  -6.60111965089527E-11  1.76377241418016E-02
 cg2d: Sum(rhs),rhsMax =  -6.60328458579329E-11  1.76190196949676E-02
 cg2d: Sum(rhs),rhsMax =  -6.61343202423836E-11  1.76002071493575E-02
 cg2d: Sum(rhs),rhsMax =  -6.61060095552557E-11  1.75813146246552E-02
 cg2d: Sum(rhs),rhsMax =  -6.60955734588242E-11  1.75623541215986E-02
 cg2d: Sum(rhs),rhsMax =  -6.61366517107354E-11  1.75433701806973E-02
 cg2d: Sum(rhs),rhsMax =  -6.61851684569115E-11  1.75244053748548E-02
 cg2d: Sum(rhs),rhsMax =  -6.62051524713547E-11  1.75053838617271E-02
 cg2d: Sum(rhs),rhsMax =  -6.62219168390266E-11  1.74862953593852E-02
 cg2d: Sum(rhs),rhsMax =  -6.62555565966727E-11  1.74671939768872E-02
 cg2d: Sum(rhs),rhsMax =  -6.62785937244337E-11  1.74481190793920E-02
 cg2d: Sum(rhs),rhsMax =  -6.62872534640258E-11  1.74291073418324E-02
 cg2d: Sum(rhs),rhsMax =  -6.63228361119650E-11  1.74101894578210E-02
 cg2d: Sum(rhs),rhsMax =  -6.63044064097562E-11  1.73914108745646E-02
 cg2d: Sum(rhs),rhsMax =  -6.63267218925512E-11  1.73727928319042E-02
 cg2d: Sum(rhs),rhsMax =  -6.62530585948673E-11  1.73541867176128E-02
 cg2d: Sum(rhs),rhsMax =  -6.61767862730755E-11  1.73354740945803E-02
 cg2d: Sum(rhs),rhsMax =  -6.60823062936799E-11  1.73166780759482E-02
 cg2d: Sum(rhs),rhsMax =  -6.61431465154294E-11  1.72978073772172E-02
 cg2d: Sum(rhs),rhsMax =  -6.60922983009016E-11  1.72788589426666E-02
 cg2d: Sum(rhs),rhsMax =  -6.61237176124985E-11  1.72598601691892E-02
 cg2d: Sum(rhs),rhsMax =  -6.60972943045124E-11  1.72409519891492E-02
 cg2d: Sum(rhs),rhsMax =  -6.60337895475038E-11  1.72221566076180E-02
 cg2d: Sum(rhs),rhsMax =  -6.60115295758601E-11  1.72034821616678E-02
 cg2d: Sum(rhs),rhsMax =  -6.59384213896885E-11  1.71849435040882E-02
 cg2d: Sum(rhs),rhsMax =  -6.59450827278363E-11  1.71666914347050E-02
 cg2d: Sum(rhs),rhsMax =  -6.59167165295571E-11  1.71488368359816E-02
 cg2d: Sum(rhs),rhsMax =  -6.59154397730788E-11  1.71313649422983E-02
 cg2d: Sum(rhs),rhsMax =  -6.58756382776460E-11  1.71142491360989E-02
 cg2d: Sum(rhs),rhsMax =  -6.58637033801313E-11  1.70974924047550E-02
 cg2d: Sum(rhs),rhsMax =  -6.58070264947241E-11  1.70811050826508E-02
 cg2d: Sum(rhs),rhsMax =  -6.57124354930261E-11  1.70651013365097E-02
 cg2d: Sum(rhs),rhsMax =  -6.56706911073002E-11  1.70494916137206E-02
 cg2d: Sum(rhs),rhsMax =  -6.56483756245052E-11  1.70342882620883E-02
 cg2d: Sum(rhs),rhsMax =  -6.55813181538178E-11  1.70195418567302E-02
 cg2d: Sum(rhs),rhsMax =  -6.55373533220427E-11  1.70053586271776E-02
 cg2d: Sum(rhs),rhsMax =  -6.54445941883353E-11  1.69917671114098E-02
 cg2d: Sum(rhs),rhsMax =  -6.53516130100229E-11  1.69787638320360E-02
 cg2d: Sum(rhs),rhsMax =  -6.52502496478746E-11  1.69663369703401E-02
 cg2d: Sum(rhs),rhsMax =  -6.51729226142095E-11  1.69544658124132E-02
 cg2d: Sum(rhs),rhsMax =  -6.50570708415898E-11  1.69431239210004E-02
 cg2d: Sum(rhs),rhsMax =  -6.49783560291439E-11  1.69323581547987E-02
 cg2d: Sum(rhs),rhsMax =  -6.48749387544001E-11  1.69216623910002E-02
 cg2d: Sum(rhs),rhsMax =  -6.47699116562706E-11  1.69121346129373E-02
 cg2d: Sum(rhs),rhsMax =  -6.45763997830784E-11  1.69033324759075E-02
 cg2d: Sum(rhs),rhsMax =  -6.44728159748809E-11  1.68951990921133E-02
 cg2d: Sum(rhs),rhsMax =  -6.44088671286625E-11  1.68878393693404E-02
 cg2d: Sum(rhs),rhsMax =  -6.43189945748190E-11  1.68812341569836E-02
 cg2d: Sum(rhs),rhsMax =  -6.42609576662068E-11  1.68753410791446E-02
 cg2d: Sum(rhs),rhsMax =  -6.42447761656229E-11  1.68702142842732E-02
 cg2d: Sum(rhs),rhsMax =  -6.42466635447647E-11  1.68658179811723E-02
 cg2d: Sum(rhs),rhsMax =  -6.41715569571488E-11  1.68621006518803E-02
 cg2d: Sum(rhs),rhsMax =  -6.40935915452445E-11  1.68589957775341E-02
 cg2d: Sum(rhs),rhsMax =  -6.40335562351879E-11  1.68562931798846E-02
 cg2d: Sum(rhs),rhsMax =  -6.40351938141492E-11  1.68539287831372E-02
 cg2d: Sum(rhs),rhsMax =  -6.39775177280200E-11  1.68518698555203E-02
 cg2d: Sum(rhs),rhsMax =  -6.39160391280313E-11  1.68500824867203E-02
 cg2d: Sum(rhs),rhsMax =  -6.39099606569715E-11  1.68485174578289E-02
 cg2d: Sum(rhs),rhsMax =  -6.38796238128236E-11  1.68471406180099E-02
 cg2d: Sum(rhs),rhsMax =  -6.38929187335435E-11  1.68459824375562E-02
 cg2d: Sum(rhs),rhsMax =  -6.37889047139240E-11  1.68449784749300E-02
 cg2d: Sum(rhs),rhsMax =  -6.37820074533835E-11  1.68440735903259E-02
 cg2d: Sum(rhs),rhsMax =  -6.37493391408839E-11  1.68433050662506E-02
 cg2d: Sum(rhs),rhsMax =  -6.37402214342941E-11  1.68426409679182E-02
 cg2d: Sum(rhs),rhsMax =  -6.36549216115334E-11  1.68420242615854E-02
 cg2d: Sum(rhs),rhsMax =  -6.36363323147648E-11  1.68414021363486E-02
 cg2d: Sum(rhs),rhsMax =  -6.36068697712489E-11  1.68407316097985E-02
 cg2d: Sum(rhs),rhsMax =  -6.35402876147939E-11  1.68399793234157E-02
 cg2d: Sum(rhs),rhsMax =  -6.34358537920932E-11  1.68391027062830E-02
 cg2d: Sum(rhs),rhsMax =  -6.33613687775827E-11  1.68380594489542E-02
 cg2d: Sum(rhs),rhsMax =  -6.33603256666726E-11  1.68368046777322E-02
 cg2d: Sum(rhs),rhsMax =  -6.33318467113675E-11  1.68352692652507E-02
 cg2d: Sum(rhs),rhsMax =  -6.32669958089416E-11  1.68334137116825E-02
 cg2d: Sum(rhs),rhsMax =  -6.31941859952079E-11  1.68312985957822E-02
 cg2d: Sum(rhs),rhsMax =  -6.31339910905915E-11  1.68289032961275E-02
 cg2d: Sum(rhs),rhsMax =  -6.30785146338297E-11  1.68262111733799E-02
 cg2d: Sum(rhs),rhsMax =  -6.29754581815689E-11  1.68232300209456E-02
 cg2d: Sum(rhs),rhsMax =  -6.29518659422956E-11  1.68199090152769E-02
 cg2d: Sum(rhs),rhsMax =  -6.28875423958064E-11  1.68162071318329E-02
 cg2d: Sum(rhs),rhsMax =  -6.27943114173135E-11  1.68120906300175E-02
 cg2d: Sum(rhs),rhsMax =  -6.27545237996685E-11  1.68076017977700E-02
 cg2d: Sum(rhs),rhsMax =  -6.27298490929462E-11  1.68027610750458E-02
 cg2d: Sum(rhs),rhsMax =  -6.27494445293308E-11  1.67975272561857E-02
 cg2d: Sum(rhs),rhsMax =  -6.27081442328148E-11  1.67918417298990E-02
 cg2d: Sum(rhs),rhsMax =  -6.26532714598227E-11  1.67857042130349E-02
 cg2d: Sum(rhs),rhsMax =  -6.26529661484909E-11  1.67791038522527E-02
 cg2d: Sum(rhs),rhsMax =  -6.26378116042048E-11  1.67720139181761E-02
 cg2d: Sum(rhs),rhsMax =  -6.26833862593656E-11  1.67644073753518E-02
 cg2d: Sum(rhs),rhsMax =  -6.26419194293959E-11  1.67562680939578E-02
 cg2d: Sum(rhs),rhsMax =  -6.26811380577408E-11  1.67475886489197E-02
 cg2d: Sum(rhs),rhsMax =  -6.26207696807768E-11  1.67383523198417E-02
 cg2d: Sum(rhs),rhsMax =  -6.25785534502654E-11  1.67285640071093E-02
 cg2d: Sum(rhs),rhsMax =  -6.25634544171305E-11  1.67182200144803E-02
 cg2d: Sum(rhs),rhsMax =  -6.25339779958267E-11  1.67073153768325E-02
 cg2d: Sum(rhs),rhsMax =  -6.25165474943401E-11  1.66958411483540E-02
 cg2d: Sum(rhs),rhsMax =  -6.25411944454868E-11  1.66837936354801E-02
 cg2d: Sum(rhs),rhsMax =  -6.25386409325301E-11  1.66711721488135E-02
 cg2d: Sum(rhs),rhsMax =  -6.25022256173224E-11  1.66579852117706E-02
 cg2d: Sum(rhs),rhsMax =  -6.24167384444263E-11  1.66442650649189E-02
 cg2d: Sum(rhs),rhsMax =  -6.23496809737389E-11  1.66300109114913E-02
 cg2d: Sum(rhs),rhsMax =  -6.22777940328945E-11  1.66152233918071E-02
 cg2d: Sum(rhs),rhsMax =  -6.21562246116980E-11  1.65999063771353E-02
 cg2d: Sum(rhs),rhsMax =  -6.20276607854464E-11  1.65840682892193E-02
 cg2d: Sum(rhs),rhsMax =  -6.19260198675420E-11  1.65677185740607E-02
 cg2d: Sum(rhs),rhsMax =  -6.19510553967473E-11  1.65508648813777E-02
 cg2d: Sum(rhs),rhsMax =  -6.19201356855115E-11  1.65335177183893E-02
 cg2d: Sum(rhs),rhsMax =  -6.18720075173940E-11  1.65156893240684E-02
 cg2d: Sum(rhs),rhsMax =  -6.18262663287794E-11  1.64973968043279E-02
 cg2d: Sum(rhs),rhsMax =  -6.17544904102374E-11  1.64786424402306E-02
 cg2d: Sum(rhs),rhsMax =  -6.17425000015714E-11  1.64594282458821E-02
 cg2d: Sum(rhs),rhsMax =  -6.17133566471750E-11  1.64397661866718E-02
 cg2d: Sum(rhs),rhsMax =  -6.14452932978793E-11  1.64782286414397E-02
 cg2d: Sum(rhs),rhsMax =  -6.12381256814842E-11  1.65208329487719E-02
 cg2d: Sum(rhs),rhsMax =  -6.09982064858627E-11  1.65628263618855E-02
 cg2d: Sum(rhs),rhsMax =  -6.08021966108652E-11  1.66041954562920E-02
 cg2d: Sum(rhs),rhsMax =  -6.06045769124819E-11  1.66449251977767E-02
 cg2d: Sum(rhs),rhsMax =  -6.03772587481899E-11  1.66849989859274E-02
 cg2d: Sum(rhs),rhsMax =  -6.01723115778441E-11  1.67243964539114E-02
 cg2d: Sum(rhs),rhsMax =  -5.99434391013176E-11  1.67630990103203E-02
 cg2d: Sum(rhs),rhsMax =  -5.97174532046552E-11  1.68010950455351E-02
 cg2d: Sum(rhs),rhsMax =  -5.95730131891514E-11  1.68383709981423E-02
 cg2d: Sum(rhs),rhsMax =  -5.93859406095021E-11  1.68749149699216E-02
 cg2d: Sum(rhs),rhsMax =  -5.91813265060637E-11  1.69106995247084E-02
 cg2d: Sum(rhs),rhsMax =  -5.89646109716568E-11  1.69456383498691E-02
 cg2d: Sum(rhs),rhsMax =  -5.87366821847013E-11  1.69797016772948E-02
 cg2d: Sum(rhs),rhsMax =  -5.85584913892490E-11  1.70128967126404E-02
 cg2d: Sum(rhs),rhsMax =  -5.83242343310530E-11  1.70452249837508E-02
 cg2d: Sum(rhs),rhsMax =  -5.80703263253213E-11  1.70766820901411E-02
 cg2d: Sum(rhs),rhsMax =  -5.78695980024690E-11  1.71072586499494E-02
 cg2d: Sum(rhs),rhsMax =  -5.76381165018347E-11  1.71369527646958E-02
 cg2d: Sum(rhs),rhsMax =  -5.74524872121174E-11  1.71657543843895E-02
 cg2d: Sum(rhs),rhsMax =  -5.72769609519241E-11  1.71936768317561E-02
 cg2d: Sum(rhs),rhsMax =  -5.71287461781367E-11  1.72207086063953E-02
 cg2d: Sum(rhs),rhsMax =  -5.69250202531180E-11  1.72468260419324E-02
 cg2d: Sum(rhs),rhsMax =  -5.68167735082170E-11  1.72720873660589E-02
 cg2d: Sum(rhs),rhsMax =  -5.66677815783123E-11  1.72964717568168E-02
 cg2d: Sum(rhs),rhsMax =  -5.65421043319247E-11  1.73199612148546E-02
 cg2d: Sum(rhs),rhsMax =  -5.64361890553755E-11  1.73427047851240E-02
 cg2d: Sum(rhs),rhsMax =  -5.63565860645099E-11  1.73648787082403E-02
 cg2d: Sum(rhs),rhsMax =  -5.62155877403825E-11  1.73865250876742E-02
 cg2d: Sum(rhs),rhsMax =  -5.61113377983702E-11  1.74076450105395E-02
 cg2d: Sum(rhs),rhsMax =  -5.60543833572069E-11  1.74282455578243E-02
 cg2d: Sum(rhs),rhsMax =  -5.59482460360528E-11  1.74483410886643E-02
 cg2d: Sum(rhs),rhsMax =  -5.58981749776422E-11  1.74679467487538E-02
 cg2d: Sum(rhs),rhsMax =  -5.58003643291727E-11  1.74870755580779E-02
 cg2d: Sum(rhs),rhsMax =  -5.56742429935753E-11  1.75057371267334E-02
 cg2d: Sum(rhs),rhsMax =  -5.56898971382225E-11  1.75239406184726E-02
 cg2d: Sum(rhs),rhsMax =  -5.57052182159623E-11  1.75416926874991E-02
 cg2d: Sum(rhs),rhsMax =  -5.57350832153247E-11  1.75589984775546E-02
 cg2d: Sum(rhs),rhsMax =  -5.57668355938290E-11  1.75758617595478E-02
 cg2d: Sum(rhs),rhsMax =  -5.57865975636673E-11  1.75922865952215E-02
 cg2d: Sum(rhs),rhsMax =  -5.59313706460784E-11  1.76082841019244E-02
 cg2d: Sum(rhs),rhsMax =  -5.59461366123060E-11  1.76238632330802E-02
 cg2d: Sum(rhs),rhsMax =  -5.59602364447187E-11  1.76390164092217E-02
 cg2d: Sum(rhs),rhsMax =  -5.60064217225431E-11  1.76537153142791E-02
 cg2d: Sum(rhs),rhsMax =  -5.60064217225431E-11  1.76680626240266E-02
 cg2d: Sum(rhs),rhsMax =  -5.59863266857974E-11  1.76820647555800E-02
 cg2d: Sum(rhs),rhsMax =  -5.59809976152792E-11  1.76957056827337E-02
 cg2d: Sum(rhs),rhsMax =  -5.60347324096711E-11  1.77088028408950E-02
 cg2d: Sum(rhs),rhsMax =  -5.61238833185485E-11  1.77212859606743E-02
 cg2d: Sum(rhs),rhsMax =  -5.62109248036791E-11  1.77331626928914E-02
 cg2d: Sum(rhs),rhsMax =  -5.62732083153605E-11  1.77444457692574E-02
 cg2d: Sum(rhs),rhsMax =  -5.64127633495559E-11  1.77551429406683E-02
 cg2d: Sum(rhs),rhsMax =  -5.64746027720275E-11  1.77652598343001E-02
 cg2d: Sum(rhs),rhsMax =  -5.65494318038873E-11  1.77748061578984E-02
 cg2d: Sum(rhs),rhsMax =  -5.66323654638268E-11  1.77835922307945E-02
 cg2d: Sum(rhs),rhsMax =  -5.66376945343450E-11  1.77913633667676E-02
 cg2d: Sum(rhs),rhsMax =  -5.66434121829218E-11  1.77981132163100E-02
 cg2d: Sum(rhs),rhsMax =  -5.66873215035457E-11  1.78038647559465E-02
 cg2d: Sum(rhs),rhsMax =  -5.67244029525682E-11  1.78086546700164E-02
 cg2d: Sum(rhs),rhsMax =  -5.67952906926905E-11  1.78125218495605E-02
 cg2d: Sum(rhs),rhsMax =  -5.68686764346182E-11  1.78155122308393E-02
 cg2d: Sum(rhs),rhsMax =  -5.69647107262483E-11  1.78176663100673E-02
 cg2d: Sum(rhs),rhsMax =  -5.70109515152240E-11  1.78190210432797E-02
 cg2d: Sum(rhs),rhsMax =  -5.70544167466380E-11  1.78196144928194E-02
 cg2d: Sum(rhs),rhsMax =  -5.71842573293679E-11  1.78194825323122E-02
 cg2d: Sum(rhs),rhsMax =  -5.72480396421327E-11  1.78186607386651E-02
 cg2d: Sum(rhs),rhsMax =  -5.73669445280700E-11  1.78171220638972E-02
 cg2d: Sum(rhs),rhsMax =  -5.74466030300869E-11  1.78149038170235E-02
 cg2d: Sum(rhs),rhsMax =  -5.75717806761133E-11  1.78120544243935E-02
 cg2d: Sum(rhs),rhsMax =  -5.77611292129632E-11  1.78086203683026E-02
 cg2d: Sum(rhs),rhsMax =  -5.79049586058034E-11  1.78046472137223E-02
 cg2d: Sum(rhs),rhsMax =  -5.80189229992811E-11  1.78001777266709E-02
 cg2d: Sum(rhs),rhsMax =  -5.81495407381283E-11  1.77952530146091E-02
 cg2d: Sum(rhs),rhsMax =  -5.82755510514232E-11  1.77899167454953E-02
 cg2d: Sum(rhs),rhsMax =  -5.84205461784393E-11  1.77842249248492E-02
 cg2d: Sum(rhs),rhsMax =  -5.85452797352559E-11  1.77782384560630E-02
 cg2d: Sum(rhs),rhsMax =  -5.87422332998244E-11  1.77719933320222E-02
 cg2d: Sum(rhs),rhsMax =  -5.88560311598485E-11  1.77655221597704E-02
 cg2d: Sum(rhs),rhsMax =  -5.89348569945969E-11  1.77588718512520E-02
 cg2d: Sum(rhs),rhsMax =  -5.90326121319151E-11  1.77520854081514E-02
 cg2d: Sum(rhs),rhsMax =  -5.91561244434047E-11  1.77452005351229E-02
 cg2d: Sum(rhs),rhsMax =  -5.93176618934876E-11  1.77382502758159E-02
 cg2d: Sum(rhs),rhsMax =  -5.94564952827170E-11  1.77312666509757E-02
 cg2d: Sum(rhs),rhsMax =  -5.94818638788297E-11  1.77242900456887E-02
 cg2d: Sum(rhs),rhsMax =  -5.95194449282133E-11  1.77173532015588E-02
 cg2d: Sum(rhs),rhsMax =  -5.95989368967764E-11  1.77104842868771E-02
 cg2d: Sum(rhs),rhsMax =  -5.96891980286784E-11  1.77037070448114E-02
 cg2d: Sum(rhs),rhsMax =  -5.97480398489836E-11  1.76965973516811E-02
 cg2d: Sum(rhs),rhsMax =  -5.98017468877998E-11  1.76891160119882E-02
 cg2d: Sum(rhs),rhsMax =  -5.99355010066915E-11  1.76813261024757E-02
 cg2d: Sum(rhs),rhsMax =  -6.00427207952947E-11  1.76732952944966E-02
 cg2d: Sum(rhs),rhsMax =  -6.00936522765494E-11  1.76650559490312E-02
 cg2d: Sum(rhs),rhsMax =  -6.02336513999546E-11  1.76566363372285E-02
 cg2d: Sum(rhs),rhsMax =  -6.03205818627828E-11  1.76480623095014E-02
 cg2d: Sum(rhs),rhsMax =  -6.04376826363051E-11  1.76393571853178E-02
 cg2d: Sum(rhs),rhsMax =  -6.04594707631634E-11  1.76305425323226E-02
 cg2d: Sum(rhs),rhsMax =  -6.05670513742496E-11  1.76216362896383E-02
 cg2d: Sum(rhs),rhsMax =  -6.07580930012119E-11  1.76126582297310E-02
 cg2d: Sum(rhs),rhsMax =  -6.07892625126283E-11  1.76036307592272E-02
 cg2d: Sum(rhs),rhsMax =  -6.09037265064671E-11  1.75945694463254E-02
 cg2d: Sum(rhs),rhsMax =  -6.09211014968025E-11  1.75854880911083E-02
 cg2d: Sum(rhs),rhsMax =  -6.10143047197198E-11  1.75764015639462E-02
 cg2d: Sum(rhs),rhsMax =  -6.11130729355480E-11  1.75673272690017E-02
 cg2d: Sum(rhs),rhsMax =  -6.11582035014990E-11  1.75583553649588E-02
 cg2d: Sum(rhs),rhsMax =  -6.12880302064411E-11  1.75495207286667E-02
 cg2d: Sum(rhs),rhsMax =  -6.13648437619574E-11  1.75407960864038E-02
 cg2d: Sum(rhs),rhsMax =  -6.14366751916506E-11  1.75321795061417E-02
 cg2d: Sum(rhs),rhsMax =  -6.14430381573605E-11  1.75236763765849E-02
 cg2d: Sum(rhs),rhsMax =  -6.15276857240943E-11  1.75152932661429E-02
 cg2d: Sum(rhs),rhsMax =  -6.16393464047960E-11  1.75070349951947E-02
 cg2d: Sum(rhs),rhsMax =  -6.16915060702716E-11  1.74985642469007E-02
 cg2d: Sum(rhs),rhsMax =  -6.18282252652647E-11  1.74898258730287E-02
 cg2d: Sum(rhs),rhsMax =  -6.19743232427306E-11  1.74808543301029E-02
 cg2d: Sum(rhs),rhsMax =  -6.21405704670508E-11  1.74716744948814E-02
 cg2d: Sum(rhs),rhsMax =  -6.22256551841005E-11  1.74623042397891E-02
 cg2d: Sum(rhs),rhsMax =  -6.23324447612816E-11  1.74527599478649E-02
 cg2d: Sum(rhs),rhsMax =  -6.24097856727346E-11  1.74430552074856E-02
 cg2d: Sum(rhs),rhsMax =  -6.25332841064363E-11  1.74332054694738E-02
 cg2d: Sum(rhs),rhsMax =  -6.26176610563078E-11  1.74233440821831E-02
 cg2d: Sum(rhs),rhsMax =  -6.26634300004980E-11  1.74135857839781E-02
 cg2d: Sum(rhs),rhsMax =  -6.27990576207438E-11  1.74039288214233E-02
 cg2d: Sum(rhs),rhsMax =  -6.28942314895298E-11  1.73943757064811E-02
 cg2d: Sum(rhs),rhsMax =  -6.29580693134457E-11  1.73849375192364E-02
 cg2d: Sum(rhs),rhsMax =  -6.31350249857832E-11  1.73756985805598E-02
 cg2d: Sum(rhs),rhsMax =  -6.32412733292398E-11  1.73666592710912E-02
 cg2d: Sum(rhs),rhsMax =  -6.33408880901243E-11  1.73578091018514E-02
 cg2d: Sum(rhs),rhsMax =  -6.34575725300124E-11  1.73491428750402E-02
 cg2d: Sum(rhs),rhsMax =  -6.36050379032582E-11  1.73406573069513E-02
 cg2d: Sum(rhs),rhsMax =  -6.36544428278540E-11  1.73323278119445E-02
 cg2d: Sum(rhs),rhsMax =  -6.36943275900137E-11  1.73241248767134E-02
 cg2d: Sum(rhs),rhsMax =  -6.37970787309428E-11  1.73161703552518E-02
 cg2d: Sum(rhs),rhsMax =  -6.39249486678040E-11  1.73083555543138E-02
 cg2d: Sum(rhs),rhsMax =  -6.40033026577669E-11  1.73006502600424E-02
 cg2d: Sum(rhs),rhsMax =  -6.40301145438116E-11  1.72931296486710E-02
 cg2d: Sum(rhs),rhsMax =  -6.40990316380652E-11  1.72857846311265E-02
 cg2d: Sum(rhs),rhsMax =  -6.42091657621080E-11  1.72784884635865E-02
 cg2d: Sum(rhs),rhsMax =  -6.42687569829548E-11  1.72711907496772E-02
 cg2d: Sum(rhs),rhsMax =  -6.43407549461017E-11  1.72638616024923E-02
 cg2d: Sum(rhs),rhsMax =  -6.45347109085037E-11  1.72564960346196E-02
 cg2d: Sum(rhs),rhsMax =  -6.46970255147039E-11  1.72490788449953E-02
 cg2d: Sum(rhs),rhsMax =  -6.48672227043789E-11  1.72416128170621E-02
 cg2d: Sum(rhs),rhsMax =  -6.49655884643607E-11  1.72342013444866E-02
 cg2d: Sum(rhs),rhsMax =  -6.50722808970272E-11  1.72268561480272E-02
 cg2d: Sum(rhs),rhsMax =  -6.52240483844935E-11  1.72195675402540E-02
 cg2d: Sum(rhs),rhsMax =  -6.52670140155465E-11  1.72123360199747E-02
 cg2d: Sum(rhs),rhsMax =  -6.53042619980226E-11  1.72053337640864E-02
 cg2d: Sum(rhs),rhsMax =  -6.54173382130807E-11  1.71987427143322E-02
 cg2d: Sum(rhs),rhsMax =  -6.55491216861037E-11  1.71925586675429E-02
 cg2d: Sum(rhs),rhsMax =  -6.56690257727632E-11  1.71867477093802E-02
 cg2d: Sum(rhs),rhsMax =  -6.57867649245247E-11  1.71810838020370E-02
 cg2d: Sum(rhs),rhsMax =  -6.58907928219321E-11  1.71755148075955E-02
 cg2d: Sum(rhs),rhsMax =  -6.59682863890509E-11  1.71700446923800E-02
 cg2d: Sum(rhs),rhsMax =  -6.60290710996492E-11  1.71646903831057E-02
 cg2d: Sum(rhs),rhsMax =  -6.61309895733098E-11  1.71594550658032E-02
 cg2d: Sum(rhs),rhsMax =  -6.62389587624546E-11  1.71543283398017E-02
 cg2d: Sum(rhs),rhsMax =  -6.63569754699722E-11  1.71493008187278E-02
 cg2d: Sum(rhs),rhsMax =  -6.64441279774053E-11  1.71443656609323E-02
 cg2d: Sum(rhs),rhsMax =  -6.65567601032535E-11  1.71395126375921E-02
 cg2d: Sum(rhs),rhsMax =  -6.66549038186304E-11  1.71347345955323E-02
(PID.TID 0000.0001)      cg2d_init_res =   3.31167245819727E-02
(PID.TID 0000.0001)      cg2d_iters(min,last) =      -1      38
(PID.TID 0000.0001)      cg2d_last_res =   6.25783459935946E-14
(PID.TID 0000.0001) // =======================================================
(PID.TID 0000.0001) // Begin MONITOR dynamic field statistics
(PID.TID 0000.0001) // =======================================================
(PID.TID 0000.0001) %MON time_tsnumber                =                  6240
(PID.TID 0000.0001) %MON time_secondsf                =   9.3600000000000E+04
(PID.TID 0000.0001) %MON dynstat_eta_max              =   2.4864798440669E-03
(PID.TID 0000.0001) %MON dynstat_eta_min              =  -6.1770183496259E-03
(PID.TID 0000.0001) %MON dynstat_eta_mean             =   2.6098938234558E-15
(PID.TID 0000.0001) %MON dynstat_eta_sd               =   2.3923987953180E-03
(PID.TID 0000.0001) %MON dynstat_eta_del2             =   1.3559436349950E-05
(PID.TID 0000.0001) %MON dynstat_uvel_max             =   1.4190714982599E+00
(PID.TID 0000.0001) %MON dynstat_uvel_min             =  -2.6973402683306E-02
(PID.TID 0000.0001) %MON dynstat_uvel_mean            =   5.6136830334461E-01
(PID.TID 0000.0001) %MON dynstat_uvel_sd              =   5.3222761543191E-02
(PID.TID 0000.0001) %MON dynstat_uvel_del2            =   4.5439857603392E-04
(PID.TID 0000.0001) %MON dynstat_vvel_max             =   0.0000000000000E+00
(PID.TID 0000.0001) %MON dynstat_vvel_min             =   0.0000000000000E+00
(PID.TID 0000.0001) %MON dynstat_vvel_mean            =   0.0000000000000E+00
(PID.TID 0000.0001) %MON dynstat_vvel_sd              =   0.0000000000000E+00
(PID.TID 0000.0001) %MON dynstat_vvel_del2            =   0.0000000000000E+00
(PID.TID 0000.0001) %MON dynstat_wvel_max             =   1.7510392475513E-02
(PID.TID 0000.0001) %MON dynstat_wvel_min             =  -1.1199018094178E-02
(PID.TID 0000.0001) %MON dynstat_wvel_mean            =  -2.4872862469191E-20
(PID.TID 0000.0001) %MON dynstat_wvel_sd              =   1.7547641871699E-03
(PID.TID 0000.0001) %MON dynstat_wvel_del2            =   3.8633715851092E-05
(PID.TID 0000.0001) %MON dynstat_theta_max            =   1.5000000000018E+01
(PID.TID 0000.0001) %MON dynstat_theta_min            =   9.9999999999996E+00
(PID.TID 0000.0001) %MON dynstat_theta_mean           =   1.4008713536895E+01
(PID.TID 0000.0001) %MON dynstat_theta_sd             =   1.9115206450542E+00
(PID.TID 0000.0001) %MON dynstat_theta_del2           =   3.5325391472707E-04
(PID.TID 0000.0001) %MON dynstat_salt_max             =   3.5000000000000E+01
(PID.TID 0000.0001) %MON dynstat_salt_min             =   3.5000000000000E+01
(PID.TID 0000.0001) %MON dynstat_salt_mean            =   3.5000000000000E+01
(PID.TID 0000.0001) %MON dynstat_salt_sd              =   4.1922021409846E-13
(PID.TID 0000.0001) %MON dynstat_salt_del2            =   0.0000000000000E+00
(PID.TID 0000.0001) %MON dynstat_sst_max              =   1.5000000000000E+01
(PID.TID 0000.0001) %MON dynstat_sst_min              =   1.4999999999999E+01
(PID.TID 0000.0001) %MON dynstat_sst_mean             =   1.5000000000000E+01
(PID.TID 0000.0001) %MON dynstat_sst_sd               =   3.8317817044519E-13
(PID.TID 0000.0001) %MON dynstat_sst_del2             =   4.6255713469798E-15
(PID.TID 0000.0001) %MON dynstat_sss_max              =   3.5000000000000E+01
(PID.TID 0000.0001) %MON dynstat_sss_min              =   3.5000000000000E+01
(PID.TID 0000.0001) %MON dynstat_sss_mean             =   3.5000000000000E+01
(PID.TID 0000.0001) %MON dynstat_sss_sd               =   2.8421709430404E-14
(PID.TID 0000.0001) %MON dynstat_sss_del2             =   0.0000000000000E+00
(PID.TID 0000.0001) %MON forcing_qnet_max             =   0.0000000000000E+00
(PID.TID 0000.0001) %MON forcing_qnet_min             =   0.0000000000000E+00
(PID.TID 0000.0001) %MON forcing_qnet_mean            =   0.0000000000000E+00
(PID.TID 0000.0001) %MON forcing_qnet_sd              =   0.0000000000000E+00
(PID.TID 0000.0001) %MON forcing_qnet_del2            =   0.0000000000000E+00
(PID.TID 0000.0001) %MON forcing_qsw_max              =   0.0000000000000E+00
(PID.TID 0000.0001) %MON forcing_qsw_min              =   0.0000000000000E+00
(PID.TID 0000.0001) %MON forcing_qsw_mean             =   0.0000000000000E+00
(PID.TID 0000.0001) %MON forcing_qsw_sd               =   0.0000000000000E+00
(PID.TID 0000.0001) %MON forcing_qsw_del2             =   0.0000000000000E+00
(PID.TID 0000.0001) %MON forcing_empmr_max            =   0.0000000000000E+00
(PID.TID 0000.0001) %MON forcing_empmr_min            =   0.0000000000000E+00
(PID.TID 0000.0001) %MON forcing_empmr_mean           =   0.0000000000000E+00
(PID.TID 0000.0001) %MON forcing_empmr_sd             =   0.0000000000000E+00
(PID.TID 0000.0001) %MON forcing_empmr_del2           =   0.0000000000000E+00
(PID.TID 0000.0001) %MON forcing_fu_max               =   0.0000000000000E+00
(PID.TID 0000.0001) %MON forcing_fu_min               =   0.0000000000000E+00
(PID.TID 0000.0001) %MON forcing_fu_mean              =   0.0000000000000E+00
(PID.TID 0000.0001) %MON forcing_fu_sd                =   0.0000000000000E+00
(PID.TID 0000.0001) %MON forcing_fu_del2              =   0.0000000000000E+00
(PID.TID 0000.0001) %MON forcing_fv_max               =   0.0000000000000E+00
(PID.TID 0000.0001) %MON forcing_fv_min               =   0.0000000000000E+00
(PID.TID 0000.0001) %MON forcing_fv_mean              =   0.0000000000000E+00
(PID.TID 0000.0001) %MON forcing_fv_sd                =   0.0000000000000E+00
(PID.TID 0000.0001) %MON forcing_fv_del2              =   0.0000000000000E+00
(PID.TID 0000.0001) %MON advcfl_uvel_max              =   1.0248023190041E-01
(PID.TID 0000.0001) %MON advcfl_vvel_max              =   0.0000000000000E+00
(PID.TID 0000.0001) %MON advcfl_wvel_max              =   9.0425011673402E-02
(PID.TID 0000.0001) %MON advcfl_W_hf_max              =   1.0354845504272E-01
(PID.TID 0000.0001) %MON pe_b_mean                    =   1.4066481352085E-07
(PID.TID 0000.0001) %MON ke_max                       =   5.0868869677895E-01
(PID.TID 0000.0001) %MON ke_mean                      =   1.5901288309315E-01
(PID.TID 0000.0001) %MON ke_vol                       =   9.7476098603737E+10
(PID.TID 0000.0001) %MON vort_r_min                   =   0.0000000000000E+00
(PID.TID 0000.0001) %MON vort_r_max                   =   0.0000000000000E+00
(PID.TID 0000.0001) %MON vort_a_mean                  =   0.0000000000000E+00
(PID.TID 0000.0001) %MON vort_a_sd                    =   0.0000000000000E+00
(PID.TID 0000.0001) %MON vort_p_mean                  =   0.0000000000000E+00
(PID.TID 0000.0001) %MON vort_p_sd                    =   0.0000000000000E+00
(PID.TID 0000.0001) %MON surfExpan_theta_mean         =  -5.2158625710411E-19
(PID.TID 0000.0001) %MON surfExpan_salt_mean          =  -1.6689829135051E-18
(PID.TID 0000.0001) // =======================================================
(PID.TID 0000.0001) // End MONITOR dynamic field statistics
(PID.TID 0000.0001) // =======================================================
(PID.TID 0000.0001) // =======================================================
(PID.TID 0000.0001) // Begin OBCS MONITOR field statistics
(PID.TID 0000.0001) // =======================================================
(PID.TID 0000.0001) %MON obc_E_uVel_max               =   5.6028564143658E-01
(PID.TID 0000.0001) %MON obc_E_uVel_min               =   5.6028564143658E-01
(PID.TID 0000.0001) %MON obc_E_uVel_mean              =   5.6028564143658E-01
(PID.TID 0000.0001) %MON obc_E_uVel_sd                =   1.0536712127724E-08
(PID.TID 0000.0001) %MON obc_E_uVel_Int               =   5.6028564143658E+05
(PID.TID 0000.0001) %MON obc_W_uVel_max               =   5.6028564143658E-01
(PID.TID 0000.0001) %MON obc_W_uVel_min               =   5.6028564143658E-01
(PID.TID 0000.0001) %MON obc_W_uVel_mean              =   5.6028564143658E-01
(PID.TID 0000.0001) %MON obc_W_uVel_sd                =   1.0536712127724E-08
(PID.TID 0000.0001) %MON obc_W_uVel_Int               =   5.6028564143658E+05
(PID.TID 0000.0001) // =======================================================
(PID.TID 0000.0001) // End OBCS MONITOR field statistics
(PID.TID 0000.0001) // =======================================================
 cg2d: Sum(rhs),rhsMax =  -6.66942057137021E-11  1.71300239077528E-02
 cg2d: Sum(rhs),rhsMax =  -6.68198274489384E-11  1.71254657899018E-02
 cg2d: Sum(rhs),rhsMax =  -6.68840538509130E-11  1.71212252691500E-02
 cg2d: Sum(rhs),rhsMax =  -6.69675426223648E-11  1.71173823499614E-02
 cg2d: Sum(rhs),rhsMax =  -6.70010713577085E-11  1.71138983993577E-02
 cg2d: Sum(rhs),rhsMax =  -6.71055988554770E-11  1.71107530359065E-02
 cg2d: Sum(rhs),rhsMax =  -6.71173117083868E-11  1.71079296694087E-02
 cg2d: Sum(rhs),rhsMax =  -6.72215061392478E-11  1.71053901789360E-02
 cg2d: Sum(rhs),rhsMax =  -6.72886746322376E-11  1.71031060383545E-02
 cg2d: Sum(rhs),rhsMax =  -6.73927025296450E-11  1.71010494307512E-02
 cg2d: Sum(rhs),rhsMax =  -6.74718059201496E-11  1.70991661725560E-02
 cg2d: Sum(rhs),rhsMax =  -6.75443589948088E-11  1.70973124603449E-02
 cg2d: Sum(rhs),rhsMax =  -6.76507738717191E-11  1.70953878971290E-02
 cg2d: Sum(rhs),rhsMax =  -6.77334299759025E-11  1.70933479255165E-02
 cg2d: Sum(rhs),rhsMax =  -6.77983225116918E-11  1.70912054453363E-02
 cg2d: Sum(rhs),rhsMax =  -6.77902178836121E-11  1.70889803765942E-02
 cg2d: Sum(rhs),rhsMax =  -6.78002098908337E-11  1.70867004802466E-02
 cg2d: Sum(rhs),rhsMax =  -6.77913836177879E-11  1.70843077787108E-02
 cg2d: Sum(rhs),rhsMax =  -6.79269973602459E-11  1.70817718947469E-02
 cg2d: Sum(rhs),rhsMax =  -6.80498990490719E-11  1.70791210433688E-02
 cg2d: Sum(rhs),rhsMax =  -6.80934753027884E-11  1.70763724471312E-02
 cg2d: Sum(rhs),rhsMax =  -6.80511758055502E-11  1.70735368946187E-02
 cg2d: Sum(rhs),rhsMax =  -6.80796530261318E-11  1.70706591140204E-02
 cg2d: Sum(rhs),rhsMax =  -6.80614453685280E-11  1.70679657595088E-02
 cg2d: Sum(rhs),rhsMax =  -6.81533163238157E-11  1.70654918358268E-02
 cg2d: Sum(rhs),rhsMax =  -6.83643697207970E-11  1.70632331537821E-02
 cg2d: Sum(rhs),rhsMax =  -6.83951784097303E-11  1.70612497277928E-02
 cg2d: Sum(rhs),rhsMax =  -6.84229894964972E-11  1.70595620813475E-02
 cg2d: Sum(rhs),rhsMax =  -6.83427203718168E-11  1.70581750965618E-02
 cg2d: Sum(rhs),rhsMax =  -6.82421896769370E-11  1.70570802040369E-02
 cg2d: Sum(rhs),rhsMax =  -6.80801526264929E-11  1.70562834342352E-02
 cg2d: Sum(rhs),rhsMax =  -6.80265288544035E-11  1.70558122460626E-02
 cg2d: Sum(rhs),rhsMax =  -6.79263312264311E-11  1.70556760716576E-02
 cg2d: Sum(rhs),rhsMax =  -6.78780920360111E-11  1.70558610777323E-02
 cg2d: Sum(rhs),rhsMax =  -6.78249123531316E-11  1.70563654336632E-02
 cg2d: Sum(rhs),rhsMax =  -6.77713996033447E-11  1.70571893646606E-02
 cg2d: Sum(rhs),rhsMax =  -6.77589095943176E-11  1.70583304903996E-02
 cg2d: Sum(rhs),rhsMax =  -6.76922962128401E-11  1.70598374500377E-02
 cg2d: Sum(rhs),rhsMax =  -6.76655398379467E-11  1.70617363653258E-02
 cg2d: Sum(rhs),rhsMax =  -6.75891009827012E-11  1.70641175321102E-02
 cg2d: Sum(rhs),rhsMax =  -6.74695299629491E-11  1.70669810880975E-02
 cg2d: Sum(rhs),rhsMax =  -6.73817113217012E-11  1.70702998834527E-02
 cg2d: Sum(rhs),rhsMax =  -6.73612832180481E-11  1.70740625408795E-02
 cg2d: Sum(rhs),rhsMax =  -6.72393807299443E-11  1.70782577396727E-02
 cg2d: Sum(rhs),rhsMax =  -6.71270816710035E-11  1.70828103696602E-02
 cg2d: Sum(rhs),rhsMax =  -6.70848376849165E-11  1.70876966006788E-02
 cg2d: Sum(rhs),rhsMax =  -6.69606037284609E-11  1.70929029007530E-02
 cg2d: Sum(rhs),rhsMax =  -6.68542443627018E-11  1.70984211303432E-02
 cg2d: Sum(rhs),rhsMax =  -6.67944033416745E-11  1.71042441614638E-02
 cg2d: Sum(rhs),rhsMax =  -6.67271793375335E-11  1.71102981311088E-02
 cg2d: Sum(rhs),rhsMax =  -6.66470767463068E-11  1.71165526844785E-02
 cg2d: Sum(rhs),rhsMax =  -6.65416610701186E-11  1.71230309968960E-02
 cg2d: Sum(rhs),rhsMax =  -6.64306942788073E-11  1.71295992179273E-02
 cg2d: Sum(rhs),rhsMax =  -6.63646360088421E-11  1.71361225422092E-02
 cg2d: Sum(rhs),rhsMax =  -6.62939148021735E-11  1.71425351482215E-02
 cg2d: Sum(rhs),rhsMax =  -6.62258026196128E-11  1.71488387517216E-02
 cg2d: Sum(rhs),rhsMax =  -6.61646293309559E-11  1.71550377278490E-02
 cg2d: Sum(rhs),rhsMax =  -6.61078414232463E-11  1.71611842959655E-02
 cg2d: Sum(rhs),rhsMax =  -6.60477783576141E-11  1.71672907023936E-02
 cg2d: Sum(rhs),rhsMax =  -6.59122201263074E-11  1.71733502158896E-02
 cg2d: Sum(rhs),rhsMax =  -6.58256782415378E-11  1.71793583422007E-02
 cg2d: Sum(rhs),rhsMax =  -6.56956711253542E-11  1.71853113534451E-02
 cg2d: Sum(rhs),rhsMax =  -6.56025234135882E-11  1.71911928920351E-02
 cg2d: Sum(rhs),rhsMax =  -6.54600817995288E-11  1.71970049264966E-02
 cg2d: Sum(rhs),rhsMax =  -6.53197496092162E-11  1.72026943550248E-02
 cg2d: Sum(rhs),rhsMax =  -6.51678155882962E-11  1.72082338397392E-02
 cg2d: Sum(rhs),rhsMax =  -6.50526299494913E-11  1.72136348437939E-02
 cg2d: Sum(rhs),rhsMax =  -6.49050813095187E-11  1.72189082998741E-02
 cg2d: Sum(rhs),rhsMax =  -6.47304432277451E-11  1.72240631969932E-02
 cg2d: Sum(rhs),rhsMax =  -6.46465936338103E-11  1.72291093484259E-02
 cg2d: Sum(rhs),rhsMax =  -6.45440090263349E-11  1.72340518513347E-02
 cg2d: Sum(rhs),rhsMax =  -6.43849418224818E-11  1.72388953906317E-02
 cg2d: Sum(rhs),rhsMax =  -6.42058628486097E-11  1.72436499929916E-02
 cg2d: Sum(rhs),rhsMax =  -6.41413866464546E-11  1.72483262232790E-02
 cg2d: Sum(rhs),rhsMax =  -6.39845121330751E-11  1.72529316349741E-02
 cg2d: Sum(rhs),rhsMax =  -6.38121500085020E-11  1.72574791554080E-02
 cg2d: Sum(rhs),rhsMax =  -6.35859975783859E-11  1.72619732562744E-02
 cg2d: Sum(rhs),rhsMax =  -6.34441943425657E-11  1.72664802291987E-02
 cg2d: Sum(rhs),rhsMax =  -6.33011698614183E-11  1.72710294213985E-02
 cg2d: Sum(rhs),rhsMax =  -6.32097707509161E-11  1.72756181703113E-02
 cg2d: Sum(rhs),rhsMax =  -6.30346885799327E-11  1.72802445586216E-02
 cg2d: Sum(rhs),rhsMax =  -6.29123420026190E-11  1.72849212638143E-02
 cg2d: Sum(rhs),rhsMax =  -6.28369856148225E-11  1.72896535648527E-02
 cg2d: Sum(rhs),rhsMax =  -6.27350116300107E-11  1.72944343653939E-02
 cg2d: Sum(rhs),rhsMax =  -6.25709345447589E-11  1.72992627723211E-02
 cg2d: Sum(rhs),rhsMax =  -6.24265777959820E-11  1.73041795259498E-02
 cg2d: Sum(rhs),rhsMax =  -6.23174706282370E-11  1.73092425175339E-02
 cg2d: Sum(rhs),rhsMax =  -6.21897533470417E-11  1.73143263013729E-02
 cg2d: Sum(rhs),rhsMax =  -6.20376527926680E-11  1.73193735554991E-02
 cg2d: Sum(rhs),rhsMax =  -6.18820272801912E-11  1.73243779705173E-02
 cg2d: Sum(rhs),rhsMax =  -6.17357623355907E-11  1.73293368252040E-02
 cg2d: Sum(rhs),rhsMax =  -6.17304748984360E-11  1.73342437702565E-02
 cg2d: Sum(rhs),rhsMax =  -6.16842341094603E-11  1.73390895066453E-02
 cg2d: Sum(rhs),rhsMax =  -6.16101386487905E-11  1.73438630577665E-02
 cg2d: Sum(rhs),rhsMax =  -6.15858475327968E-11  1.73485391858340E-02
 cg2d: Sum(rhs),rhsMax =  -6.14818126964956E-11  1.73531034861185E-02
 cg2d: Sum(rhs),rhsMax =  -6.13969326768160E-11  1.73575440318142E-02
 cg2d: Sum(rhs),rhsMax =  -6.13114281566851E-11  1.73618729195100E-02
 cg2d: Sum(rhs),rhsMax =  -6.13330428111958E-11  1.73660926519262E-02
 cg2d: Sum(rhs),rhsMax =  -6.12482911610535E-11  1.73702245063198E-02
 cg2d: Sum(rhs),rhsMax =  -6.12123685073129E-11  1.73742582794474E-02
 cg2d: Sum(rhs),rhsMax =  -6.11063144528856E-11  1.73781835709957E-02
 cg2d: Sum(rhs),rhsMax =  -6.10235750819754E-11  1.73819905786292E-02
 cg2d: Sum(rhs),rhsMax =  -6.08346983899111E-11  1.73856638422987E-02
 cg2d: Sum(rhs),rhsMax =  -6.06839994921060E-11  1.73891881943214E-02
 cg2d: Sum(rhs),rhsMax =  -6.05933775377210E-11  1.73925168914101E-02
 cg2d: Sum(rhs),rhsMax =  -6.03956051836718E-11  1.73955455558609E-02
 cg2d: Sum(rhs),rhsMax =  -6.02537186811247E-11  1.73982502846381E-02
 cg2d: Sum(rhs),rhsMax =  -6.01082794648988E-11  1.74006192924962E-02
 cg2d: Sum(rhs),rhsMax =  -5.99303662252026E-11  1.74025572320687E-02
 cg2d: Sum(rhs),rhsMax =  -5.98412985830521E-11  1.74040525060791E-02
 cg2d: Sum(rhs),rhsMax =  -5.96973581679094E-11  1.74050994135787E-02
 cg2d: Sum(rhs),rhsMax =  -5.96429572397028E-11  1.74056929527035E-02
 cg2d: Sum(rhs),rhsMax =  -5.95123117452800E-11  1.74058229170761E-02
 cg2d: Sum(rhs),rhsMax =  -5.94190807667871E-11  1.74054792016197E-02
 cg2d: Sum(rhs),rhsMax =  -5.92787208208989E-11  1.74046225000342E-02
 cg2d: Sum(rhs),rhsMax =  -5.91900140012314E-11  1.74032281428606E-02
 cg2d: Sum(rhs),rhsMax =  -5.90548998591345E-11  1.74013530643305E-02
 cg2d: Sum(rhs),rhsMax =  -5.89118198668359E-11  1.73990087399875E-02
 cg2d: Sum(rhs),rhsMax =  -5.88435966619727E-11  1.73961903684991E-02
 cg2d: Sum(rhs),rhsMax =  -5.87426773890343E-11  1.73929200833927E-02
 cg2d: Sum(rhs),rhsMax =  -5.86612980413292E-11  1.73892116083415E-02
 cg2d: Sum(rhs),rhsMax =  -5.85545500975115E-11  1.73850898861905E-02
 cg2d: Sum(rhs),rhsMax =  -5.84766124411829E-11  1.73805803221481E-02
 cg2d: Sum(rhs),rhsMax =  -5.84070569686901E-11  1.73756663280594E-02
 cg2d: Sum(rhs),rhsMax =  -5.82491832545884E-11  1.73701822752229E-02
 cg2d: Sum(rhs),rhsMax =  -5.81321657477929E-11  1.73640631824385E-02
 cg2d: Sum(rhs),rhsMax =  -5.80910874958818E-11  1.73573021264790E-02
 cg2d: Sum(rhs),rhsMax =  -5.80436254615790E-11  1.73498318773842E-02
 cg2d: Sum(rhs),rhsMax =  -5.79502001940568E-11  1.73417609584555E-02
 cg2d: Sum(rhs),rhsMax =  -5.79046810500472E-11  1.73330986896359E-02
 cg2d: Sum(rhs),rhsMax =  -5.78741499168700E-11  1.73238415692836E-02
 cg2d: Sum(rhs),rhsMax =  -5.78308512189096E-11  1.73139785819665E-02
 cg2d: Sum(rhs),rhsMax =  -5.77117797995186E-11  1.73033722788018E-02
 cg2d: Sum(rhs),rhsMax =  -5.76106384819752E-11  1.72920022093369E-02
 cg2d: Sum(rhs),rhsMax =  -5.75902103783221E-11  1.72798774729816E-02
 cg2d: Sum(rhs),rhsMax =  -5.75696157412153E-11  1.72670228213472E-02
 cg2d: Sum(rhs),rhsMax =  -5.74890135496275E-11  1.72534197812509E-02
 cg2d: Sum(rhs),rhsMax =  -5.74720826485020E-11  1.72390826541328E-02
 cg2d: Sum(rhs),rhsMax =  -5.74049696666634E-11  1.72240307707146E-02
 cg2d: Sum(rhs),rhsMax =  -5.73125991110146E-11  1.72082699573425E-02
 cg2d: Sum(rhs),rhsMax =  -5.72961122990989E-11  1.71918201959735E-02
 cg2d: Sum(rhs),rhsMax =  -5.72635272533262E-11  1.71746822493396E-02
 cg2d: Sum(rhs),rhsMax =  -5.72545344468267E-11  1.71568705207609E-02
 cg2d: Sum(rhs),rhsMax =  -5.72389358133307E-11  1.71383743364537E-02
 cg2d: Sum(rhs),rhsMax =  -5.72700220580202E-11  1.71191976373555E-02
 cg2d: Sum(rhs),rhsMax =  -5.72826786005010E-11  1.70993601897398E-02
 cg2d: Sum(rhs),rhsMax =  -5.72957792321915E-11  1.70788980509749E-02
 cg2d: Sum(rhs),rhsMax =  -5.73160408023909E-11  1.70578302681213E-02
 cg2d: Sum(rhs),rhsMax =  -5.73445180229726E-11  1.70361827335858E-02
 cg2d: Sum(rhs),rhsMax =  -5.73722180874370E-11  1.70139466377358E-02
 cg2d: Sum(rhs),rhsMax =  -5.73147640459126E-11  1.69911357637196E-02
 cg2d: Sum(rhs),rhsMax =  -5.72784042418562E-11  1.69677650138850E-02
 cg2d: Sum(rhs),rhsMax =  -5.72203395776683E-11  1.69438670830236E-02
 cg2d: Sum(rhs),rhsMax =  -5.71979130725708E-11  1.69194606518554E-02
 cg2d: Sum(rhs),rhsMax =  -5.71472869026479E-11  1.68945644841609E-02
 cg2d: Sum(rhs),rhsMax =  -5.70524738563449E-11  1.68691884669493E-02
 cg2d: Sum(rhs),rhsMax =  -5.70752334283497E-11  1.68433549844257E-02
 cg2d: Sum(rhs),rhsMax =  -5.70373748232100E-11  1.68171106455917E-02
 cg2d: Sum(rhs),rhsMax =  -5.70266056598712E-11  1.67904694557109E-02
 cg2d: Sum(rhs),rhsMax =  -5.70090641360821E-11  1.67786028453330E-02
 cg2d: Sum(rhs),rhsMax =  -5.68134428391431E-11  1.68173867191347E-02
 cg2d: Sum(rhs),rhsMax =  -5.66183766537165E-11  1.68556734142538E-02
 cg2d: Sum(rhs),rhsMax =  -5.64464031072021E-11  1.68934609617698E-02
 cg2d: Sum(rhs),rhsMax =  -5.62725421815458E-11  1.69307584745765E-02
 cg2d: Sum(rhs),rhsMax =  -5.61302115897888E-11  1.69675647061392E-02
 cg2d: Sum(rhs),rhsMax =  -5.59051693826973E-11  1.70038772669639E-02
 cg2d: Sum(rhs),rhsMax =  -5.56527046668975E-11  1.70398359153945E-02
 cg2d: Sum(rhs),rhsMax =  -5.55014922909436E-11  1.70755865644863E-02
 cg2d: Sum(rhs),rhsMax =  -5.53581624984645E-11  1.71111444717610E-02
 cg2d: Sum(rhs),rhsMax =  -5.53112000645228E-11  1.71465660655013E-02
 cg2d: Sum(rhs),rhsMax =  -5.52541346010571E-11  1.71818703027908E-02
 cg2d: Sum(rhs),rhsMax =  -5.52189405311765E-11  1.72170492473001E-02
 cg2d: Sum(rhs),rhsMax =  -5.51271250870400E-11  1.72521543258212E-02
 cg2d: Sum(rhs),rhsMax =  -5.51206857934972E-11  1.72872478671308E-02
 cg2d: Sum(rhs),rhsMax =  -5.51109158308805E-11  1.73223273022625E-02
 cg2d: Sum(rhs),rhsMax =  -5.50853807013141E-11  1.73573812082792E-02
 cg2d: Sum(rhs),rhsMax =  -5.50676171329201E-11  1.73925428025602E-02
 cg2d: Sum(rhs),rhsMax =  -5.49846834729806E-11  1.74278571341743E-02
 cg2d: Sum(rhs),rhsMax =  -5.49420509088350E-11  1.74633079636662E-02
 cg2d: Sum(rhs),rhsMax =  -5.48248113574346E-11  1.74988243719772E-02
 cg2d: Sum(rhs),rhsMax =  -5.47381029392113E-11  1.75343801094467E-02
 cg2d: Sum(rhs),rhsMax =  -5.47075718060341E-11  1.75699571357559E-02
 cg2d: Sum(rhs),rhsMax =  -5.46875322804397E-11  1.76055564988121E-02
 cg2d: Sum(rhs),rhsMax =  -5.47111245197129E-11  1.76411770514299E-02
 cg2d: Sum(rhs),rhsMax =  -5.47025758024233E-11  1.76767960735504E-02
 cg2d: Sum(rhs),rhsMax =  -5.47059064714972E-11  1.77123864615564E-02
 cg2d: Sum(rhs),rhsMax =  -5.46919176613869E-11  1.77479228399233E-02
 cg2d: Sum(rhs),rhsMax =  -5.47431544539734E-11  1.77833811893964E-02
 cg2d: Sum(rhs),rhsMax =  -5.47151213226016E-11  1.78187359811936E-02
 cg2d: Sum(rhs),rhsMax =  -5.46649392418885E-11  1.78539611662248E-02
 cg2d: Sum(rhs),rhsMax =  -5.45731237977520E-11  1.78890265453756E-02
 cg2d: Sum(rhs),rhsMax =  -5.44854161788066E-11  1.79239009604311E-02
 cg2d: Sum(rhs),rhsMax =  -5.44594369600304E-11  1.79585530769109E-02
 cg2d: Sum(rhs),rhsMax =  -5.43663447594156E-11  1.79929527034693E-02
 cg2d: Sum(rhs),rhsMax =  -5.43521894158516E-11  1.80270716350335E-02
 cg2d: Sum(rhs),rhsMax =  -5.42781375401091E-11  1.80608787828478E-02
 cg2d: Sum(rhs),rhsMax =  -5.42605960163201E-11  1.80943422677311E-02
 cg2d: Sum(rhs),rhsMax =  -5.42106359802119E-11  1.81271560767997E-02
 cg2d: Sum(rhs),rhsMax =  -5.41367506379231E-11  1.81597907188923E-02
 cg2d: Sum(rhs),rhsMax =  -5.40422706585275E-11  1.81918538368794E-02
 cg2d: Sum(rhs),rhsMax =  -5.40077427224617E-11  1.82232798543711E-02
 cg2d: Sum(rhs),rhsMax =  -5.39639999352914E-11  1.82540821965246E-02
 cg2d: Sum(rhs),rhsMax =  -5.39461808557462E-11  1.82842591422220E-02
 cg2d: Sum(rhs),rhsMax =  -5.39116529196804E-11  1.83138103783607E-02
 cg2d: Sum(rhs),rhsMax =  -5.38707967123742E-11  1.83427392097696E-02
 cg2d: Sum(rhs),rhsMax =  -5.38808997418982E-11  1.83711236649813E-02
 cg2d: Sum(rhs),rhsMax =  -5.39032707358444E-11  1.83989993222436E-02
 cg2d: Sum(rhs),rhsMax =  -5.38750710710190E-11  1.84263483041702E-02
 cg2d: Sum(rhs),rhsMax =  -5.38536992777949E-11  1.84531455334675E-02
 cg2d: Sum(rhs),rhsMax =  -5.38408206907093E-11  1.84793679136958E-02
 cg2d: Sum(rhs),rhsMax =  -5.38237787672813E-11  1.85049902808132E-02
 cg2d: Sum(rhs),rhsMax =  -5.39061573157085E-11  1.85299960803167E-02
 cg2d: Sum(rhs),rhsMax =  -5.39011058009464E-11  1.85543614737828E-02
 cg2d: Sum(rhs),rhsMax =  -5.39575606417486E-11  1.85780645920971E-02
 cg2d: Sum(rhs),rhsMax =  -5.39844835500958E-11  1.86010808277576E-02
 cg2d: Sum(rhs),rhsMax =  -5.40437694596108E-11  1.86231591172630E-02
 cg2d: Sum(rhs),rhsMax =  -5.40367195434044E-11  1.86447369225515E-02
 cg2d: Sum(rhs),rhsMax =  -5.41066635939558E-11  1.86655732464478E-02
 cg2d: Sum(rhs),rhsMax =  -5.41132139098011E-11  1.86856143463688E-02
 cg2d: Sum(rhs),rhsMax =  -5.41848788060406E-11  1.87048550497792E-02
 cg2d: Sum(rhs),rhsMax =  -5.41783007346197E-11  1.87232835330083E-02
 cg2d: Sum(rhs),rhsMax =  -5.42335620856704E-11  1.87408840711536E-02
 cg2d: Sum(rhs),rhsMax =  -5.43050604484563E-11  1.87576421161718E-02
 cg2d: Sum(rhs),rhsMax =  -5.43243228179335E-11  1.87735442747135E-02
 cg2d: Sum(rhs),rhsMax =  -5.44083111897464E-11  1.87885803393291E-02
 cg2d: Sum(rhs),rhsMax =  -5.45027356579908E-11  1.88027426535203E-02
 cg2d: Sum(rhs),rhsMax =  -5.45625489234425E-11  1.88160246444352E-02
 cg2d: Sum(rhs),rhsMax =  -5.46682421553868E-11  1.88284288404874E-02
 cg2d: Sum(rhs),rhsMax =  -5.47292489105899E-11  1.88399158881926E-02
 cg2d: Sum(rhs),rhsMax =  -5.48062151217721E-11  1.88504780313923E-02
 cg2d: Sum(rhs),rhsMax =  -5.48859013793646E-11  1.88601244716906E-02
 cg2d: Sum(rhs),rhsMax =  -5.49613965450391E-11  1.88687727854236E-02
 cg2d: Sum(rhs),rhsMax =  -5.50308409952294E-11  1.88766086733407E-02
 cg2d: Sum(rhs),rhsMax =  -5.51126921877199E-11  1.88835189193256E-02
 cg2d: Sum(rhs),rhsMax =  -5.51897971767801E-11  1.88891592903138E-02
 cg2d: Sum(rhs),rhsMax =  -5.53042472928311E-11  1.88936274220344E-02
 cg2d: Sum(rhs),rhsMax =  -5.53660312041515E-11  1.88968105674861E-02
 cg2d: Sum(rhs),rhsMax =  -5.55112900091359E-11  1.88988902952397E-02
 cg2d: Sum(rhs),rhsMax =  -5.55990531392325E-11  1.88997247586409E-02
 cg2d: Sum(rhs),rhsMax =  -5.57099227860292E-11  1.88994801928735E-02
 cg2d: Sum(rhs),rhsMax =  -5.58396107130932E-11  1.88980229711913E-02
 cg2d: Sum(rhs),rhsMax =  -5.59192206428527E-11  1.88955214708168E-02
 cg2d: Sum(rhs),rhsMax =  -5.59854385073777E-11  1.88918562673428E-02
 cg2d: Sum(rhs),rhsMax =  -5.60745061495282E-11  1.88872104701160E-02
 cg2d: Sum(rhs),rhsMax =  -5.61765425843852E-11  1.88814613041812E-02
 cg2d: Sum(rhs),rhsMax =  -5.62435167883457E-11  1.88749446304725E-02
 cg2d: Sum(rhs),rhsMax =  -5.62765025552414E-11  1.88678393742316E-02
 cg2d: Sum(rhs),rhsMax =  -5.63510045917259E-11  1.88600182356382E-02
 cg2d: Sum(rhs),rhsMax =  -5.63813128129365E-11  1.88515692539981E-02
 cg2d: Sum(rhs),rhsMax =  -5.65958530041044E-11  1.88425280929453E-02
 cg2d: Sum(rhs),rhsMax =  -5.67737384882250E-11  1.88329913479226E-02
 cg2d: Sum(rhs),rhsMax =  -5.68710772919090E-11  1.88229093403027E-02
 cg2d: Sum(rhs),rhsMax =  -5.70350919271156E-11  1.88123687052098E-02
 cg2d: Sum(rhs),rhsMax =  -5.71521441283807E-11  1.88013964299805E-02
 cg2d: Sum(rhs),rhsMax =  -5.73100039646945E-11  1.87900764418752E-02
 cg2d: Sum(rhs),rhsMax =  -5.74849196022242E-11  1.87785086380932E-02
 cg2d: Sum(rhs),rhsMax =  -5.76504260996202E-11  1.87667224285343E-02
 cg2d: Sum(rhs),rhsMax =  -5.77962538939047E-11  1.87545834766936E-02
 cg2d: Sum(rhs),rhsMax =  -5.79687131629925E-11  1.87419540438384E-02
 cg2d: Sum(rhs),rhsMax =  -5.81220488404810E-11  1.87288439596807E-02
 cg2d: Sum(rhs),rhsMax =  -5.83027653933144E-11  1.87152903560153E-02
 cg2d: Sum(rhs),rhsMax =  -5.84434167727466E-11  1.87012938737178E-02
 cg2d: Sum(rhs),rhsMax =  -5.85506365613497E-11  1.86868368534605E-02
 cg2d: Sum(rhs),rhsMax =  -5.86581894168603E-11  1.86719309559464E-02
 cg2d: Sum(rhs),rhsMax =  -5.88581405835953E-11  1.86566192959274E-02
 cg2d: Sum(rhs),rhsMax =  -5.90864301930338E-11  1.86408656496776E-02
 cg2d: Sum(rhs),rhsMax =  -5.92392801479491E-11  1.86246314636025E-02
 cg2d: Sum(rhs),rhsMax =  -5.94254645491787E-11  1.86078814767498E-02
 cg2d: Sum(rhs),rhsMax =  -5.95686000526285E-11  1.85906490517042E-02
 cg2d: Sum(rhs),rhsMax =  -5.96943328101673E-11  1.85729709635186E-02
 cg2d: Sum(rhs),rhsMax =  -5.98887883729304E-11  1.85548744069533E-02
 cg2d: Sum(rhs),rhsMax =  -6.00621496982257E-11  1.85363846571143E-02
 cg2d: Sum(rhs),rhsMax =  -6.02458360976499E-11  1.85175203132940E-02
 cg2d: Sum(rhs),rhsMax =  -6.03628258488698E-11  1.84982917928771E-02
 cg2d: Sum(rhs),rhsMax =  -6.05468730707770E-11  1.84787241841789E-02
 cg2d: Sum(rhs),rhsMax =  -6.06646954892653E-11  1.84588307670984E-02
 cg2d: Sum(rhs),rhsMax =  -6.07866812440960E-11  1.84386396087044E-02
 cg2d: Sum(rhs),rhsMax =  -6.09697847764323E-11  1.84181898711177E-02
 cg2d: Sum(rhs),rhsMax =  -6.11213302192937E-11  1.83975164243058E-02
 cg2d: Sum(rhs),rhsMax =  -6.12829786916791E-11  1.83766324236500E-02
 cg2d: Sum(rhs),rhsMax =  -6.14765460760225E-11  1.83555786080239E-02
 cg2d: Sum(rhs),rhsMax =  -6.16446893531020E-11  1.83343335493630E-02
 cg2d: Sum(rhs),rhsMax =  -6.18249895723011E-11  1.83128759652513E-02
 cg2d: Sum(rhs),rhsMax =  -6.19763684817087E-11  1.82910835356409E-02
 cg2d: Sum(rhs),rhsMax =  -6.21240836551351E-11  1.82688710473999E-02
 cg2d: Sum(rhs),rhsMax =  -6.22681350925802E-11  1.82462536137115E-02
 cg2d: Sum(rhs),rhsMax =  -6.24488794009892E-11  1.82232471400500E-02
 cg2d: Sum(rhs),rhsMax =  -6.25375862206567E-11  1.81998803635547E-02
 cg2d: Sum(rhs),rhsMax =  -6.26566576400478E-11  1.81761856069659E-02
 cg2d: Sum(rhs),rhsMax =  -6.28364027477346E-11  1.81521737309337E-02
 cg2d: Sum(rhs),rhsMax =  -6.30143714985820E-11  1.81278451532645E-02
 cg2d: Sum(rhs),rhsMax =  -6.31817931306955E-11  1.81031852781804E-02
 cg2d: Sum(rhs),rhsMax =  -6.33326169285908E-11  1.80781309544864E-02
 cg2d: Sum(rhs),rhsMax =  -6.34833852153349E-11  1.80526968908735E-02
 cg2d: Sum(rhs),rhsMax =  -6.36369845707918E-11  1.80269104105771E-02
 cg2d: Sum(rhs),rhsMax =  -6.37930264169029E-11  1.80007646703239E-02
 cg2d: Sum(rhs),rhsMax =  -6.39634456511828E-11  1.79743341540102E-02
 cg2d: Sum(rhs),rhsMax =  -6.41036668191930E-11  1.79476844790815E-02
 cg2d: Sum(rhs),rhsMax =  -6.42089714730787E-11  1.79178489522610E-02
 cg2d: Sum(rhs),rhsMax =  -6.43575193137735E-11  1.78908914301507E-02
 cg2d: Sum(rhs),rhsMax =  -6.44921338555093E-11  1.78642168813792E-02
 cg2d: Sum(rhs),rhsMax =  -6.47478737292317E-11  1.78373387007788E-02
 cg2d: Sum(rhs),rhsMax =  -6.49407749797604E-11  1.78104465095640E-02
 cg2d: Sum(rhs),rhsMax =  -6.50683396052898E-11  1.77836512475758E-02
 cg2d: Sum(rhs),rhsMax =  -6.52127796207935E-11  1.77570320316296E-02
 cg2d: Sum(rhs),rhsMax =  -6.53712639575588E-11  1.77306452376231E-02
 cg2d: Sum(rhs),rhsMax =  -6.55780985070464E-11  1.77044907450749E-02
 cg2d: Sum(rhs),rhsMax =  -6.57546239679618E-11  1.76785977721151E-02
 cg2d: Sum(rhs),rhsMax =  -6.58997856284316E-11  1.76530263869674E-02
 cg2d: Sum(rhs),rhsMax =  -6.59968191207838E-11  1.76277991416161E-02
 cg2d: Sum(rhs),rhsMax =  -6.60863030965686E-11  1.76029547275374E-02
 cg2d: Sum(rhs),rhsMax =  -6.62612187340983E-11  1.75786906659329E-02
 cg2d: Sum(rhs),rhsMax =  -6.64557853191639E-11  1.75550814394040E-02
 cg2d: Sum(rhs),rhsMax =  -6.65223987006414E-11  1.75321330089755E-02
 cg2d: Sum(rhs),rhsMax =  -6.66222632617064E-11  1.75098302642905E-02
 cg2d: Sum(rhs),rhsMax =  -6.67181865310340E-11  1.74881562517845E-02
 cg2d: Sum(rhs),rhsMax =  -6.67997879233440E-11  1.74671175443714E-02
 cg2d: Sum(rhs),rhsMax =  -6.69317934409719E-11  1.74467287455097E-02
 cg2d: Sum(rhs),rhsMax =  -6.69954647314341E-11  1.74269958469630E-02
 cg2d: Sum(rhs),rhsMax =  -6.70798416813057E-11  1.74079293963877E-02
 cg2d: Sum(rhs),rhsMax =  -6.71303568289261E-11  1.73895236671203E-02
 cg2d: Sum(rhs),rhsMax =  -6.71500632876132E-11  1.73716670836154E-02
 cg2d: Sum(rhs),rhsMax =  -6.70546396186467E-11  1.73542944073177E-02
 cg2d: Sum(rhs),rhsMax =  -6.69578281708993E-11  1.73374021725500E-02
 cg2d: Sum(rhs),rhsMax =  -6.69218014337503E-11  1.73212105647238E-02
 cg2d: Sum(rhs),rhsMax =  -6.69332367309039E-11  1.73058523761162E-02
 cg2d: Sum(rhs),rhsMax =  -6.69090893801183E-11  1.72913050528360E-02
 cg2d: Sum(rhs),rhsMax =  -6.68896049660361E-11  1.72775247982804E-02
 cg2d: Sum(rhs),rhsMax =  -6.68429200878506E-11  1.72644890358668E-02
 cg2d: Sum(rhs),rhsMax =  -6.67823574218573E-11  1.72521667299301E-02
 cg2d: Sum(rhs),rhsMax =  -6.67325084080517E-11  1.72404912216307E-02
 cg2d: Sum(rhs),rhsMax =  -6.66124932990897E-11  1.72293884688441E-02
 cg2d: Sum(rhs),rhsMax =  -6.65011379297198E-11  1.72188603534915E-02
 cg2d: Sum(rhs),rhsMax =  -6.64561183860712E-11  1.72090466456238E-02
 cg2d: Sum(rhs),rhsMax =  -6.63656352095643E-11  1.71999460010982E-02
 cg2d: Sum(rhs),rhsMax =  -6.63423205260472E-11  1.71915151084113E-02
 cg2d: Sum(rhs),rhsMax =  -6.62778165683164E-11  1.71837194194051E-02
 cg2d: Sum(rhs),rhsMax =  -6.61897758824637E-11  1.71766672189530E-02
 cg2d: Sum(rhs),rhsMax =  -6.60278498543221E-11  1.71703232525035E-02
 cg2d: Sum(rhs),rhsMax =  -6.59291510274329E-11  1.71645895306061E-02
 cg2d: Sum(rhs),rhsMax =  -6.59049481654961E-11  1.71594070247303E-02
 cg2d: Sum(rhs),rhsMax =  -6.58447740775614E-11  1.71547286694368E-02
 cg2d: Sum(rhs),rhsMax =  -6.58434973210831E-11  1.71505392145370E-02
 cg2d: Sum(rhs),rhsMax =  -6.57018883742921E-11  1.71469518368701E-02
 cg2d: Sum(rhs),rhsMax =  -6.56555365630140E-11  1.71439130185227E-02
 cg2d: Sum(rhs),rhsMax =  -6.55644427638435E-11  1.71413318874049E-02
 cg2d: Sum(rhs),rhsMax =  -6.55062115662020E-11  1.71391706861357E-02
 cg2d: Sum(rhs),rhsMax =  -6.53774256953454E-11  1.71373936918044E-02
 cg2d: Sum(rhs),rhsMax =  -6.52674025936051E-11  1.71359597273250E-02
 cg2d: Sum(rhs),rhsMax =  -6.51719234134873E-11  1.71347928316292E-02
 cg2d: Sum(rhs),rhsMax =  -6.50869913521035E-11  1.71331868911260E-02
 cg2d: Sum(rhs),rhsMax =  -6.49055809098797E-11  1.71322160639797E-02
 cg2d: Sum(rhs),rhsMax =  -6.48791576018937E-11  1.71315748215937E-02
 cg2d: Sum(rhs),rhsMax =  -6.48083808840738E-11  1.71311484369951E-02
 cg2d: Sum(rhs),rhsMax =  -6.46708242513228E-11  1.71307479736768E-02
 cg2d: Sum(rhs),rhsMax =  -6.44990727494132E-11  1.71303120175583E-02
 cg2d: Sum(rhs),rhsMax =  -6.44312936337599E-11  1.71298070311312E-02
 cg2d: Sum(rhs),rhsMax =  -6.43067266103969E-11  1.71291855004733E-02
 cg2d: Sum(rhs),rhsMax =  -6.42318975785372E-11  1.71284054286391E-02
 cg2d: Sum(rhs),rhsMax =  -6.41179609406350E-11  1.71275467828764E-02
 cg2d: Sum(rhs),rhsMax =  -6.40271446972207E-11  1.71265904108725E-02
 cg2d: Sum(rhs),rhsMax =  -6.39200359309200E-11  1.71254804632110E-02
 cg2d: Sum(rhs),rhsMax =  -6.37788155621877E-11  1.71242400530818E-02
 cg2d: Sum(rhs),rhsMax =  -6.36889152527687E-11  1.71229572695338E-02
 cg2d: Sum(rhs),rhsMax =  -6.35831942652487E-11  1.71216247307367E-02
 cg2d: Sum(rhs),rhsMax =  -6.34672869814779E-11  1.71202116108816E-02
 cg2d: Sum(rhs),rhsMax =  -6.33856300780167E-11  1.71186906452158E-02
 cg2d: Sum(rhs),rhsMax =  -6.32909002984405E-11  1.71170236204174E-02
 cg2d: Sum(rhs),rhsMax =  -6.32216223817039E-11  1.71151777560327E-02
 cg2d: Sum(rhs),rhsMax =  -6.30639707122072E-11  1.71131263411371E-02
 cg2d: Sum(rhs),rhsMax =  -6.29104268679015E-11  1.71108589963368E-02
 cg2d: Sum(rhs),rhsMax =  -6.27798923957812E-11  1.71083606499666E-02
 cg2d: Sum(rhs),rhsMax =  -6.26941276671289E-11  1.71056149321654E-02
 cg2d: Sum(rhs),rhsMax =  -6.25730023351423E-11  1.71026143599703E-02
 cg2d: Sum(rhs),rhsMax =  -6.24709450836036E-11  1.70993819924944E-02
 cg2d: Sum(rhs),rhsMax =  -6.23556900558597E-11  1.70958905848612E-02
 cg2d: Sum(rhs),rhsMax =  -6.22154272544861E-11  1.70921180747165E-02
 cg2d: Sum(rhs),rhsMax =  -6.21008106049814E-11  1.70880461860788E-02
 cg2d: Sum(rhs),rhsMax =  -6.19770484933113E-11  1.70836652012112E-02
 cg2d: Sum(rhs),rhsMax =  -6.18358836357302E-11  1.70789640788857E-02
 cg2d: Sum(rhs),rhsMax =  -6.17780757106168E-11  1.70739750661679E-02
 cg2d: Sum(rhs),rhsMax =  -6.16615994375458E-11  1.70687045759705E-02
 cg2d: Sum(rhs),rhsMax =  -6.15585915575423E-11  1.70631277929777E-02
 cg2d: Sum(rhs),rhsMax =  -6.14623733852238E-11  1.70572382436722E-02
 cg2d: Sum(rhs),rhsMax =  -6.13338754784643E-11  1.70510543195420E-02
 cg2d: Sum(rhs),rhsMax =  -6.12399323959845E-11  1.70446033604572E-02
 cg2d: Sum(rhs),rhsMax =  -6.11483463690277E-11  1.70379220314809E-02
 cg2d: Sum(rhs),rhsMax =  -6.10254537874999E-11  1.70310128541666E-02
 cg2d: Sum(rhs),rhsMax =  -6.09303614507173E-11  1.70237470734726E-02
 cg2d: Sum(rhs),rhsMax =  -6.08133265966870E-11  1.70161064842770E-02
 cg2d: Sum(rhs),rhsMax =  -6.06968642014039E-11  1.70080325294621E-02
 cg2d: Sum(rhs),rhsMax =  -6.05258135277786E-11  1.69995588078832E-02
 cg2d: Sum(rhs),rhsMax =  -6.04248595603707E-11  1.69906895228629E-02
 cg2d: Sum(rhs),rhsMax =  -6.03386784980842E-11  1.69814331183468E-02
 cg2d: Sum(rhs),rhsMax =  -6.02556060602666E-11  1.69717906801992E-02
 cg2d: Sum(rhs),rhsMax =  -6.01605432137831E-11  1.69617626288152E-02
 cg2d: Sum(rhs),rhsMax =  -6.00742927625575E-11  1.69513486911739E-02
 cg2d: Sum(rhs),rhsMax =  -5.99629651487632E-11  1.69405557390743E-02
 cg2d: Sum(rhs),rhsMax =  -5.98748967073348E-11  1.69294015544756E-02
 cg2d: Sum(rhs),rhsMax =  -5.97582261452345E-11  1.69179121512352E-02
 cg2d: Sum(rhs),rhsMax =  -5.97185634276798E-11  1.69061347067371E-02
 cg2d: Sum(rhs),rhsMax =  -5.96380167472432E-11  1.68940995477388E-02
 cg2d: Sum(rhs),rhsMax =  -5.96173110878340E-11  1.68818513017763E-02
 cg2d: Sum(rhs),rhsMax =  -5.95968274730296E-11  1.68694069856112E-02
 cg2d: Sum(rhs),rhsMax =  -5.94916060858708E-11  1.68567702682417E-02
 cg2d: Sum(rhs),rhsMax =  -5.93650129054879E-11  1.68439440176015E-02
 cg2d: Sum(rhs),rhsMax =  -5.93068649745732E-11  1.68309300541550E-02
 cg2d: Sum(rhs),rhsMax =  -5.91836857299910E-11  1.68177044841203E-02
 cg2d: Sum(rhs),rhsMax =  -5.90976712011582E-11  1.68042318918610E-02
 cg2d: Sum(rhs),rhsMax =  -5.89949478158047E-11  1.67905141119678E-02
 cg2d: Sum(rhs),rhsMax =  -5.89691073749066E-11  1.67765660989251E-02
 cg2d: Sum(rhs),rhsMax =  -5.89640003489933E-11  1.67624016918120E-02
 cg2d: Sum(rhs),rhsMax =  -5.88874504714454E-11  1.67480553730639E-02
 cg2d: Sum(rhs),rhsMax =  -5.88307735860383E-11  1.67336177465056E-02
 cg2d: Sum(rhs),rhsMax =  -5.87423443221269E-11  1.67191761082676E-02
 cg2d: Sum(rhs),rhsMax =  -5.87297988019486E-11  1.67047437544044E-02
 cg2d: Sum(rhs),rhsMax =  -5.86721782269706E-11  1.66903239967472E-02
 cg2d: Sum(rhs),rhsMax =  -5.86546922143327E-11  1.66758991177300E-02
 cg2d: Sum(rhs),rhsMax =  -5.86066750685177E-11  1.66614487988386E-02
 cg2d: Sum(rhs),rhsMax =  -5.84874371156729E-11  1.66469818811773E-02
 cg2d: Sum(rhs),rhsMax =  -5.83797454822843E-11  1.66325262289772E-02
 cg2d: Sum(rhs),rhsMax =  -5.83773585027814E-11  1.66180903336115E-02
 cg2d: Sum(rhs),rhsMax =  -5.83291193123614E-11  1.66086896383298E-02
 cg2d: Sum(rhs),rhsMax =  -5.80856474030611E-11  1.66467810323749E-02
 cg2d: Sum(rhs),rhsMax =  -5.78775916082463E-11  1.66842145149952E-02
 cg2d: Sum(rhs),rhsMax =  -5.76307335187209E-11  1.67209745097601E-02
 cg2d: Sum(rhs),rhsMax =  -5.73732727993104E-11  1.67570533089740E-02
 cg2d: Sum(rhs),rhsMax =  -5.72218938899027E-11  1.67924648080976E-02
 cg2d: Sum(rhs),rhsMax =  -5.69549407636316E-11  1.68271998814586E-02
 cg2d: Sum(rhs),rhsMax =  -5.67750291224911E-11  1.68612510552086E-02
 cg2d: Sum(rhs),rhsMax =  -5.65225644066913E-11  1.68946156967344E-02
 cg2d: Sum(rhs),rhsMax =  -5.63392665853257E-11  1.69272925212122E-02
 cg2d: Sum(rhs),rhsMax =  -5.61464763570996E-11  1.69592810941616E-02
 cg2d: Sum(rhs),rhsMax =  -5.60222979117952E-11  1.69905819440898E-02
 cg2d: Sum(rhs),rhsMax =  -5.58866841693373E-11  1.70211991765677E-02
 cg2d: Sum(rhs),rhsMax =  -5.57133228440421E-11  1.70511299056563E-02
 cg2d: Sum(rhs),rhsMax =  -5.55849810623954E-11  1.70803637946083E-02
 cg2d: Sum(rhs),rhsMax =  -5.54977730438111E-11  1.71089143846257E-02
 cg2d: Sum(rhs),rhsMax =  -5.53357915045183E-11  1.71368089524924E-02
 cg2d: Sum(rhs),rhsMax =  -5.52146661725317E-11  1.71640542093919E-02
 cg2d: Sum(rhs),rhsMax =  -5.50700041124230E-11  1.71907046316455E-02
 cg2d: Sum(rhs),rhsMax =  -5.49228995616602E-11  1.72169615003825E-02
 cg2d: Sum(rhs),rhsMax =  -5.48093237462410E-11  1.72428788952001E-02
 cg2d: Sum(rhs),rhsMax =  -5.46116485367065E-11  1.72684592830343E-02
 cg2d: Sum(rhs),rhsMax =  -5.44041478534041E-11  1.72937039479112E-02
 cg2d: Sum(rhs),rhsMax =  -5.41807709808495E-11  1.73186165168680E-02
 cg2d: Sum(rhs),rhsMax =  -5.40096301016035E-11  1.73432204827663E-02
 cg2d: Sum(rhs),rhsMax =  -5.37370148379068E-11  1.73675167242856E-02
 cg2d: Sum(rhs),rhsMax =  -5.36312105836600E-11  1.73915071087566E-02
 cg2d: Sum(rhs),rhsMax =  -5.34541300112323E-11  1.74152130715353E-02
 cg2d: Sum(rhs),rhsMax =  -5.32762167715362E-11  1.74386290814240E-02
 cg2d: Sum(rhs),rhsMax =  -5.31212296372985E-11  1.74617553758828E-02
 cg2d: Sum(rhs),rhsMax =  -5.29445931540806E-11  1.74846027877433E-02
 cg2d: Sum(rhs),rhsMax =  -5.28046495418266E-11  1.75071827329057E-02
 cg2d: Sum(rhs),rhsMax =  -5.26588772586933E-11  1.75295082290681E-02
 cg2d: Sum(rhs),rhsMax =  -5.25574583853938E-11  1.75515775707640E-02
 cg2d: Sum(rhs),rhsMax =  -5.24679744096090E-11  1.75733863549236E-02
 cg2d: Sum(rhs),rhsMax =  -5.23880383518360E-11  1.75949302961427E-02
 cg2d: Sum(rhs),rhsMax =  -5.23000531771345E-11  1.76162173649199E-02
 cg2d: Sum(rhs),rhsMax =  -5.21776510886696E-11  1.76372523779410E-02
 cg2d: Sum(rhs),rhsMax =  -5.20445353480170E-11  1.76580457782381E-02
 cg2d: Sum(rhs),rhsMax =  -5.19043141800068E-11  1.76784164754265E-02
 cg2d: Sum(rhs),rhsMax =  -5.17779152886533E-11  1.76982893563424E-02
 cg2d: Sum(rhs),rhsMax =  -5.15978926252103E-11  1.77176756145923E-02
 cg2d: Sum(rhs),rhsMax =  -5.16260922900358E-11  1.77365924685222E-02
 cg2d: Sum(rhs),rhsMax =  -5.15706921611070E-11  1.77550467200118E-02
 cg2d: Sum(rhs),rhsMax =  -5.14747688917794E-11  1.77730121672164E-02
 cg2d: Sum(rhs),rhsMax =  -5.14397413553525E-11  1.77904818121007E-02
 cg2d: Sum(rhs),rhsMax =  -5.14525089201356E-11  1.78074608665928E-02
 cg2d: Sum(rhs),rhsMax =  -5.15659182021011E-11  1.78239532715648E-02
 cg2d: Sum(rhs),rhsMax =  -5.16335862954520E-11  1.78396494633771E-02
 cg2d: Sum(rhs),rhsMax =  -5.16794385063690E-11  1.78544218534595E-02
 cg2d: Sum(rhs),rhsMax =  -5.16300890929244E-11  1.78682206609671E-02
 cg2d: Sum(rhs),rhsMax =  -5.16207632195176E-11  1.78810749293788E-02
 cg2d: Sum(rhs),rhsMax =  -5.16316434051589E-11  1.78930168002881E-02
 cg2d: Sum(rhs),rhsMax =  -5.16566789343642E-11  1.79040465031780E-02
 cg2d: Sum(rhs),rhsMax =  -5.16518494642071E-11  1.79141894537339E-02
 cg2d: Sum(rhs),rhsMax =  -5.16574005793302E-11  1.79234708155252E-02
 cg2d: Sum(rhs),rhsMax =  -5.17812459577272E-11  1.79318927722915E-02
(PID.TID 0000.0001)      cg2d_init_res =   1.83125125187151E-02
(PID.TID 0000.0001)      cg2d_iters(min,last) =      -1      37
(PID.TID 0000.0001)      cg2d_last_res =   7.62706689499521E-14
(PID.TID 0000.0001) // =======================================================
(PID.TID 0000.0001) // Begin MONITOR dynamic field statistics
(PID.TID 0000.0001) // =======================================================
(PID.TID 0000.0001) %MON time_tsnumber                =                  6720
(PID.TID 0000.0001) %MON time_secondsf                =   1.0080000000000E+05
(PID.TID 0000.0001) %MON dynstat_eta_max              =   2.5896340170132E-03
(PID.TID 0000.0001) %MON dynstat_eta_min              =  -6.4992175896281E-03
(PID.TID 0000.0001) %MON dynstat_eta_mean             =   2.1238509203442E-15
(PID.TID 0000.0001) %MON dynstat_eta_sd               =   2.2546454656155E-03
(PID.TID 0000.0001) %MON dynstat_eta_del2             =   1.4111798255938E-05
(PID.TID 0000.0001) %MON dynstat_uvel_max             =   1.4243762260776E+00
(PID.TID 0000.0001) %MON dynstat_uvel_min             =  -2.5259282017177E-02
(PID.TID 0000.0001) %MON dynstat_uvel_mean            =   5.6142269814285E-01
(PID.TID 0000.0001) %MON dynstat_uvel_sd              =   5.5152589575832E-02
(PID.TID 0000.0001) %MON dynstat_uvel_del2            =   4.6326588509106E-04
(PID.TID 0000.0001) %MON dynstat_vvel_max             =   0.0000000000000E+00
(PID.TID 0000.0001) %MON dynstat_vvel_min             =   0.0000000000000E+00
(PID.TID 0000.0001) %MON dynstat_vvel_mean            =   0.0000000000000E+00
(PID.TID 0000.0001) %MON dynstat_vvel_sd              =   0.0000000000000E+00
(PID.TID 0000.0001) %MON dynstat_vvel_del2            =   0.0000000000000E+00
(PID.TID 0000.0001) %MON dynstat_wvel_max             =   2.0363669331238E-02
(PID.TID 0000.0001) %MON dynstat_wvel_min             =  -1.2142258509825E-02
(PID.TID 0000.0001) %MON dynstat_wvel_mean            =  -4.9137677474923E-21
(PID.TID 0000.0001) %MON dynstat_wvel_sd              =   1.7853641871254E-03
(PID.TID 0000.0001) %MON dynstat_wvel_del2            =   3.9312844260013E-05
(PID.TID 0000.0001) %MON dynstat_theta_max            =   1.5000000000018E+01
(PID.TID 0000.0001) %MON dynstat_theta_min            =   9.9999999999996E+00
(PID.TID 0000.0001) %MON dynstat_theta_mean           =   1.4008046556991E+01
(PID.TID 0000.0001) %MON dynstat_theta_sd             =   1.9110663367509E+00
(PID.TID 0000.0001) %MON dynstat_theta_del2           =   3.7613653054352E-04
(PID.TID 0000.0001) %MON dynstat_salt_max             =   3.5000000000000E+01
(PID.TID 0000.0001) %MON dynstat_salt_min             =   3.5000000000000E+01
(PID.TID 0000.0001) %MON dynstat_salt_mean            =   3.5000000000000E+01
(PID.TID 0000.0001) %MON dynstat_salt_sd              =   4.1922021409846E-13
(PID.TID 0000.0001) %MON dynstat_salt_del2            =   0.0000000000000E+00
(PID.TID 0000.0001) %MON dynstat_sst_max              =   1.5000000000000E+01
(PID.TID 0000.0001) %MON dynstat_sst_min              =   1.4999999999999E+01
(PID.TID 0000.0001) %MON dynstat_sst_mean             =   1.5000000000000E+01
(PID.TID 0000.0001) %MON dynstat_sst_sd               =   3.9327907010669E-13
(PID.TID 0000.0001) %MON dynstat_sst_del2             =   5.2957688987798E-15
(PID.TID 0000.0001) %MON dynstat_sss_max              =   3.5000000000000E+01
(PID.TID 0000.0001) %MON dynstat_sss_min              =   3.5000000000000E+01
(PID.TID 0000.0001) %MON dynstat_sss_mean             =   3.5000000000000E+01
(PID.TID 0000.0001) %MON dynstat_sss_sd               =   2.8421709430404E-14
(PID.TID 0000.0001) %MON dynstat_sss_del2             =   0.0000000000000E+00
(PID.TID 0000.0001) %MON forcing_qnet_max             =   0.0000000000000E+00
(PID.TID 0000.0001) %MON forcing_qnet_min             =   0.0000000000000E+00
(PID.TID 0000.0001) %MON forcing_qnet_mean            =   0.0000000000000E+00
(PID.TID 0000.0001) %MON forcing_qnet_sd              =   0.0000000000000E+00
(PID.TID 0000.0001) %MON forcing_qnet_del2            =   0.0000000000000E+00
(PID.TID 0000.0001) %MON forcing_qsw_max              =   0.0000000000000E+00
(PID.TID 0000.0001) %MON forcing_qsw_min              =   0.0000000000000E+00
(PID.TID 0000.0001) %MON forcing_qsw_mean             =   0.0000000000000E+00
(PID.TID 0000.0001) %MON forcing_qsw_sd               =   0.0000000000000E+00
(PID.TID 0000.0001) %MON forcing_qsw_del2             =   0.0000000000000E+00
(PID.TID 0000.0001) %MON forcing_empmr_max            =   0.0000000000000E+00
(PID.TID 0000.0001) %MON forcing_empmr_min            =   0.0000000000000E+00
(PID.TID 0000.0001) %MON forcing_empmr_mean           =   0.0000000000000E+00
(PID.TID 0000.0001) %MON forcing_empmr_sd             =   0.0000000000000E+00
(PID.TID 0000.0001) %MON forcing_empmr_del2           =   0.0000000000000E+00
(PID.TID 0000.0001) %MON forcing_fu_max               =   0.0000000000000E+00
(PID.TID 0000.0001) %MON forcing_fu_min               =   0.0000000000000E+00
(PID.TID 0000.0001) %MON forcing_fu_mean              =   0.0000000000000E+00
(PID.TID 0000.0001) %MON forcing_fu_sd                =   0.0000000000000E+00
(PID.TID 0000.0001) %MON forcing_fu_del2              =   0.0000000000000E+00
(PID.TID 0000.0001) %MON forcing_fv_max               =   0.0000000000000E+00
(PID.TID 0000.0001) %MON forcing_fv_min               =   0.0000000000000E+00
(PID.TID 0000.0001) %MON forcing_fv_mean              =   0.0000000000000E+00
(PID.TID 0000.0001) %MON forcing_fv_sd                =   0.0000000000000E+00
(PID.TID 0000.0001) %MON forcing_fv_del2              =   0.0000000000000E+00
(PID.TID 0000.0001) %MON advcfl_uvel_max              =   1.0286332023500E-01
(PID.TID 0000.0001) %MON advcfl_vvel_max              =   0.0000000000000E+00
(PID.TID 0000.0001) %MON advcfl_wvel_max              =   1.0379384494683E-01
(PID.TID 0000.0001) %MON advcfl_W_hf_max              =   1.0492306013807E-01
(PID.TID 0000.0001) %MON pe_b_mean                    =   1.2493233169086E-07
(PID.TID 0000.0001) %MON ke_max                       =   5.1249893287069E-01
(PID.TID 0000.0001) %MON ke_mean                      =   1.5914958884836E-01
(PID.TID 0000.0001) %MON ke_vol                       =   9.7476098603737E+10
(PID.TID 0000.0001) %MON vort_r_min                   =   0.0000000000000E+00
(PID.TID 0000.0001) %MON vort_r_max                   =   0.0000000000000E+00
(PID.TID 0000.0001) %MON vort_a_mean                  =   0.0000000000000E+00
(PID.TID 0000.0001) %MON vort_a_sd                    =   0.0000000000000E+00
(PID.TID 0000.0001) %MON vort_p_mean                  =   0.0000000000000E+00
(PID.TID 0000.0001) %MON vort_p_sd                    =   0.0000000000000E+00
(PID.TID 0000.0001) %MON surfExpan_theta_mean         =  -3.0357972852258E-19
(PID.TID 0000.0001) %MON surfExpan_salt_mean          =  -9.7534826087174E-19
(PID.TID 0000.0001) // =======================================================
(PID.TID 0000.0001) // End MONITOR dynamic field statistics
(PID.TID 0000.0001) // =======================================================
(PID.TID 0000.0001) // =======================================================
(PID.TID 0000.0001) // Begin OBCS MONITOR field statistics
(PID.TID 0000.0001) // =======================================================
(PID.TID 0000.0001) %MON obc_E_uVel_max               =   5.6028564143658E-01
(PID.TID 0000.0001) %MON obc_E_uVel_min               =   5.6028564143658E-01
(PID.TID 0000.0001) %MON obc_E_uVel_mean              =   5.6028564143658E-01
(PID.TID 0000.0001) %MON obc_E_uVel_sd                =   1.0536712127724E-08
(PID.TID 0000.0001) %MON obc_E_uVel_Int               =   5.6028564143658E+05
(PID.TID 0000.0001) %MON obc_W_uVel_max               =   5.6028564143658E-01
(PID.TID 0000.0001) %MON obc_W_uVel_min               =   5.6028564143658E-01
(PID.TID 0000.0001) %MON obc_W_uVel_mean              =   5.6028564143658E-01
(PID.TID 0000.0001) %MON obc_W_uVel_sd                =   1.0536712127724E-08
(PID.TID 0000.0001) %MON obc_W_uVel_Int               =   5.6028564143658E+05
(PID.TID 0000.0001) // =======================================================
(PID.TID 0000.0001) // End OBCS MONITOR field statistics
(PID.TID 0000.0001) // =======================================================
 cg2d: Sum(rhs),rhsMax =  -5.18705078889070E-11  1.79394605115279E-02
 cg2d: Sum(rhs),rhsMax =  -5.19898013529030E-11  1.79462201886548E-02
 cg2d: Sum(rhs),rhsMax =  -5.21137577536024E-11  1.79522193750297E-02
 cg2d: Sum(rhs),rhsMax =  -5.21989118595911E-11  1.79575015515550E-02
 cg2d: Sum(rhs),rhsMax =  -5.22732968022410E-11  1.79621009877712E-02
 cg2d: Sum(rhs),rhsMax =  -5.23740495417258E-11  1.79660509299068E-02
 cg2d: Sum(rhs),rhsMax =  -5.24215115760285E-11  1.79693895555782E-02
 cg2d: Sum(rhs),rhsMax =  -5.24574272908751E-11  1.79722102739082E-02
 cg2d: Sum(rhs),rhsMax =  -5.25171572895999E-11  1.79745504931014E-02
 cg2d: Sum(rhs),rhsMax =  -5.25301468989881E-11  1.79764324258181E-02
 cg2d: Sum(rhs),rhsMax =  -5.26021448621350E-11  1.79778864174994E-02
 cg2d: Sum(rhs),rhsMax =  -5.26668708644706E-11  1.79789373721254E-02
 cg2d: Sum(rhs),rhsMax =  -5.27418109186328E-11  1.79796371419723E-02
 cg2d: Sum(rhs),rhsMax =  -5.28257437792945E-11  1.79800199199717E-02
 cg2d: Sum(rhs),rhsMax =  -5.28364019203309E-11  1.79801125270456E-02
 cg2d: Sum(rhs),rhsMax =  -5.29424282191826E-11  1.79799608386520E-02
 cg2d: Sum(rhs),rhsMax =  -5.30158139611103E-11  1.79796041412064E-02
 cg2d: Sum(rhs),rhsMax =  -5.31281685312024E-11  1.79790661846865E-02
 cg2d: Sum(rhs),rhsMax =  -5.32338062519955E-11  1.79783712694849E-02
 cg2d: Sum(rhs),rhsMax =  -5.32540678221949E-11  1.79775450747688E-02
 cg2d: Sum(rhs),rhsMax =  -5.33150190662468E-11  1.79766149094837E-02
 cg2d: Sum(rhs),rhsMax =  -5.34166599841512E-11  1.79756058485002E-02
 cg2d: Sum(rhs),rhsMax =  -5.35581023974885E-11  1.79745335999673E-02
 cg2d: Sum(rhs),rhsMax =  -5.36028443853809E-11  1.79734192924661E-02
 cg2d: Sum(rhs),rhsMax =  -5.36416466800915E-11  1.79722923870886E-02
 cg2d: Sum(rhs),rhsMax =  -5.37514477372270E-11  1.79711750426547E-02
 cg2d: Sum(rhs),rhsMax =  -5.38629696400506E-11  1.79699273521819E-02
 cg2d: Sum(rhs),rhsMax =  -5.39874256411110E-11  1.79682792120511E-02
 cg2d: Sum(rhs),rhsMax =  -5.41139910659183E-11  1.79662338137983E-02
 cg2d: Sum(rhs),rhsMax =  -5.41855449398554E-11  1.79638483239454E-02
 cg2d: Sum(rhs),rhsMax =  -5.43096678740085E-11  1.79611620135416E-02
 cg2d: Sum(rhs),rhsMax =  -5.43720624079924E-11  1.79582018192867E-02
 cg2d: Sum(rhs),rhsMax =  -5.45118949979440E-11  1.79549840128779E-02
 cg2d: Sum(rhs),rhsMax =  -5.45972156373864E-11  1.79515279597222E-02
 cg2d: Sum(rhs),rhsMax =  -5.47523137939265E-11  1.79478682748422E-02
 cg2d: Sum(rhs),rhsMax =  -5.48573131364805E-11  1.79440331935708E-02
 cg2d: Sum(rhs),rhsMax =  -5.50216261441250E-11  1.79400438664026E-02
 cg2d: Sum(rhs),rhsMax =  -5.51358680933589E-11  1.79359158136943E-02
 cg2d: Sum(rhs),rhsMax =  -5.53028456362625E-11  1.79316638957259E-02
 cg2d: Sum(rhs),rhsMax =  -5.54369605776373E-11  1.79273119517516E-02
 cg2d: Sum(rhs),rhsMax =  -5.55842871730050E-11  1.79228771274552E-02
 cg2d: Sum(rhs),rhsMax =  -5.56711343691063E-11  1.79183689469172E-02
 cg2d: Sum(rhs),rhsMax =  -5.58616763957076E-11  1.79137978741743E-02
 cg2d: Sum(rhs),rhsMax =  -5.59659540932955E-11  1.79091778407578E-02
 cg2d: Sum(rhs),rhsMax =  -5.60986812558895E-11  1.79045132979942E-02
 cg2d: Sum(rhs),rhsMax =  -5.62212221222325E-11  1.78998160320377E-02
 cg2d: Sum(rhs),rhsMax =  -5.63897817329462E-11  1.78950578978698E-02
 cg2d: Sum(rhs),rhsMax =  -5.65355262605038E-11  1.78902390879675E-02
 cg2d: Sum(rhs),rhsMax =  -5.67201008383478E-11  1.78853657198122E-02
 cg2d: Sum(rhs),rhsMax =  -5.68802227540743E-11  1.78804315137118E-02
 cg2d: Sum(rhs),rhsMax =  -5.69901209557244E-11  1.78754266396000E-02
 cg2d: Sum(rhs),rhsMax =  -5.71538233407054E-11  1.78702846262271E-02
 cg2d: Sum(rhs),rhsMax =  -5.73061043063205E-11  1.78647766921971E-02
 cg2d: Sum(rhs),rhsMax =  -5.74308239853494E-11  1.78589627813402E-02
 cg2d: Sum(rhs),rhsMax =  -5.75691577742177E-11  1.78528811677539E-02
 cg2d: Sum(rhs),rhsMax =  -5.77172476479149E-11  1.78465523023528E-02
 cg2d: Sum(rhs),rhsMax =  -5.78505437998089E-11  1.78399689121652E-02
 cg2d: Sum(rhs),rhsMax =  -5.79967115998947E-11  1.78331847365445E-02
 cg2d: Sum(rhs),rhsMax =  -5.81537942800914E-11  1.78263772623403E-02
 cg2d: Sum(rhs),rhsMax =  -5.83370018958362E-11  1.78195891664337E-02
 cg2d: Sum(rhs),rhsMax =  -5.84649897938938E-11  1.78128336288307E-02
 cg2d: Sum(rhs),rhsMax =  -5.86278144087959E-11  1.78061257331585E-02
 cg2d: Sum(rhs),rhsMax =  -5.88158358821866E-11  1.77994839960900E-02
 cg2d: Sum(rhs),rhsMax =  -5.89578186618867E-11  1.77929110753459E-02
 cg2d: Sum(rhs),rhsMax =  -5.90665441904670E-11  1.77865350073001E-02
 cg2d: Sum(rhs),rhsMax =  -5.92047019049025E-11  1.77803763185770E-02
 cg2d: Sum(rhs),rhsMax =  -5.93382669389353E-11  1.77744337222707E-02
 cg2d: Sum(rhs),rhsMax =  -5.94273796838962E-11  1.77687064359454E-02
 cg2d: Sum(rhs),rhsMax =  -5.96504443062251E-11  1.77631942499226E-02
 cg2d: Sum(rhs),rhsMax =  -5.97520088962966E-11  1.77578894938469E-02
 cg2d: Sum(rhs),rhsMax =  -5.98368299353780E-11  1.77527996333032E-02
 cg2d: Sum(rhs),rhsMax =  -5.99347377283621E-11  1.77480296101756E-02
 cg2d: Sum(rhs),rhsMax =  -6.00481331325398E-11  1.77436824694233E-02
 cg2d: Sum(rhs),rhsMax =  -6.01612787365369E-11  1.77399264023919E-02
 cg2d: Sum(rhs),rhsMax =  -6.02800448445961E-11  1.77367550166095E-02
 cg2d: Sum(rhs),rhsMax =  -6.03539579424606E-11  1.77341319365510E-02
 cg2d: Sum(rhs),rhsMax =  -6.04411243276815E-11  1.77318780329265E-02
 cg2d: Sum(rhs),rhsMax =  -6.05583222457184E-11  1.77297777790648E-02
 cg2d: Sum(rhs),rhsMax =  -6.06240613265641E-11  1.77277736023791E-02
 cg2d: Sum(rhs),rhsMax =  -6.06781846990145E-11  1.77257766220361E-02
 cg2d: Sum(rhs),rhsMax =  -6.08353922793015E-11  1.77237542375992E-02
 cg2d: Sum(rhs),rhsMax =  -6.09270411899843E-11  1.77216942016897E-02
 cg2d: Sum(rhs),rhsMax =  -6.10706485382195E-11  1.77195872289741E-02
 cg2d: Sum(rhs),rhsMax =  -6.11651285176151E-11  1.77174253429604E-02
 cg2d: Sum(rhs),rhsMax =  -6.12323525217562E-11  1.77151485854215E-02
 cg2d: Sum(rhs),rhsMax =  -6.13613604372176E-11  1.77127548869028E-02
 cg2d: Sum(rhs),rhsMax =  -6.14472361881724E-11  1.77102634641372E-02
 cg2d: Sum(rhs),rhsMax =  -6.15219264421540E-11  1.77076745767298E-02
 cg2d: Sum(rhs),rhsMax =  -6.16628414995546E-11  1.77051903884437E-02
 cg2d: Sum(rhs),rhsMax =  -6.17736695129878E-11  1.77030368773736E-02
 cg2d: Sum(rhs),rhsMax =  -6.18901319082710E-11  1.77012148705822E-02
 cg2d: Sum(rhs),rhsMax =  -6.19784223943043E-11  1.76996755247485E-02
 cg2d: Sum(rhs),rhsMax =  -6.20945517226801E-11  1.76984030930988E-02
 cg2d: Sum(rhs),rhsMax =  -6.22730755850398E-11  1.76973795827886E-02
 cg2d: Sum(rhs),rhsMax =  -6.23957274736853E-11  1.76966203514336E-02
 cg2d: Sum(rhs),rhsMax =  -6.25207108306824E-11  1.76960832322599E-02
 cg2d: Sum(rhs),rhsMax =  -6.26314000662376E-11  1.76957147227303E-02
 cg2d: Sum(rhs),rhsMax =  -6.26963481131781E-11  1.76955046846443E-02
 cg2d: Sum(rhs),rhsMax =  -6.27485841064868E-11  1.76954450650759E-02
 cg2d: Sum(rhs),rhsMax =  -6.28193608243066E-11  1.76955097300283E-02
 cg2d: Sum(rhs),rhsMax =  -6.29081786662766E-11  1.76956295615163E-02
 cg2d: Sum(rhs),rhsMax =  -6.29927776607531E-11  1.76956586872106E-02
 cg2d: Sum(rhs),rhsMax =  -6.30642205123877E-11  1.76955534195246E-02
 cg2d: Sum(rhs),rhsMax =  -6.31432683917410E-11  1.76953404345264E-02
 cg2d: Sum(rhs),rhsMax =  -6.31665830752581E-11  1.76951101344882E-02
 cg2d: Sum(rhs),rhsMax =  -6.32267016520416E-11  1.76948420383137E-02
 cg2d: Sum(rhs),rhsMax =  -6.33335606181618E-11  1.76943785041712E-02
 cg2d: Sum(rhs),rhsMax =  -6.34461372328587E-11  1.76936338668014E-02
 cg2d: Sum(rhs),rhsMax =  -6.34512997699233E-11  1.76926087082276E-02
 cg2d: Sum(rhs),rhsMax =  -6.35301256046716E-11  1.76913168428856E-02
 cg2d: Sum(rhs),rhsMax =  -6.36192765135490E-11  1.76897628875473E-02
 cg2d: Sum(rhs),rhsMax =  -6.36146690879968E-11  1.76879540395042E-02
 cg2d: Sum(rhs),rhsMax =  -6.36936059450477E-11  1.76859062393900E-02
 cg2d: Sum(rhs),rhsMax =  -6.37400687786283E-11  1.76836207477763E-02
 cg2d: Sum(rhs),rhsMax =  -6.38624153559419E-11  1.76810902956601E-02
 cg2d: Sum(rhs),rhsMax =  -6.39588937367819E-11  1.76783245347461E-02
 cg2d: Sum(rhs),rhsMax =  -6.40352770808761E-11  1.76753399657227E-02
 cg2d: Sum(rhs),rhsMax =  -6.41318109728672E-11  1.76721527391159E-02
 cg2d: Sum(rhs),rhsMax =  -6.42229047720377E-11  1.76687777456828E-02
 cg2d: Sum(rhs),rhsMax =  -6.43002318057029E-11  1.76652298242006E-02
 cg2d: Sum(rhs),rhsMax =  -6.43976538761137E-11  1.76615242569408E-02
 cg2d: Sum(rhs),rhsMax =  -6.44360675927658E-11  1.76576733887883E-02
 cg2d: Sum(rhs),rhsMax =  -6.44515552039593E-11  1.76536941232697E-02
 cg2d: Sum(rhs),rhsMax =  -6.45504205643022E-11  1.76496842115171E-02
 cg2d: Sum(rhs),rhsMax =  -6.46087072730950E-11  1.76456686900055E-02
 cg2d: Sum(rhs),rhsMax =  -6.46503961476697E-11  1.76416612992828E-02
 cg2d: Sum(rhs),rhsMax =  -6.47034648082467E-11  1.76376743619530E-02
 cg2d: Sum(rhs),rhsMax =  -6.47747411264277E-11  1.76338959582524E-02
 cg2d: Sum(rhs),rhsMax =  -6.48361364596894E-11  1.76303719583451E-02
 cg2d: Sum(rhs),rhsMax =  -6.48581743867283E-11  1.76270757098160E-02
 cg2d: Sum(rhs),rhsMax =  -6.48495701582874E-11  1.76239874615968E-02
 cg2d: Sum(rhs),rhsMax =  -6.48225362276378E-11  1.76211199097518E-02
 cg2d: Sum(rhs),rhsMax =  -6.47753517490912E-11  1.76184256392815E-02
 cg2d: Sum(rhs),rhsMax =  -6.47191744640452E-11  1.76158722283607E-02
 cg2d: Sum(rhs),rhsMax =  -6.47208397985821E-11  1.76134671969903E-02
 cg2d: Sum(rhs),rhsMax =  -6.46631637124528E-11  1.76112256445923E-02
 cg2d: Sum(rhs),rhsMax =  -6.46170339457797E-11  1.76091574066152E-02
 cg2d: Sum(rhs),rhsMax =  -6.44725939302759E-11  1.76072732086304E-02
 cg2d: Sum(rhs),rhsMax =  -6.44007069894315E-11  1.76055825917397E-02
 cg2d: Sum(rhs),rhsMax =  -6.43561870461440E-11  1.76040691004723E-02
 cg2d: Sum(rhs),rhsMax =  -6.43048947424063E-11  1.76027140121280E-02
 cg2d: Sum(rhs),rhsMax =  -6.42634834235878E-11  1.76016142748704E-02
 cg2d: Sum(rhs),rhsMax =  -6.41759423380961E-11  1.76007904996416E-02
 cg2d: Sum(rhs),rhsMax =  -6.40936193008201E-11  1.76002352893021E-02
 cg2d: Sum(rhs),rhsMax =  -6.40373865046229E-11  1.75999687878229E-02
 cg2d: Sum(rhs),rhsMax =  -6.40347219693638E-11  1.76000404197000E-02
 cg2d: Sum(rhs),rhsMax =  -6.39455155493351E-11  1.76004608890530E-02
 cg2d: Sum(rhs),rhsMax =  -6.38320507562185E-11  1.76012173249202E-02
 cg2d: Sum(rhs),rhsMax =  -6.37954133964058E-11  1.76022974114826E-02
 cg2d: Sum(rhs),rhsMax =  -6.37438990480632E-11  1.76036670865837E-02
 cg2d: Sum(rhs),rhsMax =  -6.36877217630172E-11  1.76053060761680E-02
 cg2d: Sum(rhs),rhsMax =  -6.35957952965782E-11  1.76072161450097E-02
 cg2d: Sum(rhs),rhsMax =  -6.35507757529297E-11  1.76093823652881E-02
 cg2d: Sum(rhs),rhsMax =  -6.35282937366810E-11  1.76117204251625E-02
 cg2d: Sum(rhs),rhsMax =  -6.34395314058622E-11  1.76141220536959E-02
 cg2d: Sum(rhs),rhsMax =  -6.33186281184805E-11  1.76165591025691E-02
 cg2d: Sum(rhs),rhsMax =  -6.33206265199249E-11  1.76190160145320E-02
 cg2d: Sum(rhs),rhsMax =  -6.32589536309069E-11  1.76215192255525E-02
 cg2d: Sum(rhs),rhsMax =  -6.32603414096877E-11  1.76240920498503E-02
 cg2d: Sum(rhs),rhsMax =  -6.31854568666768E-11  1.76267371047319E-02
 cg2d: Sum(rhs),rhsMax =  -6.30754337649364E-11  1.76294366300928E-02
 cg2d: Sum(rhs),rhsMax =  -6.30573926407862E-11  1.76321821729725E-02
 cg2d: Sum(rhs),rhsMax =  -6.30105967402983E-11  1.76349051265325E-02
 cg2d: Sum(rhs),rhsMax =  -6.29338248181455E-11  1.76376040534461E-02
 cg2d: Sum(rhs),rhsMax =  -6.28753715758990E-11  1.76403588434619E-02
 cg2d: Sum(rhs),rhsMax =  -6.28104235289584E-11  1.76431352843149E-02
 cg2d: Sum(rhs),rhsMax =  -6.27838336875186E-11  1.76458805892641E-02
 cg2d: Sum(rhs),rhsMax =  -6.27213281312322E-11  1.76485969254933E-02
 cg2d: Sum(rhs),rhsMax =  -6.25716700675127E-11  1.76513756592032E-02
 cg2d: Sum(rhs),rhsMax =  -6.25030582845909E-11  1.76542878703366E-02
 cg2d: Sum(rhs),rhsMax =  -6.24628682110995E-11  1.76573323408474E-02
 cg2d: Sum(rhs),rhsMax =  -6.24482965339013E-11  1.76605089130619E-02
 cg2d: Sum(rhs),rhsMax =  -6.24095219947662E-11  1.76638214451230E-02
 cg2d: Sum(rhs),rhsMax =  -6.23229523544211E-11  1.76672744635108E-02
 cg2d: Sum(rhs),rhsMax =  -6.22363272029247E-11  1.76708713525096E-02
 cg2d: Sum(rhs),rhsMax =  -6.20390405714488E-11  1.76746146861113E-02
 cg2d: Sum(rhs),rhsMax =  -6.19583273575586E-11  1.76785125605038E-02
 cg2d: Sum(rhs),rhsMax =  -6.18794737672346E-11  1.76825819840721E-02
 cg2d: Sum(rhs),rhsMax =  -6.18582685074642E-11  1.76868417968340E-02
 cg2d: Sum(rhs),rhsMax =  -6.18060047585800E-11  1.76912899731626E-02
 cg2d: Sum(rhs),rhsMax =  -6.17277895464952E-11  1.76959237912494E-02
 cg2d: Sum(rhs),rhsMax =  -6.16768858208161E-11  1.77007403679202E-02
 cg2d: Sum(rhs),rhsMax =  -6.15859030439481E-11  1.77057354429134E-02
 cg2d: Sum(rhs),rhsMax =  -6.15236195322666E-11  1.77109004833004E-02
 cg2d: Sum(rhs),rhsMax =  -6.15135720138937E-11  1.77162214184070E-02
 cg2d: Sum(rhs),rhsMax =  -6.14570894175159E-11  1.77216861017875E-02
 cg2d: Sum(rhs),rhsMax =  -6.12443568082099E-11  1.77272664205465E-02
 cg2d: Sum(rhs),rhsMax =  -6.11366096636701E-11  1.77329483600361E-02
 cg2d: Sum(rhs),rhsMax =  -6.10325678884749E-11  1.77387204881436E-02
 cg2d: Sum(rhs),rhsMax =  -6.09414879670922E-11  1.77444901928472E-02
 cg2d: Sum(rhs),rhsMax =  -6.08652295230883E-11  1.77501770588788E-02
 cg2d: Sum(rhs),rhsMax =  -6.06983352469115E-11  1.77557671568360E-02
 cg2d: Sum(rhs),rhsMax =  -6.06252964496790E-11  1.77612561357843E-02
 cg2d: Sum(rhs),rhsMax =  -6.05268057896069E-11  1.77666995743997E-02
 cg2d: Sum(rhs),rhsMax =  -6.04138544746391E-11  1.77720527304095E-02
 cg2d: Sum(rhs),rhsMax =  -6.02411315275830E-11  1.77772584857843E-02
 cg2d: Sum(rhs),rhsMax =  -6.01386440646223E-11  1.77822953601707E-02
 cg2d: Sum(rhs),rhsMax =  -5.99338460804955E-11  1.77871511208785E-02
 cg2d: Sum(rhs),rhsMax =  -5.98835980802903E-11  1.77918197824458E-02
 cg2d: Sum(rhs),rhsMax =  -5.97716112715752E-11  1.77963232260548E-02
 cg2d: Sum(rhs),rhsMax =  -5.96416527276489E-11  1.78006497353949E-02
 cg2d: Sum(rhs),rhsMax =  -5.94904811176966E-11  1.78047839150202E-02
 cg2d: Sum(rhs),rhsMax =  -5.93939272763855E-11  1.78087141812634E-02
 cg2d: Sum(rhs),rhsMax =  -5.92721080550085E-11  1.78124306885270E-02
 cg2d: Sum(rhs),rhsMax =  -5.91633755875343E-11  1.78159237589446E-02
 cg2d: Sum(rhs),rhsMax =  -5.90530679911438E-11  1.78191845327791E-02
 cg2d: Sum(rhs),rhsMax =  -5.89531964911849E-11  1.78222039018371E-02
 cg2d: Sum(rhs),rhsMax =  -5.88223983410963E-11  1.78249739587504E-02
 cg2d: Sum(rhs),rhsMax =  -5.87790233153029E-11  1.78275357351463E-02
 cg2d: Sum(rhs),rhsMax =  -5.86720394490925E-11  1.78298946573538E-02
 cg2d: Sum(rhs),rhsMax =  -5.85215764736802E-11  1.78320340369024E-02
 cg2d: Sum(rhs),rhsMax =  -5.84238213363619E-11  1.78339430193927E-02
 cg2d: Sum(rhs),rhsMax =  -5.83406378762419E-11  1.78356133593221E-02
 cg2d: Sum(rhs),rhsMax =  -5.82374426461030E-11  1.78370339444533E-02
 cg2d: Sum(rhs),rhsMax =  -5.81762277240827E-11  1.78381848338826E-02
 cg2d: Sum(rhs),rhsMax =  -5.80578918274455E-11  1.78390865513340E-02
 cg2d: Sum(rhs),rhsMax =  -5.79450654125679E-11  1.78397724148260E-02
 cg2d: Sum(rhs),rhsMax =  -5.78275760609870E-11  1.78403656995485E-02
 cg2d: Sum(rhs),rhsMax =  -5.77506653609561E-11  1.78408542339173E-02
 cg2d: Sum(rhs),rhsMax =  -5.76530490015159E-11  1.78412038198299E-02
 cg2d: Sum(rhs),rhsMax =  -5.75582637107885E-11  1.78413800607135E-02
 cg2d: Sum(rhs),rhsMax =  -5.74813252551820E-11  1.78413542546975E-02
 cg2d: Sum(rhs),rhsMax =  -5.74066350012004E-11  1.78411014167989E-02
 cg2d: Sum(rhs),rhsMax =  -5.73081027077649E-11  1.78406010773146E-02
 cg2d: Sum(rhs),rhsMax =  -5.72731029269136E-11  1.78398187239385E-02
 cg2d: Sum(rhs),rhsMax =  -5.71565295093279E-11  1.78386874675861E-02
 cg2d: Sum(rhs),rhsMax =  -5.70512803665935E-11  1.78371873907342E-02
 cg2d: Sum(rhs),rhsMax =  -5.69608804568134E-11  1.78353032608338E-02
 cg2d: Sum(rhs),rhsMax =  -5.68765312625175E-11  1.78330182743030E-02
 cg2d: Sum(rhs),rhsMax =  -5.68199653994128E-11  1.78303151332907E-02
 cg2d: Sum(rhs),rhsMax =  -5.67206837054357E-11  1.78272148713652E-02
 cg2d: Sum(rhs),rhsMax =  -5.67110247651215E-11  1.78235337518814E-02
 cg2d: Sum(rhs),rhsMax =  -5.65319457912494E-11  1.78192255233218E-02
 cg2d: Sum(rhs),rhsMax =  -5.65115731987476E-11  1.78143013361046E-02
 cg2d: Sum(rhs),rhsMax =  -5.64807089986630E-11  1.78087694525410E-02
 cg2d: Sum(rhs),rhsMax =  -5.64360780330730E-11  1.78025739589368E-02
 cg2d: Sum(rhs),rhsMax =  -5.64017166304609E-11  1.77956743885792E-02
 cg2d: Sum(rhs),rhsMax =  -5.62697666239842E-11  1.77879475813975E-02
 cg2d: Sum(rhs),rhsMax =  -5.62545010573956E-11  1.77794016064680E-02
 cg2d: Sum(rhs),rhsMax =  -5.62332957976253E-11  1.77700432499230E-02
 cg2d: Sum(rhs),rhsMax =  -5.61989899061643E-11  1.77599025249684E-02
 cg2d: Sum(rhs),rhsMax =  -5.61324320358381E-11  1.77490057850792E-02
 cg2d: Sum(rhs),rhsMax =  -5.61054536163397E-11  1.77373547232492E-02
 cg2d: Sum(rhs),rhsMax =  -5.60989033004944E-11  1.77249842468496E-02
 cg2d: Sum(rhs),rhsMax =  -5.60866353360723E-11  1.77118982903083E-02
 cg2d: Sum(rhs),rhsMax =  -5.60618773626231E-11  1.76981255817354E-02
 cg2d: Sum(rhs),rhsMax =  -5.59678414724374E-11  1.76836201882904E-02
 cg2d: Sum(rhs),rhsMax =  -5.59108315201229E-11  1.76684178164106E-02
 cg2d: Sum(rhs),rhsMax =  -5.59035595593116E-11  1.76525764318195E-02
 cg2d: Sum(rhs),rhsMax =  -5.58453283616700E-11  1.76361182483501E-02
 cg2d: Sum(rhs),rhsMax =  -5.58402768469080E-11  1.76190789888766E-02
 cg2d: Sum(rhs),rhsMax =  -5.58838531006245E-11  1.76014731566045E-02
 cg2d: Sum(rhs),rhsMax =  -5.58643686865423E-11  1.75833372775933E-02
 cg2d: Sum(rhs),rhsMax =  -5.59419177648124E-11  1.75646785797971E-02
 cg2d: Sum(rhs),rhsMax =  -5.59171597913632E-11  1.75454902044839E-02
 cg2d: Sum(rhs),rhsMax =  -5.59561841306788E-11  1.75257249589558E-02
 cg2d: Sum(rhs),rhsMax =  -5.59724488979896E-11  1.75054033881833E-02
 cg2d: Sum(rhs),rhsMax =  -5.59213231277056E-11  1.74845324973072E-02
 cg2d: Sum(rhs),rhsMax =  -5.59502444374971E-11  1.74631235447467E-02
 cg2d: Sum(rhs),rhsMax =  -5.59198243266223E-11  1.74412032978198E-02
 cg2d: Sum(rhs),rhsMax =  -5.59166046798509E-11  1.74187741574652E-02
 cg2d: Sum(rhs),rhsMax =  -5.59085555629224E-11  1.73958591616074E-02
 cg2d: Sum(rhs),rhsMax =  -5.59584045767281E-11  1.73724578565202E-02
 cg2d: Sum(rhs),rhsMax =  -5.59433055435932E-11  1.73485865419307E-02
 cg2d: Sum(rhs),rhsMax =  -5.59707835634526E-11  1.73242470977978E-02
 cg2d: Sum(rhs),rhsMax =  -5.59481905249015E-11  1.72994646582385E-02
 cg2d: Sum(rhs),rhsMax =  -5.59988166948244E-11  1.72742529281107E-02
 cg2d: Sum(rhs),rhsMax =  -5.59777224573565E-11  1.72486316883430E-02
 cg2d: Sum(rhs),rhsMax =  -5.60615442957157E-11  1.72226085074188E-02
 cg2d: Sum(rhs),rhsMax =  -5.61770630014280E-11  1.71962052840461E-02
 cg2d: Sum(rhs),rhsMax =  -5.61242163854558E-11  1.71825720917074E-02
 cg2d: Sum(rhs),rhsMax =  -5.59647328479684E-11  1.72252953294853E-02
 cg2d: Sum(rhs),rhsMax =  -5.58262325256464E-11  1.72675740513492E-02
 cg2d: Sum(rhs),rhsMax =  -5.56581447597182E-11  1.73095326739814E-02
 cg2d: Sum(rhs),rhsMax =  -5.52969892098076E-11  1.73513439037722E-02
 cg2d: Sum(rhs),rhsMax =  -5.50520184994241E-11  1.73930887345251E-02
 cg2d: Sum(rhs),rhsMax =  -5.48129874822223E-11  1.74347788910666E-02
 cg2d: Sum(rhs),rhsMax =  -5.45595235657004E-11  1.74763812503731E-02
 cg2d: Sum(rhs),rhsMax =  -5.44044254091602E-11  1.75178678897412E-02
 cg2d: Sum(rhs),rhsMax =  -5.42113021140267E-11  1.75592410751009E-02
 cg2d: Sum(rhs),rhsMax =  -5.40342770527502E-11  1.76004799836055E-02
 cg2d: Sum(rhs),rhsMax =  -5.39618350003934E-11  1.76416206526860E-02
 cg2d: Sum(rhs),rhsMax =  -5.37938027456164E-11  1.76828715436945E-02
 cg2d: Sum(rhs),rhsMax =  -5.35785860122928E-11  1.77242487302124E-02
 cg2d: Sum(rhs),rhsMax =  -5.35226307718517E-11  1.77657291294850E-02
 cg2d: Sum(rhs),rhsMax =  -5.34710054012066E-11  1.78072967616382E-02
 cg2d: Sum(rhs),rhsMax =  -5.34674526875278E-11  1.78489368410619E-02
 cg2d: Sum(rhs),rhsMax =  -5.33805222246997E-11  1.78906294489722E-02
 cg2d: Sum(rhs),rhsMax =  -5.32707211675643E-11  1.79323303032882E-02
 cg2d: Sum(rhs),rhsMax =  -5.32034971634232E-11  1.79739887042353E-02
 cg2d: Sum(rhs),rhsMax =  -5.30680499544189E-11  1.80155815851686E-02
 cg2d: Sum(rhs),rhsMax =  -5.29558064066293E-11  1.80570842756980E-02
 cg2d: Sum(rhs),rhsMax =  -5.28898591589666E-11  1.80984696784274E-02
 cg2d: Sum(rhs),rhsMax =  -5.27768384550598E-11  1.81397107301570E-02
 cg2d: Sum(rhs),rhsMax =  -5.27462518107313E-11  1.81807792254671E-02
 cg2d: Sum(rhs),rhsMax =  -5.26731991357110E-11  1.82216453747258E-02
 cg2d: Sum(rhs),rhsMax =  -5.26320653726486E-11  1.82623152623296E-02
 cg2d: Sum(rhs),rhsMax =  -5.26267363021304E-11  1.83027631012979E-02
 cg2d: Sum(rhs),rhsMax =  -5.26368393316545E-11  1.83429540999483E-02
 cg2d: Sum(rhs),rhsMax =  -5.26304555492629E-11  1.83828555603592E-02
 cg2d: Sum(rhs),rhsMax =  -5.25918197880060E-11  1.84224348383183E-02
 cg2d: Sum(rhs),rhsMax =  -5.26334531514294E-11  1.84616627031826E-02
 cg2d: Sum(rhs),rhsMax =  -5.26478305395983E-11  1.85005612046397E-02
 cg2d: Sum(rhs),rhsMax =  -5.25706145282356E-11  1.85391761727519E-02
 cg2d: Sum(rhs),rhsMax =  -5.25017807007089E-11  1.85774850535951E-02
 cg2d: Sum(rhs),rhsMax =  -5.24762455711425E-11  1.86154505892303E-02
 cg2d: Sum(rhs),rhsMax =  -5.24270626911516E-11  1.86529525875628E-02
 cg2d: Sum(rhs),rhsMax =  -5.23829313259228E-11  1.86899017846480E-02
 cg2d: Sum(rhs),rhsMax =  -5.23661114470997E-11  1.87262549631880E-02
 cg2d: Sum(rhs),rhsMax =  -5.23436294308510E-11  1.87619799412536E-02
 cg2d: Sum(rhs),rhsMax =  -5.23242005279201E-11  1.87968245763701E-02
 cg2d: Sum(rhs),rhsMax =  -5.22971110861192E-11  1.88312599359268E-02
 cg2d: Sum(rhs),rhsMax =  -5.22654697299174E-11  1.88650520989206E-02
 cg2d: Sum(rhs),rhsMax =  -5.22360488197648E-11  1.88981416961102E-02
 cg2d: Sum(rhs),rhsMax =  -5.21883092297060E-11  1.89305251504168E-02
 cg2d: Sum(rhs),rhsMax =  -5.21674925479942E-11  1.89621905815638E-02
 cg2d: Sum(rhs),rhsMax =  -5.22045184858655E-11  1.89931175536650E-02
 cg2d: Sum(rhs),rhsMax =  -5.22136223146674E-11  1.90232833315023E-02
 cg2d: Sum(rhs),rhsMax =  -5.22132892477600E-11  1.90526643382851E-02
 cg2d: Sum(rhs),rhsMax =  -5.22372700650919E-11  1.90811847165867E-02
 cg2d: Sum(rhs),rhsMax =  -5.22380472212092E-11  1.91087801223085E-02
 cg2d: Sum(rhs),rhsMax =  -5.22342169517742E-11  1.91354370928229E-02
 cg2d: Sum(rhs),rhsMax =  -5.22794030288765E-11  1.91611372344317E-02
 cg2d: Sum(rhs),rhsMax =  -5.22881737907710E-11  1.91859236942469E-02
 cg2d: Sum(rhs),rhsMax =  -5.23367460480983E-11  1.92097885903889E-02
 cg2d: Sum(rhs),rhsMax =  -5.23336374236294E-11  1.92327157721683E-02
 cg2d: Sum(rhs),rhsMax =  -5.23421583853434E-11  1.92546843090197E-02
 cg2d: Sum(rhs),rhsMax =  -5.24004450941362E-11  1.92756755013153E-02
 cg2d: Sum(rhs),rhsMax =  -5.24265908463661E-11  1.92956737796346E-02
 cg2d: Sum(rhs),rhsMax =  -5.24728038797662E-11  1.93146649165650E-02
 cg2d: Sum(rhs),rhsMax =  -5.25757493097245E-11  1.93326351601421E-02
 cg2d: Sum(rhs),rhsMax =  -5.26277077472770E-11  1.93495765997629E-02
 cg2d: Sum(rhs),rhsMax =  -5.27234644831509E-11  1.93654856553520E-02
 cg2d: Sum(rhs),rhsMax =  -5.27807242356459E-11  1.93803560890481E-02
 cg2d: Sum(rhs),rhsMax =  -5.28311006053883E-11  1.93939589448199E-02
 cg2d: Sum(rhs),rhsMax =  -5.28998234106126E-11  1.94067222893568E-02
 cg2d: Sum(rhs),rhsMax =  -5.29677968152953E-11  1.94184438149820E-02
 cg2d: Sum(rhs),rhsMax =  -5.30202548532088E-11  1.94290875344868E-02
 cg2d: Sum(rhs),rhsMax =  -5.30564758793872E-11  1.94386707769215E-02
 cg2d: Sum(rhs),rhsMax =  -5.31392985170243E-11  1.94472063524083E-02
 cg2d: Sum(rhs),rhsMax =  -5.32127397701032E-11  1.94547039488983E-02
 cg2d: Sum(rhs),rhsMax =  -5.33432187310723E-11  1.94611740784021E-02
 cg2d: Sum(rhs),rhsMax =  -5.34201571866788E-11  1.94665276942510E-02
 cg2d: Sum(rhs),rhsMax =  -5.35432809201097E-11  1.94707440560174E-02
 cg2d: Sum(rhs),rhsMax =  -5.36552885455066E-11  1.94738491665543E-02
 cg2d: Sum(rhs),rhsMax =  -5.37406646961003E-11  1.94756591792580E-02
 cg2d: Sum(rhs),rhsMax =  -5.38174921294043E-11  1.94760912504265E-02
 cg2d: Sum(rhs),rhsMax =  -5.39197853033357E-11  1.94751668679349E-02
 cg2d: Sum(rhs),rhsMax =  -5.40400502124783E-11  1.94729240660463E-02
 cg2d: Sum(rhs),rhsMax =  -5.41741373982774E-11  1.94693988798937E-02
 cg2d: Sum(rhs),rhsMax =  -5.43588507539994E-11  1.94646199691856E-02
 cg2d: Sum(rhs),rhsMax =  -5.45163775234059E-11  1.94585216373438E-02
 cg2d: Sum(rhs),rhsMax =  -5.46328954298403E-11  1.94513026960368E-02
 cg2d: Sum(rhs),rhsMax =  -5.47609943502003E-11  1.94429166594750E-02
 cg2d: Sum(rhs),rhsMax =  -5.48530804111991E-11  1.94333064162961E-02
 cg2d: Sum(rhs),rhsMax =  -5.49754478051945E-11  1.94226904527177E-02
 cg2d: Sum(rhs),rhsMax =  -5.51057637021568E-11  1.94110291406480E-02
 cg2d: Sum(rhs),rhsMax =  -5.51588774655443E-11  1.93982698286526E-02
 cg2d: Sum(rhs),rhsMax =  -5.53179949763782E-11  1.93846219343992E-02
 cg2d: Sum(rhs),rhsMax =  -5.54912079828163E-11  1.93702531193039E-02
 cg2d: Sum(rhs),rhsMax =  -5.56603955634283E-11  1.93552369060511E-02
 cg2d: Sum(rhs),rhsMax =  -5.58108247117328E-11  1.93397741669274E-02
 cg2d: Sum(rhs),rhsMax =  -5.59619330042782E-11  1.93237427193898E-02
 cg2d: Sum(rhs),rhsMax =  -5.61409183030825E-11  1.93070451749343E-02
 cg2d: Sum(rhs),rhsMax =  -5.63051896773636E-11  1.92895517829125E-02
 cg2d: Sum(rhs),rhsMax =  -5.64511631884201E-11  1.92712713528992E-02
 cg2d: Sum(rhs),rhsMax =  -5.66475547025824E-11  1.92523984422647E-02
 cg2d: Sum(rhs),rhsMax =  -5.67907595949713E-11  1.92330944058136E-02
 cg2d: Sum(rhs),rhsMax =  -5.69026908925352E-11  1.92132588229597E-02
 cg2d: Sum(rhs),rhsMax =  -5.70795632981458E-11  1.91930635436221E-02
 cg2d: Sum(rhs),rhsMax =  -5.72622088634844E-11  1.91724134408681E-02
 cg2d: Sum(rhs),rhsMax =  -5.74390118801560E-11  1.91513681076830E-02
 cg2d: Sum(rhs),rhsMax =  -5.75364478283547E-11  1.91300339989158E-02
 cg2d: Sum(rhs),rhsMax =  -5.77142500457484E-11  1.91083197558117E-02
 cg2d: Sum(rhs),rhsMax =  -5.78561087927199E-11  1.90863117631572E-02
 cg2d: Sum(rhs),rhsMax =  -5.80388515025732E-11  1.90640480136078E-02
 cg2d: Sum(rhs),rhsMax =  -5.81657499942878E-11  1.90415580328884E-02
 cg2d: Sum(rhs),rhsMax =  -5.83114667662699E-11  1.90189256589190E-02
 cg2d: Sum(rhs),rhsMax =  -5.84981230122850E-11  1.89959611358807E-02
 cg2d: Sum(rhs),rhsMax =  -5.87078996527879E-11  1.89727298849915E-02
 cg2d: Sum(rhs),rhsMax =  -5.88755710850819E-11  1.89493028865605E-02
 cg2d: Sum(rhs),rhsMax =  -5.90502369224311E-11  1.89257856442903E-02
 cg2d: Sum(rhs),rhsMax =  -5.92549342925963E-11  1.89020980958220E-02
 cg2d: Sum(rhs),rhsMax =  -5.94222726579829E-11  1.88783524729693E-02
 cg2d: Sum(rhs),rhsMax =  -5.95822280402558E-11  1.88544748510689E-02
 cg2d: Sum(rhs),rhsMax =  -5.97331628604536E-11  1.88305632551248E-02
 cg2d: Sum(rhs),rhsMax =  -5.99096883213690E-11  1.88065324787776E-02
 cg2d: Sum(rhs),rhsMax =  -6.00732796840475E-11  1.87822957216129E-02
 cg2d: Sum(rhs),rhsMax =  -6.02256300386017E-11  1.87576794205451E-02
 cg2d: Sum(rhs),rhsMax =  -6.03647132280116E-11  1.87327842464592E-02
 cg2d: Sum(rhs),rhsMax =  -6.04972738571519E-11  1.87075980021164E-02
 cg2d: Sum(rhs),rhsMax =  -6.06775185651998E-11  1.86821088949859E-02
 cg2d: Sum(rhs),rhsMax =  -6.08567918281011E-11  1.86563334306312E-02
 cg2d: Sum(rhs),rhsMax =  -6.09734762679892E-11  1.86302983776745E-02
 cg2d: Sum(rhs),rhsMax =  -6.10456407645898E-11  1.86040325569733E-02
 cg2d: Sum(rhs),rhsMax =  -6.12201955796365E-11  1.85775695265333E-02
 cg2d: Sum(rhs),rhsMax =  -6.13283868133863E-11  1.85509378088027E-02
 cg2d: Sum(rhs),rhsMax =  -6.14892026185032E-11  1.85240617792074E-02
 cg2d: Sum(rhs),rhsMax =  -6.15715256557792E-11  1.84968840076565E-02
 cg2d: Sum(rhs),rhsMax =  -6.17116358014869E-11  1.84694329126388E-02
 cg2d: Sum(rhs),rhsMax =  -6.18570195065615E-11  1.84417331888419E-02
 cg2d: Sum(rhs),rhsMax =  -6.19715390115516E-11  1.84138273298455E-02
 cg2d: Sum(rhs),rhsMax =  -6.22059626032012E-11  1.83856921734517E-02
 cg2d: Sum(rhs),rhsMax =  -6.24079676825318E-11  1.83573583411375E-02
 cg2d: Sum(rhs),rhsMax =  -6.26080853827204E-11  1.83288563144605E-02
 cg2d: Sum(rhs),rhsMax =  -6.27398688557435E-11  1.83002305717265E-02
 cg2d: Sum(rhs),rhsMax =  -6.29186702738593E-11  1.82715357436597E-02
 cg2d: Sum(rhs),rhsMax =  -6.31160124164865E-11  1.82428034795318E-02
 cg2d: Sum(rhs),rhsMax =  -6.32957575241733E-11  1.82140550757595E-02
 cg2d: Sum(rhs),rhsMax =  -6.35254071568170E-11  1.81853232081684E-02
 cg2d: Sum(rhs),rhsMax =  -6.37568331463001E-11  1.81566936083675E-02
 cg2d: Sum(rhs),rhsMax =  -6.39380770550702E-11  1.81283731096199E-02
 cg2d: Sum(rhs),rhsMax =  -6.40992259270945E-11  1.81004177264562E-02
 cg2d: Sum(rhs),rhsMax =  -6.42254027738431E-11  1.80728670921265E-02
 cg2d: Sum(rhs),rhsMax =  -6.44215236711432E-11  1.80458118448686E-02
 cg2d: Sum(rhs),rhsMax =  -6.45715703129213E-11  1.80192846135331E-02
 cg2d: Sum(rhs),rhsMax =  -6.47323861180382E-11  1.79933037784030E-02
 cg2d: Sum(rhs),rhsMax =  -6.49262310581378E-11  1.79678898847464E-02
 cg2d: Sum(rhs),rhsMax =  -6.50718923189686E-11  1.79430841353706E-02
 cg2d: Sum(rhs),rhsMax =  -6.51879106250419E-11  1.79189075101891E-02
 cg2d: Sum(rhs),rhsMax =  -6.52954912361281E-11  1.78953696237510E-02
 cg2d: Sum(rhs),rhsMax =  -6.54261644861265E-11  1.78724819889663E-02
 cg2d: Sum(rhs),rhsMax =  -6.54808984812405E-11  1.78502509861102E-02
 cg2d: Sum(rhs),rhsMax =  -6.55202558874635E-11  1.78287592520136E-02
 cg2d: Sum(rhs),rhsMax =  -6.55570597807298E-11  1.78080117436106E-02
 cg2d: Sum(rhs),rhsMax =  -6.56003584786902E-11  1.77879837301199E-02
 cg2d: Sum(rhs),rhsMax =  -6.56966703260764E-11  1.77686619890395E-02
 cg2d: Sum(rhs),rhsMax =  -6.57954801752680E-11  1.77467583298658E-02
 cg2d: Sum(rhs),rhsMax =  -6.59121646151561E-11  1.77286418720965E-02
 cg2d: Sum(rhs),rhsMax =  -6.59523546886476E-11  1.77120157139847E-02
 cg2d: Sum(rhs),rhsMax =  -6.60273502539610E-11  1.76962783666418E-02
 cg2d: Sum(rhs),rhsMax =  -6.60474452907067E-11  1.76815287077044E-02
 cg2d: Sum(rhs),rhsMax =  -6.60281274100782E-11  1.76678332170956E-02
 cg2d: Sum(rhs),rhsMax =  -6.60017596132434E-11  1.76551855268815E-02
 cg2d: Sum(rhs),rhsMax =  -6.58307297562999E-11  1.76435611081352E-02
 cg2d: Sum(rhs),rhsMax =  -6.58795240582322E-11  1.76329490192065E-02
 cg2d: Sum(rhs),rhsMax =  -6.59134413716345E-11  1.76233870276837E-02
 cg2d: Sum(rhs),rhsMax =  -6.58665899599953E-11  1.76148734728654E-02
 cg2d: Sum(rhs),rhsMax =  -6.58611498671746E-11  1.76073397520760E-02
 cg2d: Sum(rhs),rhsMax =  -6.58183507695753E-11  1.76007238432954E-02
 cg2d: Sum(rhs),rhsMax =  -6.57047194430049E-11  1.75950881572884E-02
 cg2d: Sum(rhs),rhsMax =  -6.56857901404351E-11  1.75905314293804E-02
 cg2d: Sum(rhs),rhsMax =  -6.56481535799003E-11  1.75870118275634E-02
 cg2d: Sum(rhs),rhsMax =  -6.55694942786056E-11  1.75844102642061E-02
 cg2d: Sum(rhs),rhsMax =  -6.55114851255689E-11  1.75826540300161E-02
 cg2d: Sum(rhs),rhsMax =  -6.54429288537983E-11  1.75817021530891E-02
 cg2d: Sum(rhs),rhsMax =  -6.53611054168834E-11  1.75815091440086E-02
 cg2d: Sum(rhs),rhsMax =  -6.52302656334314E-11  1.75820489264010E-02
 cg2d: Sum(rhs),rhsMax =  -6.50863807294400E-11  1.75832606307199E-02
 cg2d: Sum(rhs),rhsMax =  -6.49743037151040E-11  1.75850925166460E-02
 cg2d: Sum(rhs),rhsMax =  -6.48657794144469E-11  1.75874893117443E-02
 cg2d: Sum(rhs),rhsMax =  -6.47377706997077E-11  1.75904029381773E-02
 cg2d: Sum(rhs),rhsMax =  -6.46449560548490E-11  1.75937321334482E-02
 cg2d: Sum(rhs),rhsMax =  -6.44921338555093E-11  1.75974131335578E-02
 cg2d: Sum(rhs),rhsMax =  -6.44324038567845E-11  1.76014160697552E-02
 cg2d: Sum(rhs),rhsMax =  -6.43997632998605E-11  1.76057208206413E-02
 cg2d: Sum(rhs),rhsMax =  -6.43163855507112E-11  1.76103633657538E-02
 cg2d: Sum(rhs),rhsMax =  -6.42419450969101E-11  1.76152795819346E-02
 cg2d: Sum(rhs),rhsMax =  -6.41799113854091E-11  1.76203777793772E-02
 cg2d: Sum(rhs),rhsMax =  -6.41023623071391E-11  1.76256194814563E-02
 cg2d: Sum(rhs),rhsMax =  -6.40060227041772E-11  1.76310475066184E-02
 cg2d: Sum(rhs),rhsMax =  -6.39070185659563E-11  1.76365408611904E-02
 cg2d: Sum(rhs),rhsMax =  -6.37846164774913E-11  1.76419575411220E-02
 cg2d: Sum(rhs),rhsMax =  -6.37488672960984E-11  1.76472397999774E-02
 cg2d: Sum(rhs),rhsMax =  -6.36271313414483E-11  1.76523737357024E-02
 cg2d: Sum(rhs),rhsMax =  -6.35428376583036E-11  1.76573518201096E-02
 cg2d: Sum(rhs),rhsMax =  -6.34066688043333E-11  1.76621579690153E-02
 cg2d: Sum(rhs),rhsMax =  -6.33024188623210E-11  1.76667495712399E-02
 cg2d: Sum(rhs),rhsMax =  -6.32274232970076E-11  1.76710202372824E-02
 cg2d: Sum(rhs),rhsMax =  -6.31563135122803E-11  1.76749607847116E-02
 cg2d: Sum(rhs),rhsMax =  -6.30845098381627E-11  1.76785638324812E-02
 cg2d: Sum(rhs),rhsMax =  -6.29949981068023E-11  1.76818093022194E-02
 cg2d: Sum(rhs),rhsMax =  -6.28817276027149E-11  1.76846776819415E-02
 cg2d: Sum(rhs),rhsMax =  -6.27968788080580E-11  1.76871551497647E-02
 cg2d: Sum(rhs),rhsMax =  -6.26459439878602E-11  1.76892842697762E-02
 cg2d: Sum(rhs),rhsMax =  -6.25811069632221E-11  1.76910919291619E-02
 cg2d: Sum(rhs),rhsMax =  -6.24812146465814E-11  1.76925071035201E-02
 cg2d: Sum(rhs),rhsMax =  -6.23288365364516E-11  1.76934993595692E-02
 cg2d: Sum(rhs),rhsMax =  -6.22565193841851E-11  1.76940726431920E-02
 cg2d: Sum(rhs),rhsMax =  -6.21885321017146E-11  1.76942319831240E-02
(PID.TID 0000.0001)      cg2d_init_res =   4.59424275416444E-02
(PID.TID 0000.0001)      cg2d_iters(min,last) =      -1      38
(PID.TID 0000.0001)      cg2d_last_res =   7.36668017043547E-14
(PID.TID 0000.0001) // =======================================================
(PID.TID 0000.0001) // Begin MONITOR dynamic field statistics
(PID.TID 0000.0001) // =======================================================
(PID.TID 0000.0001) %MON time_tsnumber                =                  7200
(PID.TID 0000.0001) %MON time_secondsf                =   1.0800000000000E+05
(PID.TID 0000.0001) %MON dynstat_eta_max              =   1.5918750693487E-03
(PID.TID 0000.0001) %MON dynstat_eta_min              =  -6.3217440485485E-03
(PID.TID 0000.0001) %MON dynstat_eta_mean             =   2.5087127517578E-15
(PID.TID 0000.0001) %MON dynstat_eta_sd               =   2.2025746298750E-03
(PID.TID 0000.0001) %MON dynstat_eta_del2             =   1.5955458293338E-05
(PID.TID 0000.0001) %MON dynstat_uvel_max             =   1.4143997484663E+00
(PID.TID 0000.0001) %MON dynstat_uvel_min             =  -4.1161923230973E-02
(PID.TID 0000.0001) %MON dynstat_uvel_mean            =   5.6167768321508E-01
(PID.TID 0000.0001) %MON dynstat_uvel_sd              =   5.6979508886316E-02
(PID.TID 0000.0001) %MON dynstat_uvel_del2            =   4.6954524285177E-04
(PID.TID 0000.0001) %MON dynstat_vvel_max             =   0.0000000000000E+00
(PID.TID 0000.0001) %MON dynstat_vvel_min             =   0.0000000000000E+00
(PID.TID 0000.0001) %MON dynstat_vvel_mean            =   0.0000000000000E+00
(PID.TID 0000.0001) %MON dynstat_vvel_sd              =   0.0000000000000E+00
(PID.TID 0000.0001) %MON dynstat_vvel_del2            =   0.0000000000000E+00
(PID.TID 0000.0001) %MON dynstat_wvel_max             =   1.9798062161707E-02
(PID.TID 0000.0001) %MON dynstat_wvel_min             =  -1.1733997550008E-02
(PID.TID 0000.0001) %MON dynstat_wvel_mean            =  -5.7121734072033E-21
(PID.TID 0000.0001) %MON dynstat_wvel_sd              =   1.8168031626364E-03
(PID.TID 0000.0001) %MON dynstat_wvel_del2            =   3.9433994540273E-05
(PID.TID 0000.0001) %MON dynstat_theta_max            =   1.5000000000018E+01
(PID.TID 0000.0001) %MON dynstat_theta_min            =   9.9999999999996E+00
(PID.TID 0000.0001) %MON dynstat_theta_mean           =   1.4007282184360E+01
(PID.TID 0000.0001) %MON dynstat_theta_sd             =   1.9109227105726E+00
(PID.TID 0000.0001) %MON dynstat_theta_del2           =   3.8474839894623E-04
(PID.TID 0000.0001) %MON dynstat_salt_max             =   3.5000000000000E+01
(PID.TID 0000.0001) %MON dynstat_salt_min             =   3.5000000000000E+01
(PID.TID 0000.0001) %MON dynstat_salt_mean            =   3.5000000000000E+01
(PID.TID 0000.0001) %MON dynstat_salt_sd              =   4.1922021409846E-13
(PID.TID 0000.0001) %MON dynstat_salt_del2            =   0.0000000000000E+00
(PID.TID 0000.0001) %MON dynstat_sst_max              =   1.5000000000000E+01
(PID.TID 0000.0001) %MON dynstat_sst_min              =   1.4999999999999E+01
(PID.TID 0000.0001) %MON dynstat_sst_mean             =   1.5000000000000E+01
(PID.TID 0000.0001) %MON dynstat_sst_sd               =   4.0408837674562E-13
(PID.TID 0000.0001) %MON dynstat_sst_del2             =   4.9204072591446E-15
(PID.TID 0000.0001) %MON dynstat_sss_max              =   3.5000000000000E+01
(PID.TID 0000.0001) %MON dynstat_sss_min              =   3.5000000000000E+01
(PID.TID 0000.0001) %MON dynstat_sss_mean             =   3.5000000000000E+01
(PID.TID 0000.0001) %MON dynstat_sss_sd               =   2.8421709430404E-14
(PID.TID 0000.0001) %MON dynstat_sss_del2             =   0.0000000000000E+00
(PID.TID 0000.0001) %MON forcing_qnet_max             =   0.0000000000000E+00
(PID.TID 0000.0001) %MON forcing_qnet_min             =   0.0000000000000E+00
(PID.TID 0000.0001) %MON forcing_qnet_mean            =   0.0000000000000E+00
(PID.TID 0000.0001) %MON forcing_qnet_sd              =   0.0000000000000E+00
(PID.TID 0000.0001) %MON forcing_qnet_del2            =   0.0000000000000E+00
(PID.TID 0000.0001) %MON forcing_qsw_max              =   0.0000000000000E+00
(PID.TID 0000.0001) %MON forcing_qsw_min              =   0.0000000000000E+00
(PID.TID 0000.0001) %MON forcing_qsw_mean             =   0.0000000000000E+00
(PID.TID 0000.0001) %MON forcing_qsw_sd               =   0.0000000000000E+00
(PID.TID 0000.0001) %MON forcing_qsw_del2             =   0.0000000000000E+00
(PID.TID 0000.0001) %MON forcing_empmr_max            =   0.0000000000000E+00
(PID.TID 0000.0001) %MON forcing_empmr_min            =   0.0000000000000E+00
(PID.TID 0000.0001) %MON forcing_empmr_mean           =   0.0000000000000E+00
(PID.TID 0000.0001) %MON forcing_empmr_sd             =   0.0000000000000E+00
(PID.TID 0000.0001) %MON forcing_empmr_del2           =   0.0000000000000E+00
(PID.TID 0000.0001) %MON forcing_fu_max               =   0.0000000000000E+00
(PID.TID 0000.0001) %MON forcing_fu_min               =   0.0000000000000E+00
(PID.TID 0000.0001) %MON forcing_fu_mean              =   0.0000000000000E+00
(PID.TID 0000.0001) %MON forcing_fu_sd                =   0.0000000000000E+00
(PID.TID 0000.0001) %MON forcing_fu_del2              =   0.0000000000000E+00
(PID.TID 0000.0001) %MON forcing_fv_max               =   0.0000000000000E+00
(PID.TID 0000.0001) %MON forcing_fv_min               =   0.0000000000000E+00
(PID.TID 0000.0001) %MON forcing_fv_mean              =   0.0000000000000E+00
(PID.TID 0000.0001) %MON forcing_fv_sd                =   0.0000000000000E+00
(PID.TID 0000.0001) %MON forcing_fv_del2              =   0.0000000000000E+00
(PID.TID 0000.0001) %MON advcfl_uvel_max              =   1.0214285495865E-01
(PID.TID 0000.0001) %MON advcfl_vvel_max              =   0.0000000000000E+00
(PID.TID 0000.0001) %MON advcfl_wvel_max              =   9.9638267100060E-02
(PID.TID 0000.0001) %MON advcfl_W_hf_max              =   1.0320756138510E-01
(PID.TID 0000.0001) %MON pe_b_mean                    =   1.1922836536730E-07
(PID.TID 0000.0001) %MON ke_max                       =   5.0534488427312E-01
(PID.TID 0000.0001) %MON ke_mean                      =   1.5939810502086E-01
(PID.TID 0000.0001) %MON ke_vol                       =   9.7476098603737E+10
(PID.TID 0000.0001) %MON vort_r_min                   =   0.0000000000000E+00
(PID.TID 0000.0001) %MON vort_r_max                   =   0.0000000000000E+00
(PID.TID 0000.0001) %MON vort_a_mean                  =   0.0000000000000E+00
(PID.TID 0000.0001) %MON vort_a_sd                    =   0.0000000000000E+00
(PID.TID 0000.0001) %MON vort_p_mean                  =   0.0000000000000E+00
(PID.TID 0000.0001) %MON vort_p_sd                    =   0.0000000000000E+00
(PID.TID 0000.0001) %MON surfExpan_theta_mean         =  -2.7065688740279E-19
(PID.TID 0000.0001) %MON surfExpan_salt_mean          =   7.5767634357866E-20
(PID.TID 0000.0001) // =======================================================
(PID.TID 0000.0001) // End MONITOR dynamic field statistics
(PID.TID 0000.0001) // =======================================================
(PID.TID 0000.0001) // =======================================================
(PID.TID 0000.0001) // Begin OBCS MONITOR field statistics
(PID.TID 0000.0001) // =======================================================
(PID.TID 0000.0001) %MON obc_E_uVel_max               =   5.6028564143658E-01
(PID.TID 0000.0001) %MON obc_E_uVel_min               =   5.6028564143658E-01
(PID.TID 0000.0001) %MON obc_E_uVel_mean              =   5.6028564143658E-01
(PID.TID 0000.0001) %MON obc_E_uVel_sd                =   1.0536712127724E-08
(PID.TID 0000.0001) %MON obc_E_uVel_Int               =   5.6028564143658E+05
(PID.TID 0000.0001) %MON obc_W_uVel_max               =   5.6028564143658E-01
(PID.TID 0000.0001) %MON obc_W_uVel_min               =   5.6028564143658E-01
(PID.TID 0000.0001) %MON obc_W_uVel_mean              =   5.6028564143658E-01
(PID.TID 0000.0001) %MON obc_W_uVel_sd                =   1.0536712127724E-08
(PID.TID 0000.0001) %MON obc_W_uVel_Int               =   5.6028564143658E+05
(PID.TID 0000.0001) // =======================================================
(PID.TID 0000.0001) // End OBCS MONITOR field statistics
(PID.TID 0000.0001) // =======================================================
(PID.TID 0000.0001) %CHECKPOINT      7200 0000007200
(PID.TID 0000.0001)   Seconds in section "ALL                    [THE_MODEL_MAIN]":
(PID.TID 0000.0001)           User time:   293.69000000000000
(PID.TID 0000.0001)         System time:  0.37000000000000000
(PID.TID 0000.0001)     Wall clock time:   294.77788710594177
(PID.TID 0000.0001)          No. starts:           1
(PID.TID 0000.0001)           No. stops:           1
(PID.TID 0000.0001)   Seconds in section "INITIALISE_FIXED       [THE_MODEL_MAIN]":
(PID.TID 0000.0001)           User time:   5.0000000000000003E-002
(PID.TID 0000.0001)         System time:   0.0000000000000000
(PID.TID 0000.0001)     Wall clock time:   9.4702005386352539E-002
(PID.TID 0000.0001)          No. starts:           1
(PID.TID 0000.0001)           No. stops:           1
(PID.TID 0000.0001)   Seconds in section "THE_MAIN_LOOP          [THE_MODEL_MAIN]":
(PID.TID 0000.0001)           User time:   293.63999999999999
(PID.TID 0000.0001)         System time:  0.37000000000000000
(PID.TID 0000.0001)     Wall clock time:   294.68314194679260
(PID.TID 0000.0001)          No. starts:           1
(PID.TID 0000.0001)           No. stops:           1
(PID.TID 0000.0001)   Seconds in section "INITIALISE_VARIA    [THE_MAIN_LOOP]":
(PID.TID 0000.0001)           User time:   2.0000000000000004E-002
(PID.TID 0000.0001)         System time:   0.0000000000000000
(PID.TID 0000.0001)     Wall clock time:   3.1170129776000977E-002
(PID.TID 0000.0001)          No. starts:           1
(PID.TID 0000.0001)           No. stops:           1
(PID.TID 0000.0001)   Seconds in section "MAIN LOOP           [THE_MAIN_LOOP]":
(PID.TID 0000.0001)           User time:   293.62000000000000
(PID.TID 0000.0001)         System time:  0.37000000000000000
(PID.TID 0000.0001)     Wall clock time:   294.65193080902100
(PID.TID 0000.0001)          No. starts:           1
(PID.TID 0000.0001)           No. stops:           1
(PID.TID 0000.0001)   Seconds in section "MAIN_DO_LOOP        [THE_MAIN_LOOP]":
(PID.TID 0000.0001)           User time:   293.52000000000453
(PID.TID 0000.0001)         System time:  0.37000000000000044
(PID.TID 0000.0001)     Wall clock time:   294.58801627159119
(PID.TID 0000.0001)          No. starts:        7200
(PID.TID 0000.0001)           No. stops:        7200
(PID.TID 0000.0001)   Seconds in section "FORWARD_STEP        [MAIN_DO_LOOP]":
(PID.TID 0000.0001)           User time:   293.36000000000445
(PID.TID 0000.0001)         System time:  0.37000000000000044
(PID.TID 0000.0001)     Wall clock time:   294.45777392387390
(PID.TID 0000.0001)          No. starts:        7200
(PID.TID 0000.0001)           No. stops:        7200
(PID.TID 0000.0001)   Seconds in section "LOAD_FIELDS_DRIVER  [FORWARD_STEP]":
(PID.TID 0000.0001)           User time:  0.25000000000011369
(PID.TID 0000.0001)         System time:   0.0000000000000000
(PID.TID 0000.0001)     Wall clock time:  0.19542741775512695
(PID.TID 0000.0001)          No. starts:        7200
(PID.TID 0000.0001)           No. stops:        7200
(PID.TID 0000.0001)   Seconds in section "EXTERNAL_FLDS_LOAD [LOAD_FLDS_DRIVER]":
(PID.TID 0000.0001)           User time:   5.0000000000125056E-002
(PID.TID 0000.0001)         System time:   0.0000000000000000
(PID.TID 0000.0001)     Wall clock time:   6.5181016921997070E-002
(PID.TID 0000.0001)          No. starts:        7200
(PID.TID 0000.0001)           No. stops:        7200
(PID.TID 0000.0001)   Seconds in section "DO_ATMOSPHERIC_PHYS [FORWARD_STEP]":
(PID.TID 0000.0001)           User time:   7.9999999999927240E-002
(PID.TID 0000.0001)         System time:   0.0000000000000000
(PID.TID 0000.0001)     Wall clock time:   6.5062761306762695E-002
(PID.TID 0000.0001)          No. starts:        7200
(PID.TID 0000.0001)           No. stops:        7200
(PID.TID 0000.0001)   Seconds in section "DO_OCEANIC_PHYS     [FORWARD_STEP]":
(PID.TID 0000.0001)           User time:   117.50999999999635
(PID.TID 0000.0001)         System time:  0.12000000000000005
(PID.TID 0000.0001)     Wall clock time:   117.74355912208557
(PID.TID 0000.0001)          No. starts:        7200
(PID.TID 0000.0001)           No. stops:        7200
(PID.TID 0000.0001)   Seconds in section "DYNAMICS            [FORWARD_STEP]":
(PID.TID 0000.0001)           User time:   83.909999999995534
(PID.TID 0000.0001)         System time:   2.0000000000000018E-002
(PID.TID 0000.0001)     Wall clock time:   84.213377952575684
(PID.TID 0000.0001)          No. starts:        7200
(PID.TID 0000.0001)           No. stops:        7200
(PID.TID 0000.0001)   Seconds in section "SOLVE_FOR_PRESSURE  [FORWARD_STEP]":
(PID.TID 0000.0001)           User time:   3.5299999999992338
(PID.TID 0000.0001)         System time:   0.0000000000000000
(PID.TID 0000.0001)     Wall clock time:   3.1847341060638428
(PID.TID 0000.0001)          No. starts:        7200
(PID.TID 0000.0001)           No. stops:        7200
(PID.TID 0000.0001)   Seconds in section "MOM_CORRECTION_STEP [FORWARD_STEP]":
(PID.TID 0000.0001)           User time:   2.7499999999996021
(PID.TID 0000.0001)         System time:   2.0000000000000018E-002
(PID.TID 0000.0001)     Wall clock time:   2.9440727233886719
(PID.TID 0000.0001)          No. starts:        7200
(PID.TID 0000.0001)           No. stops:        7200
(PID.TID 0000.0001)   Seconds in section "INTEGR_CONTINUITY   [FORWARD_STEP]":
(PID.TID 0000.0001)           User time:   1.5200000000002660
(PID.TID 0000.0001)         System time:   0.0000000000000000
(PID.TID 0000.0001)     Wall clock time:   1.4665994644165039
(PID.TID 0000.0001)          No. starts:        7200
(PID.TID 0000.0001)           No. stops:        7200
(PID.TID 0000.0001)   Seconds in section "BLOCKING_EXCHANGES  [FORWARD_STEP]":
(PID.TID 0000.0001)           User time:   7.9499999999945317
(PID.TID 0000.0001)         System time:   5.0000000000000044E-002
(PID.TID 0000.0001)     Wall clock time:   7.7327733039855957
(PID.TID 0000.0001)          No. starts:       14400
(PID.TID 0000.0001)           No. stops:       14400
(PID.TID 0000.0001)   Seconds in section "THERMODYNAMICS      [FORWARD_STEP]":
(PID.TID 0000.0001)           User time:   74.209999999997194
(PID.TID 0000.0001)         System time:   9.0000000000000080E-002
(PID.TID 0000.0001)     Wall clock time:   74.683636188507080
(PID.TID 0000.0001)          No. starts:        7200
(PID.TID 0000.0001)           No. stops:        7200
(PID.TID 0000.0001)   Seconds in section "TRC_CORRECTION_STEP [FORWARD_STEP]":
(PID.TID 0000.0001)           User time:   6.9999999999993179E-002
(PID.TID 0000.0001)         System time:   0.0000000000000000
(PID.TID 0000.0001)     Wall clock time:   6.5477848052978516E-002
(PID.TID 0000.0001)          No. starts:        7200
(PID.TID 0000.0001)           No. stops:        7200
(PID.TID 0000.0001)   Seconds in section "MONITOR             [FORWARD_STEP]":
(PID.TID 0000.0001)           User time:   8.9999999999974989E-002
(PID.TID 0000.0001)         System time:   0.0000000000000000
(PID.TID 0000.0001)     Wall clock time:  0.11261320114135742
(PID.TID 0000.0001)          No. starts:        7200
(PID.TID 0000.0001)           No. stops:        7200
(PID.TID 0000.0001)   Seconds in section "DO_THE_MODEL_IO     [FORWARD_STEP]":
(PID.TID 0000.0001)           User time:  0.21000000000003638
(PID.TID 0000.0001)         System time:   4.9999999999999989E-002
(PID.TID 0000.0001)     Wall clock time:  0.86882877349853516
(PID.TID 0000.0001)          No. starts:        7200
(PID.TID 0000.0001)           No. stops:        7200
(PID.TID 0000.0001)   Seconds in section "DO_WRITE_PICKUP     [FORWARD_STEP]":
(PID.TID 0000.0001)           User time:   9.9999999999909051E-002
(PID.TID 0000.0001)         System time:   2.0000000000000018E-002
(PID.TID 0000.0001)     Wall clock time:  0.18761777877807617
(PID.TID 0000.0001)          No. starts:        7200
(PID.TID 0000.0001)           No. stops:        7200
(PID.TID 0000.0001) // ======================================================
(PID.TID 0000.0001) // Tile <-> Tile communication statistics
(PID.TID 0000.0001) // ======================================================
(PID.TID 0000.0001) // o Tile number: 000001
(PID.TID 0000.0001) //         No. X exchanges =              0
(PID.TID 0000.0001) //            Max. X spins =              0
(PID.TID 0000.0001) //            Min. X spins =     1000000000
(PID.TID 0000.0001) //          Total. X spins =              0
(PID.TID 0000.0001) //            Avg. X spins =       0.00E+00
(PID.TID 0000.0001) //         No. Y exchanges =              0
(PID.TID 0000.0001) //            Max. Y spins =              0
(PID.TID 0000.0001) //            Min. Y spins =     1000000000
(PID.TID 0000.0001) //          Total. Y spins =              0
(PID.TID 0000.0001) //            Avg. Y spins =       0.00E+00
(PID.TID 0000.0001) // o Thread number: 000001
(PID.TID 0000.0001) //            No. barriers =        1747578
(PID.TID 0000.0001) //      Max. barrier spins =              1
(PID.TID 0000.0001) //      Min. barrier spins =              1
(PID.TID 0000.0001) //     Total barrier spins =        1747578
(PID.TID 0000.0001) //      Avg. barrier spins =       1.00E+00
PROGRAM MAIN: Execution ended Normally
