(PID.TID 0000.0001) 
(PID.TID 0000.0001) // ======================================================
(PID.TID 0000.0001) //                      MITgcm UV
(PID.TID 0000.0001) //                      =========
(PID.TID 0000.0001) // ======================================================
(PID.TID 0000.0001) // execution environment starting up...
(PID.TID 0000.0001) 
(PID.TID 0000.0001) // MITgcmUV version:  checkpoint65d
(PID.TID 0000.0001) // Build user:        hugke729
(PID.TID 0000.0001) // Build host:        hugke729
(PID.TID 0000.0001) // Build date:        Mon Apr 10 14:21:54 PDT 2017
(PID.TID 0000.0001) 
(PID.TID 0000.0001) // =======================================================
(PID.TID 0000.0001) // Execution Environment parameter file "eedata"
(PID.TID 0000.0001) // =======================================================
(PID.TID 0000.0001) ># Example "eedata" file
(PID.TID 0000.0001) ># Lines beginning "#" are comments
(PID.TID 0000.0001) ># nTx - No. threads per process in X
(PID.TID 0000.0001) ># nTy - No. threads per process in Y
(PID.TID 0000.0001) > &EEPARMS
(PID.TID 0000.0001) > /
(PID.TID 0000.0001) ># Note: Some systems use & as the
(PID.TID 0000.0001) ># namelist terminator. Other systems
(PID.TID 0000.0001) ># use a / character (as shown here).
(PID.TID 0000.0001) 
(PID.TID 0000.0001) // =======================================================
(PID.TID 0000.0001) // Computational Grid Specification ( see files "SIZE.h" )
(PID.TID 0000.0001) //                                  ( and "eedata"       )
(PID.TID 0000.0001) // =======================================================
(PID.TID 0000.0001)      nPx =    1 ; /* No. processes in X */
(PID.TID 0000.0001)      nPy =    1 ; /* No. processes in Y */
(PID.TID 0000.0001)      nSx =    1 ; /* No. tiles in X per process */
(PID.TID 0000.0001)      nSy =    1 ; /* No. tiles in Y per process */
(PID.TID 0000.0001)      sNx =  200 ; /* Tile size in X */
(PID.TID 0000.0001)      sNy =    1 ; /* Tile size in Y */
(PID.TID 0000.0001)      OLx =    2 ; /* Tile overlap distance in X */
(PID.TID 0000.0001)      OLy =    2 ; /* Tile overlap distance in Y */
(PID.TID 0000.0001)      nTx =    1 ; /* No. threads in X per process */
(PID.TID 0000.0001)      nTy =    1 ; /* No. threads in Y per process */
(PID.TID 0000.0001)       Nr =  100 ; /* No. levels in the vertical   */
(PID.TID 0000.0001)       Nx =  200 ; /* Total domain size in X ( = nPx*nSx*sNx ) */
(PID.TID 0000.0001)       Ny =    1 ; /* Total domain size in Y ( = nPy*nSy*sNy ) */
(PID.TID 0000.0001)   nTiles =    1 ; /* Total no. tiles per process ( = nSx*nSy ) */
(PID.TID 0000.0001)   nProcs =    1 ; /* Total no. processes ( = nPx*nPy ) */
(PID.TID 0000.0001) nThreads =    1 ; /* Total no. threads per process ( = nTx*nTy ) */
(PID.TID 0000.0001) usingMPI =    F ; /* Flag used to control whether MPI is in use */
(PID.TID 0000.0001)                   /*  note: To execute a program with MPI calls */
(PID.TID 0000.0001)                   /*  it must be launched appropriately e.g     */
(PID.TID 0000.0001)                   /*  "mpirun -np 64 ......"                    */
(PID.TID 0000.0001) useCoupler=    F ;/* Flag used to control communications with   */
(PID.TID 0000.0001)                   /*  other model components, through a coupler */
(PID.TID 0000.0001) debugMode =    F ; /* print debug msg. (sequence of S/R calls)  */
(PID.TID 0000.0001) printMapIncludesZeros=    F ; /* print zeros in Std.Output maps */
(PID.TID 0000.0001) maxLengthPrt1D=   65 /* maxLength of 1D array printed to StdOut */
(PID.TID 0000.0001) 
(PID.TID 0000.0001) // ======================================================
(PID.TID 0000.0001) // Mapping of tiles to threads
(PID.TID 0000.0001) // ======================================================
(PID.TID 0000.0001) // -o- Thread   1, tiles (   1:   1,   1:   1)
(PID.TID 0000.0001) 
(PID.TID 0000.0001) // ======================================================
(PID.TID 0000.0001) // Tile <-> Tile connectvity table
(PID.TID 0000.0001) // ======================================================
(PID.TID 0000.0001) // Tile number: 000001 (process no. = 000000)
(PID.TID 0000.0001) //        WEST: Tile = 000001, Process = 000000, Comm = put
(PID.TID 0000.0001) //                bi = 000001, bj = 000001
(PID.TID 0000.0001) //        EAST: Tile = 000001, Process = 000000, Comm = put
(PID.TID 0000.0001) //                bi = 000001, bj = 000001
(PID.TID 0000.0001) //       SOUTH: Tile = 000001, Process = 000000, Comm = put
(PID.TID 0000.0001) //                bi = 000001, bj = 000001
(PID.TID 0000.0001) //       NORTH: Tile = 000001, Process = 000000, Comm = put
(PID.TID 0000.0001) //                bi = 000001, bj = 000001
(PID.TID 0000.0001) 
(PID.TID 0000.0001)  INI_PARMS: opening model parameter file "data"
(PID.TID 0000.0001)  OPEN_COPY_DATA_FILE: opening file data
(PID.TID 0000.0001) // =======================================================
(PID.TID 0000.0001) // Parameter file "data"
(PID.TID 0000.0001) // =======================================================
(PID.TID 0000.0001) ># ====================
(PID.TID 0000.0001) ># | Model parameters |
(PID.TID 0000.0001) ># ====================
(PID.TID 0000.0001) >#
(PID.TID 0000.0001) ># See src/ini_parms.F for possible parameters.
(PID.TID 0000.0001) >#
(PID.TID 0000.0001) ># Continuous equation parameters
(PID.TID 0000.0001) > &PARM01
(PID.TID 0000.0001) > tRefFile='Tref.bin'
(PID.TID 0000.0001) > sRef= 25*35.,
(PID.TID 0000.0001) > viscAz=1.E-5,
(PID.TID 0000.0001) > viscAh=1.E-4,
(PID.TID 0000.0001) > no_slip_sides=.FALSE.,
(PID.TID 0000.0001) > no_slip_bottom=.FALSE.,
(PID.TID 0000.0001) > viscA4=0.E12,
(PID.TID 0000.0001) > diffKhT=1.E-4,
(PID.TID 0000.0001) > diffKzT=1.E-5,
(PID.TID 0000.0001) > diffKhS=1.E3,
(PID.TID 0000.0001) > diffKzS=1.E-5,
(PID.TID 0000.0001) > f0=0.E-4,
(PID.TID 0000.0001) > beta=0.0E-11,
(PID.TID 0000.0001) > tAlpha=2.E-4,
(PID.TID 0000.0001) > sBeta =0.E-4,
(PID.TID 0000.0001) > gravity=9.81,
(PID.TID 0000.0001) > gBaro=9.81,
(PID.TID 0000.0001) > rigidLid=.FALSE.,
(PID.TID 0000.0001) > implicitFreeSurface=.TRUE.,
(PID.TID 0000.0001) > eosType='LINEAR',
(PID.TID 0000.0001) > nonHydrostatic=.FALSE.,
(PID.TID 0000.0001) > readBinaryPrec=64,
(PID.TID 0000.0001) > useSingleCpuIO=.TRUE.
(PID.TID 0000.0001) > writeBinaryPrec=64,
(PID.TID 0000.0001) > writeStatePrec=64,
(PID.TID 0000.0001) > saltStepping=.FALSE.,
(PID.TID 0000.0001) ># minimum cell fraction.  This reduces steppiness..
(PID.TID 0000.0001) >  hFacMin=0.1,
(PID.TID 0000.0001) >  exactConserv=.FALSE.,
(PID.TID 0000.0001) >  implicitDiffusion=.TRUE.
(PID.TID 0000.0001) >  implicitViscosity=.TRUE.
(PID.TID 0000.0001) ># Superbee on:
(PID.TID 0000.0001) > tempAdvScheme=77,
(PID.TID 0000.0001) > staggerTimeStep=.TRUE.,
(PID.TID 0000.0001) >/
(PID.TID 0000.0001) >
(PID.TID 0000.0001) ># Elliptic solver parameters
(PID.TID 0000.0001) > &PARM02
(PID.TID 0000.0001) > cg2dMaxIters=1000,
(PID.TID 0000.0001) > cg2dTargetResidual=1.E-13,
(PID.TID 0000.0001) > cg3dMaxIters=400,
(PID.TID 0000.0001) > cg3dTargetResidual=1.E-13,
(PID.TID 0000.0001) >/
(PID.TID 0000.0001) >
(PID.TID 0000.0001) ># Time stepping parameters
(PID.TID 0000.0001) > &PARM03
(PID.TID 0000.0001) > niter0=0,
(PID.TID 0000.0001) ># times are in s
(PID.TID 0000.0001) > startTime=0,
(PID.TID 0000.0001) > endTime=108000,
(PID.TID 0000.0001) > deltaT=15,
(PID.TID 0000.0001) > abEps=0.1,
(PID.TID 0000.0001) ># once per tide checkpoint...
(PID.TID 0000.0001) > pChkptFreq=21600,
(PID.TID 0000.0001) > chkptFreq=0.0,
(PID.TID 0000.0001) > dumpFreq=7200,
(PID.TID 0000.0001) > monitorFreq=7200,
(PID.TID 0000.0001) ># Forcing for boundary condition files
(PID.TID 0000.0001) > periodicExternalForcing=.FALSE.,
(PID.TID 0000.0001) >/
(PID.TID 0000.0001) >
(PID.TID 0000.0001) ># Gridding parameters
(PID.TID 0000.0001) > &PARM04
(PID.TID 0000.0001) > usingCartesianGrid=.TRUE.,
(PID.TID 0000.0001) > usingSphericalPolarGrid=.FALSE.,
(PID.TID 0000.0001) > delXfile='delXvar.bin',
(PID.TID 0000.0001) > delY=5.e3,
(PID.TID 0000.0001) > delRfile = 'delZvar.bin',
(PID.TID 0000.0001) >/
(PID.TID 0000.0001) >
(PID.TID 0000.0001) ># Input datasets
(PID.TID 0000.0001) > &PARM05
(PID.TID 0000.0001) > bathyFile='topo.bin',
(PID.TID 0000.0001) > hydrogThetaFile='T0.bin',
(PID.TID 0000.0001) > checkIniTemp=.FALSE.,
(PID.TID 0000.0001) > uVelInitFile='U0.bin',
(PID.TID 0000.0001) > /
(PID.TID 0000.0001) 
(PID.TID 0000.0001)  INI_PARMS ; starts to read PARM01
(PID.TID 0000.0001)  INI_PARMS ; read PARM01 : OK
(PID.TID 0000.0001)  INI_PARMS ; starts to read PARM02
(PID.TID 0000.0001)  INI_PARMS ; read PARM02 : OK
(PID.TID 0000.0001)  INI_PARMS ; starts to read PARM03
(PID.TID 0000.0001)  INI_PARMS ; read PARM03 : OK
(PID.TID 0000.0001)  INI_PARMS ; starts to read PARM04
(PID.TID 0000.0001)  INI_PARMS ; read PARM04 : OK
(PID.TID 0000.0001)  INI_PARMS ; starts to read PARM05
(PID.TID 0000.0001)  INI_PARMS ; read PARM05 : OK
(PID.TID 0000.0001)  INI_PARMS: finished reading file "data"
(PID.TID 0000.0001)  PACKAGES_BOOT: opening data.pkg
(PID.TID 0000.0001)  OPEN_COPY_DATA_FILE: opening file data.pkg
(PID.TID 0000.0001) // =======================================================
(PID.TID 0000.0001) // Parameter file "data.pkg"
(PID.TID 0000.0001) // =======================================================
(PID.TID 0000.0001) ># Packages
(PID.TID 0000.0001) > &PACKAGES
(PID.TID 0000.0001) > useOBCS=.TRUE.,
(PID.TID 0000.0001) > useKL10=.TRUE.,
(PID.TID 0000.0001) > useDIAGNOSTICS=.FALSE.,
(PID.TID 0000.0001) > useMNC=.FALSE.,
(PID.TID 0000.0001) > /
(PID.TID 0000.0001) 
(PID.TID 0000.0001)  PACKAGES_BOOT: finished reading data.pkg
(PID.TID 0000.0001)  PACKAGES_BOOT: On/Off package Summary
 --------  pkgs with a standard "usePKG" On/Off switch in "data.pkg":  --------
 pkg/obcs                 compiled   and   used ( useOBCS                  = T )
 pkg/kl10                 compiled   and   used ( useKL10                  = T )
 -------- pkgs without standard "usePKG" On/Off switch in "data.pkg":  --------
 pkg/generic_advdiff      compiled   and   used ( useGAD                   = T )
 pkg/mom_common           compiled   and   used ( momStepping              = T )
 pkg/mom_vecinv           compiled but not used ( +vectorInvariantMomentum = F )
 pkg/mom_fluxform         compiled   and   used ( & not vectorInvariantMom = T )
 pkg/monitor              compiled   and   used ( monitorFreq > 0.         = T )
 pkg/debug                compiled but not used ( debugMode                = F )
 pkg/rw                   compiled   and   used
 pkg/mdsio                compiled   and   used
(PID.TID 0000.0001)  PACKAGES_BOOT: End of package Summary
(PID.TID 0000.0001) 
(PID.TID 0000.0001)  OBCS_READPARMS: opening data.obcs
(PID.TID 0000.0001)  OPEN_COPY_DATA_FILE: opening file data.obcs
(PID.TID 0000.0001) // =======================================================
(PID.TID 0000.0001) // Parameter file "data.obcs"
(PID.TID 0000.0001) // =======================================================
(PID.TID 0000.0001) ># Open-boundaries
(PID.TID 0000.0001) > &OBCS_PARM01
(PID.TID 0000.0001) > OB_Iwest=1*1,
(PID.TID 0000.0001) > OB_Ieast=1*-1,
(PID.TID 0000.0001) > OB_Jnorth=100*0,
(PID.TID 0000.0001) > OB_Jsouth=100*0,
(PID.TID 0000.0001) > useOBCSsponge=.TRUE.,
(PID.TID 0000.0001) > OBEuFile='U_in.bin',
(PID.TID 0000.0001) > OBWuFile='U_in.bin',
(PID.TID 0000.0001) > OBEtFile='TE.bin',
(PID.TID 0000.0001) > OBWtFile='TW.bin',
(PID.TID 0000.0001) > useOBCSprescribe=.TRUE.,
(PID.TID 0000.0001) > /
(PID.TID 0000.0001) >
(PID.TID 0000.0001) ># Orlanski parameters
(PID.TID 0000.0001) > &OBCS_PARM02
(PID.TID 0000.0001) >/
(PID.TID 0000.0001) >
(PID.TID 0000.0001) ># Sponge layer parameters
(PID.TID 0000.0001) > &OBCS_PARM03
(PID.TID 0000.0001) > Urelaxobcsinner=1000.,
(PID.TID 0000.0001) > Urelaxobcsbound=100.,
(PID.TID 0000.0001) > Vrelaxobcsinner=1000.0,
(PID.TID 0000.0001) > Vrelaxobcsbound=100.0,
(PID.TID 0000.0001) > spongeThickness=10,
(PID.TID 0000.0001) > /
(PID.TID 0000.0001) 
(PID.TID 0000.0001)  OBCS_READPARMS: finished reading data.obcs
(PID.TID 0000.0001)  OB_indexUnset = /* unset OB index value (i.e. no OB) */
(PID.TID 0000.0001)                       0
(PID.TID 0000.0001)     ;
(PID.TID 0000.0001)  Northern OB global indices : OB_Jnorth =
(PID.TID 0000.0001)   200 @        0                            /* I =  1:200 */
(PID.TID 0000.0001)  Southern OB global indices : OB_Jsouth =
(PID.TID 0000.0001)   200 @        0                            /* I =  1:200 */
(PID.TID 0000.0001)  Eastern  OB global indices : OB_Ieast =
(PID.TID 0000.0001)                     200                     /* J =  1 */
(PID.TID 0000.0001)  Western  OB global indices : OB_Iwest =
(PID.TID 0000.0001)                       1                     /* J =  1 */
(PID.TID 0000.0001) 
(PID.TID 0000.0001)  KL10_READPARMS: opening data.kl10
(PID.TID 0000.0001)  OPEN_COPY_DATA_FILE: opening file data.kl10
(PID.TID 0000.0001) // =======================================================
(PID.TID 0000.0001) // Parameter file "data.kl10"
(PID.TID 0000.0001) // =======================================================
(PID.TID 0000.0001) ># =====================================================================
(PID.TID 0000.0001) ># | Parameters for Klymak and Legg (2010) vertical mixing scheme      |
(PID.TID 0000.0001) ># =====================================================================
(PID.TID 0000.0001) > &KL10_PARM01
(PID.TID 0000.0001) > KLwriteState=.TRUE.,
(PID.TID 0000.0001) >/
(PID.TID 0000.0001) 
(PID.TID 0000.0001)  KL10_READPARMS: finished reading data.kl10
(PID.TID 0000.0001) SET_PARMS: done
(PID.TID 0000.0001)  MDS_READVEC_LOC: open file: delXvar.bin
(PID.TID 0000.0001) S/R LOAD_GRID_SPACING: delX loaded from file: delXvar.bin
(PID.TID 0000.0001)  MDS_READVEC_LOC: open file: delZvar.bin
(PID.TID 0000.0001) S/R LOAD_GRID_SPACING: delR loaded from file: delZvar.bin
(PID.TID 0000.0001) Enter INI_VERTICAL_GRID: setInterFDr=    T ; setCenterDr=    F
(PID.TID 0000.0001) %MON XC_max                       =   9.9471849328752E+04
(PID.TID 0000.0001) %MON XC_min                       =   6.3164731900833E+02
(PID.TID 0000.0001) %MON XC_mean                      =   5.2906107272275E+04
(PID.TID 0000.0001) %MON XC_sd                        =   2.2139310392762E+04
(PID.TID 0000.0001) %MON XG_max                       =   9.8943698657505E+04
(PID.TID 0000.0001) %MON XG_min                       =   0.0000000000000E+00
(PID.TID 0000.0001) %MON XG_mean                      =   5.2656107272275E+04
(PID.TID 0000.0001) %MON XG_sd                        =   2.2172561685063E+04
(PID.TID 0000.0001) %MON DXC_max                      =   1.2503953509116E+03
(PID.TID 0000.0001) %MON DXC_min                      =   2.0000000000000E+02
(PID.TID 0000.0001) %MON DXC_mean                     =   5.0000000000000E+02
(PID.TID 0000.0001) %MON DXC_sd                       =   2.8531736750525E+02
(PID.TID 0000.0001) %MON DXF_max                      =   1.2632946380167E+03
(PID.TID 0000.0001) %MON DXF_min                      =   2.0000000000000E+02
(PID.TID 0000.0001) %MON DXF_mean                     =   5.0000000000000E+02
(PID.TID 0000.0001) %MON DXF_sd                       =   2.8547066202794E+02
(PID.TID 0000.0001) %MON DXG_max                      =   1.2632946380167E+03
(PID.TID 0000.0001) %MON DXG_min                      =   2.0000000000000E+02
(PID.TID 0000.0001) %MON DXG_mean                     =   5.0000000000000E+02
(PID.TID 0000.0001) %MON DXG_sd                       =   2.8547066202794E+02
(PID.TID 0000.0001) %MON DXV_max                      =   1.2503953509116E+03
(PID.TID 0000.0001) %MON DXV_min                      =   2.0000000000000E+02
(PID.TID 0000.0001) %MON DXV_mean                     =   5.0000000000000E+02
(PID.TID 0000.0001) %MON DXV_sd                       =   2.8531736750525E+02
(PID.TID 0000.0001) %MON YC_max                       =   2.5000000000000E+03
(PID.TID 0000.0001) %MON YC_min                       =   2.5000000000000E+03
(PID.TID 0000.0001) %MON YC_mean                      =   2.5000000000000E+03
(PID.TID 0000.0001) %MON YC_sd                        =   0.0000000000000E+00
(PID.TID 0000.0001) %MON YG_max                       =   0.0000000000000E+00
(PID.TID 0000.0001) %MON YG_min                       =   0.0000000000000E+00
(PID.TID 0000.0001) %MON YG_mean                      =   0.0000000000000E+00
(PID.TID 0000.0001) %MON YG_sd                        =   0.0000000000000E+00
(PID.TID 0000.0001) %MON DYC_max                      =   5.0000000000000E+03
(PID.TID 0000.0001) %MON DYC_min                      =   5.0000000000000E+03
(PID.TID 0000.0001) %MON DYC_mean                     =   5.0000000000000E+03
(PID.TID 0000.0001) %MON DYC_sd                       =   0.0000000000000E+00
(PID.TID 0000.0001) %MON DYF_max                      =   5.0000000000000E+03
(PID.TID 0000.0001) %MON DYF_min                      =   5.0000000000000E+03
(PID.TID 0000.0001) %MON DYF_mean                     =   5.0000000000000E+03
(PID.TID 0000.0001) %MON DYF_sd                       =   0.0000000000000E+00
(PID.TID 0000.0001) %MON DYG_max                      =   5.0000000000000E+03
(PID.TID 0000.0001) %MON DYG_min                      =   5.0000000000000E+03
(PID.TID 0000.0001) %MON DYG_mean                     =   5.0000000000000E+03
(PID.TID 0000.0001) %MON DYG_sd                       =   0.0000000000000E+00
(PID.TID 0000.0001) %MON DYU_max                      =   5.0000000000000E+03
(PID.TID 0000.0001) %MON DYU_min                      =   5.0000000000000E+03
(PID.TID 0000.0001) %MON DYU_mean                     =   5.0000000000000E+03
(PID.TID 0000.0001) %MON DYU_sd                       =   0.0000000000000E+00
(PID.TID 0000.0001) %MON RA_max                       =   6.3164731900833E+06
(PID.TID 0000.0001) %MON RA_min                       =   1.0000000000000E+06
(PID.TID 0000.0001) %MON RA_mean                      =   2.5000000000000E+06
(PID.TID 0000.0001) %MON RA_sd                        =   1.4273533101397E+06
(PID.TID 0000.0001) %MON RAW_max                      =   6.2519767545581E+06
(PID.TID 0000.0001) %MON RAW_min                      =   1.0000000000000E+06
(PID.TID 0000.0001) %MON RAW_mean                     =   2.5000000000000E+06
(PID.TID 0000.0001) %MON RAW_sd                       =   1.4265868375263E+06
(PID.TID 0000.0001) %MON RAS_max                      =   6.3164731900833E+06
(PID.TID 0000.0001) %MON RAS_min                      =   1.0000000000000E+06
(PID.TID 0000.0001) %MON RAS_mean                     =   2.5000000000000E+06
(PID.TID 0000.0001) %MON RAS_sd                       =   1.4273533101397E+06
(PID.TID 0000.0001) %MON RAZ_max                      =   6.2519767545581E+06
(PID.TID 0000.0001) %MON RAZ_min                      =   1.0000000000000E+06
(PID.TID 0000.0001) %MON RAZ_mean                     =   2.5000000000000E+06
(PID.TID 0000.0001) %MON RAZ_sd                       =   1.4265868375263E+06
(PID.TID 0000.0001) %MON AngleCS_max                  =   1.0000000000000E+00
(PID.TID 0000.0001) %MON AngleCS_min                  =   1.0000000000000E+00
(PID.TID 0000.0001) %MON AngleCS_mean                 =   1.0000000000000E+00
(PID.TID 0000.0001) %MON AngleCS_sd                   =   0.0000000000000E+00
(PID.TID 0000.0001) %MON AngleSN_max                  =   0.0000000000000E+00
(PID.TID 0000.0001) %MON AngleSN_min                  =   0.0000000000000E+00
(PID.TID 0000.0001) %MON AngleSN_mean                 =   0.0000000000000E+00
(PID.TID 0000.0001) %MON AngleSN_sd                   =   0.0000000000000E+00
(PID.TID 0000.0001)  MDS_READVEC_LOC: open file: Tref.bin
(PID.TID 0000.0001) S/R LOAD_REF_FILES: tRef loaded from file: Tref.bin
(PID.TID 0000.0001)  MDS_READ_FIELD: opening global file: topo.bin
(PID.TID 0000.0001) // =======================================================
(PID.TID 0000.0001) // Field Model R_low (ini_masks_etc)
(PID.TID 0000.0001) // CMIN =         -1.999999999999999E+02
(PID.TID 0000.0001) // CMAX =         -1.001249219075419E+02
(PID.TID 0000.0001) // CINT =          3.699076966387332E+00
(PID.TID 0000.0001) // SYMBOLS (CMIN->CMAX): -abcdefghijklmnopqrstuvwxyz+
(PID.TID 0000.0001) //                  0.0: .
(PID.TID 0000.0001) // RANGE I (Lo:Hi:Step):(    -1:   202:     1)
(PID.TID 0000.0001) // RANGE J (Lo:Hi:Step):(     3:    -1:    -1)
(PID.TID 0000.0001) // RANGE K (Lo:Hi:Step):(   1:   1:   1)
(PID.TID 0000.0001) // =======================================================
(PID.TID 0000.0001) K =   1
(PID.TID 0000.0001) //                I=8       I=18      I=28      I=38      I=48      I=58      I=68      I=78      I=88      I=98      I=108     I=118     I=128     I=138     I=148     I=158     I=168     I=178     I=188     I=198
(PID.TID 0000.0001) // |--J--|101234567|901234567|901234567|901234567|901234567|901234567|901234567|901234567|901234567|901234567|901234567|901234567|901234567|901234567|901234567|901234567|901234567|901234567|901234567|901234567|9012
(PID.TID 0000.0001) //      3 --------------------------------------------------------------------------aaaabbccdefghiklnpqstvwxyz++++zyxwvtsqpnlkihgfedccbbaaaa--------------------------------------------------------------------------
(PID.TID 0000.0001) //      2 --------------------------------------------------------------------------aaaabbccdefghiklnpqstvwxyz++++zyxwvtsqpnlkihgfedccbbaaaa--------------------------------------------------------------------------
(PID.TID 0000.0001) //      1 --------------------------------------------------------------------------aaaabbccdefghiklnpqstvwxyz++++zyxwvtsqpnlkihgfedccbbaaaa--------------------------------------------------------------------------
(PID.TID 0000.0001) //      0 --------------------------------------------------------------------------aaaabbccdefghiklnpqstvwxyz++++zyxwvtsqpnlkihgfedccbbaaaa--------------------------------------------------------------------------
(PID.TID 0000.0001) //     -1 --------------------------------------------------------------------------aaaabbccdefghiklnpqstvwxyz++++zyxwvtsqpnlkihgfedccbbaaaa--------------------------------------------------------------------------
(PID.TID 0000.0001) // =======================================================
(PID.TID 0000.0001) // END OF FIELD                                          =
(PID.TID 0000.0001) // =======================================================
(PID.TID 0000.0001) 
(PID.TID 0000.0001) // =======================================================
(PID.TID 0000.0001) // Field Model Ro_surf (ini_masks_etc)
(PID.TID 0000.0001) // CMIN =         -2.531308496145357E-14
(PID.TID 0000.0001) // CMAX =          3.153033389935445E-14
(PID.TID 0000.0001) // CINT =          2.105311809659556E-15
(PID.TID 0000.0001) // SYMBOLS (CMIN->CMAX): -abcdefghijklmnopqrstuvwxyz+
(PID.TID 0000.0001) //                  0.0: .
(PID.TID 0000.0001) // RANGE I (Lo:Hi:Step):(    -1:   202:     1)
(PID.TID 0000.0001) // RANGE J (Lo:Hi:Step):(     3:    -1:    -1)
(PID.TID 0000.0001) // RANGE K (Lo:Hi:Step):(   1:   1:   1)
(PID.TID 0000.0001) // =======================================================
(PID.TID 0000.0001) K =   1
(PID.TID 0000.0001) //                I=8       I=18      I=28      I=38      I=48      I=58      I=68      I=78      I=88      I=98      I=108     I=118     I=128     I=138     I=148     I=158     I=168     I=178     I=188     I=198
(PID.TID 0000.0001) // |--J--|101234567|901234567|901234567|901234567|901234567|901234567|901234567|901234567|901234567|901234567|901234567|901234567|901234567|901234567|901234567|901234567|901234567|901234567|901234567|901234567|9012
(PID.TID 0000.0001) //      3 nnnnnnnnnnnnnnnnnnnnnnnnnnnnnnnnnnnnnnnnnnnnnnnnnnnnnnnnnnnnnnnnnnnnnnnnnnnnnnnn----nnn-n-n-nn+nnnnnnnnnnnnnn+nn-n-n-nnn----nnnnnnnnnnnnnnnnnnnnnnnnnnnnnnnnnnnnnnnnnnnnnnnnnnnnnnnnnnnnnnnnnnnnnnnnnnnnnnnn
(PID.TID 0000.0001) //      2 nnnnnnnnnnnnnnnnnnnnnnnnnnnnnnnnnnnnnnnnnnnnnnnnnnnnnnnnnnnnnnnnnnnnnnnnnnnnnnnn----nnn-n-n-nn+nnnnnnnnnnnnnn+nn-n-n-nnn----nnnnnnnnnnnnnnnnnnnnnnnnnnnnnnnnnnnnnnnnnnnnnnnnnnnnnnnnnnnnnnnnnnnnnnnnnnnnnnnn
(PID.TID 0000.0001) //      1 nnnnnnnnnnnnnnnnnnnnnnnnnnnnnnnnnnnnnnnnnnnnnnnnnnnnnnnnnnnnnnnnnnnnnnnnnnnnnnnn----nnn-n-n-nn+nnnnnnnnnnnnnn+nn-n-n-nnn----nnnnnnnnnnnnnnnnnnnnnnnnnnnnnnnnnnnnnnnnnnnnnnnnnnnnnnnnnnnnnnnnnnnnnnnnnnnnnnnn
(PID.TID 0000.0001) //      0 nnnnnnnnnnnnnnnnnnnnnnnnnnnnnnnnnnnnnnnnnnnnnnnnnnnnnnnnnnnnnnnnnnnnnnnnnnnnnnnn----nnn-n-n-nn+nnnnnnnnnnnnnn+nn-n-n-nnn----nnnnnnnnnnnnnnnnnnnnnnnnnnnnnnnnnnnnnnnnnnnnnnnnnnnnnnnnnnnnnnnnnnnnnnnnnnnnnnnn
(PID.TID 0000.0001) //     -1 nnnnnnnnnnnnnnnnnnnnnnnnnnnnnnnnnnnnnnnnnnnnnnnnnnnnnnnnnnnnnnnnnnnnnnnnnnnnnnnn----nnn-n-n-nn+nnnnnnnnnnnnnn+nn-n-n-nnn----nnnnnnnnnnnnnnnnnnnnnnnnnnnnnnnnnnnnnnnnnnnnnnnnnnnnnnnnnnnnnnnnnnnnnnnnnnnnnnnn
(PID.TID 0000.0001) // =======================================================
(PID.TID 0000.0001) // END OF FIELD                                          =
(PID.TID 0000.0001) // =======================================================
(PID.TID 0000.0001) 
(PID.TID 0000.0001) // =======================================================
(PID.TID 0000.0001) // Field hFacC at iteration          0
(PID.TID 0000.0001) // CMIN =          1.000000000000000E+00
(PID.TID 0000.0001) // CMAX =          1.000000000000000E+00
(PID.TID 0000.0001) // CINT =          0.000000000000000E+00
(PID.TID 0000.0001) // SYMBOLS (CMIN->CMAX): -abcdefghijklmnopqrstuvwxyz+
(PID.TID 0000.0001) //                  0.0: .
(PID.TID 0000.0001) // RANGE I (Lo:Hi:Step):(    -1:   202:     1)
(PID.TID 0000.0001) // RANGE J (Lo:Hi:Step):(     3:    -1:    -1)
(PID.TID 0000.0001) // RANGE K (Lo:Hi:Step):(   1:   1:   1)
(PID.TID 0000.0001) // =======================================================
(PID.TID 0000.0001) // =======================================================
(PID.TID 0000.0001) // END OF FIELD                                          =
(PID.TID 0000.0001) // =======================================================
(PID.TID 0000.0001) 
(PID.TID 0000.0001) // =======================================================
(PID.TID 0000.0001) // Field hFacW at iteration          0
(PID.TID 0000.0001) // CMIN =          1.000000000000000E+00
(PID.TID 0000.0001) // CMAX =          1.000000000000000E+00
(PID.TID 0000.0001) // CINT =          0.000000000000000E+00
(PID.TID 0000.0001) // SYMBOLS (CMIN->CMAX): -abcdefghijklmnopqrstuvwxyz+
(PID.TID 0000.0001) //                  0.0: .
(PID.TID 0000.0001) // RANGE I (Lo:Hi:Step):(    -1:   202:     1)
(PID.TID 0000.0001) // RANGE J (Lo:Hi:Step):(     3:    -1:    -1)
(PID.TID 0000.0001) // RANGE K (Lo:Hi:Step):(   1:   1:   1)
(PID.TID 0000.0001) // =======================================================
(PID.TID 0000.0001) // =======================================================
(PID.TID 0000.0001) // END OF FIELD                                          =
(PID.TID 0000.0001) // =======================================================
(PID.TID 0000.0001) 
(PID.TID 0000.0001) // =======================================================
(PID.TID 0000.0001) // Field hFacS at iteration          0
(PID.TID 0000.0001) // CMIN =          1.000000000000000E+00
(PID.TID 0000.0001) // CMAX =          1.000000000000000E+00
(PID.TID 0000.0001) // CINT =          0.000000000000000E+00
(PID.TID 0000.0001) // SYMBOLS (CMIN->CMAX): -abcdefghijklmnopqrstuvwxyz+
(PID.TID 0000.0001) //                  0.0: .
(PID.TID 0000.0001) // RANGE I (Lo:Hi:Step):(    -1:   202:     1)
(PID.TID 0000.0001) // RANGE J (Lo:Hi:Step):(     3:    -1:    -1)
(PID.TID 0000.0001) // RANGE K (Lo:Hi:Step):(   1:   1:   1)
(PID.TID 0000.0001) // =======================================================
(PID.TID 0000.0001) // =======================================================
(PID.TID 0000.0001) // END OF FIELD                                          =
(PID.TID 0000.0001) // =======================================================
(PID.TID 0000.0001) 
(PID.TID 0000.0001) GAD_INIT_FIXED: GAD_OlMinSize=  2  0  1
(PID.TID 0000.0001) 
(PID.TID 0000.0001) // ===================================
(PID.TID 0000.0001) // GAD parameters :
(PID.TID 0000.0001) // ===================================
(PID.TID 0000.0001) tempAdvScheme =   /* Temp. Horiz.Advection scheme selector */
(PID.TID 0000.0001)                      77
(PID.TID 0000.0001)     ;
(PID.TID 0000.0001) tempVertAdvScheme =   /* Temp. Vert. Advection scheme selector */
(PID.TID 0000.0001)                      77
(PID.TID 0000.0001)     ;
(PID.TID 0000.0001) tempMultiDimAdvec =   /* use Muti-Dim Advec method for Temp */
(PID.TID 0000.0001)                   T
(PID.TID 0000.0001)     ;
(PID.TID 0000.0001) tempSOM_Advection = /* use 2nd Order Moment Advection for Temp */
(PID.TID 0000.0001)                   F
(PID.TID 0000.0001)     ;
(PID.TID 0000.0001) AdamsBashforthGt = /* apply Adams-Bashforth extrapolation on Gt */
(PID.TID 0000.0001)                   F
(PID.TID 0000.0001)     ;
(PID.TID 0000.0001) AdamsBashforth_T = /* apply Adams-Bashforth extrapolation on Temp */
(PID.TID 0000.0001)                   F
(PID.TID 0000.0001)     ;
(PID.TID 0000.0001) saltAdvScheme =   /* Salt. Horiz.advection scheme selector */
(PID.TID 0000.0001)                       2
(PID.TID 0000.0001)     ;
(PID.TID 0000.0001) saltVertAdvScheme =   /* Salt. Vert. Advection scheme selector */
(PID.TID 0000.0001)                       2
(PID.TID 0000.0001)     ;
(PID.TID 0000.0001) saltMultiDimAdvec =   /* use Muti-Dim Advec method for Salt */
(PID.TID 0000.0001)                   F
(PID.TID 0000.0001)     ;
(PID.TID 0000.0001) saltSOM_Advection = /* use 2nd Order Moment Advection for Salt */
(PID.TID 0000.0001)                   F
(PID.TID 0000.0001)     ;
(PID.TID 0000.0001) AdamsBashforthGs = /* apply Adams-Bashforth extrapolation on Gs */
(PID.TID 0000.0001)                   F
(PID.TID 0000.0001)     ;
(PID.TID 0000.0001) AdamsBashforth_S = /* apply Adams-Bashforth extrapolation on Salt */
(PID.TID 0000.0001)                   F
(PID.TID 0000.0001)     ;
(PID.TID 0000.0001) // ===================================
(PID.TID 0000.0001) %MON fCori_max                    =   0.0000000000000E+00
(PID.TID 0000.0001) %MON fCori_min                    =   0.0000000000000E+00
(PID.TID 0000.0001) %MON fCori_mean                   =   0.0000000000000E+00
(PID.TID 0000.0001) %MON fCori_sd                     =   0.0000000000000E+00
(PID.TID 0000.0001) %MON fCoriG_max                   =   0.0000000000000E+00
(PID.TID 0000.0001) %MON fCoriG_min                   =   0.0000000000000E+00
(PID.TID 0000.0001) %MON fCoriG_mean                  =   0.0000000000000E+00
(PID.TID 0000.0001) %MON fCoriG_sd                    =   0.0000000000000E+00
(PID.TID 0000.0001) %MON fCoriCos_max                 =   0.0000000000000E+00
(PID.TID 0000.0001) %MON fCoriCos_min                 =   0.0000000000000E+00
(PID.TID 0000.0001) %MON fCoriCos_mean                =   0.0000000000000E+00
(PID.TID 0000.0001) %MON fCoriCos_sd                  =   0.0000000000000E+00
(PID.TID 0000.0001) INI_CG2D: CG2D normalisation factor =  2.2135898720948493E-04
(PID.TID 0000.0001) 
(PID.TID 0000.0001) // =======================================================
(PID.TID 0000.0001) // Model configuration
(PID.TID 0000.0001) // =======================================================
(PID.TID 0000.0001) //
(PID.TID 0000.0001) // "Physical" paramters ( PARM01 in namelist )
(PID.TID 0000.0001) //
(PID.TID 0000.0001) buoyancyRelation = /* Type of relation to get Buoyancy */
(PID.TID 0000.0001)               'OCEANIC'
(PID.TID 0000.0001)     ;
(PID.TID 0000.0001) fluidIsAir   =  /* fluid major constituent is Air */
(PID.TID 0000.0001)                   F
(PID.TID 0000.0001)     ;
(PID.TID 0000.0001) fluidIsWater =  /* fluid major constituent is Water */
(PID.TID 0000.0001)                   T
(PID.TID 0000.0001)     ;
(PID.TID 0000.0001) usingPCoords =  /* use p (or p*) vertical coordinate */
(PID.TID 0000.0001)                   F
(PID.TID 0000.0001)     ;
(PID.TID 0000.0001) usingZCoords =  /* use z (or z*) vertical coordinate */
(PID.TID 0000.0001)                   T
(PID.TID 0000.0001)     ;
(PID.TID 0000.0001) tRef =   /* Reference temperature profile ( oC or K ) */
(PID.TID 0000.0001)    46 @  1.500000000000000E+01,             /* K =  1: 46 */
(PID.TID 0000.0001)                 1.499933084687693E+01,      /* K = 47 */
(PID.TID 0000.0001)                 1.497717153877677E+01,      /* K = 48 */
(PID.TID 0000.0001)                 1.470721590167325E+01,      /* K = 49 */
(PID.TID 0000.0001)                 1.349735867339025E+01,      /* K = 50 */
(PID.TID 0000.0001)                 1.150264132660976E+01,      /* K = 51 */
(PID.TID 0000.0001)                 1.029278409832675E+01,      /* K = 52 */
(PID.TID 0000.0001)                 1.002282846122323E+01,      /* K = 53 */
(PID.TID 0000.0001)                 1.000066915312308E+01,      /* K = 54 */
(PID.TID 0000.0001)    46 @  1.000000000000000E+01              /* K = 55:100 */
(PID.TID 0000.0001)     ;
(PID.TID 0000.0001) sRef =   /* Reference salinity profile ( psu ) */
(PID.TID 0000.0001)   100 @  3.500000000000000E+01              /* K =  1:100 */
(PID.TID 0000.0001)     ;
(PID.TID 0000.0001) useStrainTensionVisc= /* Use StrainTension Form of Viscous Operator */
(PID.TID 0000.0001)                   F
(PID.TID 0000.0001)     ;
(PID.TID 0000.0001) useVariableVisc = /* Use variable horizontal viscosity */
(PID.TID 0000.0001)                   F
(PID.TID 0000.0001)     ;
(PID.TID 0000.0001) useHarmonicVisc = /* Use harmonic horizontal viscosity */
(PID.TID 0000.0001)                   T
(PID.TID 0000.0001)     ;
(PID.TID 0000.0001) useBiharmonicVisc= /* Use biharmonic horiz.  viscosity */
(PID.TID 0000.0001)                   F
(PID.TID 0000.0001)     ;
(PID.TID 0000.0001) useSmag3D = /* Use isotropic 3-D Smagorinsky viscosity */
(PID.TID 0000.0001)                   F
(PID.TID 0000.0001)     ;
(PID.TID 0000.0001) viscAh  =   /* Lateral harmonic viscosity ( m^2/s ) */
(PID.TID 0000.0001)                 1.000000000000000E-04
(PID.TID 0000.0001)     ;
(PID.TID 0000.0001) viscA4  =   /* Lateral biharmonic viscosity ( m^4/s ) */
(PID.TID 0000.0001)                 0.000000000000000E+00
(PID.TID 0000.0001)     ;
(PID.TID 0000.0001) no_slip_sides =  /* Viscous BCs: No-slip sides */
(PID.TID 0000.0001)                   F
(PID.TID 0000.0001)     ;
(PID.TID 0000.0001) sideDragFactor = /* side-drag scaling factor (non-dim) */
(PID.TID 0000.0001)                 2.000000000000000E+00
(PID.TID 0000.0001)     ;
(PID.TID 0000.0001) viscArNr = /* vertical profile of vertical viscosity ( m^2/s )*/
(PID.TID 0000.0001)   100 @  1.000000000000000E-05              /* K =  1:100 */
(PID.TID 0000.0001)     ;
(PID.TID 0000.0001) no_slip_bottom =  /* Viscous BCs: No-slip bottom */
(PID.TID 0000.0001)                   F
(PID.TID 0000.0001)     ;
(PID.TID 0000.0001) bottomDragLinear = /* linear bottom-drag coefficient ( m/s ) */
(PID.TID 0000.0001)                 0.000000000000000E+00
(PID.TID 0000.0001)     ;
(PID.TID 0000.0001) bottomDragQuadratic = /* quadratic bottom-drag coefficient (-) */
(PID.TID 0000.0001)                 0.000000000000000E+00
(PID.TID 0000.0001)     ;
(PID.TID 0000.0001) diffKhT =   /* Laplacian diffusion of heat laterally ( m^2/s ) */
(PID.TID 0000.0001)                 1.000000000000000E-04
(PID.TID 0000.0001)     ;
(PID.TID 0000.0001) diffK4T =   /* Biharmonic diffusion of heat laterally ( m^4/s ) */
(PID.TID 0000.0001)                 0.000000000000000E+00
(PID.TID 0000.0001)     ;
(PID.TID 0000.0001) diffKhS =   /* Laplacian diffusion of salt laterally ( m^2/s ) */
(PID.TID 0000.0001)                 1.000000000000000E+03
(PID.TID 0000.0001)     ;
(PID.TID 0000.0001) diffK4S =   /* Biharmonic diffusion of salt laterally ( m^4/s ) */
(PID.TID 0000.0001)                 0.000000000000000E+00
(PID.TID 0000.0001)     ;
(PID.TID 0000.0001) diffKrNrT = /* vertical profile of vertical diffusion of Temp ( m^2/s )*/
(PID.TID 0000.0001)   100 @  1.000000000000000E-05              /* K =  1:100 */
(PID.TID 0000.0001)     ;
(PID.TID 0000.0001) diffKrNrS = /* vertical profile of vertical diffusion of Salt ( m^2/s )*/
(PID.TID 0000.0001)   100 @  1.000000000000000E-05              /* K =  1:100 */
(PID.TID 0000.0001)     ;
(PID.TID 0000.0001) diffKrBL79surf = /* Surface diffusion for Bryan and Lewis 79 ( m^2/s ) */
(PID.TID 0000.0001)                 0.000000000000000E+00
(PID.TID 0000.0001)     ;
(PID.TID 0000.0001) diffKrBL79deep = /* Deep diffusion for Bryan and Lewis 1979 ( m^2/s ) */
(PID.TID 0000.0001)                 0.000000000000000E+00
(PID.TID 0000.0001)     ;
(PID.TID 0000.0001) diffKrBL79scl = /* Depth scale for Bryan and Lewis 1979 ( m ) */
(PID.TID 0000.0001)                 2.000000000000000E+02
(PID.TID 0000.0001)     ;
(PID.TID 0000.0001) diffKrBL79Ho = /* Turning depth for Bryan and Lewis 1979 ( m ) */
(PID.TID 0000.0001)                -2.000000000000000E+03
(PID.TID 0000.0001)     ;
(PID.TID 0000.0001) ivdc_kappa = /* Implicit Vertical Diffusivity for Convection ( m^2/s) */
(PID.TID 0000.0001)                 0.000000000000000E+00
(PID.TID 0000.0001)     ;
(PID.TID 0000.0001) hMixCriteria=  /* Criteria for mixed-layer diagnostic */
(PID.TID 0000.0001)                -8.000000000000000E-01
(PID.TID 0000.0001)     ;
(PID.TID 0000.0001) dRhoSmall =  /* Parameter for mixed-layer diagnostic */
(PID.TID 0000.0001)                 1.000000000000000E-06
(PID.TID 0000.0001)     ;
(PID.TID 0000.0001) hMixSmooth=  /* Smoothing parameter for mixed-layer diagnostic */
(PID.TID 0000.0001)                 0.000000000000000E+00
(PID.TID 0000.0001)     ;
(PID.TID 0000.0001) eosType =  /* Type of Equation of State */
(PID.TID 0000.0001)               'LINEAR'
(PID.TID 0000.0001)     ;
(PID.TID 0000.0001) tAlpha = /* Linear EOS thermal expansion coefficient ( 1/oC ) */
(PID.TID 0000.0001)                 2.000000000000000E-04
(PID.TID 0000.0001)     ;
(PID.TID 0000.0001) sBeta  = /* Linear EOS haline contraction coefficient ( 1/psu ) */
(PID.TID 0000.0001)                 0.000000000000000E+00
(PID.TID 0000.0001)     ;
(PID.TID 0000.0001) rhoNil    = /* Reference density for Linear EOS ( kg/m^3 ) */
(PID.TID 0000.0001)                 9.998000000000000E+02
(PID.TID 0000.0001)     ;
(PID.TID 0000.0001) HeatCapacity_Cp =  /* Specific heat capacity ( J/kg/K ) */
(PID.TID 0000.0001)                 3.994000000000000E+03
(PID.TID 0000.0001)     ;
(PID.TID 0000.0001) celsius2K = /* 0 degree Celsius converted to Kelvin ( K ) */
(PID.TID 0000.0001)                 2.731500000000000E+02
(PID.TID 0000.0001)     ;
(PID.TID 0000.0001) rhoConst  = /* Reference density (Boussinesq)  ( kg/m^3 ) */
(PID.TID 0000.0001)                 9.998000000000000E+02
(PID.TID 0000.0001)     ;
(PID.TID 0000.0001) rhoFacC = /* normalized Reference density @ cell-Center (-) */
(PID.TID 0000.0001)   100 @  1.000000000000000E+00              /* K =  1:100 */
(PID.TID 0000.0001)     ;
(PID.TID 0000.0001) rhoFacF = /* normalized Reference density @ W-Interface (-) */
(PID.TID 0000.0001)   101 @  1.000000000000000E+00              /* K =  1:101 */
(PID.TID 0000.0001)     ;
(PID.TID 0000.0001) rhoConstFresh = /* Fresh-water reference density ( kg/m^3 ) */
(PID.TID 0000.0001)                 9.998000000000000E+02
(PID.TID 0000.0001)     ;
(PID.TID 0000.0001) gravity =   /* Gravitational acceleration ( m/s^2 ) */
(PID.TID 0000.0001)                 9.810000000000000E+00
(PID.TID 0000.0001)     ;
(PID.TID 0000.0001) gBaro =   /* Barotropic gravity ( m/s^2 ) */
(PID.TID 0000.0001)                 9.810000000000000E+00
(PID.TID 0000.0001)     ;
(PID.TID 0000.0001) rotationPeriod =   /* Rotation Period ( s ) */
(PID.TID 0000.0001)                 8.616400000000000E+04
(PID.TID 0000.0001)     ;
(PID.TID 0000.0001) omega =   /* Angular velocity ( rad/s ) */
(PID.TID 0000.0001)                 7.292123516990375E-05
(PID.TID 0000.0001)     ;
(PID.TID 0000.0001) f0 =   /* Reference coriolis parameter ( 1/s ) */
(PID.TID 0000.0001)                 0.000000000000000E+00
(PID.TID 0000.0001)     ;
(PID.TID 0000.0001) beta =   /* Beta ( 1/(m.s) ) */
(PID.TID 0000.0001)                 0.000000000000000E+00
(PID.TID 0000.0001)     ;
(PID.TID 0000.0001) fPrime =   /* Second coriolis parameter ( 1/s ) */
(PID.TID 0000.0001)                 0.000000000000000E+00
(PID.TID 0000.0001)     ;
(PID.TID 0000.0001) rigidLid =   /* Rigid lid on/off flag */
(PID.TID 0000.0001)                   F
(PID.TID 0000.0001)     ;
(PID.TID 0000.0001) implicitFreeSurface =   /* Implicit free surface on/off flag */
(PID.TID 0000.0001)                   T
(PID.TID 0000.0001)     ;
(PID.TID 0000.0001) freeSurfFac =   /* Implicit free surface factor */
(PID.TID 0000.0001)                 1.000000000000000E+00
(PID.TID 0000.0001)     ;
(PID.TID 0000.0001) implicSurfPress =  /* Surface Pressure implicit factor (0-1)*/
(PID.TID 0000.0001)                 1.000000000000000E+00
(PID.TID 0000.0001)     ;
(PID.TID 0000.0001) implicDiv2Dflow =  /* Barot. Flow Div. implicit factor (0-1)*/
(PID.TID 0000.0001)                 1.000000000000000E+00
(PID.TID 0000.0001)     ;
(PID.TID 0000.0001) uniformLin_PhiSurf = /* use uniform Bo_surf on/off flag*/
(PID.TID 0000.0001)                   T
(PID.TID 0000.0001)     ;
(PID.TID 0000.0001) uniformFreeSurfLev = /* free-surface level-index is uniform */
(PID.TID 0000.0001)                   T
(PID.TID 0000.0001)     ;
(PID.TID 0000.0001) hFacMin =   /* minimum partial cell factor (hFac) */
(PID.TID 0000.0001)                 1.000000000000000E-01
(PID.TID 0000.0001)     ;
(PID.TID 0000.0001) hFacMinDr = /* minimum partial cell thickness ( m) */
(PID.TID 0000.0001)                 0.000000000000000E+00
(PID.TID 0000.0001)     ;
(PID.TID 0000.0001) exactConserv =  /* Exact Volume Conservation on/off flag*/
(PID.TID 0000.0001)                   F
(PID.TID 0000.0001)     ;
(PID.TID 0000.0001) linFSConserveTr = /* Tracer correction for Lin Free Surface on/off flag*/
(PID.TID 0000.0001)                   F
(PID.TID 0000.0001)     ;
(PID.TID 0000.0001) nonlinFreeSurf = /* Non-linear Free Surf. options (-1,0,1,2,3)*/
(PID.TID 0000.0001)                       0
(PID.TID 0000.0001)      -1,0= Off ; 1,2,3= On, 2=+rescale gU,gV, 3=+update cg2d solv.
(PID.TID 0000.0001)     ;
(PID.TID 0000.0001) hFacInf =   /* lower threshold for hFac (nonlinFreeSurf only)*/
(PID.TID 0000.0001)                 2.000000000000000E-01
(PID.TID 0000.0001)     ;
(PID.TID 0000.0001) hFacSup =   /* upper threshold for hFac (nonlinFreeSurf only)*/
(PID.TID 0000.0001)                 2.000000000000000E+00
(PID.TID 0000.0001)     ;
(PID.TID 0000.0001) select_rStar = /* r* Vertical coord. options (=0 r coord.; >0 uses r*)*/
(PID.TID 0000.0001)                       0
(PID.TID 0000.0001)     ;
(PID.TID 0000.0001) useRealFreshWaterFlux = /* Real Fresh Water Flux on/off flag*/
(PID.TID 0000.0001)                   F
(PID.TID 0000.0001)     ;
(PID.TID 0000.0001) temp_EvPrRn = /* Temp. of Evap/Prec/R (UNSET=use local T)(oC)*/
(PID.TID 0000.0001)                 1.234567000000000E+05
(PID.TID 0000.0001)     ;
(PID.TID 0000.0001) salt_EvPrRn = /* Salin. of Evap/Prec/R (UNSET=use local S)(psu)*/
(PID.TID 0000.0001)                 0.000000000000000E+00
(PID.TID 0000.0001)     ;
(PID.TID 0000.0001) selectAddFluid = /* option for mass source/sink of fluid (=0: off) */
(PID.TID 0000.0001)                       0
(PID.TID 0000.0001)     ;
(PID.TID 0000.0001) temp_addMass = /* Temp. of addMass array (UNSET=use local T)(oC)*/
(PID.TID 0000.0001)                 1.234567000000000E+05
(PID.TID 0000.0001)     ;
(PID.TID 0000.0001) salt_addMass = /* Salin. of addMass array (UNSET=use local S)(psu)*/
(PID.TID 0000.0001)                 0.000000000000000E+00
(PID.TID 0000.0001)     ;
(PID.TID 0000.0001) convertFW2Salt = /* convert F.W. Flux to Salt Flux (-1=use local S)(psu)*/
(PID.TID 0000.0001)                 3.500000000000000E+01
(PID.TID 0000.0001)     ;
(PID.TID 0000.0001) use3Dsolver = /* use 3-D pressure solver on/off flag */
(PID.TID 0000.0001)                   F
(PID.TID 0000.0001)     ;
(PID.TID 0000.0001) nonHydrostatic =  /* Non-Hydrostatic on/off flag */
(PID.TID 0000.0001)                   F
(PID.TID 0000.0001)     ;
(PID.TID 0000.0001) nh_Am2 = /* Non-Hydrostatic terms scaling factor */
(PID.TID 0000.0001)                 1.000000000000000E+00
(PID.TID 0000.0001)     ;
(PID.TID 0000.0001) implicitNHPress = /* Non-Hyd Pressure implicit factor (0-1)*/
(PID.TID 0000.0001)                 1.000000000000000E+00
(PID.TID 0000.0001)     ;
(PID.TID 0000.0001) selectNHfreeSurf = /* Non-Hyd (free-)Surface option */
(PID.TID 0000.0001)                       0
(PID.TID 0000.0001)     ;
(PID.TID 0000.0001) quasiHydrostatic = /* Quasi-Hydrostatic on/off flag */
(PID.TID 0000.0001)                   F
(PID.TID 0000.0001)     ;
(PID.TID 0000.0001) calc_wVelocity = /* vertical velocity calculation on/off flag */
(PID.TID 0000.0001)                   T
(PID.TID 0000.0001)     ;
(PID.TID 0000.0001) momStepping =  /* Momentum equation on/off flag */
(PID.TID 0000.0001)                   T
(PID.TID 0000.0001)     ;
(PID.TID 0000.0001) vectorInvariantMomentum= /* Vector-Invariant Momentum on/off */
(PID.TID 0000.0001)                   F
(PID.TID 0000.0001)     ;
(PID.TID 0000.0001) momAdvection =  /* Momentum advection on/off flag */
(PID.TID 0000.0001)                   T
(PID.TID 0000.0001)     ;
(PID.TID 0000.0001) momViscosity =  /* Momentum viscosity on/off flag */
(PID.TID 0000.0001)                   T
(PID.TID 0000.0001)     ;
(PID.TID 0000.0001) momImplVertAdv= /* Momentum implicit vert. advection on/off*/
(PID.TID 0000.0001)                   F
(PID.TID 0000.0001)     ;
(PID.TID 0000.0001) implicitViscosity = /* Implicit viscosity on/off flag */
(PID.TID 0000.0001)                   T
(PID.TID 0000.0001)     ;
(PID.TID 0000.0001) metricTerms =  /* metric-Terms on/off flag */
(PID.TID 0000.0001)                   F
(PID.TID 0000.0001)     ;
(PID.TID 0000.0001) useNHMTerms = /* Non-Hydrostatic Metric-Terms on/off */
(PID.TID 0000.0001)                   F
(PID.TID 0000.0001)     ;
(PID.TID 0000.0001) selectCoriMap = /* Coriolis Map options (0,1,2,3)*/
(PID.TID 0000.0001)                       1
(PID.TID 0000.0001)     0= f-Plane ; 1= Beta-Plane ; 2= Spherical ; 3= read from file
(PID.TID 0000.0001)     ;
(PID.TID 0000.0001) use3dCoriolis = /* 3-D Coriolis on/off flag */
(PID.TID 0000.0001)                   F
(PID.TID 0000.0001)     ;
(PID.TID 0000.0001) useCoriolis =  /* Coriolis on/off flag */
(PID.TID 0000.0001)                   T
(PID.TID 0000.0001)     ;
(PID.TID 0000.0001) useCDscheme =  /* CD scheme on/off flag */
(PID.TID 0000.0001)                   F
(PID.TID 0000.0001)     ;
(PID.TID 0000.0001) useEnergyConservingCoriolis= /* Flx-Form Coriolis scheme flag */
(PID.TID 0000.0001)                   F
(PID.TID 0000.0001)     ;
(PID.TID 0000.0001) useJamartWetPoints= /* Coriolis WetPoints method flag */
(PID.TID 0000.0001)                   F
(PID.TID 0000.0001)     ;
(PID.TID 0000.0001) useJamartMomAdv= /* V.I Non-linear terms Jamart flag */
(PID.TID 0000.0001)                   F
(PID.TID 0000.0001)     ;
(PID.TID 0000.0001) useAbsVorticity= /* V.I Works with f+zeta in Coriolis */
(PID.TID 0000.0001)                   F
(PID.TID 0000.0001)     ;
(PID.TID 0000.0001) selectVortScheme= /* V.I Scheme selector for Vorticity-Term */
(PID.TID 0000.0001)               123456789
(PID.TID 0000.0001)    = 0 : enstrophy (Shallow-Water Eq.) conserving scheme by Sadourny, JAS 75
(PID.TID 0000.0001)    = 1 : same as 0 with modified hFac
(PID.TID 0000.0001)    = 2 : energy conserving scheme (used by Sadourny in JAS 75 paper)
(PID.TID 0000.0001)    = 3 : energy (general) and enstrophy (2D, nonDiv.) conserving scheme
(PID.TID 0000.0001)          from Sadourny (Burridge & Haseler, ECMWF Rep.4, 1977)
(PID.TID 0000.0001)     ;
(PID.TID 0000.0001) upwindVorticity= /* V.I Upwind bias vorticity flag */
(PID.TID 0000.0001)                   F
(PID.TID 0000.0001)     ;
(PID.TID 0000.0001) highOrderVorticity= /* V.I High order vort. advect. flag */
(PID.TID 0000.0001)                   F
(PID.TID 0000.0001)     ;
(PID.TID 0000.0001) upwindShear= /* V.I Upwind vertical Shear advection flag */
(PID.TID 0000.0001)                   F
(PID.TID 0000.0001)     ;
(PID.TID 0000.0001) selectKEscheme= /* V.I Kinetic Energy scheme selector */
(PID.TID 0000.0001)                       0
(PID.TID 0000.0001)     ;
(PID.TID 0000.0001) momForcing =  /* Momentum forcing on/off flag */
(PID.TID 0000.0001)                   T
(PID.TID 0000.0001)     ;
(PID.TID 0000.0001) momPressureForcing =  /* Momentum pressure term on/off flag */
(PID.TID 0000.0001)                   T
(PID.TID 0000.0001)     ;
(PID.TID 0000.0001) implicitIntGravWave= /* Implicit Internal Gravity Wave flag */
(PID.TID 0000.0001)                   F
(PID.TID 0000.0001)     ;
(PID.TID 0000.0001) staggerTimeStep =    /* Stagger time stepping on/off flag */
(PID.TID 0000.0001)                   T
(PID.TID 0000.0001)     ;
(PID.TID 0000.0001) doResetHFactors = /* reset thickness factors @ each time-step */
(PID.TID 0000.0001)                   F
(PID.TID 0000.0001)     ;
(PID.TID 0000.0001) multiDimAdvection =  /* enable/disable Multi-Dim Advection */
(PID.TID 0000.0001)                   T
(PID.TID 0000.0001)     ;
(PID.TID 0000.0001) useMultiDimAdvec =   /* Multi-Dim Advection is/is-not used */
(PID.TID 0000.0001)                   T
(PID.TID 0000.0001)     ;
(PID.TID 0000.0001) implicitDiffusion = /* Implicit Diffusion on/off flag */
(PID.TID 0000.0001)                   T
(PID.TID 0000.0001)     ;
(PID.TID 0000.0001) tempStepping =  /* Temperature equation on/off flag */
(PID.TID 0000.0001)                   T
(PID.TID 0000.0001)     ;
(PID.TID 0000.0001) tempAdvection = /* Temperature advection on/off flag */
(PID.TID 0000.0001)                   T
(PID.TID 0000.0001)     ;
(PID.TID 0000.0001) tempImplVertAdv = /* Temp. implicit vert. advection on/off */
(PID.TID 0000.0001)                   F
(PID.TID 0000.0001)     ;
(PID.TID 0000.0001) tempForcing  =  /* Temperature forcing on/off flag */
(PID.TID 0000.0001)                   T
(PID.TID 0000.0001)     ;
(PID.TID 0000.0001) doThetaClimRelax = /* apply SST relaxation on/off flag */
(PID.TID 0000.0001)                   F
(PID.TID 0000.0001)     ;
(PID.TID 0000.0001) tempIsActiveTr = /* Temp. is a dynamically Active Tracer */
(PID.TID 0000.0001)                   T
(PID.TID 0000.0001)     ;
(PID.TID 0000.0001) saltStepping =  /* Salinity equation on/off flag */
(PID.TID 0000.0001)                   F
(PID.TID 0000.0001)     ;
(PID.TID 0000.0001) saltAdvection = /* Salinity advection on/off flag */
(PID.TID 0000.0001)                   F
(PID.TID 0000.0001)     ;
(PID.TID 0000.0001) saltImplVertAdv = /* Sali. implicit vert. advection on/off */
(PID.TID 0000.0001)                   F
(PID.TID 0000.0001)     ;
(PID.TID 0000.0001) saltForcing  =  /* Salinity forcing on/off flag */
(PID.TID 0000.0001)                   F
(PID.TID 0000.0001)     ;
(PID.TID 0000.0001) doSaltClimRelax = /* apply SSS relaxation on/off flag */
(PID.TID 0000.0001)                   F
(PID.TID 0000.0001)     ;
(PID.TID 0000.0001) saltIsActiveTr = /* Salt  is a dynamically Active Tracer */
(PID.TID 0000.0001)                   F
(PID.TID 0000.0001)     ;
(PID.TID 0000.0001)  readBinaryPrec = /* Precision used for reading binary files */
(PID.TID 0000.0001)                      64
(PID.TID 0000.0001)     ;
(PID.TID 0000.0001) writeBinaryPrec = /* Precision used for writing binary files */
(PID.TID 0000.0001)                      64
(PID.TID 0000.0001)     ;
(PID.TID 0000.0001)  globalFiles = /* write "global" (=not per tile) files */
(PID.TID 0000.0001)                   F
(PID.TID 0000.0001)     ;
(PID.TID 0000.0001)  useSingleCpuIO = /* only master MPI process does I/O */
(PID.TID 0000.0001)                   T
(PID.TID 0000.0001)     ;
(PID.TID 0000.0001)  useSingleCpuInput = /* only master process reads input */
(PID.TID 0000.0001)                   T
(PID.TID 0000.0001)     ;
(PID.TID 0000.0001) /* debLev[*]  : level of debug & auxiliary message printing */
(PID.TID 0000.0001) debLevZero =  0 ; /* level of disabled aux. msg printing */
(PID.TID 0000.0001)    debLevA =  1 ; /* level of minimum  aux. msg printing */
(PID.TID 0000.0001)    debLevB =  2 ; /* level of low aux. print (report read-file opening)*/
(PID.TID 0000.0001)    debLevC =  3 ; /* level of moderate debug prt (most pkgs debug msg) */
(PID.TID 0000.0001)    debLevD =  4 ; /* level of enhanced debug prt (add DEBUG_STATS prt) */
(PID.TID 0000.0001)    debLevE =  5 ; /* level of extensive debug printing */
(PID.TID 0000.0001) debugLevel =  /* select debug printing level */
(PID.TID 0000.0001)                       2
(PID.TID 0000.0001)     ;
(PID.TID 0000.0001) //
(PID.TID 0000.0001) // Elliptic solver(s) paramters ( PARM02 in namelist )
(PID.TID 0000.0001) //
(PID.TID 0000.0001) cg2dMaxIters =   /* Upper limit on 2d con. grad iterations  */
(PID.TID 0000.0001)                    1000
(PID.TID 0000.0001)     ;
(PID.TID 0000.0001) cg2dChkResFreq =   /* 2d con. grad convergence test frequency */
(PID.TID 0000.0001)                       1
(PID.TID 0000.0001)     ;
(PID.TID 0000.0001) cg2dUseMinResSol= /* use cg2d last-iter(=0) / min-resid.(=1) solution */
(PID.TID 0000.0001)                       0
(PID.TID 0000.0001)     ;
(PID.TID 0000.0001) cg2dTargetResidual =   /* 2d con. grad target residual  */
(PID.TID 0000.0001)                 1.000000000000000E-13
(PID.TID 0000.0001)     ;
(PID.TID 0000.0001) cg2dTargetResWunit =   /* CG2d target residual [W units] */
(PID.TID 0000.0001)                -1.000000000000000E+00
(PID.TID 0000.0001)     ;
(PID.TID 0000.0001) cg2dPreCondFreq =   /* Freq. for updating cg2d preconditioner */
(PID.TID 0000.0001)                       1
(PID.TID 0000.0001)     ;
(PID.TID 0000.0001) useSRCGSolver =  /* use single reduction CG solver(s) */
(PID.TID 0000.0001)                   F
(PID.TID 0000.0001)     ;
(PID.TID 0000.0001) printResidualFreq = /* Freq. for printing CG residual */
(PID.TID 0000.0001)                       0
(PID.TID 0000.0001)     ;
(PID.TID 0000.0001) //
(PID.TID 0000.0001) // Time stepping paramters ( PARM03 in namelist )
(PID.TID 0000.0001) //
(PID.TID 0000.0001) deltaTMom =   /* Momentum equation timestep ( s ) */
(PID.TID 0000.0001)                 1.500000000000000E+01
(PID.TID 0000.0001)     ;
(PID.TID 0000.0001) deltaTFreeSurf = /* FreeSurface equation timestep ( s ) */
(PID.TID 0000.0001)                 1.500000000000000E+01
(PID.TID 0000.0001)     ;
(PID.TID 0000.0001) dTtracerLev =  /* Tracer equation timestep ( s ) */
(PID.TID 0000.0001)   100 @  1.500000000000000E+01              /* K =  1:100 */
(PID.TID 0000.0001)     ;
(PID.TID 0000.0001) deltaTClock  =   /* Model clock timestep ( s ) */
(PID.TID 0000.0001)                 1.500000000000000E+01
(PID.TID 0000.0001)     ;
(PID.TID 0000.0001) cAdjFreq =   /* Convective adjustment interval ( s ) */
(PID.TID 0000.0001)                 0.000000000000000E+00
(PID.TID 0000.0001)     ;
(PID.TID 0000.0001) momForcingOutAB = /* =1: take Momentum Forcing out of Adams-Bash. stepping */
(PID.TID 0000.0001)                       0
(PID.TID 0000.0001)     ;
(PID.TID 0000.0001) tracForcingOutAB = /* =1: take T,S,pTr Forcing out of Adams-Bash. stepping */
(PID.TID 0000.0001)                       0
(PID.TID 0000.0001)     ;
(PID.TID 0000.0001) momDissip_In_AB = /* put Dissipation Tendency in Adams-Bash. stepping */
(PID.TID 0000.0001)                   T
(PID.TID 0000.0001)     ;
(PID.TID 0000.0001) doAB_onGtGs = /* apply AB on Tendencies (rather than on T,S)*/
(PID.TID 0000.0001)                   T
(PID.TID 0000.0001)     ;
(PID.TID 0000.0001) abEps =   /* Adams-Bashforth-2 stabilizing weight */
(PID.TID 0000.0001)                 1.000000000000000E-01
(PID.TID 0000.0001)     ;
(PID.TID 0000.0001) pickupStrictlyMatch= /* stop if pickup do not strictly match */
(PID.TID 0000.0001)                   T
(PID.TID 0000.0001)     ;
(PID.TID 0000.0001) nIter0   =   /* Run starting timestep number */
(PID.TID 0000.0001)                       0
(PID.TID 0000.0001)     ;
(PID.TID 0000.0001) nTimeSteps = /* Number of timesteps */
(PID.TID 0000.0001)                    7200
(PID.TID 0000.0001)     ;
(PID.TID 0000.0001) nEndIter =   /* Run ending timestep number */
(PID.TID 0000.0001)                    7200
(PID.TID 0000.0001)     ;
(PID.TID 0000.0001) baseTime =   /* Model base time ( s ) */
(PID.TID 0000.0001)                 0.000000000000000E+00
(PID.TID 0000.0001)     ;
(PID.TID 0000.0001) startTime =  /* Run start time ( s ) */
(PID.TID 0000.0001)                 0.000000000000000E+00
(PID.TID 0000.0001)     ;
(PID.TID 0000.0001) endTime  =   /* Integration ending time ( s ) */
(PID.TID 0000.0001)                 1.080000000000000E+05
(PID.TID 0000.0001)     ;
(PID.TID 0000.0001) pChkPtFreq = /* Permanent restart/pickup file interval ( s ) */
(PID.TID 0000.0001)                 2.160000000000000E+04
(PID.TID 0000.0001)     ;
(PID.TID 0000.0001) chkPtFreq  = /* Rolling restart/pickup file interval ( s ) */
(PID.TID 0000.0001)                 0.000000000000000E+00
(PID.TID 0000.0001)     ;
(PID.TID 0000.0001) pickup_write_mdsio =   /* Model IO flag. */
(PID.TID 0000.0001)                   T
(PID.TID 0000.0001)     ;
(PID.TID 0000.0001) pickup_read_mdsio =   /* Model IO flag. */
(PID.TID 0000.0001)                   T
(PID.TID 0000.0001)     ;
(PID.TID 0000.0001) pickup_write_immed =   /* Model IO flag. */
(PID.TID 0000.0001)                   F
(PID.TID 0000.0001)     ;
(PID.TID 0000.0001) writePickupAtEnd =   /* Model IO flag. */
(PID.TID 0000.0001)                   T
(PID.TID 0000.0001)     ;
(PID.TID 0000.0001) dumpFreq =   /* Model state write out interval ( s ). */
(PID.TID 0000.0001)                 7.200000000000000E+03
(PID.TID 0000.0001)     ;
(PID.TID 0000.0001) dumpInitAndLast= /* write out Initial & Last iter. model state */
(PID.TID 0000.0001)                   T
(PID.TID 0000.0001)     ;
(PID.TID 0000.0001) snapshot_mdsio =   /* Model IO flag. */
(PID.TID 0000.0001)                   T
(PID.TID 0000.0001)     ;
(PID.TID 0000.0001) monitorFreq =   /* Monitor output interval ( s ). */
(PID.TID 0000.0001)                 7.200000000000000E+03
(PID.TID 0000.0001)     ;
(PID.TID 0000.0001) monitorSelect = /* select group of variables to monitor */
(PID.TID 0000.0001)                       3
(PID.TID 0000.0001)     ;
(PID.TID 0000.0001) monitor_stdio =   /* Model IO flag. */
(PID.TID 0000.0001)                   T
(PID.TID 0000.0001)     ;
(PID.TID 0000.0001) externForcingPeriod =   /* forcing period (s) */
(PID.TID 0000.0001)                 0.000000000000000E+00
(PID.TID 0000.0001)     ;
(PID.TID 0000.0001) externForcingCycle =   /* period of the cyle (s). */
(PID.TID 0000.0001)                 0.000000000000000E+00
(PID.TID 0000.0001)     ;
(PID.TID 0000.0001) tauThetaClimRelax =   /* relaxation time scale (s) */
(PID.TID 0000.0001)                 0.000000000000000E+00
(PID.TID 0000.0001)     ;
(PID.TID 0000.0001) tauSaltClimRelax =   /* relaxation time scale (s) */
(PID.TID 0000.0001)                 0.000000000000000E+00
(PID.TID 0000.0001)     ;
(PID.TID 0000.0001) latBandClimRelax =   /* max. Lat. where relaxation */
(PID.TID 0000.0001)                 1.500000000000000E+04
(PID.TID 0000.0001)     ;
(PID.TID 0000.0001) //
(PID.TID 0000.0001) // Gridding paramters ( PARM04 in namelist )
(PID.TID 0000.0001) //
(PID.TID 0000.0001) usingCartesianGrid = /* Cartesian coordinates flag ( True/False ) */
(PID.TID 0000.0001)                   T
(PID.TID 0000.0001)     ;
(PID.TID 0000.0001) usingCylindricalGrid = /* Cylindrical coordinates flag ( True/False ) */
(PID.TID 0000.0001)                   F
(PID.TID 0000.0001)     ;
(PID.TID 0000.0001) usingSphericalPolarGrid = /* Spherical coordinates flag ( True/False ) */
(PID.TID 0000.0001)                   F
(PID.TID 0000.0001)     ;
(PID.TID 0000.0001) usingCurvilinearGrid = /* Curvilinear coordinates flag ( True/False ) */
(PID.TID 0000.0001)                   F
(PID.TID 0000.0001)     ;
(PID.TID 0000.0001) selectSigmaCoord = /* Hybrid-Sigma Vert. Coordinate option */
(PID.TID 0000.0001)                       0
(PID.TID 0000.0001)     ;
(PID.TID 0000.0001) Ro_SeaLevel = /* r(1) ( units of r ==  m ) */
(PID.TID 0000.0001)                 0.000000000000000E+00
(PID.TID 0000.0001)     ;
(PID.TID 0000.0001) rSigmaBnd = /* r/sigma transition ( units of r ==  m ) */
(PID.TID 0000.0001)                 1.234567000000000E+05
(PID.TID 0000.0001)     ;
(PID.TID 0000.0001) rkSign =   /* index orientation relative to vertical coordinate */
(PID.TID 0000.0001)                -1.000000000000000E+00
(PID.TID 0000.0001)     ;
(PID.TID 0000.0001) gravitySign = /* gravity orientation relative to vertical coordinate */
(PID.TID 0000.0001)                -1.000000000000000E+00
(PID.TID 0000.0001)     ;
(PID.TID 0000.0001) mass2rUnit = /* convert mass per unit area [kg/m2] to r-units [m] */
(PID.TID 0000.0001)                 1.000200040008002E-03
(PID.TID 0000.0001)     ;
(PID.TID 0000.0001) rUnit2mass = /* convert r-units [m] to mass per unit area [kg/m2] */
(PID.TID 0000.0001)                 9.998000000000000E+02
(PID.TID 0000.0001)     ;
(PID.TID 0000.0001) drC =   /* C spacing ( units of r ) */
(PID.TID 0000.0001)                 1.778230853257070E+00,      /* K =  1 */
(PID.TID 0000.0001)                 3.510074164864204E+00,      /* K =  2 */
(PID.TID 0000.0001)                 3.418509162930531E+00,      /* K =  3 */
(PID.TID 0000.0001)                 3.329332757130535E+00,      /* K =  4 */
(PID.TID 0000.0001)                 3.242482637723929E+00,      /* K =  5 */
(PID.TID 0000.0001)                 3.157898120403742E+00,      /* K =  6 */
(PID.TID 0000.0001)                 3.075520103894710E+00,      /* K =  7 */
(PID.TID 0000.0001)                 2.995291028657758E+00,      /* K =  8 */
(PID.TID 0000.0001)                 2.917154836671749E+00,      /* K =  9 */
(PID.TID 0000.0001)                 2.841056932264362E+00,      /* K = 10 */
(PID.TID 0000.0001)                 2.766944143964766E+00,      /* K = 11 */
(PID.TID 0000.0001)                 2.694764687351404E+00,      /* K = 12 */
(PID.TID 0000.0001)                 2.624468128868950E+00,      /* K = 13 */
(PID.TID 0000.0001)                 2.556005350589150E+00,      /* K = 14 */
(PID.TID 0000.0001)                 2.489328515890922E+00,      /* K = 15 */
(PID.TID 0000.0001)                 2.424391036035729E+00,      /* K = 16 */
(PID.TID 0000.0001)                 2.361147537614897E+00,      /* K = 17 */
(PID.TID 0000.0001)                 2.299553830846095E+00,      /* K = 18 */
(PID.TID 0000.0001)                 2.239566878696850E+00,      /* K = 19 */
(PID.TID 0000.0001)                 2.181144766813524E+00,      /* K = 20 */
(PID.TID 0000.0001)                 2.124246674234723E+00,      /* K = 21 */
(PID.TID 0000.0001)                 2.068832844868692E+00,      /* K = 22 */
(PID.TID 0000.0001)                 2.014864559714757E+00,      /* K = 23 */
(PID.TID 0000.0001)                 1.962304109809418E+00,      /* K = 24 */
(PID.TID 0000.0001)                 1.911114769878161E+00,      /* K = 25 */
(PID.TID 0000.0001)                 1.861260772674619E+00,      /* K = 26 */
(PID.TID 0000.0001)                 1.812707283989113E+00,      /* K = 27 */
(PID.TID 0000.0001)                 1.765420378309139E+00,      /* K = 28 */
(PID.TID 0000.0001)                 1.719367015114782E+00,      /* K = 29 */
(PID.TID 0000.0001)                 1.674515015792491E+00,      /* K = 30 */
(PID.TID 0000.0001)                 1.630833041151099E+00,      /* K = 31 */
(PID.TID 0000.0001)                 1.588290569524356E+00,      /* K = 32 */
(PID.TID 0000.0001)                 1.546857875444697E+00,      /* K = 33 */
(PID.TID 0000.0001)                 1.506506008873327E+00,      /* K = 34 */
(PID.TID 0000.0001)                 1.467206774972122E+00,      /* K = 35 */
(PID.TID 0000.0001)                 1.428932714403200E+00,      /* K = 36 */
(PID.TID 0000.0001)                 1.391657084142413E+00,      /* K = 37 */
(PID.TID 0000.0001)                 1.355353838793339E+00,      /* K = 38 */
(PID.TID 0000.0001)                 1.319997612388726E+00,      /* K = 39 */
(PID.TID 0000.0001)                 1.285563700666666E+00,      /* K = 40 */
(PID.TID 0000.0001)                 1.252028043809125E+00,      /* K = 41 */
(PID.TID 0000.0001)                 1.219367209630760E+00,      /* K = 42 */
(PID.TID 0000.0001)                 1.187558377206269E+00,      /* K = 43 */
(PID.TID 0000.0001)                 1.156579320924862E+00,      /* K = 44 */
(PID.TID 0000.0001)                 1.126408394960672E+00,      /* K = 45 */
(PID.TID 0000.0001)                 1.097024518148294E+00,      /* K = 46 */
(PID.TID 0000.0001)                 1.068407159252853E+00,      /* K = 47 */
(PID.TID 0000.0001)                 1.040536322624328E+00,      /* K = 48 */
(PID.TID 0000.0001)                 1.013392534226109E+00,      /* K = 49 */
(PID.TID 0000.0001)     3 @  1.000000000000000E+00,             /* K = 50: 52 */
(PID.TID 0000.0001)                 1.013392534226109E+00,      /* K = 53 */
(PID.TID 0000.0001)                 1.040536322624328E+00,      /* K = 54 */
(PID.TID 0000.0001)                 1.068407159252853E+00,      /* K = 55 */
(PID.TID 0000.0001)                 1.097024518148294E+00,      /* K = 56 */
(PID.TID 0000.0001)                 1.126408394960672E+00,      /* K = 57 */
(PID.TID 0000.0001)                 1.156579320924862E+00,      /* K = 58 */
(PID.TID 0000.0001)                 1.187558377206269E+00,      /* K = 59 */
(PID.TID 0000.0001)                 1.219367209630760E+00,      /* K = 60 */
(PID.TID 0000.0001)                 1.252028043809125E+00,      /* K = 61 */
(PID.TID 0000.0001)                 1.285563700666666E+00,      /* K = 62 */
(PID.TID 0000.0001)                 1.319997612388726E+00,      /* K = 63 */
(PID.TID 0000.0001)                 1.355353838793339E+00,      /* K = 64 */
(PID.TID 0000.0001)                 1.391657084142413E+00,      /* K = 65 */
(PID.TID 0000.0001)                 1.428932714403200E+00,      /* K = 66 */
(PID.TID 0000.0001)                 1.467206774972122E+00,      /* K = 67 */
(PID.TID 0000.0001)                 1.506506008873327E+00,      /* K = 68 */
(PID.TID 0000.0001)                 1.546857875444697E+00,      /* K = 69 */
(PID.TID 0000.0001)                 1.588290569524356E+00,      /* K = 70 */
(PID.TID 0000.0001)                 1.630833041151099E+00,      /* K = 71 */
(PID.TID 0000.0001)                 1.674515015792491E+00,      /* K = 72 */
(PID.TID 0000.0001)                 1.719367015114782E+00,      /* K = 73 */
(PID.TID 0000.0001)                 1.765420378309139E+00,      /* K = 74 */
(PID.TID 0000.0001)                 1.812707283989113E+00,      /* K = 75 */
(PID.TID 0000.0001)                 1.861260772674619E+00,      /* K = 76 */
(PID.TID 0000.0001)                 1.911114769878161E+00,      /* K = 77 */
(PID.TID 0000.0001)                 1.962304109809418E+00,      /* K = 78 */
(PID.TID 0000.0001)                 2.014864559714757E+00,      /* K = 79 */
(PID.TID 0000.0001)                 2.068832844868692E+00,      /* K = 80 */
(PID.TID 0000.0001)                 2.124246674234723E+00,      /* K = 81 */
(PID.TID 0000.0001)                 2.181144766813524E+00,      /* K = 82 */
(PID.TID 0000.0001)                 2.239566878696850E+00,      /* K = 83 */
(PID.TID 0000.0001)                 2.299553830846095E+00,      /* K = 84 */
(PID.TID 0000.0001)                 2.361147537614897E+00,      /* K = 85 */
(PID.TID 0000.0001)                 2.424391036035729E+00,      /* K = 86 */
(PID.TID 0000.0001)                 2.489328515890922E+00,      /* K = 87 */
(PID.TID 0000.0001)                 2.556005350589150E+00,      /* K = 88 */
(PID.TID 0000.0001)                 2.624468128868950E+00,      /* K = 89 */
(PID.TID 0000.0001)                 2.694764687351404E+00,      /* K = 90 */
(PID.TID 0000.0001)                 2.766944143964766E+00,      /* K = 91 */
(PID.TID 0000.0001)                 2.841056932264362E+00,      /* K = 92 */
(PID.TID 0000.0001)                 2.917154836671749E+00,      /* K = 93 */
(PID.TID 0000.0001)                 2.995291028657758E+00,      /* K = 94 */
(PID.TID 0000.0001)                 3.075520103894710E+00,      /* K = 95 */
(PID.TID 0000.0001)                 3.157898120403742E+00,      /* K = 96 */
(PID.TID 0000.0001)                 3.242482637723929E+00,      /* K = 97 */
(PID.TID 0000.0001)                 3.329332757130535E+00,      /* K = 98 */
(PID.TID 0000.0001)                 3.418509162930531E+00,      /* K = 99 */
(PID.TID 0000.0001)                 3.510074164864204E+00,      /* K =100 */
(PID.TID 0000.0001)                 1.778230853257070E+00       /* K =101 */
(PID.TID 0000.0001)     ;
(PID.TID 0000.0001) drF =   /* W spacing ( units of r ) */
(PID.TID 0000.0001)                 3.556461706514141E+00,      /* K =  1 */
(PID.TID 0000.0001)                 3.463686623214269E+00,      /* K =  2 */
(PID.TID 0000.0001)                 3.373331702646793E+00,      /* K =  3 */
(PID.TID 0000.0001)                 3.285333811614276E+00,      /* K =  4 */
(PID.TID 0000.0001)                 3.199631463833581E+00,      /* K =  5 */
(PID.TID 0000.0001)                 3.116164776973904E+00,      /* K =  6 */
(PID.TID 0000.0001)                 3.034875430815516E+00,      /* K =  7 */
(PID.TID 0000.0001)                 2.955706626500000E+00,      /* K =  8 */
(PID.TID 0000.0001)                 2.878603046843497E+00,      /* K =  9 */
(PID.TID 0000.0001)                 2.803510817685228E+00,      /* K = 10 */
(PID.TID 0000.0001)                 2.730377470244305E+00,      /* K = 11 */
(PID.TID 0000.0001)                 2.659151904458503E+00,      /* K = 12 */
(PID.TID 0000.0001)                 2.589784353279397E+00,      /* K = 13 */
(PID.TID 0000.0001)                 2.522226347898904E+00,      /* K = 14 */
(PID.TID 0000.0001)                 2.456430683882939E+00,      /* K = 15 */
(PID.TID 0000.0001)                 2.392351388188520E+00,      /* K = 16 */
(PID.TID 0000.0001)                 2.329943687041276E+00,      /* K = 17 */
(PID.TID 0000.0001)                 2.269163974650914E+00,      /* K = 18 */
(PID.TID 0000.0001)                 2.209969782742786E+00,      /* K = 19 */
(PID.TID 0000.0001)                 2.152319750884263E+00,      /* K = 20 */
(PID.TID 0000.0001)                 2.096173597585184E+00,      /* K = 21 */
(PID.TID 0000.0001)                 2.041492092152199E+00,      /* K = 22 */
(PID.TID 0000.0001)                 1.988237027277316E+00,      /* K = 23 */
(PID.TID 0000.0001)                 1.936371192341520E+00,      /* K = 24 */
(PID.TID 0000.0001)                 1.885858347414803E+00,      /* K = 25 */
(PID.TID 0000.0001)                 1.836663197934435E+00,      /* K = 26 */
(PID.TID 0000.0001)                 1.788751370043790E+00,      /* K = 27 */
(PID.TID 0000.0001)                 1.742089386574488E+00,      /* K = 28 */
(PID.TID 0000.0001)                 1.696644643655076E+00,      /* K = 29 */
(PID.TID 0000.0001)                 1.652385387929906E+00,      /* K = 30 */
(PID.TID 0000.0001)                 1.609280694372291E+00,      /* K = 31 */
(PID.TID 0000.0001)                 1.567300444676421E+00,      /* K = 32 */
(PID.TID 0000.0001)                 1.526415306212973E+00,      /* K = 33 */
(PID.TID 0000.0001)                 1.486596711533682E+00,      /* K = 34 */
(PID.TID 0000.0001)                 1.447816838410562E+00,      /* K = 35 */
(PID.TID 0000.0001)                 1.410048590395838E+00,      /* K = 36 */
(PID.TID 0000.0001)                 1.373265577888988E+00,      /* K = 37 */
(PID.TID 0000.0001)                 1.337442099697690E+00,      /* K = 38 */
(PID.TID 0000.0001)                 1.302553125079761E+00,      /* K = 39 */
(PID.TID 0000.0001)                 1.268574276253570E+00,      /* K = 40 */
(PID.TID 0000.0001)                 1.235481811364681E+00,      /* K = 41 */
(PID.TID 0000.0001)                 1.203252607896838E+00,      /* K = 42 */
(PID.TID 0000.0001)                 1.171864146515700E+00,      /* K = 43 */
(PID.TID 0000.0001)                 1.141294495334024E+00,      /* K = 44 */
(PID.TID 0000.0001)                 1.111522294587321E+00,      /* K = 45 */
(PID.TID 0000.0001)                 1.082526741709268E+00,      /* K = 46 */
(PID.TID 0000.0001)                 1.054287576796438E+00,      /* K = 47 */
(PID.TID 0000.0001)                 1.026785068452217E+00,      /* K = 48 */
(PID.TID 0000.0001)     4 @  1.000000000000000E+00,             /* K = 49: 52 */
(PID.TID 0000.0001)                 1.026785068452217E+00,      /* K = 53 */
(PID.TID 0000.0001)                 1.054287576796438E+00,      /* K = 54 */
(PID.TID 0000.0001)                 1.082526741709268E+00,      /* K = 55 */
(PID.TID 0000.0001)                 1.111522294587321E+00,      /* K = 56 */
(PID.TID 0000.0001)                 1.141294495334024E+00,      /* K = 57 */
(PID.TID 0000.0001)                 1.171864146515700E+00,      /* K = 58 */
(PID.TID 0000.0001)                 1.203252607896838E+00,      /* K = 59 */
(PID.TID 0000.0001)                 1.235481811364681E+00,      /* K = 60 */
(PID.TID 0000.0001)                 1.268574276253570E+00,      /* K = 61 */
(PID.TID 0000.0001)                 1.302553125079761E+00,      /* K = 62 */
(PID.TID 0000.0001)                 1.337442099697690E+00,      /* K = 63 */
(PID.TID 0000.0001)                 1.373265577888988E+00,      /* K = 64 */
(PID.TID 0000.0001)                 1.410048590395838E+00,      /* K = 65 */
(PID.TID 0000.0001)                 1.447816838410562E+00,      /* K = 66 */
(PID.TID 0000.0001)                 1.486596711533682E+00,      /* K = 67 */
(PID.TID 0000.0001)                 1.526415306212973E+00,      /* K = 68 */
(PID.TID 0000.0001)                 1.567300444676421E+00,      /* K = 69 */
(PID.TID 0000.0001)                 1.609280694372291E+00,      /* K = 70 */
(PID.TID 0000.0001)                 1.652385387929906E+00,      /* K = 71 */
(PID.TID 0000.0001)                 1.696644643655076E+00,      /* K = 72 */
(PID.TID 0000.0001)                 1.742089386574488E+00,      /* K = 73 */
(PID.TID 0000.0001)                 1.788751370043790E+00,      /* K = 74 */
(PID.TID 0000.0001)                 1.836663197934435E+00,      /* K = 75 */
(PID.TID 0000.0001)                 1.885858347414803E+00,      /* K = 76 */
(PID.TID 0000.0001)                 1.936371192341520E+00,      /* K = 77 */
(PID.TID 0000.0001)                 1.988237027277316E+00,      /* K = 78 */
(PID.TID 0000.0001)                 2.041492092152199E+00,      /* K = 79 */
(PID.TID 0000.0001)                 2.096173597585184E+00,      /* K = 80 */
(PID.TID 0000.0001)                 2.152319750884263E+00,      /* K = 81 */
(PID.TID 0000.0001)                 2.209969782742786E+00,      /* K = 82 */
(PID.TID 0000.0001)                 2.269163974650914E+00,      /* K = 83 */
(PID.TID 0000.0001)                 2.329943687041276E+00,      /* K = 84 */
(PID.TID 0000.0001)                 2.392351388188520E+00,      /* K = 85 */
(PID.TID 0000.0001)                 2.456430683882939E+00,      /* K = 86 */
(PID.TID 0000.0001)                 2.522226347898904E+00,      /* K = 87 */
(PID.TID 0000.0001)                 2.589784353279397E+00,      /* K = 88 */
(PID.TID 0000.0001)                 2.659151904458503E+00,      /* K = 89 */
(PID.TID 0000.0001)                 2.730377470244305E+00,      /* K = 90 */
(PID.TID 0000.0001)                 2.803510817685228E+00,      /* K = 91 */
(PID.TID 0000.0001)                 2.878603046843497E+00,      /* K = 92 */
(PID.TID 0000.0001)                 2.955706626500000E+00,      /* K = 93 */
(PID.TID 0000.0001)                 3.034875430815516E+00,      /* K = 94 */
(PID.TID 0000.0001)                 3.116164776973904E+00,      /* K = 95 */
(PID.TID 0000.0001)                 3.199631463833581E+00,      /* K = 96 */
(PID.TID 0000.0001)                 3.285333811614276E+00,      /* K = 97 */
(PID.TID 0000.0001)                 3.373331702646793E+00,      /* K = 98 */
(PID.TID 0000.0001)                 3.463686623214269E+00,      /* K = 99 */
(PID.TID 0000.0001)                 3.556461706514141E+00       /* K =100 */
(PID.TID 0000.0001)     ;
(PID.TID 0000.0001) delX = /* U spacing ( m - cartesian, degrees - spherical ) */
(PID.TID 0000.0001)                 1.263294638016668E+03,      /* I =  1 */
(PID.TID 0000.0001)                 1.237496063806571E+03,      /* I =  2 */
(PID.TID 0000.0001)                 1.212224339320398E+03,      /* I =  3 */
(PID.TID 0000.0001)      . . .
(PID.TID 0000.0001)                 4.790113490274632E+02,      /* I = 48 */
(PID.TID 0000.0001)                 4.692291418815790E+02,      /* I = 49 */
(PID.TID 0000.0001)                 4.596467036489769E+02,      /* I = 50 */
(PID.TID 0000.0001)                 4.502599547167311E+02,      /* I = 51 */
(PID.TID 0000.0001)                 4.410648987843862E+02,      /* I = 52 */
(PID.TID 0000.0001)                 4.320576211625778E+02,      /* I = 53 */
(PID.TID 0000.0001)      . . .
(PID.TID 0000.0001)                 2.000000000000000E+02,      /* I = 98 */
(PID.TID 0000.0001)                 2.000000000000000E+02,      /* I = 99 */
(PID.TID 0000.0001)                 2.000000000000000E+02,      /* I =100 */
(PID.TID 0000.0001)                 2.000000000000000E+02,      /* I =101 */
(PID.TID 0000.0001)                 2.000000000000000E+02,      /* I =102 */
(PID.TID 0000.0001)                 2.000000000000000E+02,      /* I =103 */
(PID.TID 0000.0001)      . . .
(PID.TID 0000.0001)                 3.612641354876311E+02,      /* I =148 */
(PID.TID 0000.0001)                 3.687955530665730E+02,      /* I =149 */
(PID.TID 0000.0001)                 3.764839811128614E+02,      /* I =150 */
(PID.TID 0000.0001)                 3.843326928863569E+02,      /* I =151 */
(PID.TID 0000.0001)                 3.923450298858749E+02,      /* I =152 */
(PID.TID 0000.0001)                 4.005244032717896E+02,      /* I =153 */
(PID.TID 0000.0001)      . . .
(PID.TID 0000.0001)                 1.013599012055986E+03,      /* I =198 */
(PID.TID 0000.0001)                 1.034729915092050E+03,      /* I =199 */
(PID.TID 0000.0001)                 1.056301342495056E+03       /* I =200 */
(PID.TID 0000.0001)     ;
(PID.TID 0000.0001) delY = /* V spacing ( m - cartesian, degrees - spherical ) */
(PID.TID 0000.0001)                 5.000000000000000E+03       /* J =  1 */
(PID.TID 0000.0001)     ;
(PID.TID 0000.0001) xgOrigin = /* X-axis origin of West  edge (cartesian: m, lat-lon: deg) */
(PID.TID 0000.0001)                 0.000000000000000E+00
(PID.TID 0000.0001)     ;
(PID.TID 0000.0001) ygOrigin = /* Y-axis origin of South edge (cartesian: m, lat-lon: deg) */
(PID.TID 0000.0001)                 0.000000000000000E+00
(PID.TID 0000.0001)     ;
(PID.TID 0000.0001) rSphere =  /* Radius ( ignored - cartesian, m - spherical ) */
(PID.TID 0000.0001)                 6.370000000000000E+06
(PID.TID 0000.0001)     ;
(PID.TID 0000.0001) deepAtmosphere = /* Deep/Shallow Atmosphere flag (True/False) */
(PID.TID 0000.0001)                   F
(PID.TID 0000.0001)     ;
(PID.TID 0000.0001) xC =  /* xC(:,1,:,1) : P-point X coord ( deg. or m if cartesian) */
(PID.TID 0000.0001)                 6.316473190083342E+02,      /* I =  1 */
(PID.TID 0000.0001)                 1.882042669919954E+03,      /* I =  2 */
(PID.TID 0000.0001)                 3.106902871483439E+03,      /* I =  3 */
(PID.TID 0000.0001)      . . .
(PID.TID 0000.0001)                 3.864398747251778E+04,      /* I = 48 */
(PID.TID 0000.0001)                 3.911810771797229E+04,      /* I = 49 */
(PID.TID 0000.0001)                 3.958254564073758E+04,      /* I = 50 */
(PID.TID 0000.0001)                 4.003749896992043E+04,      /* I = 51 */
(PID.TID 0000.0001)                 4.048316139667099E+04,      /* I = 52 */
(PID.TID 0000.0001)                 4.091972265664447E+04,      /* I = 53 */
(PID.TID 0000.0001)      . . .
(PID.TID 0000.0001)                 5.369999999999999E+04,      /* I = 98 */
(PID.TID 0000.0001)                 5.389999999999999E+04,      /* I = 99 */
(PID.TID 0000.0001)                 5.409999999999999E+04,      /* I =100 */
(PID.TID 0000.0001)                 5.429999999999999E+04,      /* I =101 */
(PID.TID 0000.0001)                 5.449999999999999E+04,      /* I =102 */
(PID.TID 0000.0001)                 5.469999999999999E+04,      /* I =103 */
(PID.TID 0000.0001)      . . .
(PID.TID 0000.0001)                 6.578505387737689E+04,      /* I =148 */
(PID.TID 0000.0001)                 6.615008372165399E+04,      /* I =149 */
(PID.TID 0000.0001)                 6.652272348874371E+04,      /* I =150 */
(PID.TID 0000.0001)                 6.690313182574332E+04,      /* I =151 */
(PID.TID 0000.0001)                 6.729147068712943E+04,      /* I =152 */
(PID.TID 0000.0001)                 6.768790540370827E+04,      /* I =153 */
(PID.TID 0000.0001)      . . .
(PID.TID 0000.0001)                 9.740216923638493E+04,      /* I =198 */
(PID.TID 0000.0001)                 9.842633369995895E+04,      /* I =199 */
(PID.TID 0000.0001)                 9.947184932875249E+04       /* I =200 */
(PID.TID 0000.0001)     ;
(PID.TID 0000.0001) yC =  /* yC(1,:,1,:) : P-point Y coord ( deg. or m if cartesian) */
(PID.TID 0000.0001)                 2.500000000000000E+03       /* J =  1 */
(PID.TID 0000.0001)     ;
(PID.TID 0000.0001) rcoord = /* P-point R coordinate (  units of r ) */
(PID.TID 0000.0001)                -1.778230853257070E+00,      /* K =  1 */
(PID.TID 0000.0001)                -5.288305018121275E+00,      /* K =  2 */
(PID.TID 0000.0001)                -8.706814181051806E+00,      /* K =  3 */
(PID.TID 0000.0001)                -1.203614693818234E+01,      /* K =  4 */
(PID.TID 0000.0001)                -1.527862957590627E+01,      /* K =  5 */
(PID.TID 0000.0001)                -1.843652769631001E+01,      /* K =  6 */
(PID.TID 0000.0001)                -2.151204780020472E+01,      /* K =  7 */
(PID.TID 0000.0001)                -2.450733882886248E+01,      /* K =  8 */
(PID.TID 0000.0001)                -2.742449366553423E+01,      /* K =  9 */
(PID.TID 0000.0001)                -3.026555059779859E+01,      /* K = 10 */
(PID.TID 0000.0001)                -3.303249474176336E+01,      /* K = 11 */
(PID.TID 0000.0001)                -3.572725942911476E+01,      /* K = 12 */
(PID.TID 0000.0001)                -3.835172755798371E+01,      /* K = 13 */
(PID.TID 0000.0001)                -4.090773290857286E+01,      /* K = 14 */
(PID.TID 0000.0001)                -4.339706142446379E+01,      /* K = 15 */
(PID.TID 0000.0001)                -4.582145246049951E+01,      /* K = 16 */
(PID.TID 0000.0001)                -4.818259999811441E+01,      /* K = 17 */
(PID.TID 0000.0001)                -5.048215382896051E+01,      /* K = 18 */
(PID.TID 0000.0001)                -5.272172070765735E+01,      /* K = 19 */
(PID.TID 0000.0001)                -5.490286547447088E+01,      /* K = 20 */
(PID.TID 0000.0001)                -5.702711214870560E+01,      /* K = 21 */
(PID.TID 0000.0001)                -5.909594499357430E+01,      /* K = 22 */
(PID.TID 0000.0001)                -6.111080955328906E+01,      /* K = 23 */
(PID.TID 0000.0001)                -6.307311366309848E+01,      /* K = 24 */
(PID.TID 0000.0001)                -6.498422843297664E+01,      /* K = 25 */
(PID.TID 0000.0001)                -6.684548920565126E+01,      /* K = 26 */
(PID.TID 0000.0001)                -6.865819648964037E+01,      /* K = 27 */
(PID.TID 0000.0001)                -7.042361686794952E+01,      /* K = 28 */
(PID.TID 0000.0001)                -7.214298388306430E+01,      /* K = 29 */
(PID.TID 0000.0001)                -7.381749889885680E+01,      /* K = 30 */
(PID.TID 0000.0001)                -7.544833194000789E+01,      /* K = 31 */
(PID.TID 0000.0001)                -7.703662250953225E+01,      /* K = 32 */
(PID.TID 0000.0001)                -7.858348038497695E+01,      /* K = 33 */
(PID.TID 0000.0001)                -8.008998639385028E+01,      /* K = 34 */
(PID.TID 0000.0001)                -8.155719316882241E+01,      /* K = 35 */
(PID.TID 0000.0001)                -8.298612588322561E+01,      /* K = 36 */
(PID.TID 0000.0001)                -8.437778296736802E+01,      /* K = 37 */
(PID.TID 0000.0001)                -8.573313680616135E+01,      /* K = 38 */
(PID.TID 0000.0001)                -8.705313441855009E+01,      /* K = 39 */
(PID.TID 0000.0001)                -8.833869811921676E+01,      /* K = 40 */
(PID.TID 0000.0001)                -8.959072616302588E+01,      /* K = 41 */
(PID.TID 0000.0001)                -9.081009337265664E+01,      /* K = 42 */
(PID.TID 0000.0001)                -9.199765174986291E+01,      /* K = 43 */
(PID.TID 0000.0001)                -9.315423107078777E+01,      /* K = 44 */
(PID.TID 0000.0001)                -9.428063946574845E+01,      /* K = 45 */
(PID.TID 0000.0001)                -9.537766398389674E+01,      /* K = 46 */
(PID.TID 0000.0001)                -9.644607114314960E+01,      /* K = 47 */
(PID.TID 0000.0001)                -9.748660746577393E+01,      /* K = 48 */
(PID.TID 0000.0001)                -9.850000000000004E+01,      /* K = 49 */
(PID.TID 0000.0001)                -9.950000000000004E+01,      /* K = 50 */
(PID.TID 0000.0001)                -1.005000000000000E+02,      /* K = 51 */
(PID.TID 0000.0001)                -1.015000000000000E+02,      /* K = 52 */
(PID.TID 0000.0001)                -1.025133925342262E+02,      /* K = 53 */
(PID.TID 0000.0001)                -1.035539288568505E+02,      /* K = 54 */
(PID.TID 0000.0001)                -1.046223360161033E+02,      /* K = 55 */
(PID.TID 0000.0001)                -1.057193605342516E+02,      /* K = 56 */
(PID.TID 0000.0001)                -1.068457689292123E+02,      /* K = 57 */
(PID.TID 0000.0001)                -1.080023482501372E+02,      /* K = 58 */
(PID.TID 0000.0001)                -1.091899066273434E+02,      /* K = 59 */
(PID.TID 0000.0001)                -1.104092738369742E+02,      /* K = 60 */
(PID.TID 0000.0001)                -1.116613018807833E+02,      /* K = 61 */
(PID.TID 0000.0001)                -1.129468655814500E+02,      /* K = 62 */
(PID.TID 0000.0001)                -1.142668631938387E+02,      /* K = 63 */
(PID.TID 0000.0001)                -1.156222170326321E+02,      /* K = 64 */
(PID.TID 0000.0001)                -1.170138741167745E+02,      /* K = 65 */
(PID.TID 0000.0001)                -1.184428068311777E+02,      /* K = 66 */
(PID.TID 0000.0001)                -1.199100136061498E+02,      /* K = 67 */
(PID.TID 0000.0001)                -1.214165196150231E+02,      /* K = 68 */
(PID.TID 0000.0001)                -1.229633774904678E+02,      /* K = 69 */
(PID.TID 0000.0001)                -1.245516680599922E+02,      /* K = 70 */
(PID.TID 0000.0001)                -1.261825011011433E+02,      /* K = 71 */
(PID.TID 0000.0001)                -1.278570161169358E+02,      /* K = 72 */
(PID.TID 0000.0001)                -1.295763831320506E+02,      /* K = 73 */
(PID.TID 0000.0001)                -1.313418035103597E+02,      /* K = 74 */
(PID.TID 0000.0001)                -1.331545107943488E+02,      /* K = 75 */
(PID.TID 0000.0001)                -1.350157715670234E+02,      /* K = 76 */
(PID.TID 0000.0001)                -1.369268863369016E+02,      /* K = 77 */
(PID.TID 0000.0001)                -1.388891904467110E+02,      /* K = 78 */
(PID.TID 0000.0001)                -1.409040550064258E+02,      /* K = 79 */
(PID.TID 0000.0001)                -1.429728878512945E+02,      /* K = 80 */
(PID.TID 0000.0001)                -1.450971345255292E+02,      /* K = 81 */
(PID.TID 0000.0001)                -1.472782792923427E+02,      /* K = 82 */
(PID.TID 0000.0001)                -1.495178461710396E+02,      /* K = 83 */
(PID.TID 0000.0001)                -1.518174000018857E+02,      /* K = 84 */
(PID.TID 0000.0001)                -1.541785475395006E+02,      /* K = 85 */
(PID.TID 0000.0001)                -1.566029385755363E+02,      /* K = 86 */
(PID.TID 0000.0001)                -1.590922670914272E+02,      /* K = 87 */
(PID.TID 0000.0001)                -1.616482724420163E+02,      /* K = 88 */
(PID.TID 0000.0001)                -1.642727405708853E+02,      /* K = 89 */
(PID.TID 0000.0001)                -1.669675052582367E+02,      /* K = 90 */
(PID.TID 0000.0001)                -1.697344494022015E+02,      /* K = 91 */
(PID.TID 0000.0001)                -1.725755063344658E+02,      /* K = 92 */
(PID.TID 0000.0001)                -1.754926611711376E+02,      /* K = 93 */
(PID.TID 0000.0001)                -1.784879521997954E+02,      /* K = 94 */
(PID.TID 0000.0001)                -1.815634723036901E+02,      /* K = 95 */
(PID.TID 0000.0001)                -1.847213704240938E+02,      /* K = 96 */
(PID.TID 0000.0001)                -1.879638530618177E+02,      /* K = 97 */
(PID.TID 0000.0001)                -1.912931858189483E+02,      /* K = 98 */
(PID.TID 0000.0001)                -1.947116949818788E+02,      /* K = 99 */
(PID.TID 0000.0001)                -1.982217691467430E+02       /* K =100 */
(PID.TID 0000.0001)     ;
(PID.TID 0000.0001) rF =   /* W-Interf. R coordinate (  units of r ) */
(PID.TID 0000.0001)                 0.000000000000000E+00,      /* K =  1 */
(PID.TID 0000.0001)                -3.556461706514141E+00,      /* K =  2 */
(PID.TID 0000.0001)                -7.020148329728409E+00,      /* K =  3 */
(PID.TID 0000.0001)                -1.039348003237520E+01,      /* K =  4 */
(PID.TID 0000.0001)                -1.367881384398948E+01,      /* K =  5 */
(PID.TID 0000.0001)                -1.687844530782306E+01,      /* K =  6 */
(PID.TID 0000.0001)                -1.999461008479696E+01,      /* K =  7 */
(PID.TID 0000.0001)                -2.302948551561248E+01,      /* K =  8 */
(PID.TID 0000.0001)                -2.598519214211248E+01,      /* K =  9 */
(PID.TID 0000.0001)                -2.886379518895598E+01,      /* K = 10 */
(PID.TID 0000.0001)                -3.166730600664120E+01,      /* K = 11 */
(PID.TID 0000.0001)                -3.439768347688551E+01,      /* K = 12 */
(PID.TID 0000.0001)                -3.705683538134402E+01,      /* K = 13 */
(PID.TID 0000.0001)                -3.964661973462341E+01,      /* K = 14 */
(PID.TID 0000.0001)                -4.216884608252232E+01,      /* K = 15 */
(PID.TID 0000.0001)                -4.462527676640526E+01,      /* K = 16 */
(PID.TID 0000.0001)                -4.701762815459379E+01,      /* K = 17 */
(PID.TID 0000.0001)                -4.934757184163506E+01,      /* K = 18 */
(PID.TID 0000.0001)                -5.161673581628597E+01,      /* K = 19 */
(PID.TID 0000.0001)                -5.382670559902876E+01,      /* K = 20 */
(PID.TID 0000.0001)                -5.597902534991302E+01,      /* K = 21 */
(PID.TID 0000.0001)                -5.807519894749821E+01,      /* K = 22 */
(PID.TID 0000.0001)                -6.011669103965041E+01,      /* K = 23 */
(PID.TID 0000.0001)                -6.210492806692772E+01,      /* K = 24 */
(PID.TID 0000.0001)                -6.404129925926924E+01,      /* K = 25 */
(PID.TID 0000.0001)                -6.592715760668403E+01,      /* K = 26 */
(PID.TID 0000.0001)                -6.776382080461848E+01,      /* K = 27 */
(PID.TID 0000.0001)                -6.955257217466226E+01,      /* K = 28 */
(PID.TID 0000.0001)                -7.129466156123675E+01,      /* K = 29 */
(PID.TID 0000.0001)                -7.299130620489183E+01,      /* K = 30 */
(PID.TID 0000.0001)                -7.464369159282174E+01,      /* K = 31 */
(PID.TID 0000.0001)                -7.625297228719403E+01,      /* K = 32 */
(PID.TID 0000.0001)                -7.782027273187045E+01,      /* K = 33 */
(PID.TID 0000.0001)                -7.934668803808341E+01,      /* K = 34 */
(PID.TID 0000.0001)                -8.083328474961709E+01,      /* K = 35 */
(PID.TID 0000.0001)                -8.228110158802765E+01,      /* K = 36 */
(PID.TID 0000.0001)                -8.369115017842348E+01,      /* K = 37 */
(PID.TID 0000.0001)                -8.506441575631247E+01,      /* K = 38 */
(PID.TID 0000.0001)                -8.640185785601017E+01,      /* K = 39 */
(PID.TID 0000.0001)                -8.770441098108992E+01,      /* K = 40 */
(PID.TID 0000.0001)                -8.897298525734350E+01,      /* K = 41 */
(PID.TID 0000.0001)                -9.020846706870817E+01,      /* K = 42 */
(PID.TID 0000.0001)                -9.141171967660502E+01,      /* K = 43 */
(PID.TID 0000.0001)                -9.258358382312072E+01,      /* K = 44 */
(PID.TID 0000.0001)                -9.372487831845474E+01,      /* K = 45 */
(PID.TID 0000.0001)                -9.483640061304206E+01,      /* K = 46 */
(PID.TID 0000.0001)                -9.591892735475133E+01,      /* K = 47 */
(PID.TID 0000.0001)                -9.697321493154777E+01,      /* K = 48 */
(PID.TID 0000.0001)                -9.799999999999999E+01,      /* K = 49 */
(PID.TID 0000.0001)                -9.899999999999999E+01,      /* K = 50 */
(PID.TID 0000.0001)                -9.999999999999999E+01,      /* K = 51 */
(PID.TID 0000.0001)                -1.010000000000000E+02,      /* K = 52 */
(PID.TID 0000.0001)                -1.020000000000000E+02,      /* K = 53 */
(PID.TID 0000.0001)                -1.030267850684522E+02,      /* K = 54 */
(PID.TID 0000.0001)                -1.040810726452486E+02,      /* K = 55 */
(PID.TID 0000.0001)                -1.051635993869579E+02,      /* K = 56 */
(PID.TID 0000.0001)                -1.062751216815452E+02,      /* K = 57 */
(PID.TID 0000.0001)                -1.074164161768793E+02,      /* K = 58 */
(PID.TID 0000.0001)                -1.085882803233950E+02,      /* K = 59 */
(PID.TID 0000.0001)                -1.097915329312918E+02,      /* K = 60 */
(PID.TID 0000.0001)                -1.110270147426565E+02,      /* K = 61 */
(PID.TID 0000.0001)                -1.122955890189101E+02,      /* K = 62 */
(PID.TID 0000.0001)                -1.135981421439898E+02,      /* K = 63 */
(PID.TID 0000.0001)                -1.149355842436875E+02,      /* K = 64 */
(PID.TID 0000.0001)                -1.163088498215765E+02,      /* K = 65 */
(PID.TID 0000.0001)                -1.177188984119723E+02,      /* K = 66 */
(PID.TID 0000.0001)                -1.191667152503829E+02,      /* K = 67 */
(PID.TID 0000.0001)                -1.206533119619166E+02,      /* K = 68 */
(PID.TID 0000.0001)                -1.221797272681295E+02,      /* K = 69 */
(PID.TID 0000.0001)                -1.237470277128059E+02,      /* K = 70 */
(PID.TID 0000.0001)                -1.253563084071782E+02,      /* K = 71 */
(PID.TID 0000.0001)                -1.270086937951081E+02,      /* K = 72 */
(PID.TID 0000.0001)                -1.287053384387632E+02,      /* K = 73 */
(PID.TID 0000.0001)                -1.304474278253377E+02,      /* K = 74 */
(PID.TID 0000.0001)                -1.322361791953815E+02,      /* K = 75 */
(PID.TID 0000.0001)                -1.340728423933159E+02,      /* K = 76 */
(PID.TID 0000.0001)                -1.359587007407307E+02,      /* K = 77 */
(PID.TID 0000.0001)                -1.378950719330722E+02,      /* K = 78 */
(PID.TID 0000.0001)                -1.398833089603496E+02,      /* K = 79 */
(PID.TID 0000.0001)                -1.419248010525017E+02,      /* K = 80 */
(PID.TID 0000.0001)                -1.440209746500869E+02,      /* K = 81 */
(PID.TID 0000.0001)                -1.461732944009712E+02,      /* K = 82 */
(PID.TID 0000.0001)                -1.483832641837140E+02,      /* K = 83 */
(PID.TID 0000.0001)                -1.506524281583649E+02,      /* K = 84 */
(PID.TID 0000.0001)                -1.529823718454062E+02,      /* K = 85 */
(PID.TID 0000.0001)                -1.553747232335947E+02,      /* K = 86 */
(PID.TID 0000.0001)                -1.578311539174776E+02,      /* K = 87 */
(PID.TID 0000.0001)                -1.603533802653765E+02,      /* K = 88 */
(PID.TID 0000.0001)                -1.629431646186559E+02,      /* K = 89 */
(PID.TID 0000.0001)                -1.656023165231144E+02,      /* K = 90 */
(PID.TID 0000.0001)                -1.683326939933587E+02,      /* K = 91 */
(PID.TID 0000.0001)                -1.711362048110439E+02,      /* K = 92 */
(PID.TID 0000.0001)                -1.740148078578874E+02,      /* K = 93 */
(PID.TID 0000.0001)                -1.769705144843874E+02,      /* K = 94 */
(PID.TID 0000.0001)                -1.800053899152029E+02,      /* K = 95 */
(PID.TID 0000.0001)                -1.831215546921768E+02,      /* K = 96 */
(PID.TID 0000.0001)                -1.863211861560104E+02,      /* K = 97 */
(PID.TID 0000.0001)                -1.896065199676247E+02,      /* K = 98 */
(PID.TID 0000.0001)                -1.929798516702715E+02,      /* K = 99 */
(PID.TID 0000.0001)                -1.964435382934857E+02,      /* K =100 */
(PID.TID 0000.0001)                -1.999999999999999E+02       /* K =101 */
(PID.TID 0000.0001)     ;
(PID.TID 0000.0001) deepFacC = /* deep-model grid factor @ cell-Center (-) */
(PID.TID 0000.0001)   100 @  1.000000000000000E+00              /* K =  1:100 */
(PID.TID 0000.0001)     ;
(PID.TID 0000.0001) deepFacF = /* deep-model grid factor @ W-Interface (-) */
(PID.TID 0000.0001)   101 @  1.000000000000000E+00              /* K =  1:101 */
(PID.TID 0000.0001)     ;
(PID.TID 0000.0001) rVel2wUnit = /* convert units: rVel -> wSpeed (=1 if z-coord)*/
(PID.TID 0000.0001)   101 @  1.000000000000000E+00              /* K =  1:101 */
(PID.TID 0000.0001)     ;
(PID.TID 0000.0001) wUnit2rVel = /* convert units: wSpeed -> rVel (=1 if z-coord)*/
(PID.TID 0000.0001)   101 @  1.000000000000000E+00              /* K =  1:101 */
(PID.TID 0000.0001)     ;
(PID.TID 0000.0001) dBdrRef = /* Vertical grad. of reference buoyancy [(m/s/r)^2] */
(PID.TID 0000.0001)    46 @  0.000000000000000E+00,             /* K =  1: 46 */
(PID.TID 0000.0001)                 1.228818448192056E-06,      /* K = 47 */
(PID.TID 0000.0001)                 4.178283981750208E-05,      /* K = 48 */
(PID.TID 0000.0001)                 5.226533076855416E-04,      /* K = 49 */
(PID.TID 0000.0001)                 2.373739881891255E-03,      /* K = 50 */
(PID.TID 0000.0001)                 3.913635434383322E-03,      /* K = 51 */
(PID.TID 0000.0001)                 2.373739881891255E-03,      /* K = 52 */
(PID.TID 0000.0001)                 5.226533076855416E-04,      /* K = 53 */
(PID.TID 0000.0001)                 4.178283981750208E-05,      /* K = 54 */
(PID.TID 0000.0001)                 1.228818448192056E-06,      /* K = 55 */
(PID.TID 0000.0001)    45 @  0.000000000000000E+00              /* K = 56:100 */
(PID.TID 0000.0001)     ;
(PID.TID 0000.0001) rotateGrid = /* use rotated grid ( True/False ) */
(PID.TID 0000.0001)                   F
(PID.TID 0000.0001)     ;
(PID.TID 0000.0001) phiEuler = /* Euler angle, rotation about original z-coordinate [rad] */
(PID.TID 0000.0001)                 0.000000000000000E+00
(PID.TID 0000.0001)     ;
(PID.TID 0000.0001) thetaEuler = /* Euler angle, rotation about new x-coordinate [rad] */
(PID.TID 0000.0001)                 0.000000000000000E+00
(PID.TID 0000.0001)     ;
(PID.TID 0000.0001) psiEuler = /* Euler angle, rotation about new z-coordinate [rad] */
(PID.TID 0000.0001)                 0.000000000000000E+00
(PID.TID 0000.0001)     ;
(PID.TID 0000.0001) dxF =  /* dxF(:,1,:,1) ( units: m ) */
(PID.TID 0000.0001)                 1.263294638016668E+03,      /* I =  1 */
(PID.TID 0000.0001)                 1.237496063806571E+03,      /* I =  2 */
(PID.TID 0000.0001)                 1.212224339320398E+03,      /* I =  3 */
(PID.TID 0000.0001)      . . .
(PID.TID 0000.0001)                 4.790113490274632E+02,      /* I = 48 */
(PID.TID 0000.0001)                 4.692291418815790E+02,      /* I = 49 */
(PID.TID 0000.0001)                 4.596467036489769E+02,      /* I = 50 */
(PID.TID 0000.0001)                 4.502599547167311E+02,      /* I = 51 */
(PID.TID 0000.0001)                 4.410648987843862E+02,      /* I = 52 */
(PID.TID 0000.0001)                 4.320576211625778E+02,      /* I = 53 */
(PID.TID 0000.0001)      . . .
(PID.TID 0000.0001)                 2.000000000000000E+02,      /* I = 98 */
(PID.TID 0000.0001)                 2.000000000000000E+02,      /* I = 99 */
(PID.TID 0000.0001)                 2.000000000000000E+02,      /* I =100 */
(PID.TID 0000.0001)                 2.000000000000000E+02,      /* I =101 */
(PID.TID 0000.0001)                 2.000000000000000E+02,      /* I =102 */
(PID.TID 0000.0001)                 2.000000000000000E+02,      /* I =103 */
(PID.TID 0000.0001)      . . .
(PID.TID 0000.0001)                 3.612641354876311E+02,      /* I =148 */
(PID.TID 0000.0001)                 3.687955530665730E+02,      /* I =149 */
(PID.TID 0000.0001)                 3.764839811128614E+02,      /* I =150 */
(PID.TID 0000.0001)                 3.843326928863569E+02,      /* I =151 */
(PID.TID 0000.0001)                 3.923450298858749E+02,      /* I =152 */
(PID.TID 0000.0001)                 4.005244032717896E+02,      /* I =153 */
(PID.TID 0000.0001)      . . .
(PID.TID 0000.0001)                 1.013599012055986E+03,      /* I =198 */
(PID.TID 0000.0001)                 1.034729915092050E+03,      /* I =199 */
(PID.TID 0000.0001)                 1.056301342495056E+03       /* I =200 */
(PID.TID 0000.0001)     ;
(PID.TID 0000.0001) dxF =  /* dxF(1,:,1,:) ( units: m ) */
(PID.TID 0000.0001)                 1.263294638016668E+03       /* J =  1 */
(PID.TID 0000.0001)     ;
(PID.TID 0000.0001) dyF =  /* dyF(:,1,:,1) ( units: m ) */
(PID.TID 0000.0001)   200 @  5.000000000000000E+03              /* I =  1:200 */
(PID.TID 0000.0001)     ;
(PID.TID 0000.0001) dyF =  /* dyF(1,:,1,:) ( units: m ) */
(PID.TID 0000.0001)                 5.000000000000000E+03       /* J =  1 */
(PID.TID 0000.0001)     ;
(PID.TID 0000.0001) dxG =  /* dxG(:,1,:,1) ( units: m ) */
(PID.TID 0000.0001)                 1.263294638016668E+03,      /* I =  1 */
(PID.TID 0000.0001)                 1.237496063806571E+03,      /* I =  2 */
(PID.TID 0000.0001)                 1.212224339320398E+03,      /* I =  3 */
(PID.TID 0000.0001)      . . .
(PID.TID 0000.0001)                 4.790113490274632E+02,      /* I = 48 */
(PID.TID 0000.0001)                 4.692291418815790E+02,      /* I = 49 */
(PID.TID 0000.0001)                 4.596467036489769E+02,      /* I = 50 */
(PID.TID 0000.0001)                 4.502599547167311E+02,      /* I = 51 */
(PID.TID 0000.0001)                 4.410648987843862E+02,      /* I = 52 */
(PID.TID 0000.0001)                 4.320576211625778E+02,      /* I = 53 */
(PID.TID 0000.0001)      . . .
(PID.TID 0000.0001)                 2.000000000000000E+02,      /* I = 98 */
(PID.TID 0000.0001)                 2.000000000000000E+02,      /* I = 99 */
(PID.TID 0000.0001)                 2.000000000000000E+02,      /* I =100 */
(PID.TID 0000.0001)                 2.000000000000000E+02,      /* I =101 */
(PID.TID 0000.0001)                 2.000000000000000E+02,      /* I =102 */
(PID.TID 0000.0001)                 2.000000000000000E+02,      /* I =103 */
(PID.TID 0000.0001)      . . .
(PID.TID 0000.0001)                 3.612641354876311E+02,      /* I =148 */
(PID.TID 0000.0001)                 3.687955530665730E+02,      /* I =149 */
(PID.TID 0000.0001)                 3.764839811128614E+02,      /* I =150 */
(PID.TID 0000.0001)                 3.843326928863569E+02,      /* I =151 */
(PID.TID 0000.0001)                 3.923450298858749E+02,      /* I =152 */
(PID.TID 0000.0001)                 4.005244032717896E+02,      /* I =153 */
(PID.TID 0000.0001)      . . .
(PID.TID 0000.0001)                 1.013599012055986E+03,      /* I =198 */
(PID.TID 0000.0001)                 1.034729915092050E+03,      /* I =199 */
(PID.TID 0000.0001)                 1.056301342495056E+03       /* I =200 */
(PID.TID 0000.0001)     ;
(PID.TID 0000.0001) dxG =  /* dxG(1,:,1,:) ( units: m ) */
(PID.TID 0000.0001)                 1.263294638016668E+03       /* J =  1 */
(PID.TID 0000.0001)     ;
(PID.TID 0000.0001) dyG =  /* dyG(:,1,:,1) ( units: m ) */
(PID.TID 0000.0001)   200 @  5.000000000000000E+03              /* I =  1:200 */
(PID.TID 0000.0001)     ;
(PID.TID 0000.0001) dyG =  /* dyG(1,:,1,:) ( units: m ) */
(PID.TID 0000.0001)                 5.000000000000000E+03       /* J =  1 */
(PID.TID 0000.0001)     ;
(PID.TID 0000.0001) dxC =  /* dxC(:,1,:,1) ( units: m ) */
(PID.TID 0000.0001)                 1.159797990255862E+03,      /* I =  1 */
(PID.TID 0000.0001)                 1.250395350911620E+03,      /* I =  2 */
(PID.TID 0000.0001)                 1.224860201563485E+03,      /* I =  3 */
(PID.TID 0000.0001)      . . .
(PID.TID 0000.0001)                 4.840044193881684E+02,      /* I = 48 */
(PID.TID 0000.0001)                 4.741202454545211E+02,      /* I = 49 */
(PID.TID 0000.0001)                 4.644379227652780E+02,      /* I = 50 */
(PID.TID 0000.0001)                 4.549533291828540E+02,      /* I = 51 */
(PID.TID 0000.0001)                 4.456624267505587E+02,      /* I = 52 */
(PID.TID 0000.0001)                 4.365612599734820E+02,      /* I = 53 */
(PID.TID 0000.0001)      . . .
(PID.TID 0000.0001)                 2.000000000000000E+02,      /* I = 98 */
(PID.TID 0000.0001)                 2.000000000000000E+02,      /* I = 99 */
(PID.TID 0000.0001)                 2.000000000000000E+02,      /* I =100 */
(PID.TID 0000.0001)                 2.000000000000000E+02,      /* I =101 */
(PID.TID 0000.0001)                 2.000000000000000E+02,      /* I =102 */
(PID.TID 0000.0001)                 2.000000000000000E+02,      /* I =103 */
(PID.TID 0000.0001)      . . .
(PID.TID 0000.0001)                 3.575753287246037E+02,      /* I =148 */
(PID.TID 0000.0001)                 3.650298442771020E+02,      /* I =149 */
(PID.TID 0000.0001)                 3.726397670897172E+02,      /* I =150 */
(PID.TID 0000.0001)                 3.804083369996092E+02,      /* I =151 */
(PID.TID 0000.0001)                 3.883388613861159E+02,      /* I =152 */
(PID.TID 0000.0001)                 3.964347165788323E+02,      /* I =153 */
(PID.TID 0000.0001)      . . .
(PID.TID 0000.0001)                 1.003249324601893E+03,      /* I =198 */
(PID.TID 0000.0001)                 1.024164463574018E+03,      /* I =199 */
(PID.TID 0000.0001)                 1.045515628793553E+03       /* I =200 */
(PID.TID 0000.0001)     ;
(PID.TID 0000.0001) dxC =  /* dxC(1,:,1,:) ( units: m ) */
(PID.TID 0000.0001)                 1.159797990255862E+03       /* J =  1 */
(PID.TID 0000.0001)     ;
(PID.TID 0000.0001) dyC =  /* dyC(:,1,:,1) ( units: m ) */
(PID.TID 0000.0001)   200 @  5.000000000000000E+03              /* I =  1:200 */
(PID.TID 0000.0001)     ;
(PID.TID 0000.0001) dyC =  /* dyC(1,:,1,:) ( units: m ) */
(PID.TID 0000.0001)                 5.000000000000000E+03       /* J =  1 */
(PID.TID 0000.0001)     ;
(PID.TID 0000.0001) dxV =  /* dxV(:,1,:,1) ( units: m ) */
(PID.TID 0000.0001)                 1.159797990255862E+03,      /* I =  1 */
(PID.TID 0000.0001)                 1.250395350911620E+03,      /* I =  2 */
(PID.TID 0000.0001)                 1.224860201563485E+03,      /* I =  3 */
(PID.TID 0000.0001)      . . .
(PID.TID 0000.0001)                 4.840044193881684E+02,      /* I = 48 */
(PID.TID 0000.0001)                 4.741202454545211E+02,      /* I = 49 */
(PID.TID 0000.0001)                 4.644379227652780E+02,      /* I = 50 */
(PID.TID 0000.0001)                 4.549533291828540E+02,      /* I = 51 */
(PID.TID 0000.0001)                 4.456624267505587E+02,      /* I = 52 */
(PID.TID 0000.0001)                 4.365612599734820E+02,      /* I = 53 */
(PID.TID 0000.0001)      . . .
(PID.TID 0000.0001)                 2.000000000000000E+02,      /* I = 98 */
(PID.TID 0000.0001)                 2.000000000000000E+02,      /* I = 99 */
(PID.TID 0000.0001)                 2.000000000000000E+02,      /* I =100 */
(PID.TID 0000.0001)                 2.000000000000000E+02,      /* I =101 */
(PID.TID 0000.0001)                 2.000000000000000E+02,      /* I =102 */
(PID.TID 0000.0001)                 2.000000000000000E+02,      /* I =103 */
(PID.TID 0000.0001)      . . .
(PID.TID 0000.0001)                 3.575753287246037E+02,      /* I =148 */
(PID.TID 0000.0001)                 3.650298442771020E+02,      /* I =149 */
(PID.TID 0000.0001)                 3.726397670897172E+02,      /* I =150 */
(PID.TID 0000.0001)                 3.804083369996092E+02,      /* I =151 */
(PID.TID 0000.0001)                 3.883388613861159E+02,      /* I =152 */
(PID.TID 0000.0001)                 3.964347165788323E+02,      /* I =153 */
(PID.TID 0000.0001)      . . .
(PID.TID 0000.0001)                 1.003249324601893E+03,      /* I =198 */
(PID.TID 0000.0001)                 1.024164463574018E+03,      /* I =199 */
(PID.TID 0000.0001)                 1.045515628793553E+03       /* I =200 */
(PID.TID 0000.0001)     ;
(PID.TID 0000.0001) dxV =  /* dxV(1,:,1,:) ( units: m ) */
(PID.TID 0000.0001)                 1.159797990255862E+03       /* J =  1 */
(PID.TID 0000.0001)     ;
(PID.TID 0000.0001) dyU =  /* dyU(:,1,:,1) ( units: m ) */
(PID.TID 0000.0001)   200 @  5.000000000000000E+03              /* I =  1:200 */
(PID.TID 0000.0001)     ;
(PID.TID 0000.0001) dyU =  /* dyU(1,:,1,:) ( units: m ) */
(PID.TID 0000.0001)                 5.000000000000000E+03       /* J =  1 */
(PID.TID 0000.0001)     ;
(PID.TID 0000.0001) rA  =  /* rA (:,1,:,1) ( units: m^2 ) */
(PID.TID 0000.0001)                 6.316473190083342E+06,      /* I =  1 */
(PID.TID 0000.0001)                 6.187480319032855E+06,      /* I =  2 */
(PID.TID 0000.0001)                 6.061121696601991E+06,      /* I =  3 */
(PID.TID 0000.0001)      . . .
(PID.TID 0000.0001)                 2.395056745137316E+06,      /* I = 48 */
(PID.TID 0000.0001)                 2.346145709407895E+06,      /* I = 49 */
(PID.TID 0000.0001)                 2.298233518244884E+06,      /* I = 50 */
(PID.TID 0000.0001)                 2.251299773583656E+06,      /* I = 51 */
(PID.TID 0000.0001)                 2.205324493921931E+06,      /* I = 52 */
(PID.TID 0000.0001)                 2.160288105812889E+06,      /* I = 53 */
(PID.TID 0000.0001)      . . .
(PID.TID 0000.0001)                 1.000000000000000E+06,      /* I = 98 */
(PID.TID 0000.0001)                 1.000000000000000E+06,      /* I = 99 */
(PID.TID 0000.0001)                 1.000000000000000E+06,      /* I =100 */
(PID.TID 0000.0001)                 1.000000000000000E+06,      /* I =101 */
(PID.TID 0000.0001)                 1.000000000000000E+06,      /* I =102 */
(PID.TID 0000.0001)                 1.000000000000000E+06,      /* I =103 */
(PID.TID 0000.0001)      . . .
(PID.TID 0000.0001)                 1.806320677438155E+06,      /* I =148 */
(PID.TID 0000.0001)                 1.843977765332865E+06,      /* I =149 */
(PID.TID 0000.0001)                 1.882419905564307E+06,      /* I =150 */
(PID.TID 0000.0001)                 1.921663464431785E+06,      /* I =151 */
(PID.TID 0000.0001)                 1.961725149429375E+06,      /* I =152 */
(PID.TID 0000.0001)                 2.002622016358948E+06,      /* I =153 */
(PID.TID 0000.0001)      . . .
(PID.TID 0000.0001)                 5.067995060279928E+06,      /* I =198 */
(PID.TID 0000.0001)                 5.173649575460250E+06,      /* I =199 */
(PID.TID 0000.0001)                 5.281506712475282E+06       /* I =200 */
(PID.TID 0000.0001)     ;
(PID.TID 0000.0001) rA  =  /* rA (1,:,1,:) ( units: m^2 ) */
(PID.TID 0000.0001)                 6.316473190083342E+06       /* J =  1 */
(PID.TID 0000.0001)     ;
(PID.TID 0000.0001) rAw =  /* rAw(:,1,:,1) ( units: m^2 ) */
(PID.TID 0000.0001)                 5.798989951279311E+06,      /* I =  1 */
(PID.TID 0000.0001)                 6.251976754558099E+06,      /* I =  2 */
(PID.TID 0000.0001)                 6.124301007817423E+06,      /* I =  3 */
(PID.TID 0000.0001)      . . .
(PID.TID 0000.0001)                 2.420022096940842E+06,      /* I = 48 */
(PID.TID 0000.0001)                 2.370601227272606E+06,      /* I = 49 */
(PID.TID 0000.0001)                 2.322189613826390E+06,      /* I = 50 */
(PID.TID 0000.0001)                 2.274766645914270E+06,      /* I = 51 */
(PID.TID 0000.0001)                 2.228312133752794E+06,      /* I = 52 */
(PID.TID 0000.0001)                 2.182806299867410E+06,      /* I = 53 */
(PID.TID 0000.0001)      . . .
(PID.TID 0000.0001)                 1.000000000000000E+06,      /* I = 98 */
(PID.TID 0000.0001)                 1.000000000000000E+06,      /* I = 99 */
(PID.TID 0000.0001)                 1.000000000000000E+06,      /* I =100 */
(PID.TID 0000.0001)                 1.000000000000000E+06,      /* I =101 */
(PID.TID 0000.0001)                 1.000000000000000E+06,      /* I =102 */
(PID.TID 0000.0001)                 1.000000000000000E+06,      /* I =103 */
(PID.TID 0000.0001)      . . .
(PID.TID 0000.0001)                 1.787876643623018E+06,      /* I =148 */
(PID.TID 0000.0001)                 1.825149221385510E+06,      /* I =149 */
(PID.TID 0000.0001)                 1.863198835448586E+06,      /* I =150 */
(PID.TID 0000.0001)                 1.902041684998046E+06,      /* I =151 */
(PID.TID 0000.0001)                 1.941694306930580E+06,      /* I =152 */
(PID.TID 0000.0001)                 1.982173582894161E+06,      /* I =153 */
(PID.TID 0000.0001)      . . .
(PID.TID 0000.0001)                 5.016246623009465E+06,      /* I =198 */
(PID.TID 0000.0001)                 5.120822317870088E+06,      /* I =199 */
(PID.TID 0000.0001)                 5.227578143967765E+06       /* I =200 */
(PID.TID 0000.0001)     ;
(PID.TID 0000.0001) rAw =  /* rAw(1,:,1,:) ( units: m^2 ) */
(PID.TID 0000.0001)                 5.798989951279311E+06       /* J =  1 */
(PID.TID 0000.0001)     ;
(PID.TID 0000.0001) rAs =  /* rAs(:,1,:,1) ( units: m^2 ) */
(PID.TID 0000.0001)                 6.316473190083342E+06,      /* I =  1 */
(PID.TID 0000.0001)                 6.187480319032855E+06,      /* I =  2 */
(PID.TID 0000.0001)                 6.061121696601991E+06,      /* I =  3 */
(PID.TID 0000.0001)      . . .
(PID.TID 0000.0001)                 2.395056745137316E+06,      /* I = 48 */
(PID.TID 0000.0001)                 2.346145709407895E+06,      /* I = 49 */
(PID.TID 0000.0001)                 2.298233518244884E+06,      /* I = 50 */
(PID.TID 0000.0001)                 2.251299773583656E+06,      /* I = 51 */
(PID.TID 0000.0001)                 2.205324493921931E+06,      /* I = 52 */
(PID.TID 0000.0001)                 2.160288105812889E+06,      /* I = 53 */
(PID.TID 0000.0001)      . . .
(PID.TID 0000.0001)                 1.000000000000000E+06,      /* I = 98 */
(PID.TID 0000.0001)                 1.000000000000000E+06,      /* I = 99 */
(PID.TID 0000.0001)                 1.000000000000000E+06,      /* I =100 */
(PID.TID 0000.0001)                 1.000000000000000E+06,      /* I =101 */
(PID.TID 0000.0001)                 1.000000000000000E+06,      /* I =102 */
(PID.TID 0000.0001)                 1.000000000000000E+06,      /* I =103 */
(PID.TID 0000.0001)      . . .
(PID.TID 0000.0001)                 1.806320677438155E+06,      /* I =148 */
(PID.TID 0000.0001)                 1.843977765332865E+06,      /* I =149 */
(PID.TID 0000.0001)                 1.882419905564307E+06,      /* I =150 */
(PID.TID 0000.0001)                 1.921663464431785E+06,      /* I =151 */
(PID.TID 0000.0001)                 1.961725149429375E+06,      /* I =152 */
(PID.TID 0000.0001)                 2.002622016358948E+06,      /* I =153 */
(PID.TID 0000.0001)      . . .
(PID.TID 0000.0001)                 5.067995060279928E+06,      /* I =198 */
(PID.TID 0000.0001)                 5.173649575460250E+06,      /* I =199 */
(PID.TID 0000.0001)                 5.281506712475282E+06       /* I =200 */
(PID.TID 0000.0001)     ;
(PID.TID 0000.0001) rAs =  /* rAs(1,:,1,:) ( units: m^2 ) */
(PID.TID 0000.0001)                 6.316473190083342E+06       /* J =  1 */
(PID.TID 0000.0001)     ;
(PID.TID 0000.0001) globalArea = /* Integrated horizontal Area (m^2) */
(PID.TID 0000.0001)                 4.884020200974414E+08
(PID.TID 0000.0001)     ;
(PID.TID 0000.0001) // =======================================================
(PID.TID 0000.0001) // End of Model config. summary
(PID.TID 0000.0001) // =======================================================
(PID.TID 0000.0001) 
(PID.TID 0000.0001) == Packages configuration : Check & print summary ==
(PID.TID 0000.0001) 
(PID.TID 0000.0001) OBCS_CHECK: #define ALLOW_OBCS
(PID.TID 0000.0001) OBCS_CHECK: start summary:
(PID.TID 0000.0001) useOBCSprescribe = /* prescribe OB values */
(PID.TID 0000.0001)                   T
(PID.TID 0000.0001)     ;
(PID.TID 0000.0001) useOBCSbalance = /* balance the flow through OB */
(PID.TID 0000.0001)                   F
(PID.TID 0000.0001)     ;
(PID.TID 0000.0001) OBCS_uvApplyFac = /* Factor to apply to U,V 2nd column/row */
(PID.TID 0000.0001)                 1.000000000000000E+00
(PID.TID 0000.0001)     ;
(PID.TID 0000.0001) OBCS_u1_adv_T = /* Temp uses upwind adv-scheme @ OB */
(PID.TID 0000.0001)                       0
(PID.TID 0000.0001)     ;
(PID.TID 0000.0001) OBCS_u1_adv_S = /* Salt uses upwind adv-scheme @ OB */
(PID.TID 0000.0001)                       0
(PID.TID 0000.0001)     ;
(PID.TID 0000.0001) OBCS_monitorFreq = /* monitor output frequency [s] */
(PID.TID 0000.0001)                 7.200000000000000E+03
(PID.TID 0000.0001)     ;
(PID.TID 0000.0001) OBCS_monSelect = /* select group of variables to monitor */
(PID.TID 0000.0001)                       0
(PID.TID 0000.0001)     ;
(PID.TID 0000.0001) useOBCStides = /* apply tidal forcing through OB */
(PID.TID 0000.0001)                   F
(PID.TID 0000.0001)     ;
(PID.TID 0000.0001) tidalPeriod = /* (s) */
(PID.TID 0000.0001)    10 @  0.000000000000000E+00              /* I =  1: 10 */
(PID.TID 0000.0001)     ;
(PID.TID 0000.0001) OB_indexNone = /* null value for OB index (i.e. no OB) */
(PID.TID 0000.0001)                     -99
(PID.TID 0000.0001)     ;
(PID.TID 0000.0001) ======== Tile bi=   1 , bj=   1 ========
(PID.TID 0000.0001)  OB_Jn = /* Northern OB local indices */
(PID.TID 0000.0001)   204 @      -99                            /* I = -1:202 */
(PID.TID 0000.0001)  OB_Js = /* Southern OB local indices */
(PID.TID 0000.0001)   204 @      -99                            /* I = -1:202 */
(PID.TID 0000.0001)  OB_Ie = /* Eastern OB local indices */
(PID.TID 0000.0001)     5 @      200                            /* J = -1:  3 */
(PID.TID 0000.0001)  OB_Iw = /* Western OB local indices */
(PID.TID 0000.0001)     5 @        1                            /* J = -1:  3 */
(PID.TID 0000.0001) OBCS_CHECK: end summary.
(PID.TID 0000.0001) OBCS_CHECK: set-up OK
(PID.TID 0000.0001) OBCS_CHECK: check Inside Mask and OB locations: OK
(PID.TID 0000.0001) KL10_CHECK: #define ALLOW_KL10
(PID.TID 0000.0001) GAD_CHECK: #define ALLOW_GENERIC_ADVDIFF
(PID.TID 0000.0001) // =======================================================
(PID.TID 0000.0001) // Check Model config. (CONFIG_CHECK):
(PID.TID 0000.0001) // CONFIG_CHECK : Normal End
(PID.TID 0000.0001) // =======================================================
(PID.TID 0000.0001) 
(PID.TID 0000.0001)  MDS_READ_FIELD: opening global file: U0.bin
(PID.TID 0000.0001)  MDS_READ_FIELD: opening global file: T0.bin
(PID.TID 0000.0001) Start initial hydrostatic pressure computation
(PID.TID 0000.0001) Pressure is predetermined for buoyancyRelation OCEANIC
(PID.TID 0000.0001) 
(PID.TID 0000.0001)  OBCS_FIELDS_LOAD: Reading initial data:         0  0.000000000000E+00
(PID.TID 0000.0001)  MDS_READ_SEC_YZ: opening global file: U_in.bin
(PID.TID 0000.0001)  MDS_READ_SEC_YZ: opening global file: TE.bin
(PID.TID 0000.0001)  MDS_READ_SEC_YZ: opening global file: U_in.bin
(PID.TID 0000.0001)  MDS_READ_SEC_YZ: opening global file: TW.bin
(PID.TID 0000.0001) // =======================================================
(PID.TID 0000.0001) // Model current state
(PID.TID 0000.0001) // =======================================================
(PID.TID 0000.0001) 
(PID.TID 0000.0001) // =======================================================
(PID.TID 0000.0001) // Begin MONITOR dynamic field statistics
(PID.TID 0000.0001) // =======================================================
(PID.TID 0000.0001) %MON time_tsnumber                =                     0
(PID.TID 0000.0001) %MON time_secondsf                =   0.0000000000000E+00
(PID.TID 0000.0001) %MON dynstat_eta_max              =   0.0000000000000E+00
(PID.TID 0000.0001) %MON dynstat_eta_min              =   0.0000000000000E+00
(PID.TID 0000.0001) %MON dynstat_eta_mean             =   0.0000000000000E+00
(PID.TID 0000.0001) %MON dynstat_eta_sd               =   0.0000000000000E+00
(PID.TID 0000.0001) %MON dynstat_eta_del2             =   0.0000000000000E+00
(PID.TID 0000.0001) %MON dynstat_uvel_max             =   5.6028564143658E-01
(PID.TID 0000.0001) %MON dynstat_uvel_min             =   5.6028564143658E-01
(PID.TID 0000.0001) %MON dynstat_uvel_mean            =   5.6028564143658E-01
(PID.TID 0000.0001) %MON dynstat_uvel_sd              =   2.9976021664879E-15
(PID.TID 0000.0001) %MON dynstat_uvel_del2            =   0.0000000000000E+00
(PID.TID 0000.0001) %MON dynstat_vvel_max             =   0.0000000000000E+00
(PID.TID 0000.0001) %MON dynstat_vvel_min             =   0.0000000000000E+00
(PID.TID 0000.0001) %MON dynstat_vvel_mean            =   0.0000000000000E+00
(PID.TID 0000.0001) %MON dynstat_vvel_sd              =   0.0000000000000E+00
(PID.TID 0000.0001) %MON dynstat_vvel_del2            =   0.0000000000000E+00
(PID.TID 0000.0001) %MON dynstat_wvel_max             =   1.6977366694377E-02
(PID.TID 0000.0001) %MON dynstat_wvel_min             =  -1.6977366694377E-02
(PID.TID 0000.0001) %MON dynstat_wvel_mean            =   2.4146039179554E-21
(PID.TID 0000.0001) %MON dynstat_wvel_sd              =   3.2080395498957E-03
(PID.TID 0000.0001) %MON dynstat_wvel_del2            =   4.2468359990932E-06
(PID.TID 0000.0001) %MON dynstat_theta_max            =   1.5000000000000E+01
(PID.TID 0000.0001) %MON dynstat_theta_min            =   1.0000000000000E+01
(PID.TID 0000.0001) %MON dynstat_theta_mean           =   1.2567208628853E+01
(PID.TID 0000.0001) %MON dynstat_theta_sd             =   2.4852134676990E+00
(PID.TID 0000.0001) %MON dynstat_theta_del2           =   0.0000000000000E+00
(PID.TID 0000.0001) %MON dynstat_salt_max             =   3.5000000000000E+01
(PID.TID 0000.0001) %MON dynstat_salt_min             =   3.5000000000000E+01
(PID.TID 0000.0001) %MON dynstat_salt_mean            =   3.5000000000000E+01
(PID.TID 0000.0001) %MON dynstat_salt_sd              =   3.9790393202566E-13
(PID.TID 0000.0001) %MON dynstat_salt_del2            =   0.0000000000000E+00
(PID.TID 0000.0001) %MON dynstat_sst_max              =   1.5000000000000E+01
(PID.TID 0000.0001) %MON dynstat_sst_min              =   1.5000000000000E+01
(PID.TID 0000.0001) %MON dynstat_sst_mean             =   1.5000000000000E+01
(PID.TID 0000.0001) %MON dynstat_sst_sd               =   5.3290705182008E-15
(PID.TID 0000.0001) %MON dynstat_sst_del2             =   0.0000000000000E+00
(PID.TID 0000.0001) %MON dynstat_sss_max              =   3.5000000000000E+01
(PID.TID 0000.0001) %MON dynstat_sss_min              =   3.5000000000000E+01
(PID.TID 0000.0001) %MON dynstat_sss_mean             =   3.5000000000000E+01
(PID.TID 0000.0001) %MON dynstat_sss_sd               =   5.6843418860808E-14
(PID.TID 0000.0001) %MON dynstat_sss_del2             =   0.0000000000000E+00
(PID.TID 0000.0001) %MON forcing_qnet_max             =   0.0000000000000E+00
(PID.TID 0000.0001) %MON forcing_qnet_min             =   0.0000000000000E+00
(PID.TID 0000.0001) %MON forcing_qnet_mean            =   0.0000000000000E+00
(PID.TID 0000.0001) %MON forcing_qnet_sd              =   0.0000000000000E+00
(PID.TID 0000.0001) %MON forcing_qnet_del2            =   0.0000000000000E+00
(PID.TID 0000.0001) %MON forcing_qsw_max              =   0.0000000000000E+00
(PID.TID 0000.0001) %MON forcing_qsw_min              =   0.0000000000000E+00
(PID.TID 0000.0001) %MON forcing_qsw_mean             =   0.0000000000000E+00
(PID.TID 0000.0001) %MON forcing_qsw_sd               =   0.0000000000000E+00
(PID.TID 0000.0001) %MON forcing_qsw_del2             =   0.0000000000000E+00
(PID.TID 0000.0001) %MON forcing_empmr_max            =   0.0000000000000E+00
(PID.TID 0000.0001) %MON forcing_empmr_min            =   0.0000000000000E+00
(PID.TID 0000.0001) %MON forcing_empmr_mean           =   0.0000000000000E+00
(PID.TID 0000.0001) %MON forcing_empmr_sd             =   0.0000000000000E+00
(PID.TID 0000.0001) %MON forcing_empmr_del2           =   0.0000000000000E+00
(PID.TID 0000.0001) %MON forcing_fu_max               =   0.0000000000000E+00
(PID.TID 0000.0001) %MON forcing_fu_min               =   0.0000000000000E+00
(PID.TID 0000.0001) %MON forcing_fu_mean              =   0.0000000000000E+00
(PID.TID 0000.0001) %MON forcing_fu_sd                =   0.0000000000000E+00
(PID.TID 0000.0001) %MON forcing_fu_del2              =   0.0000000000000E+00
(PID.TID 0000.0001) %MON forcing_fv_max               =   0.0000000000000E+00
(PID.TID 0000.0001) %MON forcing_fv_min               =   0.0000000000000E+00
(PID.TID 0000.0001) %MON forcing_fv_mean              =   0.0000000000000E+00
(PID.TID 0000.0001) %MON forcing_fv_sd                =   0.0000000000000E+00
(PID.TID 0000.0001) %MON forcing_fv_del2              =   0.0000000000000E+00
(PID.TID 0000.0001) %MON advcfl_uvel_max              =   4.2021423107744E-02
(PID.TID 0000.0001) %MON advcfl_vvel_max              =   0.0000000000000E+00
(PID.TID 0000.0001) %MON advcfl_wvel_max              =   2.5466050041566E-01
(PID.TID 0000.0001) %MON advcfl_W_hf_max              =   2.5466050041566E-01
(PID.TID 0000.0001) %MON pe_b_mean                    =   0.0000000000000E+00
(PID.TID 0000.0001) %MON ke_max                       =   1.5805210749166E-01
(PID.TID 0000.0001) %MON ke_mean                      =   1.5680523583079E-01
(PID.TID 0000.0001) %MON ke_vol                       =   9.5121673331316E+10
(PID.TID 0000.0001) %MON vort_r_min                   =   0.0000000000000E+00
(PID.TID 0000.0001) %MON vort_r_max                   =   0.0000000000000E+00
(PID.TID 0000.0001) %MON vort_a_mean                  =   0.0000000000000E+00
(PID.TID 0000.0001) %MON vort_a_sd                    =   0.0000000000000E+00
(PID.TID 0000.0001) %MON vort_p_mean                  =   0.0000000000000E+00
(PID.TID 0000.0001) %MON vort_p_sd                    =   0.0000000000000E+00
(PID.TID 0000.0001) %MON surfExpan_theta_mean         =   6.5141080454087E-19
(PID.TID 0000.0001) %MON surfExpan_salt_mean          =  -9.4982875133821E-19
(PID.TID 0000.0001) // =======================================================
(PID.TID 0000.0001) // End MONITOR dynamic field statistics
(PID.TID 0000.0001) // =======================================================
(PID.TID 0000.0001) // =======================================================
(PID.TID 0000.0001) // Begin OBCS MONITOR field statistics
(PID.TID 0000.0001) // =======================================================
(PID.TID 0000.0001) %MON obc_E_uVel_max               =   5.6028564143658E-01
(PID.TID 0000.0001) %MON obc_E_uVel_min               =   5.6028564143658E-01
(PID.TID 0000.0001) %MON obc_E_uVel_mean              =   5.6028564143658E-01
(PID.TID 0000.0001) %MON obc_E_uVel_sd                =   7.4505805969238E-09
(PID.TID 0000.0001) %MON obc_E_uVel_Int               =   5.6028564143658E+05
(PID.TID 0000.0001) %MON obc_W_uVel_max               =   5.6028564143658E-01
(PID.TID 0000.0001) %MON obc_W_uVel_min               =   5.6028564143658E-01
(PID.TID 0000.0001) %MON obc_W_uVel_mean              =   5.6028564143658E-01
(PID.TID 0000.0001) %MON obc_W_uVel_sd                =   7.4505805969238E-09
(PID.TID 0000.0001) %MON obc_W_uVel_Int               =   5.6028564143658E+05
(PID.TID 0000.0001) // =======================================================
(PID.TID 0000.0001) // End OBCS MONITOR field statistics
(PID.TID 0000.0001) // =======================================================
(PID.TID 0000.0001) SOLVE_FOR_PRESSURE: putPmEinXvector =    F
 cg2d: Sum(rhs),rhsMax =   3.64082847125119E-16  2.51088403478168E-01
 cg2d: Sum(rhs),rhsMax =   2.76498135116495E-14  4.41882738729081E-01
 cg2d: Sum(rhs),rhsMax =   9.25641559039549E-15  5.70077581090929E-01
 cg2d: Sum(rhs),rhsMax =  -5.46968424402198E-14  6.52427332758765E-01
 cg2d: Sum(rhs),rhsMax =  -4.69082245325045E-14  7.04653079045258E-01
 cg2d: Sum(rhs),rhsMax =  -1.11837772568295E-13  7.37999299686590E-01
 cg2d: Sum(rhs),rhsMax =  -1.98118887381237E-13  7.64664230338523E-01
 cg2d: Sum(rhs),rhsMax =  -1.85947486429034E-13  7.88064559884357E-01
 cg2d: Sum(rhs),rhsMax =  -2.95716650001702E-13  8.11783832731973E-01
 cg2d: Sum(rhs),rhsMax =  -2.85907048540150E-13  8.34915157771420E-01
 cg2d: Sum(rhs),rhsMax =  -2.52285296887135E-13  8.57135407135057E-01
 cg2d: Sum(rhs),rhsMax =  -2.55630304741537E-13  8.80020474396722E-01
 cg2d: Sum(rhs),rhsMax =  -2.48016445078142E-13  9.02325654466705E-01
 cg2d: Sum(rhs),rhsMax =  -3.99530229591727E-13  9.24030112771022E-01
 cg2d: Sum(rhs),rhsMax =  -4.48863587779918E-13  9.45393235406738E-01
 cg2d: Sum(rhs),rhsMax =  -4.91572761431663E-13  9.67225189974859E-01
 cg2d: Sum(rhs),rhsMax =  -4.92773613528993E-13  9.88431378656733E-01
 cg2d: Sum(rhs),rhsMax =  -5.02608345509314E-13  1.00845545458627E+00
 cg2d: Sum(rhs),rhsMax =  -4.11985518769685E-13  1.02860037508122E+00
 cg2d: Sum(rhs),rhsMax =  -3.87887765889127E-13  1.04906600174038E+00
 cg2d: Sum(rhs),rhsMax =  -4.35088086529304E-13  1.06756310717986E+00
 cg2d: Sum(rhs),rhsMax =  -4.85248151211627E-13  1.08807851719611E+00
 cg2d: Sum(rhs),rhsMax =  -3.52280412066771E-13  1.10629125766850E+00
 cg2d: Sum(rhs),rhsMax =  -2.62584702579346E-13  1.12566653383528E+00
 cg2d: Sum(rhs),rhsMax =  -2.29834131189763E-13  1.14453298332066E+00
 cg2d: Sum(rhs),rhsMax =  -2.17504028907100E-13  1.16135941097114E+00
 cg2d: Sum(rhs),rhsMax =  -1.43192281762319E-13  1.18067553189706E+00
 cg2d: Sum(rhs),rhsMax =  -1.96567624170482E-14  1.19911628858907E+00
 cg2d: Sum(rhs),rhsMax =   5.83336191715056E-14  1.21631252553564E+00
 cg2d: Sum(rhs),rhsMax =   1.37870263640437E-13  1.23254473303827E+00
 cg2d: Sum(rhs),rhsMax =   2.01563741283710E-13  1.25022981848853E+00
 cg2d: Sum(rhs),rhsMax =   2.64658276847782E-13  1.26824567388702E+00
 cg2d: Sum(rhs),rhsMax =   3.37204236430279E-13  1.28564854387884E+00
 cg2d: Sum(rhs),rhsMax =   4.29221789404258E-13  1.30259464518637E+00
 cg2d: Sum(rhs),rhsMax =   5.09070270746786E-13  1.31921330868982E+00
 cg2d: Sum(rhs),rhsMax =   5.54162076470133E-13  1.33560606707821E+00
 cg2d: Sum(rhs),rhsMax =   5.72200706955295E-13  1.35184585254187E+00
 cg2d: Sum(rhs),rhsMax =   6.28146623257719E-13  1.36797621996161E+00
 cg2d: Sum(rhs),rhsMax =   7.36375370402609E-13  1.38401054134211E+00
 cg2d: Sum(rhs),rhsMax =   7.95069739212284E-13  1.39993113904235E+00
 cg2d: Sum(rhs),rhsMax =   8.78117890901198E-13  1.41568835195704E+00
 cg2d: Sum(rhs),rhsMax =   8.80151854176781E-13  1.43119955443944E+00
 cg2d: Sum(rhs),rhsMax =   9.33635113664621E-13  1.44634817239415E+00
 cg2d: Sum(rhs),rhsMax =   9.87970122379167E-13  1.46098277115900E+00
 cg2d: Sum(rhs),rhsMax =   1.00958130744289E-12  1.47491631265322E+00
 cg2d: Sum(rhs),rhsMax =   1.02823999315049E-12  1.48860307913012E+00
 cg2d: Sum(rhs),rhsMax =   1.09688647054185E-12  1.50542341518517E+00
 cg2d: Sum(rhs),rhsMax =   1.13779818899928E-12  1.52155283289729E+00
 cg2d: Sum(rhs),rhsMax =   1.16358311874620E-12  1.53668621328480E+00
 cg2d: Sum(rhs),rhsMax =   1.17697518398074E-12  1.55047892928797E+00
 cg2d: Sum(rhs),rhsMax =   1.20833898442640E-12  1.56254867309077E+00
 cg2d: Sum(rhs),rhsMax =   1.19565468637006E-12  1.57774573979641E+00
 cg2d: Sum(rhs),rhsMax =   1.17011955680368E-12  1.59412508662225E+00
 cg2d: Sum(rhs),rhsMax =   1.15440990100524E-12  1.60839390355308E+00
 cg2d: Sum(rhs),rhsMax =   1.15607523554218E-12  1.62006076562605E+00
 cg2d: Sum(rhs),rhsMax =   1.15796261468404E-12  1.63420836330176E+00
 cg2d: Sum(rhs),rhsMax =   1.10778053397098E-12  1.65092407044830E+00
 cg2d: Sum(rhs),rhsMax =   1.04083408558608E-12  1.67487720760411E+00
 cg2d: Sum(rhs),rhsMax =   1.03861363953683E-12  1.74741970537156E+00
 cg2d: Sum(rhs),rhsMax =   1.05082609280771E-12  1.84962970720507E+00
 cg2d: Sum(rhs),rhsMax =   1.06459285831306E-12  1.99553209077038E+00
 cg2d: Sum(rhs),rhsMax =   1.00885966247688E-12  2.19582215262579E+00
 cg2d: Sum(rhs),rhsMax =   8.94839757847876E-13  2.40365767459840E+00
 cg2d: Sum(rhs),rhsMax =   8.59645687967259E-13  2.59785625957268E+00
 cg2d: Sum(rhs),rhsMax =   8.91842155681388E-13  2.77301981497048E+00
 cg2d: Sum(rhs),rhsMax =   8.93618512520788E-13  2.92425170995872E+00
 cg2d: Sum(rhs),rhsMax =   8.97948382316827E-13  3.04740399794351E+00
 cg2d: Sum(rhs),rhsMax =   9.08162434143378E-13  3.13928122992042E+00
 cg2d: Sum(rhs),rhsMax =   9.57900425646585E-13  3.19778652277706E+00
 cg2d: Sum(rhs),rhsMax =   1.04771746833876E-12  3.22200058783464E+00
 cg2d: Sum(rhs),rhsMax =   1.09467990228040E-12  3.21219015901702E+00
 cg2d: Sum(rhs),rhsMax =   1.17417187084357E-12  3.16974808840213E+00
 cg2d: Sum(rhs),rhsMax =   1.31961108706946E-12  3.09707272589751E+00
 cg2d: Sum(rhs),rhsMax =   1.47493128821452E-12  2.99739854539539E+00
 cg2d: Sum(rhs),rhsMax =   1.60038648999716E-12  2.87459293547368E+00
 cg2d: Sum(rhs),rhsMax =   1.67810210172092E-12  2.75987610770721E+00
 cg2d: Sum(rhs),rhsMax =   1.56341606327715E-12  2.95618540370616E+00
 cg2d: Sum(rhs),rhsMax =   1.42552636361870E-12  3.13421290064756E+00
 cg2d: Sum(rhs),rhsMax =   1.30684352228627E-12  3.28978918179078E+00
 cg2d: Sum(rhs),rhsMax =   1.18749454713907E-12  3.41932745436472E+00
 cg2d: Sum(rhs),rhsMax =   1.07347464251006E-12  3.51997327014790E+00
 cg2d: Sum(rhs),rhsMax =   9.77828928938607E-13  3.58971685335525E+00
 cg2d: Sum(rhs),rhsMax =   8.93618512520788E-13  3.62746179168969E+00
 cg2d: Sum(rhs),rhsMax =   8.27338197950667E-13  3.63304708404000E+00
 cg2d: Sum(rhs),rhsMax =   7.78710429472085E-13  3.60722288970922E+00
 cg2d: Sum(rhs),rhsMax =   7.42572670020536E-13  3.55158348786887E+00
 cg2d: Sum(rhs),rhsMax =   6.94666546507960E-13  3.46846365572794E+00
 cg2d: Sum(rhs),rhsMax =   6.42486064350578E-13  3.36080668991503E+00
 cg2d: Sum(rhs),rhsMax =   5.70377078901174E-13  3.23201365499058E+00
 cg2d: Sum(rhs),rhsMax =   5.60912427616245E-13  3.08578385201223E+00
 cg2d: Sum(rhs),rhsMax =   5.27161647667640E-13  2.92595602269799E+00
 cg2d: Sum(rhs),rhsMax =   4.82114348443474E-13  2.75635887597423E+00
 cg2d: Sum(rhs),rhsMax =   4.05536715319954E-13  2.58067775910067E+00
 cg2d: Sum(rhs),rhsMax =   3.12277981251441E-13  2.40234319835892E+00
 cg2d: Sum(rhs),rhsMax =   1.97342142627122E-13  2.22444451476367E+00
 cg2d: Sum(rhs),rhsMax =   1.33004718350094E-13  2.04966934072605E+00
 cg2d: Sum(rhs),rhsMax =   6.73627820191314E-14  1.88026877141678E+00
 cg2d: Sum(rhs),rhsMax =  -5.88973314563646E-14  1.71804625202856E+00
 cg2d: Sum(rhs),rhsMax =   1.17128529097954E-14  1.56436711274002E+00
 cg2d: Sum(rhs),rhsMax =   1.84852133600089E-14  1.43259408252593E+00
 cg2d: Sum(rhs),rhsMax =   8.79851747015437E-15  1.39026055908817E+00
 cg2d: Sum(rhs),rhsMax =  -5.73430192218893E-14  1.35600626239292E+00
 cg2d: Sum(rhs),rhsMax =  -7.18036741176320E-14  1.32791704932704E+00
 cg2d: Sum(rhs),rhsMax =  -1.25455201782643E-13  1.29967776340471E+00
 cg2d: Sum(rhs),rhsMax =  -1.36710087694780E-13  1.27650096768304E+00
 cg2d: Sum(rhs),rhsMax =  -2.01449967818235E-13  1.25265003107673E+00
 cg2d: Sum(rhs),rhsMax =  -2.39447350836031E-13  1.22804671951416E+00
 cg2d: Sum(rhs),rhsMax =  -3.19952397909162E-13  1.20732444677764E+00
 cg2d: Sum(rhs),rhsMax =  -4.15001366604884E-13  1.18591530968662E+00
 cg2d: Sum(rhs),rhsMax =  -4.58591498109229E-13  1.16356577141560E+00
 cg2d: Sum(rhs),rhsMax =  -5.29534749382776E-13  1.14320175884735E+00
 cg2d: Sum(rhs),rhsMax =  -5.96175886435901E-13  1.12324508303789E+00
 cg2d: Sum(rhs),rhsMax =  -6.59639010081037E-13  1.10246711620404E+00
 cg2d: Sum(rhs),rhsMax =  -7.24850734989957E-13  1.08161013055028E+00
 cg2d: Sum(rhs),rhsMax =  -7.76018138637369E-13  1.06274488039379E+00
 cg2d: Sum(rhs),rhsMax =  -8.38648595014035E-13  1.04320095515790E+00
 cg2d: Sum(rhs),rhsMax =  -9.49643141900935E-13  1.02316701145613E+00
 cg2d: Sum(rhs),rhsMax =  -1.04553865565293E-12  1.00332237830315E+00
 cg2d: Sum(rhs),rhsMax =  -1.18753618050249E-12  9.84771178477101E-01
 cg2d: Sum(rhs),rhsMax =  -1.33570932092653E-12  9.65824528522876E-01
 cg2d: Sum(rhs),rhsMax =  -1.45118639327535E-12  9.46616826824449E-01
 cg2d: Sum(rhs),rhsMax =  -1.54908030847167E-12  9.27258508343796E-01
 cg2d: Sum(rhs),rhsMax =  -1.61168300927272E-12  9.08479457985186E-01
 cg2d: Sum(rhs),rhsMax =  -1.55803148160771E-12  8.90172078265325E-01
 cg2d: Sum(rhs),rhsMax =  -1.52476642423238E-12  8.71696991932428E-01
 cg2d: Sum(rhs),rhsMax =  -1.50109091823225E-12  8.53099757468019E-01
 cg2d: Sum(rhs),rhsMax =  -1.52174106649028E-12  8.34400855546121E-01
 cg2d: Sum(rhs),rhsMax =  -1.58631441316004E-12  8.15593979597579E-01
 cg2d: Sum(rhs),rhsMax =  -1.73409897552546E-12  7.96704112658756E-01
 cg2d: Sum(rhs),rhsMax =  -1.65537028529172E-12  7.78160531925833E-01
 cg2d: Sum(rhs),rhsMax =  -1.65968627729995E-12  7.59237882682201E-01
 cg2d: Sum(rhs),rhsMax =  -1.61182178715080E-12  7.39819708940685E-01
 cg2d: Sum(rhs),rhsMax =  -1.59135205013428E-12  7.19746999975991E-01
 cg2d: Sum(rhs),rhsMax =  -1.61766433581789E-12  6.98817756896740E-01
 cg2d: Sum(rhs),rhsMax =  -1.58396906702052E-12  6.76789825732867E-01
 cg2d: Sum(rhs),rhsMax =  -1.55134238788435E-12  6.54080556405557E-01
 cg2d: Sum(rhs),rhsMax =  -1.57233948083757E-12  6.29873660316083E-01
 cg2d: Sum(rhs),rhsMax =  -1.59366964069818E-12  6.03746936055823E-01
 cg2d: Sum(rhs),rhsMax =  -1.61334834380966E-12  5.75926194596222E-01
 cg2d: Sum(rhs),rhsMax =  -1.63302704692114E-12  5.46277857352852E-01
 cg2d: Sum(rhs),rhsMax =  -1.69400604654868E-12  5.14161349251817E-01
 cg2d: Sum(rhs),rhsMax =  -1.75767733701093E-12  4.80341860693443E-01
 cg2d: Sum(rhs),rhsMax =  -1.80083725709324E-12  4.44042626375185E-01
 cg2d: Sum(rhs),rhsMax =  -1.89087634439034E-12  4.05754580307664E-01
 cg2d: Sum(rhs),rhsMax =  -2.00892080748361E-12  3.65608030281530E-01
 cg2d: Sum(rhs),rhsMax =  -2.21445084491734E-12  3.23529627215500E-01
 cg2d: Sum(rhs),rhsMax =  -2.52736720440794E-12  2.79874787221074E-01
 cg2d: Sum(rhs),rhsMax =  -3.04850589216699E-12  2.35126682405671E-01
 cg2d: Sum(rhs),rhsMax =  -3.95911081696454E-12  1.89445289387922E-01
 cg2d: Sum(rhs),rhsMax =  -5.18651788183888E-12  1.43166623311150E-01
 cg2d: Sum(rhs),rhsMax =  -7.23321402773536E-12  1.01456951776294E-01
 cg2d: Sum(rhs),rhsMax =  -7.17947923334350E-12  1.02175707981387E-01
 cg2d: Sum(rhs),rhsMax =  -7.19135861970699E-12  1.03341312864181E-01
 cg2d: Sum(rhs),rhsMax =  -7.13951120445699E-12  1.04884580442892E-01
 cg2d: Sum(rhs),rhsMax =  -6.96231960972682E-12  1.06637635106300E-01
 cg2d: Sum(rhs),rhsMax =  -5.82944803539931E-12  1.25837023143045E-01
 cg2d: Sum(rhs),rhsMax =  -4.34374758384592E-12  1.66220050691442E-01
 cg2d: Sum(rhs),rhsMax =  -3.47810669154569E-12  2.04552312618237E-01
 cg2d: Sum(rhs),rhsMax =  -2.91794366447107E-12  2.40575397944707E-01
 cg2d: Sum(rhs),rhsMax =  -2.52059484395772E-12  2.74650074380161E-01
 cg2d: Sum(rhs),rhsMax =  -2.15411022352896E-12  3.06271320430459E-01
 cg2d: Sum(rhs),rhsMax =  -1.88626891883814E-12  3.35635685381481E-01
 cg2d: Sum(rhs),rhsMax =  -1.66544555924020E-12  3.62785125853986E-01
 cg2d: Sum(rhs),rhsMax =  -1.46699319358845E-12  3.87853103032543E-01
 cg2d: Sum(rhs),rhsMax =  -1.31950006476700E-12  4.10636772057127E-01
 cg2d: Sum(rhs),rhsMax =  -1.17356124818002E-12  4.32049933462296E-01
 cg2d: Sum(rhs),rhsMax =  -1.06326059068351E-12  4.51534772458661E-01
 cg2d: Sum(rhs),rhsMax =  -9.78273018148457E-13  4.69329466730311E-01
 cg2d: Sum(rhs),rhsMax =  -8.60478355235728E-13  4.86065461273581E-01
 cg2d: Sum(rhs),rhsMax =  -7.78266340262235E-13  5.01735552016694E-01
 cg2d: Sum(rhs),rhsMax =  -6.96942503708442E-13  5.16300165830161E-01
 cg2d: Sum(rhs),rhsMax =  -6.18949336228525E-13  5.29916329644965E-01
 cg2d: Sum(rhs),rhsMax =  -5.61495294704173E-13  5.42714309667926E-01
 cg2d: Sum(rhs),rhsMax =  -4.98379115754233E-13  5.54877615563878E-01
 cg2d: Sum(rhs),rhsMax =  -4.96602758914833E-13  5.66884000674351E-01
 cg2d: Sum(rhs),rhsMax =  -4.69346783660285E-13  5.78375713336050E-01
 cg2d: Sum(rhs),rhsMax =  -4.28379554051617E-13  5.89410089811296E-01
 cg2d: Sum(rhs),rhsMax =  -3.89577259340967E-13  6.00028031632990E-01
 cg2d: Sum(rhs),rhsMax =  -4.04565270173407E-13  6.10255738345048E-01
 cg2d: Sum(rhs),rhsMax =  -4.59798865648509E-13  6.20114178533457E-01
 cg2d: Sum(rhs),rhsMax =  -5.41067191051070E-13  6.30417421317495E-01
 cg2d: Sum(rhs),rhsMax =  -5.54167822741647E-13  6.40449561202226E-01
 cg2d: Sum(rhs),rhsMax =  -5.40956168748608E-13  6.50203900602214E-01
 cg2d: Sum(rhs),rhsMax =  -6.39321928730396E-13  6.59667312109038E-01
 cg2d: Sum(rhs),rhsMax =  -6.32272012524027E-13  6.68823406190402E-01
 cg2d: Sum(rhs),rhsMax =  -6.48092690624935E-13  6.78856095519187E-01
 cg2d: Sum(rhs),rhsMax =  -6.82787160144471E-13  6.88704655357196E-01
 cg2d: Sum(rhs),rhsMax =  -7.44848627221018E-13  6.98360823510009E-01
 cg2d: Sum(rhs),rhsMax =  -8.04745159399545E-13  7.07847034713068E-01
 cg2d: Sum(rhs),rhsMax =  -7.96473997866087E-13  7.18134048953131E-01
 cg2d: Sum(rhs),rhsMax =  -8.44713188286050E-13  7.29021192400851E-01
 cg2d: Sum(rhs),rhsMax =  -8.88678020061207E-13  7.40112278728626E-01
 cg2d: Sum(rhs),rhsMax =  -9.26481114049693E-13  7.51617368320774E-01
 cg2d: Sum(rhs),rhsMax =  -9.44050393414386E-13  7.63986894110365E-01
 cg2d: Sum(rhs),rhsMax =  -9.93344295707743E-13  7.78601041699983E-01
 cg2d: Sum(rhs),rhsMax =  -1.01235686500445E-12  7.94776435543637E-01
 cg2d: Sum(rhs),rhsMax =  -1.07644448910094E-12  8.13190396651643E-01
 cg2d: Sum(rhs),rhsMax =  -1.06659125975739E-12  8.34722880361048E-01
 cg2d: Sum(rhs),rhsMax =  -1.13144563163026E-12  8.61270025897056E-01
 cg2d: Sum(rhs),rhsMax =  -1.11000444946718E-12  8.90575846318973E-01
 cg2d: Sum(rhs),rhsMax =  -1.13155318448577E-12  9.24391283237466E-01
 cg2d: Sum(rhs),rhsMax =  -1.15488174579070E-12  9.63835540173048E-01
 cg2d: Sum(rhs),rhsMax =  -1.13167808457604E-12  1.00992996516831E+00
 cg2d: Sum(rhs),rhsMax =  -1.12654330308715E-12  1.06345419116701E+00
 cg2d: Sum(rhs),rhsMax =  -1.15585319093725E-12  1.12472661351047E+00
 cg2d: Sum(rhs),rhsMax =  -1.19426690758928E-12  1.19511533867236E+00
 cg2d: Sum(rhs),rhsMax =  -1.18394183346027E-12  1.27157553958484E+00
 cg2d: Sum(rhs),rhsMax =  -1.22318821738077E-12  1.34751614141284E+00
 cg2d: Sum(rhs),rhsMax =  -1.22712950911819E-12  1.42148778517358E+00
 cg2d: Sum(rhs),rhsMax =  -1.22518661882509E-12  1.49281588743416E+00
 cg2d: Sum(rhs),rhsMax =  -1.26060273331063E-12  1.56083266740322E+00
 cg2d: Sum(rhs),rhsMax =  -1.26787469412193E-12  1.62488860623400E+00
 cg2d: Sum(rhs),rhsMax =  -1.27420296536229E-12  1.68436392532316E+00
 cg2d: Sum(rhs),rhsMax =  -1.26731958260962E-12  1.73867979526682E+00
 cg2d: Sum(rhs),rhsMax =  -1.28674848554056E-12  1.78730898617997E+00
 cg2d: Sum(rhs),rhsMax =  -1.26865185023917E-12  1.82978567776460E+00
 cg2d: Sum(rhs),rhsMax =  -1.33271171876004E-12  1.86571416788328E+00
 cg2d: Sum(rhs),rhsMax =  -1.37301281455393E-12  1.89477624457425E+00
 cg2d: Sum(rhs),rhsMax =  -1.42630351973594E-12  1.91673701755919E+00
 cg2d: Sum(rhs),rhsMax =  -1.48003831412780E-12  1.93144904185623E+00
 cg2d: Sum(rhs),rhsMax =  -1.53699275529107E-12  1.93885464788451E+00
 cg2d: Sum(rhs),rhsMax =  -1.59350310724449E-12  1.93898640740296E+00
 cg2d: Sum(rhs),rhsMax =  -1.66844316140669E-12  1.93196572124536E+00
 cg2d: Sum(rhs),rhsMax =  -1.70596869963902E-12  1.91799957571422E+00
 cg2d: Sum(rhs),rhsMax =  -1.76347825231460E-12  1.89737557017713E+00
 cg2d: Sum(rhs),rhsMax =  -1.84185999785313E-12  1.87045536570680E+00
 cg2d: Sum(rhs),rhsMax =  -1.89925852822626E-12  1.85183222227613E+00
 cg2d: Sum(rhs),rhsMax =  -1.95721217011169E-12  1.88534186839057E+00
 cg2d: Sum(rhs),rhsMax =  -1.97952765290665E-12  1.91220988082848E+00
 cg2d: Sum(rhs),rhsMax =  -2.03392858111329E-12  1.93227992335999E+00
 cg2d: Sum(rhs),rhsMax =  -2.06479278119787E-12  1.94546268251587E+00
 cg2d: Sum(rhs),rhsMax =  -2.09476880286275E-12  1.95173662465397E+00
 cg2d: Sum(rhs),rhsMax =  -2.08943973234454E-12  1.95114761911656E+00
 cg2d: Sum(rhs),rhsMax =  -2.06812345027174E-12  1.94380744351105E+00
 cg2d: Sum(rhs),rhsMax =  -2.11286543816414E-12  1.92989121162497E+00
 cg2d: Sum(rhs),rhsMax =  -2.16693329946338E-12  1.90963380404613E+00
 cg2d: Sum(rhs),rhsMax =  -2.23765450613200E-12  1.88332535921444E+00
 cg2d: Sum(rhs),rhsMax =  -2.28517205158596E-12  1.85130597195862E+00
 cg2d: Sum(rhs),rhsMax =  -2.36333175251957E-12  1.81395972756468E+00
 cg2d: Sum(rhs),rhsMax =  -2.49833487231399E-12  1.77170820974493E+00
 cg2d: Sum(rhs),rhsMax =  -2.68074451525990E-12  1.72500362383065E+00
 cg2d: Sum(rhs),rhsMax =  -2.84283707685518E-12  1.67432168659369E+00
 cg2d: Sum(rhs),rhsMax =  -3.05599989758321E-12  1.62015447304164E+00
 cg2d: Sum(rhs),rhsMax =  -3.22630810956070E-12  1.56300334685243E+00
 cg2d: Sum(rhs),rhsMax =  -3.25151017221970E-12  1.50337206606305E+00
 cg2d: Sum(rhs),rhsMax =  -3.36286554158960E-12  1.44176018474384E+00
 cg2d: Sum(rhs),rhsMax =  -3.43691741733210E-12  1.37865691902867E+00
 cg2d: Sum(rhs),rhsMax =  -3.56825680114525E-12  1.31453560220324E+00
 cg2d: Sum(rhs),rhsMax =  -3.71791486486472E-12  1.24984875571028E+00
 cg2d: Sum(rhs),rhsMax =  -3.79829501184759E-12  1.18502382573083E+00
 cg2d: Sum(rhs),rhsMax =  -4.00890431961898E-12  1.12045962007625E+00
 cg2d: Sum(rhs),rhsMax =  -4.21418455687217E-12  1.05652346930661E+00
 cg2d: Sum(rhs),rhsMax =  -4.46198633596850E-12  9.93549115362496E-01
 cg2d: Sum(rhs),rhsMax =  -4.69635441646687E-12  9.31835312144566E-01
 cg2d: Sum(rhs),rhsMax =  -4.93460827755143E-12  8.71645105097697E-01
 cg2d: Sum(rhs),rhsMax =  -5.20983256535601E-12  8.13205741771188E-01
 cg2d: Sum(rhs),rhsMax =  -5.49793544024624E-12  7.56709154315006E-01
 cg2d: Sum(rhs),rhsMax =  -5.85742565561986E-12  7.02312947020737E-01
 cg2d: Sum(rhs),rhsMax =  -6.22313311993139E-12  6.53493384503259E-01
 cg2d: Sum(rhs),rhsMax =  -6.34758912099187E-12  6.34770219579456E-01
 cg2d: Sum(rhs),rhsMax =  -6.43618491835696E-12  6.17607413592494E-01
 cg2d: Sum(rhs),rhsMax =  -6.53677112438800E-12  6.01659864690201E-01
 cg2d: Sum(rhs),rhsMax =  -6.64635013691850E-12  5.86659285040854E-01
 cg2d: Sum(rhs),rhsMax =  -6.69519995000201E-12  5.72399303874916E-01
 cg2d: Sum(rhs),rhsMax =  -6.75093314583819E-12  5.58722612437836E-01
 cg2d: Sum(rhs),rhsMax =  -6.83453293959246E-12  5.45510029236479E-01
 cg2d: Sum(rhs),rhsMax =  -6.91435797506301E-12  5.32671435585848E-01
 cg2d: Sum(rhs),rhsMax =  -6.99706959039759E-12  5.20232145502947E-01
 cg2d: Sum(rhs),rhsMax =  -7.08533232085529E-12  5.08073750713314E-01
 cg2d: Sum(rhs),rhsMax =  -7.11375403028569E-12  4.96112281733502E-01
 cg2d: Sum(rhs),rhsMax =  -7.25647320010125E-12  4.84314150124908E-01
 cg2d: Sum(rhs),rhsMax =  -7.31709137724579E-12  4.72652368483109E-01
 cg2d: Sum(rhs),rhsMax =  -7.45159489667913E-12  4.61103527119741E-01
 cg2d: Sum(rhs),rhsMax =  -7.52431450479207E-12  4.49645216057755E-01
 cg2d: Sum(rhs),rhsMax =  -7.66908758720319E-12  4.38253907134785E-01
 cg2d: Sum(rhs),rhsMax =  -7.79287745444890E-12  4.26903313821500E-01
 cg2d: Sum(rhs),rhsMax =  -7.85166376360280E-12  4.15562953770918E-01
 cg2d: Sum(rhs),rhsMax =  -8.02183319770222E-12  4.04196838359826E-01
 cg2d: Sum(rhs),rhsMax =  -8.20038481563756E-12  3.92762308853995E-01
 cg2d: Sum(rhs),rhsMax =  -8.25178814167771E-12  3.81209431996502E-01
 cg2d: Sum(rhs),rhsMax =  -8.55326920401467E-12  3.69513236556695E-01
 cg2d: Sum(rhs),rhsMax =  -8.87817597217122E-12  3.57669853471080E-01
 cg2d: Sum(rhs),rhsMax =  -9.11642983325578E-12  3.45539051589638E-01
 cg2d: Sum(rhs),rhsMax =  -9.42350364407929E-12  3.33059072025808E-01
 cg2d: Sum(rhs),rhsMax =  -9.80930614513653E-12  3.20172806181402E-01
 cg2d: Sum(rhs),rhsMax =  -1.02156894055128E-11  3.06901227840670E-01
 cg2d: Sum(rhs),rhsMax =  -1.06570958655072E-11  2.93260363403213E-01
 cg2d: Sum(rhs),rhsMax =  -1.11757391535461E-11  2.79089354041997E-01
 cg2d: Sum(rhs),rhsMax =  -1.16222448331982E-11  2.64450685949655E-01
 cg2d: Sum(rhs),rhsMax =  -1.24283500158029E-11  2.49377113895253E-01
 cg2d: Sum(rhs),rhsMax =  -1.32318878076632E-11  2.33727391380590E-01
 cg2d: Sum(rhs),rhsMax =  -1.42051925777764E-11  2.17837636941420E-01
 cg2d: Sum(rhs),rhsMax =  -1.53430046445635E-11  2.02091310354129E-01
 cg2d: Sum(rhs),rhsMax =  -1.66539004808897E-11  1.86486383438906E-01
 cg2d: Sum(rhs),rhsMax =  -1.81483716943376E-11  1.71474097545289E-01
 cg2d: Sum(rhs),rhsMax =  -1.98079608271229E-11  1.57420789530714E-01
 cg2d: Sum(rhs),rhsMax =  -2.15747975040870E-11  1.44735616822399E-01
 cg2d: Sum(rhs),rhsMax =  -2.33976171770678E-11  1.33561159542861E-01
 cg2d: Sum(rhs),rhsMax =  -2.53801979432922E-11  1.23604365149617E-01
 cg2d: Sum(rhs),rhsMax =  -2.74134603905907E-11  1.14678929763965E-01
 cg2d: Sum(rhs),rhsMax =  -2.96043189962347E-11  1.06342065146789E-01
 cg2d: Sum(rhs),rhsMax =  -3.19956838801261E-11  9.85573785412096E-02
 cg2d: Sum(rhs),rhsMax =  -3.45750650332377E-11  9.11808973618929E-02
 cg2d: Sum(rhs),rhsMax =  -3.74473785313967E-11  8.41244618209705E-02
 cg2d: Sum(rhs),rhsMax =  -4.01328970056625E-11  7.84239373098897E-02
 cg2d: Sum(rhs),rhsMax =  -3.32058824881187E-11  9.47876036939181E-02
 cg2d: Sum(rhs),rhsMax =  -2.81858425488224E-11  1.11587087416415E-01
 cg2d: Sum(rhs),rhsMax =  -2.44968489937492E-11  1.28578054635527E-01
 cg2d: Sum(rhs),rhsMax =  -2.17028617299775E-11  1.45517656834011E-01
 cg2d: Sum(rhs),rhsMax =  -1.95379823431097E-11  1.62377341010630E-01
 cg2d: Sum(rhs),rhsMax =  -1.78423387175997E-11  1.79007549854973E-01
 cg2d: Sum(rhs),rhsMax =  -1.63939417596737E-11  1.95369193783978E-01
 cg2d: Sum(rhs),rhsMax =  -1.52425294608349E-11  2.11440448416922E-01
 cg2d: Sum(rhs),rhsMax =  -1.42658940216478E-11  2.27215848957861E-01
 cg2d: Sum(rhs),rhsMax =  -1.34379729566092E-11  2.42702678135910E-01
 cg2d: Sum(rhs),rhsMax =  -1.27921007120335E-11  2.57919393359726E-01
 cg2d: Sum(rhs),rhsMax =  -1.21480603354485E-11  2.72891474101959E-01
 cg2d: Sum(rhs),rhsMax =  -1.15588649762799E-11  2.87648326234062E-01
 cg2d: Sum(rhs),rhsMax =  -1.10764730720803E-11  3.02220026765638E-01
 cg2d: Sum(rhs),rhsMax =  -1.06628872398318E-11  3.16634243750750E-01
 cg2d: Sum(rhs),rhsMax =  -1.02061969986522E-11  3.30913694767997E-01
 cg2d: Sum(rhs),rhsMax =  -9.88345516539368E-12  3.45074165038828E-01
 cg2d: Sum(rhs),rhsMax =  -9.52599110704000E-12  3.59123119992237E-01
 cg2d: Sum(rhs),rhsMax =  -9.20524767522579E-12  3.73059031453148E-01
 cg2d: Sum(rhs),rhsMax =  -8.86740680883236E-12  3.86885899719903E-01
 cg2d: Sum(rhs),rhsMax =  -8.53772608166992E-12  4.00646307040827E-01
 cg2d: Sum(rhs),rhsMax =  -8.23763279811374E-12  4.14271752576783E-01
 cg2d: Sum(rhs),rhsMax =  -8.02524713350294E-12  4.27734250499980E-01
 cg2d: Sum(rhs),rhsMax =  -7.85205234166142E-12  4.41000099620773E-01
 cg2d: Sum(rhs),rhsMax =  -7.73847652624227E-12  4.54031149005173E-01
 cg2d: Sum(rhs),rhsMax =  -7.55318030343233E-12  4.66786021003148E-01
 cg2d: Sum(rhs),rhsMax =  -7.50943751626210E-12  4.79240017545289E-01
 cg2d: Sum(rhs),rhsMax =  -7.39869276955574E-12  4.91654211318187E-01
 cg2d: Sum(rhs),rhsMax =  -7.29133420307448E-12  5.03721033286636E-01
 cg2d: Sum(rhs),rhsMax =  -7.19940773663552E-12  5.15398631429243E-01
 cg2d: Sum(rhs),rhsMax =  -7.14861503325892E-12  5.26645419141673E-01
 cg2d: Sum(rhs),rhsMax =  -7.07400804600411E-12  5.37817160820697E-01
 cg2d: Sum(rhs),rhsMax =  -7.04258873440722E-12  5.48648028339951E-01
 cg2d: Sum(rhs),rhsMax =  -6.98874291771290E-12  5.59003141315297E-01
 cg2d: Sum(rhs),rhsMax =  -7.01028124439063E-12  5.68926469084552E-01
 cg2d: Sum(rhs),rhsMax =  -6.87905288287993E-12  5.78896947130501E-01
 cg2d: Sum(rhs),rhsMax =  -6.66389166070758E-12  5.88383361892840E-01
 cg2d: Sum(rhs),rhsMax =  -6.38089581173062E-12  5.97374665330117E-01
 cg2d: Sum(rhs),rhsMax =  -6.28375129707592E-12  6.06368162653016E-01
 cg2d: Sum(rhs),rhsMax =  -6.14397421827562E-12  6.15172043068010E-01
 cg2d: Sum(rhs),rhsMax =  -6.04472027987413E-12  6.23593161467692E-01
 cg2d: Sum(rhs),rhsMax =  -5.99120753008719E-12  6.31803987756870E-01
 cg2d: Sum(rhs),rhsMax =  -5.92048632341857E-12  6.40425314848908E-01
 cg2d: Sum(rhs),rhsMax =  -5.79225556407437E-12  6.63161206119198E-01
 cg2d: Sum(rhs),rhsMax =  -5.43309841560813E-12  7.02024117538639E-01
 cg2d: Sum(rhs),rhsMax =  -5.22748511144755E-12  7.41405890424185E-01
 cg2d: Sum(rhs),rhsMax =  -5.00832708638654E-12  7.81135193558793E-01
 cg2d: Sum(rhs),rhsMax =  -4.78317385699256E-12  8.21031015292771E-01
 cg2d: Sum(rhs),rhsMax =  -4.62629934361303E-12  8.60904141766748E-01
 cg2d: Sum(rhs),rhsMax =  -4.44322356685234E-12  9.00558793648395E-01
 cg2d: Sum(rhs),rhsMax =  -4.31588098592783E-12  9.39794401920224E-01
 cg2d: Sum(rhs),rhsMax =  -4.15800727182614E-12  9.78407499465965E-01
 cg2d: Sum(rhs),rhsMax =  -4.00612876205741E-12  1.01619370159535E+00
 cg2d: Sum(rhs),rhsMax =  -3.89888121787862E-12  1.05294974781002E+00
 cg2d: Sum(rhs),rhsMax =  -3.77875508661418E-12  1.08847557393733E+00
 cg2d: Sum(rhs),rhsMax =  -3.64064334235081E-12  1.12257638231867E+00
 cg2d: Sum(rhs),rhsMax =  -3.52295970174055E-12  1.15506467721789E+00
 cg2d: Sum(rhs),rhsMax =  -3.43391981516561E-12  1.18576223286631E+00
 cg2d: Sum(rhs),rhsMax =  -3.32400773572772E-12  1.21450196250224E+00
 cg2d: Sum(rhs),rhsMax =  -3.22941673402966E-12  1.24112965835456E+00
 cg2d: Sum(rhs),rhsMax =  -3.13837844601039E-12  1.26550557480684E+00
 cg2d: Sum(rhs),rhsMax =  -3.03790326228182E-12  1.28750582981950E+00
 cg2d: Sum(rhs),rhsMax =  -2.99005264992047E-12  1.30702360296846E+00
 cg2d: Sum(rhs),rhsMax =  -2.87780910213087E-12  1.33709647607681E+00
 cg2d: Sum(rhs),rhsMax =  -2.74869016436696E-12  1.39351642091420E+00
 cg2d: Sum(rhs),rhsMax =  -2.61157762082576E-12  1.44825271559211E+00
 cg2d: Sum(rhs),rhsMax =  -2.46402898085307E-12  1.50103122415834E+00
 cg2d: Sum(rhs),rhsMax =  -2.31870078692964E-12  1.55158609297237E+00
 cg2d: Sum(rhs),rhsMax =  -2.11775041947249E-12  1.59966207830880E+00
 cg2d: Sum(rhs),rhsMax =  -2.02704519836061E-12  1.64501679917030E+00
 cg2d: Sum(rhs),rhsMax =  -2.03659311637239E-12  1.68742288532904E+00
 cg2d: Sum(rhs),rhsMax =  -2.06201722363630E-12  1.72666999166003E+00
 cg2d: Sum(rhs),rhsMax =  -2.06423766968555E-12  1.76256665022421E+00
 cg2d: Sum(rhs),rhsMax =  -2.09199324530118E-12  1.79494193531241E+00
 cg2d: Sum(rhs),rhsMax =  -2.10698125613362E-12  1.82364692690551E+00
 cg2d: Sum(rhs),rhsMax =  -2.10831352376317E-12  1.84855594741319E+00
 cg2d: Sum(rhs),rhsMax =  -2.08977279925193E-12  1.86956755288190E+00
 cg2d: Sum(rhs),rhsMax =  -2.06734629415450E-12  1.88660526449557E+00
 cg2d: Sum(rhs),rhsMax =  -2.05369055095161E-12  1.89961803292509E+00
 cg2d: Sum(rhs),rhsMax =  -2.08355555031403E-12  1.90858043200494E+00
 cg2d: Sum(rhs),rhsMax =  -2.10820250146071E-12  1.91349258206331E+00
 cg2d: Sum(rhs),rhsMax =  -2.16404671959936E-12  1.91437980701620E+00
 cg2d: Sum(rhs),rhsMax =  -2.20390372618340E-12  1.91129203319558E+00
 cg2d: Sum(rhs),rhsMax =  -2.26141327885898E-12  1.90430294173642E+00
 cg2d: Sum(rhs),rhsMax =  -2.32103225528135E-12  1.89350889155397E+00
 cg2d: Sum(rhs),rhsMax =  -2.35833574890876E-12  1.87902763733559E+00
 cg2d: Sum(rhs),rhsMax =  -2.43194353544141E-12  1.86099683983240E+00
 cg2d: Sum(rhs),rhsMax =  -2.49333886870318E-12  1.83957240958321E+00
 cg2d: Sum(rhs),rhsMax =  -2.57027732430970E-12  1.81492671461035E+00
 cg2d: Sum(rhs),rhsMax =  -2.65620858641569E-12  1.78724667510531E+00
 cg2d: Sum(rhs),rhsMax =  -2.73858713484287E-12  1.75673175227302E+00
 cg2d: Sum(rhs),rhsMax =  -2.85660384236053E-12  1.72359191485004E+00
 cg2d: Sum(rhs),rhsMax =  -2.97439850527326E-12  1.68804557445753E+00
 cg2d: Sum(rhs),rhsMax =  -3.11783932005483E-12  1.65031750832271E+00
 cg2d: Sum(rhs),rhsMax =  -3.27438076652697E-12  1.61063679675131E+00
 cg2d: Sum(rhs),rhsMax =  -3.44158035403552E-12  1.56923478629159E+00
 cg2d: Sum(rhs),rhsMax =  -3.60511620556281E-12  1.52634311850431E+00
 cg2d: Sum(rhs),rhsMax =  -3.79929421256975E-12  1.48219185702901E+00
 cg2d: Sum(rhs),rhsMax =  -4.00979249803868E-12  1.43700773363820E+00
 cg2d: Sum(rhs),rhsMax =  -4.15889545024584E-12  1.39101252381266E+00
 cg2d: Sum(rhs),rhsMax =  -4.36078950727392E-12  1.34442156083359E+00
 cg2d: Sum(rhs),rhsMax =  -4.54863924304050E-12  1.29744239696030E+00
 cg2d: Sum(rhs),rhsMax =  -4.76885197997490E-12  1.25027361926429E+00
 cg2d: Sum(rhs),rhsMax =  -5.02653474399040E-12  1.20310382696138E+00
 cg2d: Sum(rhs),rhsMax =  -5.25662846584396E-12  1.15611077158974E+00
 cg2d: Sum(rhs),rhsMax =  -5.52513590434955E-12  1.10946065573866E+00
 cg2d: Sum(rhs),rhsMax =  -5.80979708786344E-12  1.06330759162154E+00
 cg2d: Sum(rhs),rhsMax =  -6.09462480483103E-12  1.01779321732674E+00
 cg2d: Sum(rhs),rhsMax =  -6.43096687014122E-12  9.73046461364614E-01
 cg2d: Sum(rhs),rhsMax =  -6.74960087820864E-12  9.29183442571462E-01
 cg2d: Sum(rhs),rhsMax =  -7.09576841728676E-12  8.86307491532622E-01
 cg2d: Sum(rhs),rhsMax =  -7.51465556447783E-12  8.44509298561082E-01
 cg2d: Sum(rhs),rhsMax =  -8.02236055363892E-12  8.03867162815081E-01
 cg2d: Sum(rhs),rhsMax =  -8.57602877601948E-12  7.64447332162450E-01
 cg2d: Sum(rhs),rhsMax =  -9.13136233293699E-12  7.26304415553734E-01
 cg2d: Sum(rhs),rhsMax =  -9.61208890259968E-12  6.89481862115881E-01
 cg2d: Sum(rhs),rhsMax =  -1.00988106765953E-11  6.54012494801212E-01
 cg2d: Sum(rhs),rhsMax =  -1.05827568930295E-11  6.22894016181546E-01
 cg2d: Sum(rhs),rhsMax =  -1.08005826504609E-11  6.08428753618251E-01
 cg2d: Sum(rhs),rhsMax =  -1.11000098002023E-11  5.94637333853759E-01
 cg2d: Sum(rhs),rhsMax =  -1.12944098518142E-11  5.81098020792515E-01
 cg2d: Sum(rhs),rhsMax =  -1.15244480625165E-11  5.67648287706026E-01
 cg2d: Sum(rhs),rhsMax =  -1.17599818771907E-11  5.54335056829517E-01
 cg2d: Sum(rhs),rhsMax =  -1.20108922807560E-11  5.41194316059054E-01
 cg2d: Sum(rhs),rhsMax =  -1.22608589947504E-11  5.27775033453022E-01
 cg2d: Sum(rhs),rhsMax =  -1.25822130492281E-11  5.14384040903107E-01
 cg2d: Sum(rhs),rhsMax =  -1.29405930415771E-11  5.00734094772824E-01
 cg2d: Sum(rhs),rhsMax =  -1.32129862606689E-11  4.86804589704500E-01
 cg2d: Sum(rhs),rhsMax =  -1.36470834632973E-11  4.72665494268479E-01
 cg2d: Sum(rhs),rhsMax =  -1.40369937895457E-11  4.58120033355527E-01
 cg2d: Sum(rhs),rhsMax =  -1.43866030200002E-11  4.43290053813505E-01
 cg2d: Sum(rhs),rhsMax =  -1.48751566619865E-11  4.28069531429190E-01
 cg2d: Sum(rhs),rhsMax =  -1.53809742720057E-11  4.12396036484622E-01
 cg2d: Sum(rhs),rhsMax =  -1.59495749940675E-11  3.96457803224496E-01
 cg2d: Sum(rhs),rhsMax =  -1.66159308534475E-11  3.79951579958176E-01
 cg2d: Sum(rhs),rhsMax =  -1.72774572426704E-11  3.63157464598139E-01
 cg2d: Sum(rhs),rhsMax =  -1.81138437582717E-11  3.45945902805770E-01
 cg2d: Sum(rhs),rhsMax =  -1.89816495854700E-11  3.28248034531628E-01
 cg2d: Sum(rhs),rhsMax =  -2.00044425469059E-11  3.10241458451630E-01
 cg2d: Sum(rhs),rhsMax =  -2.11848316666874E-11  2.91910472559752E-01
 cg2d: Sum(rhs),rhsMax =  -2.25368612660759E-11  2.73193256386346E-01
 cg2d: Sum(rhs),rhsMax =  -2.41058284444762E-11  2.54140910977523E-01
 cg2d: Sum(rhs),rhsMax =  -2.59378074574101E-11  2.34923250550580E-01
 cg2d: Sum(rhs),rhsMax =  -2.82223133751813E-11  2.15468346830213E-01
 cg2d: Sum(rhs),rhsMax =  -3.10449443929883E-11  1.95804313573437E-01
 cg2d: Sum(rhs),rhsMax =  -3.44884121261657E-11  1.76034266996967E-01
 cg2d: Sum(rhs),rhsMax =  -3.87979648408532E-11  1.56228481181162E-01
 cg2d: Sum(rhs),rhsMax =  -4.09859923777844E-11  1.47626060280036E-01
 cg2d: Sum(rhs),rhsMax =  -4.08459932543792E-11  1.47920041377801E-01
 cg2d: Sum(rhs),rhsMax =  -4.05901978695056E-11  1.48502951803276E-01
 cg2d: Sum(rhs),rhsMax =  -4.02995414816587E-11  1.49337723091366E-01
 cg2d: Sum(rhs),rhsMax =  -3.99409394447048E-11  1.50398168430813E-01
 cg2d: Sum(rhs),rhsMax =  -3.95514732076663E-11  1.51655764515537E-01
 cg2d: Sum(rhs),rhsMax =  -3.91295884583087E-11  1.53079587324421E-01
 cg2d: Sum(rhs),rhsMax =  -3.86295440080175E-11  1.54636252440172E-01
 cg2d: Sum(rhs),rhsMax =  -3.81720210995695E-11  1.56289857779758E-01
 cg2d: Sum(rhs),rhsMax =  -3.77156084141461E-11  1.58001927665973E-01
 cg2d: Sum(rhs),rhsMax =  -3.72368802459278E-11  1.59731360336327E-01
 cg2d: Sum(rhs),rhsMax =  -3.67923469468678E-11  1.61434383345088E-01
 cg2d: Sum(rhs),rhsMax =  -3.63713503759300E-11  1.63064522955941E-01
 cg2d: Sum(rhs),rhsMax =  -3.59738905331142E-11  1.64572596083922E-01
 cg2d: Sum(rhs),rhsMax =  -3.56183971206292E-11  1.65906731660657E-01
 cg2d: Sum(rhs),rhsMax =  -3.53470586134108E-11  1.67012429839576E-01
 cg2d: Sum(rhs),rhsMax =  -3.50839357565746E-11  1.67832664363435E-01
 cg2d: Sum(rhs),rhsMax =  -3.45178330363183E-11  1.70357629407459E-01
 cg2d: Sum(rhs),rhsMax =  -3.18094439677452E-11  1.84654746154752E-01
 cg2d: Sum(rhs),rhsMax =  -2.95256041837888E-11  1.98536039318454E-01
 cg2d: Sum(rhs),rhsMax =  -2.75343081668211E-11  2.11856257057887E-01
 cg2d: Sum(rhs),rhsMax =  -2.58414400988727E-11  2.24713993635439E-01
 cg2d: Sum(rhs),rhsMax =  -2.43860487358916E-11  2.37227409361900E-01
 cg2d: Sum(rhs),rhsMax =  -2.31505925540887E-11  2.49167937721368E-01
 cg2d: Sum(rhs),rhsMax =  -2.20168328013415E-11  2.60901969425893E-01
 cg2d: Sum(rhs),rhsMax =  -2.10256256849561E-11  2.72134885605747E-01
 cg2d: Sum(rhs),rhsMax =  -2.01304528602009E-11  2.83177995943475E-01
 cg2d: Sum(rhs),rhsMax =  -1.93750571142459E-11  2.93809088169366E-01
(PID.TID 0000.0001)      cg2d_init_res =   3.71445079254998E-01
(PID.TID 0000.0001)      cg2d_iters(min,last) =      -1      37
(PID.TID 0000.0001)      cg2d_last_res =   8.61005079504071E-14
(PID.TID 0000.0001) // =======================================================
(PID.TID 0000.0001) // Begin MONITOR dynamic field statistics
(PID.TID 0000.0001) // =======================================================
(PID.TID 0000.0001) %MON time_tsnumber                =                   480
(PID.TID 0000.0001) %MON time_secondsf                =   7.2000000000000E+03
(PID.TID 0000.0001) %MON dynstat_eta_max              =   1.1612032239818E-01
(PID.TID 0000.0001) %MON dynstat_eta_min              =  -7.8502963489162E-02
(PID.TID 0000.0001) %MON dynstat_eta_mean             =   1.1796766979306E-14
(PID.TID 0000.0001) %MON dynstat_eta_sd               =   6.1082421127821E-02
(PID.TID 0000.0001) %MON dynstat_eta_del2             =   4.8426980231647E-05
(PID.TID 0000.0001) %MON dynstat_uvel_max             =   1.6562264800109E+00
(PID.TID 0000.0001) %MON dynstat_uvel_min             =  -3.2044170401261E-01
(PID.TID 0000.0001) %MON dynstat_uvel_mean            =   5.9821055623089E-01
(PID.TID 0000.0001) %MON dynstat_uvel_sd              =   1.0804180572723E-01
(PID.TID 0000.0001) %MON dynstat_uvel_del2            =   8.0170285974364E-04
(PID.TID 0000.0001) %MON dynstat_vvel_max             =   0.0000000000000E+00
(PID.TID 0000.0001) %MON dynstat_vvel_min             =   0.0000000000000E+00
(PID.TID 0000.0001) %MON dynstat_vvel_mean            =   0.0000000000000E+00
(PID.TID 0000.0001) %MON dynstat_vvel_sd              =   0.0000000000000E+00
(PID.TID 0000.0001) %MON dynstat_vvel_del2            =   0.0000000000000E+00
(PID.TID 0000.0001) %MON dynstat_wvel_max             =   3.5092650645404E-02
(PID.TID 0000.0001) %MON dynstat_wvel_min             =  -4.7048049696088E-02
(PID.TID 0000.0001) %MON dynstat_wvel_mean            =   1.3920351890516E-20
(PID.TID 0000.0001) %MON dynstat_wvel_sd              =   4.2675453152414E-03
(PID.TID 0000.0001) %MON dynstat_wvel_del2            =   9.1875971919554E-05
(PID.TID 0000.0001) %MON dynstat_theta_max            =   1.5000000000002E+01
(PID.TID 0000.0001) %MON dynstat_theta_min            =   9.9999999999990E+00
(PID.TID 0000.0001) %MON dynstat_theta_mean           =   1.2567187664867E+01
(PID.TID 0000.0001) %MON dynstat_theta_sd             =   2.4724256986521E+00
(PID.TID 0000.0001) %MON dynstat_theta_del2           =   1.5954582635389E-03
(PID.TID 0000.0001) %MON dynstat_salt_max             =   3.5000000000000E+01
(PID.TID 0000.0001) %MON dynstat_salt_min             =   3.5000000000000E+01
(PID.TID 0000.0001) %MON dynstat_salt_mean            =   3.5000000000000E+01
(PID.TID 0000.0001) %MON dynstat_salt_sd              =   3.9790393202566E-13
(PID.TID 0000.0001) %MON dynstat_salt_del2            =   0.0000000000000E+00
(PID.TID 0000.0001) %MON dynstat_sst_max              =   1.5000000000000E+01
(PID.TID 0000.0001) %MON dynstat_sst_min              =   1.5000000000000E+01
(PID.TID 0000.0001) %MON dynstat_sst_mean             =   1.5000000000000E+01
(PID.TID 0000.0001) %MON dynstat_sst_sd               =   5.8955302837050E-14
(PID.TID 0000.0001) %MON dynstat_sst_del2             =   2.0023132069799E-15
(PID.TID 0000.0001) %MON dynstat_sss_max              =   3.5000000000000E+01
(PID.TID 0000.0001) %MON dynstat_sss_min              =   3.5000000000000E+01
(PID.TID 0000.0001) %MON dynstat_sss_mean             =   3.5000000000000E+01
(PID.TID 0000.0001) %MON dynstat_sss_sd               =   5.6843418860808E-14
(PID.TID 0000.0001) %MON dynstat_sss_del2             =   0.0000000000000E+00
(PID.TID 0000.0001) %MON forcing_qnet_max             =   0.0000000000000E+00
(PID.TID 0000.0001) %MON forcing_qnet_min             =   0.0000000000000E+00
(PID.TID 0000.0001) %MON forcing_qnet_mean            =   0.0000000000000E+00
(PID.TID 0000.0001) %MON forcing_qnet_sd              =   0.0000000000000E+00
(PID.TID 0000.0001) %MON forcing_qnet_del2            =   0.0000000000000E+00
(PID.TID 0000.0001) %MON forcing_qsw_max              =   0.0000000000000E+00
(PID.TID 0000.0001) %MON forcing_qsw_min              =   0.0000000000000E+00
(PID.TID 0000.0001) %MON forcing_qsw_mean             =   0.0000000000000E+00
(PID.TID 0000.0001) %MON forcing_qsw_sd               =   0.0000000000000E+00
(PID.TID 0000.0001) %MON forcing_qsw_del2             =   0.0000000000000E+00
(PID.TID 0000.0001) %MON forcing_empmr_max            =   0.0000000000000E+00
(PID.TID 0000.0001) %MON forcing_empmr_min            =   0.0000000000000E+00
(PID.TID 0000.0001) %MON forcing_empmr_mean           =   0.0000000000000E+00
(PID.TID 0000.0001) %MON forcing_empmr_sd             =   0.0000000000000E+00
(PID.TID 0000.0001) %MON forcing_empmr_del2           =   0.0000000000000E+00
(PID.TID 0000.0001) %MON forcing_fu_max               =   0.0000000000000E+00
(PID.TID 0000.0001) %MON forcing_fu_min               =   0.0000000000000E+00
(PID.TID 0000.0001) %MON forcing_fu_mean              =   0.0000000000000E+00
(PID.TID 0000.0001) %MON forcing_fu_sd                =   0.0000000000000E+00
(PID.TID 0000.0001) %MON forcing_fu_del2              =   0.0000000000000E+00
(PID.TID 0000.0001) %MON forcing_fv_max               =   0.0000000000000E+00
(PID.TID 0000.0001) %MON forcing_fv_min               =   0.0000000000000E+00
(PID.TID 0000.0001) %MON forcing_fv_mean              =   0.0000000000000E+00
(PID.TID 0000.0001) %MON forcing_fv_sd                =   0.0000000000000E+00
(PID.TID 0000.0001) %MON forcing_fv_del2              =   0.0000000000000E+00
(PID.TID 0000.0001) %MON advcfl_uvel_max              =   1.2421698600082E-01
(PID.TID 0000.0001) %MON advcfl_vvel_max              =   0.0000000000000E+00
(PID.TID 0000.0001) %MON advcfl_wvel_max              =   6.3846161168489E-01
(PID.TID 0000.0001) %MON advcfl_W_hf_max              =   6.3846161168489E-01
(PID.TID 0000.0001) %MON pe_b_mean                    =   9.3965724687878E-05
(PID.TID 0000.0001) %MON ke_max                       =   1.2322956796643E+00
(PID.TID 0000.0001) %MON ke_mean                      =   1.8491782308564E-01
(PID.TID 0000.0001) %MON ke_vol                       =   9.5121673331316E+10
(PID.TID 0000.0001) %MON vort_r_min                   =   0.0000000000000E+00
(PID.TID 0000.0001) %MON vort_r_max                   =   0.0000000000000E+00
(PID.TID 0000.0001) %MON vort_a_mean                  =   0.0000000000000E+00
(PID.TID 0000.0001) %MON vort_a_sd                    =   0.0000000000000E+00
(PID.TID 0000.0001) %MON vort_p_mean                  =   0.0000000000000E+00
(PID.TID 0000.0001) %MON vort_p_sd                    =   0.0000000000000E+00
(PID.TID 0000.0001) %MON surfExpan_theta_mean         =  -4.1843287103441E-18
(PID.TID 0000.0001) %MON surfExpan_salt_mean          =  -2.5139491584177E-18
(PID.TID 0000.0001) // =======================================================
(PID.TID 0000.0001) // End MONITOR dynamic field statistics
(PID.TID 0000.0001) // =======================================================
(PID.TID 0000.0001) // =======================================================
(PID.TID 0000.0001) // Begin OBCS MONITOR field statistics
(PID.TID 0000.0001) // =======================================================
(PID.TID 0000.0001) %MON obc_E_uVel_max               =   5.6028564143658E-01
(PID.TID 0000.0001) %MON obc_E_uVel_min               =   5.6028564143658E-01
(PID.TID 0000.0001) %MON obc_E_uVel_mean              =   5.6028564143658E-01
(PID.TID 0000.0001) %MON obc_E_uVel_sd                =   7.4505805969238E-09
(PID.TID 0000.0001) %MON obc_E_uVel_Int               =   5.6028564143658E+05
(PID.TID 0000.0001) %MON obc_W_uVel_max               =   5.6028564143658E-01
(PID.TID 0000.0001) %MON obc_W_uVel_min               =   5.6028564143658E-01
(PID.TID 0000.0001) %MON obc_W_uVel_mean              =   5.6028564143658E-01
(PID.TID 0000.0001) %MON obc_W_uVel_sd                =   7.4505805969238E-09
(PID.TID 0000.0001) %MON obc_W_uVel_Int               =   5.6028564143658E+05
(PID.TID 0000.0001) // =======================================================
(PID.TID 0000.0001) // End OBCS MONITOR field statistics
(PID.TID 0000.0001) // =======================================================
 cg2d: Sum(rhs),rhsMax =  -1.86291537751515E-11  3.04405196887552E-01
 cg2d: Sum(rhs),rhsMax =  -1.80773174207616E-11  3.14680196119424E-01
 cg2d: Sum(rhs),rhsMax =  -1.75767178589581E-11  3.24981378505338E-01
 cg2d: Sum(rhs),rhsMax =  -1.71370140300553E-11  3.35290264127570E-01
 cg2d: Sum(rhs),rhsMax =  -1.67770797254718E-11  3.45619043025095E-01
 cg2d: Sum(rhs),rhsMax =  -1.63167535038866E-11  3.56121039026692E-01
 cg2d: Sum(rhs),rhsMax =  -1.58418000939520E-11  3.67018227520973E-01
 cg2d: Sum(rhs),rhsMax =  -1.54048024336717E-11  3.78458469309861E-01
 cg2d: Sum(rhs),rhsMax =  -1.49214668399011E-11  3.90693702275525E-01
 cg2d: Sum(rhs),rhsMax =  -1.44071074514862E-11  4.04053871868885E-01
 cg2d: Sum(rhs),rhsMax =  -1.39184636038792E-11  4.18847400131508E-01
 cg2d: Sum(rhs),rhsMax =  -1.33527910950448E-11  4.36212400464700E-01
 cg2d: Sum(rhs),rhsMax =  -1.28340393867887E-11  4.54565238348262E-01
 cg2d: Sum(rhs),rhsMax =  -1.22858112572288E-11  4.74376230813400E-01
 cg2d: Sum(rhs),rhsMax =  -1.17843790281569E-11  4.95826141863800E-01
 cg2d: Sum(rhs),rhsMax =  -1.12896358928083E-11  5.19313514213292E-01
 cg2d: Sum(rhs),rhsMax =  -1.07773234780950E-11  5.45697531302328E-01
 cg2d: Sum(rhs),rhsMax =  -1.02642894184157E-11  5.74481739183811E-01
 cg2d: Sum(rhs),rhsMax =  -9.82358638879077E-12  6.03483295001945E-01
 cg2d: Sum(rhs),rhsMax =  -9.41635658335827E-12  6.32619943069412E-01
 cg2d: Sum(rhs),rhsMax =  -9.06502650721563E-12  6.61805979576959E-01
 cg2d: Sum(rhs),rhsMax =  -8.72502070592418E-12  6.90952772769338E-01
 cg2d: Sum(rhs),rhsMax =  -8.44790903897774E-12  7.19969328066465E-01
 cg2d: Sum(rhs),rhsMax =  -8.17901302241353E-12  7.48762893291220E-01
 cg2d: Sum(rhs),rhsMax =  -7.90412180151634E-12  7.77239597854951E-01
 cg2d: Sum(rhs),rhsMax =  -7.68696217789966E-12  8.05305118410942E-01
 cg2d: Sum(rhs),rhsMax =  -7.51199102921873E-12  8.32865362615857E-01
 cg2d: Sum(rhs),rhsMax =  -7.32458538266201E-12  8.59827161378818E-01
 cg2d: Sum(rhs),rhsMax =  -7.18003434485581E-12  8.86098959675094E-01
 cg2d: Sum(rhs),rhsMax =  -7.02549129982799E-12  9.11591495897457E-01
 cg2d: Sum(rhs),rhsMax =  -6.88393786418828E-12  9.36218460048034E-01
 cg2d: Sum(rhs),rhsMax =  -6.77424782935532E-12  9.59897121748171E-01
 cg2d: Sum(rhs),rhsMax =  -6.65423272039334E-12  9.82548919853983E-01
 cg2d: Sum(rhs),rhsMax =  -6.58129106767547E-12  1.00410000674081E+00
 cg2d: Sum(rhs),rhsMax =  -6.50601794660588E-12  1.02448174163887E+00
 cg2d: Sum(rhs),rhsMax =  -6.40465458445760E-12  1.04363112884609E+00
 cg2d: Sum(rhs),rhsMax =  -6.34381436270814E-12  1.06149119783978E+00
 cg2d: Sum(rhs),rhsMax =  -6.26132479197850E-12  1.07801132358248E+00
 cg2d: Sum(rhs),rhsMax =  -6.30884233743245E-12  1.09314748634171E+00
 cg2d: Sum(rhs),rhsMax =  -6.31639185399990E-12  1.10686247116774E+00
 cg2d: Sum(rhs),rhsMax =  -6.32527363819690E-12  1.11912600776055E+00
 cg2d: Sum(rhs),rhsMax =  -6.34903241092388E-12  1.12991485184517E+00
 cg2d: Sum(rhs),rhsMax =  -6.38111785633555E-12  1.13921280938357E+00
 cg2d: Sum(rhs),rhsMax =  -6.37023767069422E-12  1.15321993060919E+00
 cg2d: Sum(rhs),rhsMax =  -6.26398932723760E-12  1.17955845771402E+00
 cg2d: Sum(rhs),rhsMax =  -6.18227691262518E-12  1.20399936298655E+00
 cg2d: Sum(rhs),rhsMax =  -6.12798700672101E-12  1.22646084540002E+00
 cg2d: Sum(rhs),rhsMax =  -6.03184169278848E-12  1.24687055880019E+00
 cg2d: Sum(rhs),rhsMax =  -6.02462524312841E-12  1.26516599874807E+00
 cg2d: Sum(rhs),rhsMax =  -6.02828897910967E-12  1.28129481229835E+00
 cg2d: Sum(rhs),rhsMax =  -6.01196870064769E-12  1.29521502798843E+00
 cg2d: Sum(rhs),rhsMax =  -5.97821792069908E-12  1.30689520461154E+00
 cg2d: Sum(rhs),rhsMax =  -5.91593440901761E-12  1.31631450072769E+00
 cg2d: Sum(rhs),rhsMax =  -5.87552229092125E-12  1.32346265872564E+00
 cg2d: Sum(rhs),rhsMax =  -5.84166048867019E-12  1.32833990556194E+00
 cg2d: Sum(rhs),rhsMax =  -5.83633141815199E-12  1.33095677699453E+00
 cg2d: Sum(rhs),rhsMax =  -5.80335779432062E-12  1.33133387004853E+00
 cg2d: Sum(rhs),rhsMax =  -5.85120840668196E-12  1.32950152726427E+00
 cg2d: Sum(rhs),rhsMax =  -5.93969318174459E-12  1.32549945716510E+00
 cg2d: Sum(rhs),rhsMax =  -6.05804295616963E-12  1.31937629623026E+00
 cg2d: Sum(rhs),rhsMax =  -6.19915230259949E-12  1.31118911804035E+00
 cg2d: Sum(rhs),rhsMax =  -6.34670094257217E-12  1.30100289589778E+00
 cg2d: Sum(rhs),rhsMax =  -6.44950759465246E-12  1.28888992377978E+00
 cg2d: Sum(rhs),rhsMax =  -6.52444764881466E-12  1.27492919668709E+00
 cg2d: Sum(rhs),rhsMax =  -6.61193322315512E-12  1.25920576618029E+00
 cg2d: Sum(rhs),rhsMax =  -6.65945076860908E-12  1.24181007577260E+00
 cg2d: Sum(rhs),rhsMax =  -6.77580214158979E-12  1.22283727427681E+00
 cg2d: Sum(rhs),rhsMax =  -6.81932288415510E-12  1.20238651693758E+00
 cg2d: Sum(rhs),rhsMax =  -6.86939394256569E-12  1.18056026141248E+00
 cg2d: Sum(rhs),rhsMax =  -6.92179646932800E-12  1.15746355452569E+00
 cg2d: Sum(rhs),rhsMax =  -7.05424607616578E-12  1.13320332225251E+00
 cg2d: Sum(rhs),rhsMax =  -7.13218373249447E-12  1.10788767623719E+00
 cg2d: Sum(rhs),rhsMax =  -7.25930426881405E-12  1.08162524847696E+00
 cg2d: Sum(rhs),rhsMax =  -7.40774108720643E-12  1.05452455713013E+00
 cg2d: Sum(rhs),rhsMax =  -7.53586082424818E-12  1.02669340318530E+00
 cg2d: Sum(rhs),rhsMax =  -7.69573293979420E-12  9.98238295520524E-01
 cg2d: Sum(rhs),rhsMax =  -7.82507392216303E-12  9.69263908794888E-01
 cg2d: Sum(rhs),rhsMax =  -8.03290767237286E-12  9.39872578631108E-01
 cg2d: Sum(rhs),rhsMax =  -8.20665757572669E-12  9.10163834817630E-01
 cg2d: Sum(rhs),rhsMax =  -8.47877323906232E-12  8.80233973933453E-01
 cg2d: Sum(rhs),rhsMax =  -8.69859739793810E-12  8.50175671959035E-01
 cg2d: Sum(rhs),rhsMax =  -9.00080010524107E-12  8.20077637168833E-01
 cg2d: Sum(rhs),rhsMax =  -9.27102838943483E-12  7.90024303912619E-01
 cg2d: Sum(rhs),rhsMax =  -9.58899626368748E-12  7.60095567208157E-01
 cg2d: Sum(rhs),rhsMax =  -9.89108794868798E-12  7.30366560799868E-01
 cg2d: Sum(rhs),rhsMax =  -1.03029806908239E-11  7.00907481256376E-01
 cg2d: Sum(rhs),rhsMax =  -1.07013287120594E-11  6.71783462025092E-01
 cg2d: Sum(rhs),rhsMax =  -1.10648157303217E-11  6.43054489692224E-01
 cg2d: Sum(rhs),rhsMax =  -1.14948051077590E-11  6.14775364207604E-01
 cg2d: Sum(rhs),rhsMax =  -1.20675691661631E-11  5.86995701683719E-01
 cg2d: Sum(rhs),rhsMax =  -1.25406351969559E-11  5.59759979918107E-01
 cg2d: Sum(rhs),rhsMax =  -1.31111788093108E-11  5.33107624486644E-01
 cg2d: Sum(rhs),rhsMax =  -1.37453382009767E-11  5.07073112973924E-01
 cg2d: Sum(rhs),rhsMax =  -1.43909328897962E-11  4.81686112146353E-01
 cg2d: Sum(rhs),rhsMax =  -1.49255052761532E-11  4.61762170873595E-01
 cg2d: Sum(rhs),rhsMax =  -1.54914969741071E-11  4.45970569287002E-01
 cg2d: Sum(rhs),rhsMax =  -1.60115254388415E-11  4.30522082938972E-01
 cg2d: Sum(rhs),rhsMax =  -1.65789604267275E-11  4.15428444863790E-01
 cg2d: Sum(rhs),rhsMax =  -1.71802572168644E-11  4.00700976559312E-01
 cg2d: Sum(rhs),rhsMax =  -1.78334014222514E-11  3.86350549812351E-01
 cg2d: Sum(rhs),rhsMax =  -1.84826598470522E-11  3.72387536006199E-01
 cg2d: Sum(rhs),rhsMax =  -1.91240356883782E-11  3.58821741161990E-01
 cg2d: Sum(rhs),rhsMax =  -1.98339122903235E-11  3.45662330660436E-01
 cg2d: Sum(rhs),rhsMax =  -2.05397920893802E-11  3.32917744601428E-01
 cg2d: Sum(rhs),rhsMax =  -2.11840545105701E-11  3.20595605611101E-01
 cg2d: Sum(rhs),rhsMax =  -2.20151674668045E-11  3.08702622630061E-01
 cg2d: Sum(rhs),rhsMax =  -2.28217444941947E-11  2.97244491934774E-01
 cg2d: Sum(rhs),rhsMax =  -2.35793606861989E-11  2.86972603432091E-01
 cg2d: Sum(rhs),rhsMax =  -2.41856534799467E-11  2.79508169397827E-01
 cg2d: Sum(rhs),rhsMax =  -2.48607801012213E-11  2.71895140156662E-01
 cg2d: Sum(rhs),rhsMax =  -2.55298004958604E-11  2.64123322903753E-01
 cg2d: Sum(rhs),rhsMax =  -2.63099542152645E-11  2.56181918785157E-01
 cg2d: Sum(rhs),rhsMax =  -2.69544386810594E-11  2.48078186809215E-01
 cg2d: Sum(rhs),rhsMax =  -2.80471201818955E-11  2.39933447050185E-01
 cg2d: Sum(rhs),rhsMax =  -2.90663049185014E-11  2.31613168966356E-01
 cg2d: Sum(rhs),rhsMax =  -3.01518254808286E-11  2.23242088726544E-01
 cg2d: Sum(rhs),rhsMax =  -3.13226666825983E-11  2.14786865943460E-01
 cg2d: Sum(rhs),rhsMax =  -3.26111360138270E-11  2.06352514860094E-01
 cg2d: Sum(rhs),rhsMax =  -3.38246652908936E-11  1.97892851400245E-01
 cg2d: Sum(rhs),rhsMax =  -3.51735307546619E-11  1.89514272662130E-01
 cg2d: Sum(rhs),rhsMax =  -3.63527541402675E-11  1.82494224315713E-01
 cg2d: Sum(rhs),rhsMax =  -3.74222042243133E-11  1.77287008594106E-01
 cg2d: Sum(rhs),rhsMax =  -3.84625109539627E-11  1.72401066476187E-01
 cg2d: Sum(rhs),rhsMax =  -3.95493637839195E-11  1.67813598795989E-01
 cg2d: Sum(rhs),rhsMax =  -4.06238792605151E-11  1.63499760570182E-01
 cg2d: Sum(rhs),rhsMax =  -4.17342965741696E-11  1.59432656363141E-01
 cg2d: Sum(rhs),rhsMax =  -4.28404707542018E-11  1.55583345547166E-01
 cg2d: Sum(rhs),rhsMax =  -4.39603214941187E-11  1.51920857560725E-01
 cg2d: Sum(rhs),rhsMax =  -4.50721820977051E-11  1.48412217258391E-01
 cg2d: Sum(rhs),rhsMax =  -4.62213878282824E-11  1.45022481159894E-01
 cg2d: Sum(rhs),rhsMax =  -4.74218719848096E-11  1.41714785381789E-01
 cg2d: Sum(rhs),rhsMax =  -4.86402862431845E-11  1.38450405813839E-01
 cg2d: Sum(rhs),rhsMax =  -4.99287833299888E-11  1.35188830872614E-01
 cg2d: Sum(rhs),rhsMax =  -5.13080689046319E-11  1.31887847160905E-01
 cg2d: Sum(rhs),rhsMax =  -5.28130317256625E-11  1.28503638493263E-01
 cg2d: Sum(rhs),rhsMax =  -5.44071454555706E-11  1.24990899011730E-01
 cg2d: Sum(rhs),rhsMax =  -5.60959056983279E-11  1.21590248265255E-01
 cg2d: Sum(rhs),rhsMax =  -5.17140774647373E-11  1.32136383481115E-01
 cg2d: Sum(rhs),rhsMax =  -4.78946882154219E-11  1.42878377830843E-01
 cg2d: Sum(rhs),rhsMax =  -4.46149783783767E-11  1.53850046388451E-01
 cg2d: Sum(rhs),rhsMax =  -4.17555989784546E-11  1.64962999531452E-01
 cg2d: Sum(rhs),rhsMax =  -3.91863208548671E-11  1.76169626085692E-01
 cg2d: Sum(rhs),rhsMax =  -3.69350106055322E-11  1.87437091755272E-01
 cg2d: Sum(rhs),rhsMax =  -3.49400508525832E-11  1.98730488198924E-01
 cg2d: Sum(rhs),rhsMax =  -3.31769056671760E-11  2.10012828425815E-01
 cg2d: Sum(rhs),rhsMax =  -3.15651949023277E-11  2.21245134465867E-01
 cg2d: Sum(rhs),rhsMax =  -3.01348945797031E-11  2.32460970369394E-01
 cg2d: Sum(rhs),rhsMax =  -2.88331580833301E-11  2.43615010981354E-01
 cg2d: Sum(rhs),rhsMax =  -2.76061395965144E-11  2.54632502214372E-01
 cg2d: Sum(rhs),rhsMax =  -2.66188182607152E-11  2.65472698765924E-01
 cg2d: Sum(rhs),rhsMax =  -2.56230592299289E-11  2.76226015693356E-01
 cg2d: Sum(rhs),rhsMax =  -2.47348808102288E-11  2.86848795834179E-01
 cg2d: Sum(rhs),rhsMax =  -2.39118724820742E-11  2.97222272514728E-01
 cg2d: Sum(rhs),rhsMax =  -2.31046293208692E-11  3.07453201549836E-01
 cg2d: Sum(rhs),rhsMax =  -2.24338325693907E-11  3.17560172508733E-01
 cg2d: Sum(rhs),rhsMax =  -2.17017515069529E-11  3.27381366750199E-01
 cg2d: Sum(rhs),rhsMax =  -2.10843564829588E-11  3.37104605513206E-01
 cg2d: Sum(rhs),rhsMax =  -2.05090389115981E-11  3.46689290692043E-01
 cg2d: Sum(rhs),rhsMax =  -1.99678051870933E-11  3.56015226199388E-01
 cg2d: Sum(rhs),rhsMax =  -1.94447791201924E-11  3.65333087595219E-01
 cg2d: Sum(rhs),rhsMax =  -1.90123472521009E-11  3.74573820017506E-01
 cg2d: Sum(rhs),rhsMax =  -1.85573778566095E-11  3.83680457378596E-01
 cg2d: Sum(rhs),rhsMax =  -1.78057568689383E-11  3.99927864967305E-01
 cg2d: Sum(rhs),rhsMax =  -1.70103930940968E-11  4.18351799492247E-01
 cg2d: Sum(rhs),rhsMax =  -1.62962976446579E-11  4.37092871675781E-01
 cg2d: Sum(rhs),rhsMax =  -1.56799018213860E-11  4.56119407582650E-01
 cg2d: Sum(rhs),rhsMax =  -1.50861545478165E-11  4.75397170760572E-01
 cg2d: Sum(rhs),rhsMax =  -1.45852219191056E-11  4.94889460993574E-01
 cg2d: Sum(rhs),rhsMax =  -1.40185640873369E-11  5.14557238575162E-01
 cg2d: Sum(rhs),rhsMax =  -1.35804700818198E-11  5.34359277611716E-01
 cg2d: Sum(rhs),rhsMax =  -1.31370470057846E-11  5.54252349214511E-01
 cg2d: Sum(rhs),rhsMax =  -1.26982868664527E-11  5.74191433513230E-01
 cg2d: Sum(rhs),rhsMax =  -1.23825394382493E-11  5.94129957593650E-01
 cg2d: Sum(rhs),rhsMax =  -1.20019549854078E-11  6.14020054979514E-01
 cg2d: Sum(rhs),rhsMax =  -1.16908704939078E-11  6.33812841219733E-01
 cg2d: Sum(rhs),rhsMax =  -1.14021014852028E-11  6.53458699645227E-01
 cg2d: Sum(rhs),rhsMax =  -1.11191056362259E-11  6.72907571689068E-01
 cg2d: Sum(rhs),rhsMax =  -1.08699715895000E-11  6.92109246590285E-01
 cg2d: Sum(rhs),rhsMax =  -1.05977449038619E-11  7.11013646240107E-01
 cg2d: Sum(rhs),rhsMax =  -1.04859454452821E-11  7.32706155284965E-01
 cg2d: Sum(rhs),rhsMax =  -1.01187946910386E-11  7.69150033775028E-01
 cg2d: Sum(rhs),rhsMax =  -9.77651293254667E-12  8.05583963871160E-01
 cg2d: Sum(rhs),rhsMax =  -9.50506340302582E-12  8.41909987609269E-01
 cg2d: Sum(rhs),rhsMax =  -9.18254361437221E-12  8.78028785468317E-01
 cg2d: Sum(rhs),rhsMax =  -8.94884166768861E-12  9.13840162971574E-01
 cg2d: Sum(rhs),rhsMax =  -8.73145999946701E-12  9.49243542266306E-01
 cg2d: Sum(rhs),rhsMax =  -8.51607673268973E-12  9.84138455000890E-01
 cg2d: Sum(rhs),rhsMax =  -8.29325497164746E-12  1.01842503527960E+00
 cg2d: Sum(rhs),rhsMax =  -8.13737965899008E-12  1.05200451055138E+00
 cg2d: Sum(rhs),rhsMax =  -7.97195642832094E-12  1.08477968567222E+00
 cg2d: Sum(rhs),rhsMax =  -7.82374165453348E-12  1.11665542248052E+00
 cg2d: Sum(rhs),rhsMax =  -7.67974572823960E-12  1.14753910977232E+00
 cg2d: Sum(rhs),rhsMax =  -7.52431450479207E-12  1.17734112161299E+00
 cg2d: Sum(rhs),rhsMax =  -7.42761407934722E-12  1.20597526219330E+00
 cg2d: Sum(rhs),rhsMax =  -7.33801908125997E-12  1.23335919508093E+00
 cg2d: Sum(rhs),rhsMax =  -7.32980343087775E-12  1.25941485342823E+00
 cg2d: Sum(rhs),rhsMax =  -7.27229387820216E-12  1.28406882798358E+00
 cg2d: Sum(rhs),rhsMax =  -7.26141369256084E-12  1.30725272955330E+00
 cg2d: Sum(rhs),rhsMax =  -7.20745685356405E-12  1.32890352267717E+00
 cg2d: Sum(rhs),rhsMax =  -7.20390413988525E-12  1.34896382720826E+00
 cg2d: Sum(rhs),rhsMax =  -7.14894810016631E-12  1.36738218488884E+00
 cg2d: Sum(rhs),rhsMax =  -7.07311986758441E-12  1.38411328846356E+00
 cg2d: Sum(rhs),rhsMax =  -6.98752167238581E-12  1.39911817143033E+00
 cg2d: Sum(rhs),rhsMax =  -6.90514312395862E-12  1.41236435716401E+00
 cg2d: Sum(rhs),rhsMax =  -6.87272461163957E-12  1.42382596677743E+00
 cg2d: Sum(rhs),rhsMax =  -6.81599221508122E-12  1.43348378572267E+00
 cg2d: Sum(rhs),rhsMax =  -6.79545308912566E-12  1.44132528967734E+00
 cg2d: Sum(rhs),rhsMax =  -6.76481093364600E-12  1.44734463072578E+00
 cg2d: Sum(rhs),rhsMax =  -6.69375666006999E-12  1.45154258519257E+00
 cg2d: Sum(rhs),rhsMax =  -6.67621513628092E-12  1.45392646521250E+00
 cg2d: Sum(rhs),rhsMax =  -6.68631816580501E-12  1.45450999541993E+00
 cg2d: Sum(rhs),rhsMax =  -6.73328059974665E-12  1.45331315812390E+00
 cg2d: Sum(rhs),rhsMax =  -6.74316158466581E-12  1.45036199886303E+00
 cg2d: Sum(rhs),rhsMax =  -6.80233647187833E-12  1.44568840419530E+00
 cg2d: Sum(rhs),rhsMax =  -6.87794265985531E-12  1.43932985235617E+00
 cg2d: Sum(rhs),rhsMax =  -6.96254165433174E-12  1.43132913735873E+00
 cg2d: Sum(rhs),rhsMax =  -7.09077241367595E-12  1.42173406647100E+00
 cg2d: Sum(rhs),rhsMax =  -7.18214376860260E-12  1.41059713059837E+00
 cg2d: Sum(rhs),rhsMax =  -7.37265803962828E-12  1.39797514686729E+00
 cg2d: Sum(rhs),rhsMax =  -7.51265716303351E-12  1.38392888604774E+00
 cg2d: Sum(rhs),rhsMax =  -7.70106201031240E-12  1.36852268851276E+00
 cg2d: Sum(rhs),rhsMax =  -7.88713538923957E-12  1.35182405934837E+00
 cg2d: Sum(rhs),rhsMax =  -8.11561928770743E-12  1.33390324638123E+00
 cg2d: Sum(rhs),rhsMax =  -8.33688673651523E-12  1.31483281016014E+00
 cg2d: Sum(rhs),rhsMax =  -8.58191295805000E-12  1.29468718431676E+00
 cg2d: Sum(rhs),rhsMax =  -8.85935769190382E-12  1.27354223368203E+00
 cg2d: Sum(rhs),rhsMax =  -9.10971298395680E-12  1.25147481633465E+00
 cg2d: Sum(rhs),rhsMax =  -9.40558742001940E-12  1.22856235762672E+00
 cg2d: Sum(rhs),rhsMax =  -9.64017754512270E-12  1.20488243909319E+00
 cg2d: Sum(rhs),rhsMax =  -9.96769333738712E-12  1.18051240506669E+00
 cg2d: Sum(rhs),rhsMax =  -1.02351460640193E-11  1.15552898887548E+00
 cg2d: Sum(rhs),rhsMax =  -1.05337960576435E-11  1.13000796061360E+00
 cg2d: Sum(rhs),rhsMax =  -1.07927000669861E-11  1.10402379901866E+00
 cg2d: Sum(rhs),rhsMax =  -1.10973452649432E-11  1.07764938740231E+00
 cg2d: Sum(rhs),rhsMax =  -1.13618003894089E-11  1.05095573495808E+00
 cg2d: Sum(rhs),rhsMax =  -1.16475717959474E-11  1.02401172511206E+00
 cg2d: Sum(rhs),rhsMax =  -1.19202425707954E-11  9.96883891582852E-01
 cg2d: Sum(rhs),rhsMax =  -1.22700738458548E-11  9.69636220581863E-01
 cg2d: Sum(rhs),rhsMax =  -1.27198251931304E-11  9.42329976972238E-01
 cg2d: Sum(rhs),rhsMax =  -1.32446276168707E-11  9.15023553256201E-01
 cg2d: Sum(rhs),rhsMax =  -1.36199940214965E-11  8.87772338981986E-01
 cg2d: Sum(rhs),rhsMax =  -1.39719347203027E-11  8.60628615410825E-01
 cg2d: Sum(rhs),rhsMax =  -1.43314249356763E-11  8.33641469087735E-01
 cg2d: Sum(rhs),rhsMax =  -1.48610013184225E-11  8.06856724428749E-01
 cg2d: Sum(rhs),rhsMax =  -1.52645673878737E-11  7.80316897420658E-01
 cg2d: Sum(rhs),rhsMax =  -1.57192037164577E-11  7.54061164235881E-01
 cg2d: Sum(rhs),rhsMax =  -1.62044822005214E-11  7.28125347061137E-01
 cg2d: Sum(rhs),rhsMax =  -1.67278413343297E-11  7.02541918089345E-01
 cg2d: Sum(rhs),rhsMax =  -1.72619696314769E-11  6.77340020448181E-01
 cg2d: Sum(rhs),rhsMax =  -1.79388726095908E-11  6.52545505769250E-01
 cg2d: Sum(rhs),rhsMax =  -1.86199944351984E-11  6.28180987928868E-01
 cg2d: Sum(rhs),rhsMax =  -1.93492999400746E-11  6.04265912180855E-01
 cg2d: Sum(rhs),rhsMax =  -2.01357819307191E-11  5.80816638316215E-01
 cg2d: Sum(rhs),rhsMax =  -2.09805506301564E-11  5.57846536578997E-01
 cg2d: Sum(rhs),rhsMax =  -2.18739470980722E-11  5.35366093786239E-01
 cg2d: Sum(rhs),rhsMax =  -2.27945440300914E-11  5.13383029127230E-01
 cg2d: Sum(rhs),rhsMax =  -2.38031816479634E-11  4.91902414928704E-01
 cg2d: Sum(rhs),rhsMax =  -2.48207010500323E-11  4.70926803173844E-01
 cg2d: Sum(rhs),rhsMax =  -2.59308130523550E-11  4.50456355801547E-01
 cg2d: Sum(rhs),rhsMax =  -2.71022093656370E-11  4.30488975098704E-01
 cg2d: Sum(rhs),rhsMax =  -2.82649459393269E-11  4.11020430980222E-01
 cg2d: Sum(rhs),rhsMax =  -2.96134228250367E-11  3.92044487393621E-01
 cg2d: Sum(rhs),rhsMax =  -3.09814396359798E-11  3.73553023637397E-01
 cg2d: Sum(rhs),rhsMax =  -3.25502957920776E-11  3.55536152107022E-01
 cg2d: Sum(rhs),rhsMax =  -3.41715544749377E-11  3.37982327643956E-01
 cg2d: Sum(rhs),rhsMax =  -3.59156038243214E-11  3.20878454025590E-01
 cg2d: Sum(rhs),rhsMax =  -3.78019837654620E-11  3.04209986819101E-01
 cg2d: Sum(rhs),rhsMax =  -3.99005273266084E-11  2.87961033672206E-01
 cg2d: Sum(rhs),rhsMax =  -4.13831191536929E-11  2.77329385335016E-01
 cg2d: Sum(rhs),rhsMax =  -4.21955803631135E-11  2.71202689635351E-01
 cg2d: Sum(rhs),rhsMax =  -4.30433466647173E-11  2.65296059105756E-01
 cg2d: Sum(rhs),rhsMax =  -4.39421832254538E-11  2.59590203053322E-01
 cg2d: Sum(rhs),rhsMax =  -4.47726300478735E-11  2.54064454151310E-01
 cg2d: Sum(rhs),rhsMax =  -4.56343851595875E-11  2.48696829676542E-01
 cg2d: Sum(rhs),rhsMax =  -4.65015803641222E-11  2.43464091164694E-01
 cg2d: Sum(rhs),rhsMax =  -4.73646677434658E-11  2.38341804520205E-01
 cg2d: Sum(rhs),rhsMax =  -4.82658357725541E-11  2.33304398233619E-01
 cg2d: Sum(rhs),rhsMax =  -4.92135221463741E-11  2.28325222074217E-01
 cg2d: Sum(rhs),rhsMax =  -5.02049513073644E-11  2.23376608298200E-01
 cg2d: Sum(rhs),rhsMax =  -5.12145881259585E-11  2.18429935828163E-01
 cg2d: Sum(rhs),rhsMax =  -5.23043830469305E-11  2.13455699344085E-01
 cg2d: Sum(rhs),rhsMax =  -5.34257083018019E-11  2.08423585768537E-01
 cg2d: Sum(rhs),rhsMax =  -5.46576117699260E-11  2.03302560627345E-01
 cg2d: Sum(rhs),rhsMax =  -5.59958746038092E-11  1.98060964352568E-01
 cg2d: Sum(rhs),rhsMax =  -5.74580383272405E-11  1.92666620547776E-01
 cg2d: Sum(rhs),rhsMax =  -5.90170134984191E-11  1.87086957009455E-01
 cg2d: Sum(rhs),rhsMax =  -6.07798256169190E-11  1.81289139090594E-01
 cg2d: Sum(rhs),rhsMax =  -6.27378149431479E-11  1.75240214130567E-01
 cg2d: Sum(rhs),rhsMax =  -6.49502673866209E-11  1.68907265734965E-01
 cg2d: Sum(rhs),rhsMax =  -6.74651445820018E-11  1.62257575983900E-01
 cg2d: Sum(rhs),rhsMax =  -7.03712643712606E-11  1.55258793948308E-01
 cg2d: Sum(rhs),rhsMax =  -7.37285787977271E-11  1.47879108111184E-01
 cg2d: Sum(rhs),rhsMax =  -7.76778641409237E-11  1.40087419791015E-01
 cg2d: Sum(rhs),rhsMax =  -8.23812129624457E-11  1.31853515717436E-01
 cg2d: Sum(rhs),rhsMax =  -8.81521522444473E-11  1.23148238022901E-01
 cg2d: Sum(rhs),rhsMax =  -9.46752676256324E-11  1.14554730257753E-01
 cg2d: Sum(rhs),rhsMax =  -8.85916895398964E-11  1.22290047031459E-01
 cg2d: Sum(rhs),rhsMax =  -8.04563082823506E-11  1.34472709469364E-01
 cg2d: Sum(rhs),rhsMax =  -7.36719574234712E-11  1.46699182412668E-01
 cg2d: Sum(rhs),rhsMax =  -6.78809786158752E-11  1.59007753557952E-01
 cg2d: Sum(rhs),rhsMax =  -6.27815022191669E-11  1.71642746525061E-01
 cg2d: Sum(rhs),rhsMax =  -5.84131076841743E-11  1.84385652280185E-01
 cg2d: Sum(rhs),rhsMax =  -5.45946621244298E-11  1.97156591007424E-01
 cg2d: Sum(rhs),rhsMax =  -5.12233866434286E-11  2.10091827437093E-01
 cg2d: Sum(rhs),rhsMax =  -4.81149009523563E-11  2.23217337195320E-01
 cg2d: Sum(rhs),rhsMax =  -4.54283832773683E-11  2.36585205999191E-01
 cg2d: Sum(rhs),rhsMax =  -4.30117191863033E-11  2.50165401693308E-01
 cg2d: Sum(rhs),rhsMax =  -4.07009148606363E-11  2.64180601593832E-01
 cg2d: Sum(rhs),rhsMax =  -3.87155585368504E-11  2.78539223393494E-01
 cg2d: Sum(rhs),rhsMax =  -3.69080321860338E-11  2.93328832529969E-01
 cg2d: Sum(rhs),rhsMax =  -3.51244033858222E-11  3.09031093813230E-01
 cg2d: Sum(rhs),rhsMax =  -3.33431615651136E-11  3.25730155697390E-01
 cg2d: Sum(rhs),rhsMax =  -3.17820769701882E-11  3.42596320363360E-01
 cg2d: Sum(rhs),rhsMax =  -3.03271296964169E-11  3.59615108264743E-01
 cg2d: Sum(rhs),rhsMax =  -2.90105162115140E-11  3.76770639482832E-01
 cg2d: Sum(rhs),rhsMax =  -2.77388112479571E-11  3.94045684673030E-01
 cg2d: Sum(rhs),rhsMax =  -2.65365507345905E-11  4.11421722962772E-01
 cg2d: Sum(rhs),rhsMax =  -2.54481991035505E-11  4.28879007548294E-01
 cg2d: Sum(rhs),rhsMax =  -2.44586573217020E-11  4.46396639501279E-01
 cg2d: Sum(rhs),rhsMax =  -2.35184094421470E-11  4.63952649991418E-01
 cg2d: Sum(rhs),rhsMax =  -2.26779706125058E-11  4.81524090778047E-01
 cg2d: Sum(rhs),rhsMax =  -2.18848272837135E-11  4.99087132436495E-01
 cg2d: Sum(rhs),rhsMax =  -2.11382022996531E-11  5.16617169465972E-01
 cg2d: Sum(rhs),rhsMax =  -2.04407601955836E-11  5.34088930967744E-01
 cg2d: Sum(rhs),rhsMax =  -1.97770688714627E-11  5.51476595315334E-01
 cg2d: Sum(rhs),rhsMax =  -1.91899829360409E-11  5.68753907012859E-01
 cg2d: Sum(rhs),rhsMax =  -1.86022308668043E-11  5.85894293826848E-01
 cg2d: Sum(rhs),rhsMax =  -1.80884196510078E-11  6.02870982288238E-01
 cg2d: Sum(rhs),rhsMax =  -1.76454406641824E-11  6.19657109801870E-01
 cg2d: Sum(rhs),rhsMax =  -1.72227787587076E-11  6.36225831866775E-01
 cg2d: Sum(rhs),rhsMax =  -1.68053349014485E-11  6.52550423233573E-01
 cg2d: Sum(rhs),rhsMax =  -1.64028790550219E-11  6.68604372248829E-01
 cg2d: Sum(rhs),rhsMax =  -1.60517155123330E-11  6.84361468099108E-01
 cg2d: Sum(rhs),rhsMax =  -1.56775703530343E-11  6.99795881126168E-01
 cg2d: Sum(rhs),rhsMax =  -1.54164458976425E-11  7.14882236799288E-01
 cg2d: Sum(rhs),rhsMax =  -1.51404444537206E-11  7.29595684271062E-01
 cg2d: Sum(rhs),rhsMax =  -1.48544510025772E-11  7.43911960689611E-01
 cg2d: Sum(rhs),rhsMax =  -1.46361811559359E-11  7.57807452589501E-01
 cg2d: Sum(rhs),rhsMax =  -1.43391964968487E-11  7.75776036847429E-01
 cg2d: Sum(rhs),rhsMax =  -1.39852573965982E-11  7.98469222397845E-01
 cg2d: Sum(rhs),rhsMax =  -1.36404221251496E-11  8.20488560727359E-01
 cg2d: Sum(rhs),rhsMax =  -1.33686395287214E-11  8.41780563244456E-01
 cg2d: Sum(rhs),rhsMax =  -1.30699895350972E-11  8.62293879551035E-01
 cg2d: Sum(rhs),rhsMax =  -1.28461685733328E-11  8.81979531576451E-01
 cg2d: Sum(rhs),rhsMax =  -1.25895960323419E-11  9.00791128425703E-01
 cg2d: Sum(rhs),rhsMax =  -1.23825394382493E-11  9.18685060296041E-01
 cg2d: Sum(rhs),rhsMax =  -1.21609389225341E-11  9.35620670486093E-01
 cg2d: Sum(rhs),rhsMax =  -1.20020660077103E-11  9.51560405214854E-01
 cg2d: Sum(rhs),rhsMax =  -1.18093312906353E-11  9.66469941740940E-01
 cg2d: Sum(rhs),rhsMax =  -1.16763265722852E-11  9.80318297017377E-01
 cg2d: Sum(rhs),rhsMax =  -1.14989129329501E-11  9.93077915397824E-01
 cg2d: Sum(rhs),rhsMax =  -1.13863363182531E-11  1.00472473705921E+00
 cg2d: Sum(rhs),rhsMax =  -1.12462261725454E-11  1.01523824962631E+00
 cg2d: Sum(rhs),rhsMax =  -1.11268771973982E-11  1.02460152345535E+00
 cg2d: Sum(rhs),rhsMax =  -1.09996456387762E-11  1.03280123068435E+00
 cg2d: Sum(rhs),rhsMax =  -1.09229292277746E-11  1.03982764707575E+00
 cg2d: Sum(rhs),rhsMax =  -1.08735243031788E-11  1.04567463653431E+00
 cg2d: Sum(rhs),rhsMax =  -1.08120179476145E-11  1.05033961740662E+00
 cg2d: Sum(rhs),rhsMax =  -1.08018038957880E-11  1.05382350987154E+00
 cg2d: Sum(rhs),rhsMax =  -1.08786313290921E-11  1.05613066456409E+00
 cg2d: Sum(rhs),rhsMax =  -1.09569020523281E-11  1.05726877138429E+00
 cg2d: Sum(rhs),rhsMax =  -1.10447206935760E-11  1.05724875083025E+00
 cg2d: Sum(rhs),rhsMax =  -1.10731424030064E-11  1.05608462969293E+00
 cg2d: Sum(rhs),rhsMax =  -1.11277653758179E-11  1.05379340387245E+00
 cg2d: Sum(rhs),rhsMax =  -1.11097797628190E-11  1.05039489137124E+00
 cg2d: Sum(rhs),rhsMax =  -1.11057829599304E-11  1.04591157907475E+00
 cg2d: Sum(rhs),rhsMax =  -1.10995657109925E-11  1.04036846581707E+00
 cg2d: Sum(rhs),rhsMax =  -1.10983444656654E-11  1.03379290946006E+00
 cg2d: Sum(rhs),rhsMax =  -1.11241016398367E-11  1.02621448108709E+00
 cg2d: Sum(rhs),rhsMax =  -1.11086695397944E-11  1.01766482338052E+00
 cg2d: Sum(rhs),rhsMax =  -1.11204379038554E-11  1.00817751487049E+00
 cg2d: Sum(rhs),rhsMax =  -1.11146647441274E-11  9.97787939630673E-01
 cg2d: Sum(rhs),rhsMax =  -1.11330944463361E-11  9.86533163599655E-01
 cg2d: Sum(rhs),rhsMax =  -1.10580433698715E-11  9.74451809018499E-01
 cg2d: Sum(rhs),rhsMax =  -1.11947118242028E-11  9.61583923061341E-01
 cg2d: Sum(rhs),rhsMax =  -1.12991838108201E-11  9.47970840720764E-01
 cg2d: Sum(rhs),rhsMax =  -1.14257492356273E-11  9.33655038915097E-01
 cg2d: Sum(rhs),rhsMax =  -1.15413234524908E-11  9.18679977322613E-01
 cg2d: Sum(rhs),rhsMax =  -1.17086340623018E-11  9.03089929479677E-01
 cg2d: Sum(rhs),rhsMax =  -1.18897114376182E-11  8.86929797482610E-01
 cg2d: Sum(rhs),rhsMax =  -1.20746745935207E-11  8.70244914548277E-01
 cg2d: Sum(rhs),rhsMax =  -1.22778454070271E-11  8.53080832225272E-01
 cg2d: Sum(rhs),rhsMax =  -1.24708021687070E-11  8.35483100271562E-01
 cg2d: Sum(rhs),rhsMax =  -1.26908483721877E-11  8.17497042963967E-01
 cg2d: Sum(rhs),rhsMax =  -1.29058985720576E-11  7.99167536952191E-01
 cg2d: Sum(rhs),rhsMax =  -1.31415989201855E-11  7.80538796005520E-01
 cg2d: Sum(rhs),rhsMax =  -1.34430244713712E-11  7.61654167528661E-01
 cg2d: Sum(rhs),rhsMax =  -1.37488909146555E-11  7.42555944676576E-01
 cg2d: Sum(rhs),rhsMax =  -1.40938372084065E-11  7.23285198654567E-01
 cg2d: Sum(rhs),rhsMax =  -1.44316780747999E-11  7.03881630871205E-01
 cg2d: Sum(rhs),rhsMax =  -1.46508360998610E-11  6.91488130793684E-01
 cg2d: Sum(rhs),rhsMax =  -1.48988599235622E-11  6.79194646695752E-01
 cg2d: Sum(rhs),rhsMax =  -1.51318957364310E-11  6.66818678607191E-01
 cg2d: Sum(rhs),rhsMax =  -1.54486423653566E-11  6.54378924532813E-01
 cg2d: Sum(rhs),rhsMax =  -1.57323043481483E-11  6.41893702111780E-01
 cg2d: Sum(rhs),rhsMax =  -1.60228497136927E-11  6.29380919205805E-01
 cg2d: Sum(rhs),rhsMax =  -1.63263846886252E-11  6.16858041585635E-01
 cg2d: Sum(rhs),rhsMax =  -1.67029723385781E-11  6.04342052599772E-01
 cg2d: Sum(rhs),rhsMax =  -1.70383707143174E-11  5.91849404194022E-01
 cg2d: Sum(rhs),rhsMax =  -1.74231740146524E-11  5.79395959620086E-01
 cg2d: Sum(rhs),rhsMax =  -1.77952097502043E-11  5.66996928575397E-01
 cg2d: Sum(rhs),rhsMax =  -1.81615833483306E-11  5.54666795653238E-01
 cg2d: Sum(rhs),rhsMax =  -1.85538251429307E-11  5.42419243255844E-01
 cg2d: Sum(rhs),rhsMax =  -1.89811499851089E-11  5.30267070871722E-01
 cg2d: Sum(rhs),rhsMax =  -1.93760563149681E-11  5.18222111974562E-01
 cg2d: Sum(rhs),rhsMax =  -1.98142613427876E-11  5.06295150583306E-01
 cg2d: Sum(rhs),rhsMax =  -2.02194927467758E-11  4.94495839723396E-01
 cg2d: Sum(rhs),rhsMax =  -2.06620276443914E-11  4.82832624233674E-01
 cg2d: Sum(rhs),rhsMax =  -2.10732542527126E-11  4.71312670050096E-01
 cg2d: Sum(rhs),rhsMax =  -2.15862883123918E-11  4.59941801044343E-01
 cg2d: Sum(rhs),rhsMax =  -2.20390372618340E-11  4.48724446727863E-01
 cg2d: Sum(rhs),rhsMax =  -2.25148788501883E-11  4.37663600923157E-01
 cg2d: Sum(rhs),rhsMax =  -2.30185870364608E-11  4.26760792562046E-01
 cg2d: Sum(rhs),rhsMax =  -2.35791386415940E-11  4.16016068702073E-01
 cg2d: Sum(rhs),rhsMax =  -2.39326336526346E-11  4.05427990062421E-01
 cg2d: Sum(rhs),rhsMax =  -2.45761189177074E-11  3.94993635486803E-01
 cg2d: Sum(rhs),rhsMax =  -2.52361465058470E-11  3.84708616408530E-01
 cg2d: Sum(rhs),rhsMax =  -2.58428833888047E-11  3.74567100924965E-01
 cg2d: Sum(rhs),rhsMax =  -2.64047672615675E-11  3.64561843385529E-01
 cg2d: Sum(rhs),rhsMax =  -2.70424793669122E-11  3.54684218934710E-01
 cg2d: Sum(rhs),rhsMax =  -2.77048384234035E-11  3.44924262044013E-01
 cg2d: Sum(rhs),rhsMax =  -2.84604007028122E-11  3.35270707521202E-01
 cg2d: Sum(rhs),rhsMax =  -2.92746937802235E-11  3.25711033372779E-01
 cg2d: Sum(rhs),rhsMax =  -3.02057268086742E-11  3.16231504772121E-01
 cg2d: Sum(rhs),rhsMax =  -3.11881631631650E-11  3.06817219786898E-01
 cg2d: Sum(rhs),rhsMax =  -3.22028514965211E-11  2.97452157161539E-01
 cg2d: Sum(rhs),rhsMax =  -3.32914806833173E-11  2.88119228058096E-01
 cg2d: Sum(rhs),rhsMax =  -3.45225514841729E-11  2.78800331701998E-01
 cg2d: Sum(rhs),rhsMax =  -3.57548435303556E-11  2.69476416144579E-01
 cg2d: Sum(rhs),rhsMax =  -3.70874442268132E-11  2.60127545275583E-01
 cg2d: Sum(rhs),rhsMax =  -3.85203535735457E-11  2.50732972789773E-01
 cg2d: Sum(rhs),rhsMax =  -4.00888489071605E-11  2.41271223842784E-01
 cg2d: Sum(rhs),rhsMax =  -4.18094725507245E-11  2.31720184591985E-01
 cg2d: Sum(rhs),rhsMax =  -4.37030134303740E-11  2.22057198689273E-01
 cg2d: Sum(rhs),rhsMax =  -4.57867910252929E-11  2.12259170169215E-01
 cg2d: Sum(rhs),rhsMax =  -4.81054258927305E-11  2.02302671870574E-01
 cg2d: Sum(rhs),rhsMax =  -5.07385175541053E-11  1.92164058215380E-01
 cg2d: Sum(rhs),rhsMax =  -5.37123817645480E-11  1.81819581162243E-01
 cg2d: Sum(rhs),rhsMax =  -5.71339642263524E-11  1.71245508073152E-01
 cg2d: Sum(rhs),rhsMax =  -6.11035666508997E-11  1.60418240259576E-01
 cg2d: Sum(rhs),rhsMax =  -6.57678911331061E-11  1.49314431060469E-01
 cg2d: Sum(rhs),rhsMax =  -7.12898629018355E-11  1.37911102781980E-01
 cg2d: Sum(rhs),rhsMax =  -7.80423503599081E-11  1.26185761977021E-01
 cg2d: Sum(rhs),rhsMax =  -8.64261995303650E-11  1.14116512750613E-01
 cg2d: Sum(rhs),rhsMax =  -9.70163949176595E-11  1.01682168119717E-01
 cg2d: Sum(rhs),rhsMax =  -9.15807429890947E-11  1.07833105528898E-01
 cg2d: Sum(rhs),rhsMax =  -8.51547721225643E-11  1.16040418029251E-01
 cg2d: Sum(rhs),rhsMax =  -7.94037058327035E-11  1.24471690467251E-01
 cg2d: Sum(rhs),rhsMax =  -7.43287653648395E-11  1.33092292598009E-01
 cg2d: Sum(rhs),rhsMax =  -6.97719659825680E-11  1.41855479191340E-01
 cg2d: Sum(rhs),rhsMax =  -6.52613518781209E-11  1.51763650848087E-01
 cg2d: Sum(rhs),rhsMax =  -6.08646466560003E-11  1.63001219644965E-01
 cg2d: Sum(rhs),rhsMax =  -5.69810865158615E-11  1.74384567362975E-01
 cg2d: Sum(rhs),rhsMax =  -5.35252953071108E-11  1.85918535296335E-01
 cg2d: Sum(rhs),rhsMax =  -5.04092323438954E-11  1.97606767520562E-01
 cg2d: Sum(rhs),rhsMax =  -4.76396699866655E-11  2.09451685456882E-01
 cg2d: Sum(rhs),rhsMax =  -4.51549908575544E-11  2.21454478264677E-01
 cg2d: Sum(rhs),rhsMax =  -4.28651558692650E-11  2.33615109717068E-01
 cg2d: Sum(rhs),rhsMax =  -4.07389677548053E-11  2.45932340235498E-01
 cg2d: Sum(rhs),rhsMax =  -3.88229448589072E-11  2.58403761656836E-01
 cg2d: Sum(rhs),rhsMax =  -3.70792285764310E-11  2.71025840367497E-01
 cg2d: Sum(rhs),rhsMax =  -3.54363205445907E-11  2.83793964960366E-01
 cg2d: Sum(rhs),rhsMax =  -3.39664962822894E-11  2.96702493557884E-01
 cg2d: Sum(rhs),rhsMax =  -3.25737214978972E-11  3.09744796373240E-01
 cg2d: Sum(rhs),rhsMax =  -3.12474490726800E-11  3.22913291318410E-01
 cg2d: Sum(rhs),rhsMax =  -3.00532931873931E-11  3.36199469945805E-01
 cg2d: Sum(rhs),rhsMax =  -2.89275270404232E-11  3.49593914022729E-01
 cg2d: Sum(rhs),rhsMax =  -2.78428391453645E-11  3.63086304617148E-01
 cg2d: Sum(rhs),rhsMax =  -2.68052247065498E-11  3.76665426247662E-01
 cg2d: Sum(rhs),rhsMax =  -2.59041676997640E-11  3.90319169283435E-01
 cg2d: Sum(rhs),rhsMax =  -2.50138798563171E-11  4.04034533993442E-01
 cg2d: Sum(rhs),rhsMax =  -2.41986430893348E-11  4.17797639341657E-01
 cg2d: Sum(rhs),rhsMax =  -2.30727659200625E-11  4.38446076107531E-01
 cg2d: Sum(rhs),rhsMax =  -2.18723927858377E-11  4.62731902769557E-01
 cg2d: Sum(rhs),rhsMax =  -2.07238670668630E-11  4.88340593746033E-01
 cg2d: Sum(rhs),rhsMax =  -1.96221927595275E-11  5.14113458728337E-01
 cg2d: Sum(rhs),rhsMax =  -1.87122539685447E-11  5.40009514889995E-01
 cg2d: Sum(rhs),rhsMax =  -1.78398407157943E-11  5.65986221413957E-01
 cg2d: Sum(rhs),rhsMax =  -1.70848890590491E-11  5.91999648280672E-01
 cg2d: Sum(rhs),rhsMax =  -1.63560276433827E-11  6.18004656649331E-01
(PID.TID 0000.0001)      cg2d_init_res =   1.49570173890283E-01
(PID.TID 0000.0001)      cg2d_iters(min,last) =      -1      36
(PID.TID 0000.0001)      cg2d_last_res =   5.54277394659436E-14
(PID.TID 0000.0001) // =======================================================
(PID.TID 0000.0001) // Begin MONITOR dynamic field statistics
(PID.TID 0000.0001) // =======================================================
(PID.TID 0000.0001) %MON time_tsnumber                =                   960
(PID.TID 0000.0001) %MON time_secondsf                =   1.4400000000000E+04
(PID.TID 0000.0001) %MON dynstat_eta_max              =   1.0832175788730E-01
(PID.TID 0000.0001) %MON dynstat_eta_min              =  -1.0523916323560E-01
(PID.TID 0000.0001) %MON dynstat_eta_mean             =   2.1055092243064E-14
(PID.TID 0000.0001) %MON dynstat_eta_sd               =   8.4596798346288E-02
(PID.TID 0000.0001) %MON dynstat_eta_del2             =   5.8157969142763E-05
(PID.TID 0000.0001) %MON dynstat_uvel_max             =   1.4589506182668E+00
(PID.TID 0000.0001) %MON dynstat_uvel_min             =  -1.7251545939320E-01
(PID.TID 0000.0001) %MON dynstat_uvel_mean            =   5.5937852519271E-01
(PID.TID 0000.0001) %MON dynstat_uvel_sd              =   1.1130641040224E-01
(PID.TID 0000.0001) %MON dynstat_uvel_del2            =   9.5160661727556E-04
(PID.TID 0000.0001) %MON dynstat_vvel_max             =   0.0000000000000E+00
(PID.TID 0000.0001) %MON dynstat_vvel_min             =   0.0000000000000E+00
(PID.TID 0000.0001) %MON dynstat_vvel_mean            =   0.0000000000000E+00
(PID.TID 0000.0001) %MON dynstat_vvel_sd              =   0.0000000000000E+00
(PID.TID 0000.0001) %MON dynstat_vvel_del2            =   0.0000000000000E+00
(PID.TID 0000.0001) %MON dynstat_wvel_max             =   4.5963418680341E-02
(PID.TID 0000.0001) %MON dynstat_wvel_min             =  -4.1302236178294E-02
(PID.TID 0000.0001) %MON dynstat_wvel_mean            =   1.2868237786099E-19
(PID.TID 0000.0001) %MON dynstat_wvel_sd              =   4.5408478356171E-03
(PID.TID 0000.0001) %MON dynstat_wvel_del2            =   1.0620724380584E-04
(PID.TID 0000.0001) %MON dynstat_theta_max            =   1.5000000000003E+01
(PID.TID 0000.0001) %MON dynstat_theta_min            =   9.9999999999981E+00
(PID.TID 0000.0001) %MON dynstat_theta_mean           =   1.2567189909130E+01
(PID.TID 0000.0001) %MON dynstat_theta_sd             =   2.4564435401674E+00
(PID.TID 0000.0001) %MON dynstat_theta_del2           =   1.6979787752743E-03
(PID.TID 0000.0001) %MON dynstat_salt_max             =   3.5000000000000E+01
(PID.TID 0000.0001) %MON dynstat_salt_min             =   3.5000000000000E+01
(PID.TID 0000.0001) %MON dynstat_salt_mean            =   3.5000000000000E+01
(PID.TID 0000.0001) %MON dynstat_salt_sd              =   3.9790393202566E-13
(PID.TID 0000.0001) %MON dynstat_salt_del2            =   0.0000000000000E+00
(PID.TID 0000.0001) %MON dynstat_sst_max              =   1.5000000000000E+01
(PID.TID 0000.0001) %MON dynstat_sst_min              =   1.4999999998581E+01
(PID.TID 0000.0001) %MON dynstat_sst_mean             =   1.4999999999972E+01
(PID.TID 0000.0001) %MON dynstat_sst_sd               =   1.6848865135322E-10
(PID.TID 0000.0001) %MON dynstat_sst_del2             =   1.0872943450922E-11
(PID.TID 0000.0001) %MON dynstat_sss_max              =   3.5000000000000E+01
(PID.TID 0000.0001) %MON dynstat_sss_min              =   3.5000000000000E+01
(PID.TID 0000.0001) %MON dynstat_sss_mean             =   3.5000000000000E+01
(PID.TID 0000.0001) %MON dynstat_sss_sd               =   5.6843418860808E-14
(PID.TID 0000.0001) %MON dynstat_sss_del2             =   0.0000000000000E+00
(PID.TID 0000.0001) %MON forcing_qnet_max             =   0.0000000000000E+00
(PID.TID 0000.0001) %MON forcing_qnet_min             =   0.0000000000000E+00
(PID.TID 0000.0001) %MON forcing_qnet_mean            =   0.0000000000000E+00
(PID.TID 0000.0001) %MON forcing_qnet_sd              =   0.0000000000000E+00
(PID.TID 0000.0001) %MON forcing_qnet_del2            =   0.0000000000000E+00
(PID.TID 0000.0001) %MON forcing_qsw_max              =   0.0000000000000E+00
(PID.TID 0000.0001) %MON forcing_qsw_min              =   0.0000000000000E+00
(PID.TID 0000.0001) %MON forcing_qsw_mean             =   0.0000000000000E+00
(PID.TID 0000.0001) %MON forcing_qsw_sd               =   0.0000000000000E+00
(PID.TID 0000.0001) %MON forcing_qsw_del2             =   0.0000000000000E+00
(PID.TID 0000.0001) %MON forcing_empmr_max            =   0.0000000000000E+00
(PID.TID 0000.0001) %MON forcing_empmr_min            =   0.0000000000000E+00
(PID.TID 0000.0001) %MON forcing_empmr_mean           =   0.0000000000000E+00
(PID.TID 0000.0001) %MON forcing_empmr_sd             =   0.0000000000000E+00
(PID.TID 0000.0001) %MON forcing_empmr_del2           =   0.0000000000000E+00
(PID.TID 0000.0001) %MON forcing_fu_max               =   0.0000000000000E+00
(PID.TID 0000.0001) %MON forcing_fu_min               =   0.0000000000000E+00
(PID.TID 0000.0001) %MON forcing_fu_mean              =   0.0000000000000E+00
(PID.TID 0000.0001) %MON forcing_fu_sd                =   0.0000000000000E+00
(PID.TID 0000.0001) %MON forcing_fu_del2              =   0.0000000000000E+00
(PID.TID 0000.0001) %MON forcing_fv_max               =   0.0000000000000E+00
(PID.TID 0000.0001) %MON forcing_fv_min               =   0.0000000000000E+00
(PID.TID 0000.0001) %MON forcing_fv_mean              =   0.0000000000000E+00
(PID.TID 0000.0001) %MON forcing_fv_sd                =   0.0000000000000E+00
(PID.TID 0000.0001) %MON forcing_fv_del2              =   0.0000000000000E+00
(PID.TID 0000.0001) %MON advcfl_uvel_max              =   1.0513253390477E-01
(PID.TID 0000.0001) %MON advcfl_vvel_max              =   0.0000000000000E+00
(PID.TID 0000.0001) %MON advcfl_wvel_max              =   6.1953354267440E-01
(PID.TID 0000.0001) %MON advcfl_W_hf_max              =   6.1953354267440E-01
(PID.TID 0000.0001) %MON pe_b_mean                    =   1.8023736758725E-04
(PID.TID 0000.0001) %MON ke_max                       =   9.6986426160050E-01
(PID.TID 0000.0001) %MON ke_mean                      =   1.6255498341093E-01
(PID.TID 0000.0001) %MON ke_vol                       =   9.5121673331316E+10
(PID.TID 0000.0001) %MON vort_r_min                   =   0.0000000000000E+00
(PID.TID 0000.0001) %MON vort_r_max                   =   0.0000000000000E+00
(PID.TID 0000.0001) %MON vort_a_mean                  =   0.0000000000000E+00
(PID.TID 0000.0001) %MON vort_a_sd                    =   0.0000000000000E+00
(PID.TID 0000.0001) %MON vort_p_mean                  =   0.0000000000000E+00
(PID.TID 0000.0001) %MON vort_p_sd                    =   0.0000000000000E+00
(PID.TID 0000.0001) %MON surfExpan_theta_mean         =   9.8703602950075E-16
(PID.TID 0000.0001) %MON surfExpan_salt_mean          =   7.4636357236578E-18
(PID.TID 0000.0001) // =======================================================
(PID.TID 0000.0001) // End MONITOR dynamic field statistics
(PID.TID 0000.0001) // =======================================================
(PID.TID 0000.0001) // =======================================================
(PID.TID 0000.0001) // Begin OBCS MONITOR field statistics
(PID.TID 0000.0001) // =======================================================
(PID.TID 0000.0001) %MON obc_E_uVel_max               =   5.6028564143658E-01
(PID.TID 0000.0001) %MON obc_E_uVel_min               =   5.6028564143658E-01
(PID.TID 0000.0001) %MON obc_E_uVel_mean              =   5.6028564143658E-01
(PID.TID 0000.0001) %MON obc_E_uVel_sd                =   7.4505805969238E-09
(PID.TID 0000.0001) %MON obc_E_uVel_Int               =   5.6028564143658E+05
(PID.TID 0000.0001) %MON obc_W_uVel_max               =   5.6028564143658E-01
(PID.TID 0000.0001) %MON obc_W_uVel_min               =   5.6028564143658E-01
(PID.TID 0000.0001) %MON obc_W_uVel_mean              =   5.6028564143658E-01
(PID.TID 0000.0001) %MON obc_W_uVel_sd                =   7.4505805969238E-09
(PID.TID 0000.0001) %MON obc_W_uVel_Int               =   5.6028564143658E+05
(PID.TID 0000.0001) // =======================================================
(PID.TID 0000.0001) // End OBCS MONITOR field statistics
(PID.TID 0000.0001) // =======================================================
 cg2d: Sum(rhs),rhsMax =  -1.56840096465771E-11  6.43955088977063E-01
 cg2d: Sum(rhs),rhsMax =  -1.50843781909771E-11  6.69803966692858E-01
 cg2d: Sum(rhs),rhsMax =  -1.44831924231426E-11  6.95503693011156E-01
 cg2d: Sum(rhs),rhsMax =  -1.39914746455361E-11  7.21006258352952E-01
 cg2d: Sum(rhs),rhsMax =  -1.35952360480474E-11  7.46263445868562E-01
 cg2d: Sum(rhs),rhsMax =  -1.31595845331844E-11  7.71227034688581E-01
 cg2d: Sum(rhs),rhsMax =  -1.28038690760945E-11  7.95848998782417E-01
 cg2d: Sum(rhs),rhsMax =  -1.24169563520127E-11  8.20081699638854E-01
 cg2d: Sum(rhs),rhsMax =  -1.20623511179474E-11  8.43878071378070E-01
 cg2d: Sum(rhs),rhsMax =  -1.17914566999389E-11  8.67191797321290E-01
 cg2d: Sum(rhs),rhsMax =  -1.14916964832901E-11  8.89977477450319E-01
 cg2d: Sum(rhs),rhsMax =  -1.12414522135396E-11  9.12190786529633E-01
 cg2d: Sum(rhs),rhsMax =  -1.10632614180872E-11  9.33788623042502E-01
 cg2d: Sum(rhs),rhsMax =  -1.08381081886932E-11  9.54729249213771E-01
 cg2d: Sum(rhs),rhsMax =  -1.06201714089593E-11  9.74972422594607E-01
 cg2d: Sum(rhs),rhsMax =  -1.04249942012302E-11  9.94479519759271E-01
 cg2d: Sum(rhs),rhsMax =  -1.02504671417591E-11  1.01321365266417E+00
 cg2d: Sum(rhs),rhsMax =  -1.01503250249380E-11  1.03113977815993E+00
 cg2d: Sum(rhs),rhsMax =  -9.99544891300275E-12  1.04822480104903E+00
 cg2d: Sum(rhs),rhsMax =  -9.88986670336089E-12  1.06443767095673E+00
 cg2d: Sum(rhs),rhsMax =  -9.77284919656540E-12  1.07974947313735E+00
 cg2d: Sum(rhs),rhsMax =  -9.62829815875921E-12  1.09413351318056E+00
 cg2d: Sum(rhs),rhsMax =  -9.51716483399423E-12  1.10756539543030E+00
 cg2d: Sum(rhs),rhsMax =  -9.38771282932294E-12  1.12002309477749E+00
 cg2d: Sum(rhs),rhsMax =  -9.29223364920517E-12  1.13148702134430E+00
 cg2d: Sum(rhs),rhsMax =  -9.20596932019180E-12  1.14194007748276E+00
 cg2d: Sum(rhs),rhsMax =  -9.12259157104245E-12  1.15136770643897E+00
 cg2d: Sum(rhs),rhsMax =  -9.06175134929299E-12  1.15975793200090E+00
 cg2d: Sum(rhs),rhsMax =  -8.99902374840167E-12  1.16710138839020E+00
 cg2d: Sum(rhs),rhsMax =  -8.93518592448572E-12  1.17339133978854E+00
 cg2d: Sum(rhs),rhsMax =  -8.93196627771431E-12  1.17862368924129E+00
 cg2d: Sum(rhs),rhsMax =  -8.90409967979622E-12  1.18279697594480E+00
 cg2d: Sum(rhs),rhsMax =  -8.86157813795307E-12  1.18591236198818E+00
 cg2d: Sum(rhs),rhsMax =  -8.89455176178444E-12  1.18797360260036E+00
 cg2d: Sum(rhs),rhsMax =  -8.95139518064525E-12  1.18898700550030E+00
 cg2d: Sum(rhs),rhsMax =  -8.98658925052587E-12  1.18896137929881E+00
 cg2d: Sum(rhs),rhsMax =  -9.06463792915702E-12  1.18790797090259E+00
 cg2d: Sum(rhs),rhsMax =  -9.13580322503549E-12  1.18584039170946E+00
 cg2d: Sum(rhs),rhsMax =  -9.24527121526353E-12  1.18277453273816E+00
 cg2d: Sum(rhs),rhsMax =  -9.35795885226298E-12  1.17872846904563E+00
 cg2d: Sum(rhs),rhsMax =  -9.39470723437807E-12  1.17372235525477E+00
 cg2d: Sum(rhs),rhsMax =  -9.48796596844659E-12  1.16777831285190E+00
 cg2d: Sum(rhs),rhsMax =  -9.53481738008577E-12  1.16092030988294E+00
 cg2d: Sum(rhs),rhsMax =  -9.61286605871692E-12  1.15317403647559E+00
 cg2d: Sum(rhs),rhsMax =  -9.67048663369496E-12  1.14456677916139E+00
 cg2d: Sum(rhs),rhsMax =  -9.79027969805202E-12  1.13512729045044E+00
 cg2d: Sum(rhs),rhsMax =  -9.93860549414194E-12  1.12488565288753E+00
 cg2d: Sum(rhs),rhsMax =  -1.01315622558218E-11  1.11387314053989E+00
 cg2d: Sum(rhs),rhsMax =  -1.03587138866601E-11  1.10212208300827E+00
 cg2d: Sum(rhs),rhsMax =  -1.05964126362323E-11  1.08966572337160E+00
 cg2d: Sum(rhs),rhsMax =  -1.07872599741654E-11  1.07653808132230E+00
 cg2d: Sum(rhs),rhsMax =  -1.08610898053030E-11  1.06277381288524E+00
 cg2d: Sum(rhs),rhsMax =  -1.09274811421756E-11  1.04840807507010E+00
 cg2d: Sum(rhs),rhsMax =  -1.09996456387762E-11  1.03347639424221E+00
 cg2d: Sum(rhs),rhsMax =  -1.10320641510953E-11  1.01801453616109E+00
 cg2d: Sum(rhs),rhsMax =  -1.10852438339748E-11  1.00205837885570E+00
 cg2d: Sum(rhs),rhsMax =  -1.11850528838886E-11  9.85643788362712E-01
 cg2d: Sum(rhs),rhsMax =  -1.12663212092912E-11  9.68806497047940E-01
 cg2d: Sum(rhs),rhsMax =  -1.14548370788725E-11  9.51581984398327E-01
 cg2d: Sum(rhs),rhsMax =  -1.15661924482424E-11  9.34005361867397E-01
 cg2d: Sum(rhs),rhsMax =  -1.17114096198634E-11  9.16111262102207E-01
 cg2d: Sum(rhs),rhsMax =  -1.19233511952643E-11  8.97933732754639E-01
 cg2d: Sum(rhs),rhsMax =  -1.21244125850239E-11  8.79506134547919E-01
 cg2d: Sum(rhs),rhsMax =  -1.23523413719795E-11  8.60861044444723E-01
 cg2d: Sum(rhs),rhsMax =  -1.25818244711695E-11  8.42030165228605E-01
 cg2d: Sum(rhs),rhsMax =  -1.28379529229505E-11  8.23044239575247E-01
 cg2d: Sum(rhs),rhsMax =  -1.31069599618172E-11  8.03932970764003E-01
 cg2d: Sum(rhs),rhsMax =  -1.33502098265126E-11  7.84724954285363E-01
 cg2d: Sum(rhs),rhsMax =  -1.37222455620645E-11  7.65447613921161E-01
 cg2d: Sum(rhs),rhsMax =  -1.40515377111683E-11  7.46127146407476E-01
 cg2d: Sum(rhs),rhsMax =  -1.44282363834236E-11  7.26788476587600E-01
 cg2d: Sum(rhs),rhsMax =  -1.48111523046168E-11  7.07455219478314E-01
 cg2d: Sum(rhs),rhsMax =  -1.52432511058009E-11  6.88149649771759E-01
 cg2d: Sum(rhs),rhsMax =  -1.56655799443683E-11  6.68892679700968E-01
 cg2d: Sum(rhs),rhsMax =  -1.61139990240144E-11  6.49703846037469E-01
 cg2d: Sum(rhs),rhsMax =  -1.66238134369223E-11  6.30601304570953E-01
 cg2d: Sum(rhs),rhsMax =  -1.71247460656332E-11  6.11601831463992E-01
 cg2d: Sum(rhs),rhsMax =  -1.76422210174110E-11  5.92720831010348E-01
 cg2d: Sum(rhs),rhsMax =  -1.81815673627739E-11  5.73972348513624E-01
 cg2d: Sum(rhs),rhsMax =  -1.87617699154430E-11  5.55369087935895E-01
 cg2d: Sum(rhs),rhsMax =  -1.93329796616126E-11  5.36922433779564E-01
 cg2d: Sum(rhs),rhsMax =  -1.99915639598203E-11  5.18642476859453E-01
 cg2d: Sum(rhs),rhsMax =  -2.06882289077726E-11  5.00538041115349E-01
 cg2d: Sum(rhs),rhsMax =  -2.14225304162596E-11  4.82616713543630E-01
 cg2d: Sum(rhs),rhsMax =  -2.21744844708383E-11  4.64884876590304E-01
 cg2d: Sum(rhs),rhsMax =  -2.29642971305566E-11  4.47347743231546E-01
 cg2d: Sum(rhs),rhsMax =  -2.37981856443525E-11  4.30009391929782E-01
 cg2d: Sum(rhs),rhsMax =  -2.47302178735254E-11  4.12872802976484E-01
 cg2d: Sum(rhs),rhsMax =  -2.57233123690526E-11  3.95939897299248E-01
 cg2d: Sum(rhs),rhsMax =  -2.67544875143244E-11  3.79211578301895E-01
 cg2d: Sum(rhs),rhsMax =  -2.74174016823281E-11  3.68745912783515E-01
 cg2d: Sum(rhs),rhsMax =  -2.80586665013516E-11  3.59548369676903E-01
 cg2d: Sum(rhs),rhsMax =  -2.86547452432728E-11  3.50362219833715E-01
 cg2d: Sum(rhs),rhsMax =  -2.93434165854478E-11  3.41179318232583E-01
 cg2d: Sum(rhs),rhsMax =  -3.00959257515387E-11  3.31990810442273E-01
 cg2d: Sum(rhs),rhsMax =  -3.08766345824552E-11  3.22787161551362E-01
 cg2d: Sum(rhs),rhsMax =  -3.17146309214422E-11  3.13558188453676E-01
 cg2d: Sum(rhs),rhsMax =  -3.26503268865963E-11  3.04293096529298E-01
 cg2d: Sum(rhs),rhsMax =  -3.36171090964399E-11  2.94980521240433E-01
 cg2d: Sum(rhs),rhsMax =  -3.46593864719580E-11  2.85608574840793E-01
 cg2d: Sum(rhs),rhsMax =  -3.57913698678658E-11  2.76164898257424E-01
 cg2d: Sum(rhs),rhsMax =  -3.69890784668314E-11  2.66636716526497E-01
 cg2d: Sum(rhs),rhsMax =  -3.82924802977413E-11  2.57010901854860E-01
 cg2d: Sum(rhs),rhsMax =  -3.97746280356159E-11  2.47274041323848E-01
 cg2d: Sum(rhs),rhsMax =  -4.13065137649937E-11  2.37412506965020E-01
 cg2d: Sum(rhs),rhsMax =  -4.30719904187526E-11  2.27412528505748E-01
 cg2d: Sum(rhs),rhsMax =  -4.50129933327048E-11  2.17260269774187E-01
 cg2d: Sum(rhs),rhsMax =  -4.71780392530263E-11  2.06941905301363E-01
 cg2d: Sum(rhs),rhsMax =  -4.95763430308216E-11  1.96443698581236E-01
 cg2d: Sum(rhs),rhsMax =  -5.23256993290033E-11  1.85752082204199E-01
 cg2d: Sum(rhs),rhsMax =  -5.54974954880549E-11  1.74853738862517E-01
 cg2d: Sum(rhs),rhsMax =  -5.91613424916204E-11  1.63735682642109E-01
 cg2d: Sum(rhs),rhsMax =  -6.34594599091542E-11  1.52385340432405E-01
 cg2d: Sum(rhs),rhsMax =  -6.85820289447747E-11  1.40790633473915E-01
 cg2d: Sum(rhs),rhsMax =  -7.47770734221831E-11  1.28940059052573E-01
 cg2d: Sum(rhs),rhsMax =  -8.24025292445185E-11  1.16822772390841E-01
 cg2d: Sum(rhs),rhsMax =  -9.20561404882392E-11  1.04428668065367E-01
 cg2d: Sum(rhs),rhsMax =  -1.04643183007624E-10  9.17484603845664E-02
 cg2d: Sum(rhs),rhsMax =  -1.21770260541609E-10  7.87737631117934E-02
 cg2d: Sum(rhs),rhsMax =  -1.25423338381836E-10  7.64251216207611E-02
 cg2d: Sum(rhs),rhsMax =  -1.16076703804424E-10  8.25270152423136E-02
 cg2d: Sum(rhs),rhsMax =  -1.07069575427943E-10  8.93601491641951E-02
 cg2d: Sum(rhs),rhsMax =  -9.43109756956773E-11  1.01373408911062E-01
 cg2d: Sum(rhs),rhsMax =  -8.41945541063538E-11  1.13480435857796E-01
 cg2d: Sum(rhs),rhsMax =  -7.60073254335580E-11  1.25591866644587E-01
 cg2d: Sum(rhs),rhsMax =  -6.92473023367057E-11  1.37785262983584E-01
 cg2d: Sum(rhs),rhsMax =  -6.35203556420549E-11  1.50113863949888E-01
 cg2d: Sum(rhs),rhsMax =  -5.86590220841288E-11  1.62459312964427E-01
 cg2d: Sum(rhs),rhsMax =  -5.45104517080119E-11  1.75016944721976E-01
 cg2d: Sum(rhs),rhsMax =  -5.09045028351807E-11  1.87632925392827E-01
 cg2d: Sum(rhs),rhsMax =  -4.77694550582441E-11  2.00464729232293E-01
 cg2d: Sum(rhs),rhsMax =  -4.49356107878884E-11  2.13432175154653E-01
 cg2d: Sum(rhs),rhsMax =  -4.22125667753903E-11  2.26790732436240E-01
 cg2d: Sum(rhs),rhsMax =  -3.98246990940265E-11  2.40589710850000E-01
 cg2d: Sum(rhs),rhsMax =  -3.78937992095985E-11  2.54435069028727E-01
 cg2d: Sum(rhs),rhsMax =  -3.60038665547791E-11  2.68324122957183E-01
 cg2d: Sum(rhs),rhsMax =  -3.43493011811802E-11  2.82253448402189E-01
 cg2d: Sum(rhs),rhsMax =  -3.27976534819641E-11  2.96218885023855E-01
 cg2d: Sum(rhs),rhsMax =  -3.14241965782003E-11  3.10215542441915E-01
 cg2d: Sum(rhs),rhsMax =  -3.01340064012834E-11  3.24237808165326E-01
 cg2d: Sum(rhs),rhsMax =  -2.89150925425474E-11  3.38279357349893E-01
 cg2d: Sum(rhs),rhsMax =  -2.78016498711509E-11  3.52333164430384E-01
 cg2d: Sum(rhs),rhsMax =  -2.68340905051900E-11  3.66391516769965E-01
 cg2d: Sum(rhs),rhsMax =  -2.58540966413534E-11  3.80446030557008E-01
 cg2d: Sum(rhs),rhsMax =  -2.49723575151961E-11  3.94487669227575E-01
 cg2d: Sum(rhs),rhsMax =  -2.41658915101084E-11  4.08506764701893E-01
 cg2d: Sum(rhs),rhsMax =  -2.34339214699730E-11  4.22493041692561E-01
 cg2d: Sum(rhs),rhsMax =  -2.26925145341283E-11  4.36435645390986E-01
 cg2d: Sum(rhs),rhsMax =  -2.20630180791659E-11  4.50323172759978E-01
 cg2d: Sum(rhs),rhsMax =  -2.14549489285787E-11  4.64143707586653E-01
 cg2d: Sum(rhs),rhsMax =  -2.08628669895461E-11  4.77884859454197E-01
 cg2d: Sum(rhs),rhsMax =  -2.00359728808053E-11  4.95557140459826E-01
 cg2d: Sum(rhs),rhsMax =  -1.92429405743155E-11  5.14536403911328E-01
 cg2d: Sum(rhs),rhsMax =  -1.85624848825228E-11  5.33331946503224E-01
 cg2d: Sum(rhs),rhsMax =  -1.79566361779848E-11  5.51914103076930E-01
 cg2d: Sum(rhs),rhsMax =  -1.74159575649924E-11  5.70253043852620E-01
 cg2d: Sum(rhs),rhsMax =  -1.68157709978800E-11  5.88318879682452E-01
 cg2d: Sum(rhs),rhsMax =  -1.63633551153453E-11  6.06081773718730E-01
 cg2d: Sum(rhs),rhsMax =  -1.59183777270755E-11  6.23512057991079E-01
 cg2d: Sum(rhs),rhsMax =  -1.54501966775911E-11  6.40580353358163E-01
 cg2d: Sum(rhs),rhsMax =  -1.50409684707142E-11  6.57257691248669E-01
 cg2d: Sum(rhs),rhsMax =  -1.46721523819338E-11  6.73515635569305E-01
 cg2d: Sum(rhs),rhsMax =  -1.43683953623963E-11  6.89326403210027E-01
 cg2d: Sum(rhs),rhsMax =  -1.40193412434542E-11  7.04662981801702E-01
 cg2d: Sum(rhs),rhsMax =  -1.37090339080714E-11  7.19499243943401E-01
 cg2d: Sum(rhs),rhsMax =  -1.34574573706914E-11  7.33810055542629E-01
 cg2d: Sum(rhs),rhsMax =  -1.31930022462257E-11  7.47571379623698E-01
 cg2d: Sum(rhs),rhsMax =  -1.29769528456336E-11  7.60760372794707E-01
 cg2d: Sum(rhs),rhsMax =  -1.27527988169618E-11  7.73355475368538E-01
 cg2d: Sum(rhs),rhsMax =  -1.25599530775844E-11  7.85336494457299E-01
 cg2d: Sum(rhs),rhsMax =  -1.23939747354029E-11  7.96684679060984E-01
 cg2d: Sum(rhs),rhsMax =  -1.22234444788205E-11  8.07382786216576E-01
 cg2d: Sum(rhs),rhsMax =  -1.20530252445405E-11  8.17415137048323E-01
 cg2d: Sum(rhs),rhsMax =  -1.18867138354517E-11  8.26767661839373E-01
 cg2d: Sum(rhs),rhsMax =  -1.17691412171439E-11  8.35427932750852E-01
 cg2d: Sum(rhs),rhsMax =  -1.16914256054201E-11  8.43385183776224E-01
 cg2d: Sum(rhs),rhsMax =  -1.16429088592440E-11  8.50630317984524E-01
 cg2d: Sum(rhs),rhsMax =  -1.15890630425497E-11  8.57155902370365E-01
 cg2d: Sum(rhs),rhsMax =  -1.15529807942494E-11  8.62956151284292E-01
 cg2d: Sum(rhs),rhsMax =  -1.15539799949715E-11  8.68026900070369E-01
 cg2d: Sum(rhs),rhsMax =  -1.14294129716086E-11  8.72365571107729E-01
 cg2d: Sum(rhs),rhsMax =  -1.12955200748388E-11  8.75971134644084E-01
 cg2d: Sum(rhs),rhsMax =  -1.11832765270492E-11  8.78844067081384E-01
 cg2d: Sum(rhs),rhsMax =  -1.11973763594619E-11  8.80986309126735E-01
 cg2d: Sum(rhs),rhsMax =  -1.10982334433629E-11  8.82401225449057E-01
 cg2d: Sum(rhs),rhsMax =  -1.09595665875872E-11  8.83093567309107E-01
 cg2d: Sum(rhs),rhsMax =  -1.08829611988881E-11  8.83069438506228E-01
 cg2d: Sum(rhs),rhsMax =  -1.08266728915396E-11  8.82336264102829E-01
 cg2d: Sum(rhs),rhsMax =  -1.07509556812602E-11  8.80902761182298E-01
 cg2d: Sum(rhs),rhsMax =  -1.07192033027559E-11  8.78778908355633E-01
 cg2d: Sum(rhs),rhsMax =  -1.06962216861461E-11  8.75975916524242E-01
 cg2d: Sum(rhs),rhsMax =  -1.06757935824930E-11  8.72506196769493E-01
 cg2d: Sum(rhs),rhsMax =  -1.07136521876328E-11  8.68383321916885E-01
 cg2d: Sum(rhs),rhsMax =  -1.07329700682612E-11  8.63621981450376E-01
 cg2d: Sum(rhs),rhsMax =  -1.07693853834689E-11  8.58237929784854E-01
 cg2d: Sum(rhs),rhsMax =  -1.07962527806649E-11  8.52247927069135E-01
 cg2d: Sum(rhs),rhsMax =  -1.08675290988458E-11  8.45669675631633E-01
 cg2d: Sum(rhs),rhsMax =  -1.09372511047923E-11  8.38521750452774E-01
 cg2d: Sum(rhs),rhsMax =  -1.10335074410273E-11  8.30823526030506E-01
 cg2d: Sum(rhs),rhsMax =  -1.11077813613747E-11  8.22595098690709E-01
 cg2d: Sum(rhs),rhsMax =  -1.12129194818067E-11  8.13857209711839E-01
 cg2d: Sum(rhs),rhsMax =  -1.13549170066563E-11  8.04631168954192E-01
 cg2d: Sum(rhs),rhsMax =  -1.15059073380053E-11  7.94938776605832E-01
 cg2d: Sum(rhs),rhsMax =  -1.15755183216493E-11  7.89594005718986E-01
 cg2d: Sum(rhs),rhsMax =  -1.16694431895326E-11  7.84833923038967E-01
 cg2d: Sum(rhs),rhsMax =  -1.17643672581380E-11  7.79727668530787E-01
 cg2d: Sum(rhs),rhsMax =  -1.18453025166332E-11  7.74285364378232E-01
 cg2d: Sum(rhs),rhsMax =  -1.19358967154426E-11  7.68517352846110E-01
 cg2d: Sum(rhs),rhsMax =  -1.19959597810748E-11  7.62434157957999E-01
 cg2d: Sum(rhs),rhsMax =  -1.20989884777600E-11  7.56046446472619E-01
 cg2d: Sum(rhs),rhsMax =  -1.21801457808601E-11  7.49364988984482E-01
 cg2d: Sum(rhs),rhsMax =  -1.23087096071117E-11  7.42400622398549E-01
 cg2d: Sum(rhs),rhsMax =  -1.24013022073655E-11  7.35164213935418E-01
 cg2d: Sum(rhs),rhsMax =  -1.25249810523087E-11  7.27666625484784E-01
 cg2d: Sum(rhs),rhsMax =  -1.26715304915592E-11  7.19918678225652E-01
 cg2d: Sum(rhs),rhsMax =  -1.28026478307675E-11  7.11931118013413E-01
 cg2d: Sum(rhs),rhsMax =  -1.29160016015817E-11  7.03714580535221E-01
 cg2d: Sum(rhs),rhsMax =  -1.31121780100329E-11  6.95279557499141E-01
 cg2d: Sum(rhs),rhsMax =  -1.32632793636844E-11  6.86636363180328E-01
 cg2d: Sum(rhs),rhsMax =  -1.34342537094767E-11  6.77795101602060E-01
 cg2d: Sum(rhs),rhsMax =  -1.35685906954564E-11  6.68765634421923E-01
 cg2d: Sum(rhs),rhsMax =  -1.37061473282074E-11  6.59557549545458E-01
 cg2d: Sum(rhs),rhsMax =  -1.38996592013996E-11  6.50180130042941E-01
 cg2d: Sum(rhs),rhsMax =  -1.41553435639707E-11  6.40642323289193E-01
 cg2d: Sum(rhs),rhsMax =  -1.43797196372475E-11  6.30952712893433E-01
 cg2d: Sum(rhs),rhsMax =  -1.45385925520713E-11  6.21119490064605E-01
 cg2d: Sum(rhs),rhsMax =  -1.46901379949327E-11  6.11150424341760E-01
 cg2d: Sum(rhs),rhsMax =  -1.48376866349054E-11  6.01052833800988E-01
 cg2d: Sum(rhs),rhsMax =  -1.49664725057619E-11  5.90833554329899E-01
 cg2d: Sum(rhs),rhsMax =  -1.50771617413170E-11  5.80498911668010E-01
 cg2d: Sum(rhs),rhsMax =  -1.52393653252147E-11  5.70054692712389E-01
 cg2d: Sum(rhs),rhsMax =  -1.53654866608122E-11  5.59506116734393E-01
 cg2d: Sum(rhs),rhsMax =  -1.55058188511248E-11  5.48857806876660E-01
 cg2d: Sum(rhs),rhsMax =  -1.56863411149288E-11  5.38113763197539E-01
 cg2d: Sum(rhs),rhsMax =  -1.58878465938983E-11  5.27277338122978E-01
 cg2d: Sum(rhs),rhsMax =  -1.63064006741820E-11  5.16351215069145E-01
 cg2d: Sum(rhs),rhsMax =  -1.66440194959705E-11  5.05337390858221E-01
 cg2d: Sum(rhs),rhsMax =  -1.69567693220074E-11  4.94237163196740E-01
 cg2d: Sum(rhs),rhsMax =  -1.72656333674581E-11  4.83051123975966E-01
 cg2d: Sum(rhs),rhsMax =  -1.76753056635448E-11  4.71779159064094E-01
 cg2d: Sum(rhs),rhsMax =  -1.81130666021545E-11  4.60420454018785E-01
 cg2d: Sum(rhs),rhsMax =  -1.86105575394890E-11  4.48973506872807E-01
 cg2d: Sum(rhs),rhsMax =  -1.91222593315388E-11  4.37436148298031E-01
 cg2d: Sum(rhs),rhsMax =  -1.96963556575724E-11  4.25805568466152E-01
 cg2d: Sum(rhs),rhsMax =  -2.02834415929942E-11  4.14078349565718E-01
 cg2d: Sum(rhs),rhsMax =  -2.09583461696639E-11  4.02250503384537E-01
 cg2d: Sum(rhs),rhsMax =  -2.16376916384320E-11  3.90317513173930E-01
 cg2d: Sum(rhs),rhsMax =  -2.23654428310738E-11  3.78274377561556E-01
 cg2d: Sum(rhs),rhsMax =  -2.31644703418965E-11  3.66115656626664E-01
 cg2d: Sum(rhs),rhsMax =  -2.40271691431815E-11  3.53835519320341E-01
 cg2d: Sum(rhs),rhsMax =  -2.49886777936581E-11  3.41427791120629E-01
 cg2d: Sum(rhs),rhsMax =  -2.60090282644398E-11  3.28886000096336E-01
 cg2d: Sum(rhs),rhsMax =  -2.71417333053137E-11  3.16203422123342E-01
 cg2d: Sum(rhs),rhsMax =  -2.83825185576347E-11  3.03373125162630E-01
 cg2d: Sum(rhs),rhsMax =  -2.97517011027537E-11  2.90388012893699E-01
 cg2d: Sum(rhs),rhsMax =  -3.12064263319201E-11  2.77240867914821E-01
 cg2d: Sum(rhs),rhsMax =  -3.28277405259314E-11  2.63924394247845E-01
 cg2d: Sum(rhs),rhsMax =  -3.46800366202160E-11  2.50431261305668E-01
 cg2d: Sum(rhs),rhsMax =  -3.67362806841243E-11  2.36754149072918E-01
 cg2d: Sum(rhs),rhsMax =  -3.90593113408499E-11  2.22885795328244E-01
 cg2d: Sum(rhs),rhsMax =  -4.17590684254066E-11  2.08819045449282E-01
 cg2d: Sum(rhs),rhsMax =  -4.49079384789997E-11  1.94546905150172E-01
 cg2d: Sum(rhs),rhsMax =  -4.85932682980916E-11  1.80062596215839E-01
 cg2d: Sum(rhs),rhsMax =  -5.29975785479309E-11  1.65359615125596E-01
 cg2d: Sum(rhs),rhsMax =  -5.83529127795579E-11  1.50431794828565E-01
 cg2d: Sum(rhs),rhsMax =  -6.50113990419143E-11  1.35273368535201E-01
 cg2d: Sum(rhs),rhsMax =  -7.34747540587222E-11  1.19879034653270E-01
 cg2d: Sum(rhs),rhsMax =  -8.45516989755879E-11  1.04244022331640E-01
 cg2d: Sum(rhs),rhsMax =  -9.98172100530326E-11  8.83641567468471E-02
 cg2d: Sum(rhs),rhsMax =  -1.20988774554576E-10  7.29370180656436E-02
 cg2d: Sum(rhs),rhsMax =  -1.19674825604932E-10  7.37874638534701E-02
 cg2d: Sum(rhs),rhsMax =  -1.18389076320113E-10  7.46341226566090E-02
 cg2d: Sum(rhs),rhsMax =  -1.05584652132507E-10  8.37427914843937E-02
 cg2d: Sum(rhs),rhsMax =  -9.40350020073311E-11  9.40947026579686E-02
 cg2d: Sum(rhs),rhsMax =  -8.46273051635649E-11  1.04615447915200E-01
 cg2d: Sum(rhs),rhsMax =  -7.66285923603505E-11  1.15555826909410E-01
 cg2d: Sum(rhs),rhsMax =  -6.99451607744095E-11  1.26686036149303E-01
 cg2d: Sum(rhs),rhsMax =  -6.42894626423640E-11  1.37859345168383E-01
 cg2d: Sum(rhs),rhsMax =  -5.95048454954394E-11  1.49077797601707E-01
 cg2d: Sum(rhs),rhsMax =  -5.54304380173676E-11  1.60342880225035E-01
 cg2d: Sum(rhs),rhsMax =  -5.18234344326629E-11  1.71655517176164E-01
 cg2d: Sum(rhs),rhsMax =  -4.86881646111215E-11  1.83016067791531E-01
 cg2d: Sum(rhs),rhsMax =  -4.58815208048691E-11  1.94424327312048E-01
 cg2d: Sum(rhs),rhsMax =  -4.34078328837018E-11  2.05879529676226E-01
 cg2d: Sum(rhs),rhsMax =  -4.11422007573492E-11  2.17380351654407E-01
 cg2d: Sum(rhs),rhsMax =  -3.86171095101417E-11  2.31952542245158E-01
 cg2d: Sum(rhs),rhsMax =  -3.60035334878717E-11  2.48869521083552E-01
 cg2d: Sum(rhs),rhsMax =  -3.36993766225646E-11  2.66260221804582E-01
 cg2d: Sum(rhs),rhsMax =  -3.16384696219529E-11  2.84134645252203E-01
 cg2d: Sum(rhs),rhsMax =  -2.97478708333188E-11  3.02610479693474E-01
 cg2d: Sum(rhs),rhsMax =  -2.80538925423457E-11  3.21607521003770E-01
 cg2d: Sum(rhs),rhsMax =  -2.65719668490760E-11  3.41279592010712E-01
 cg2d: Sum(rhs),rhsMax =  -2.50249820865633E-11  3.61981892280736E-01
 cg2d: Sum(rhs),rhsMax =  -2.37162511851352E-11  3.82733682209984E-01
 cg2d: Sum(rhs),rhsMax =  -2.25476304294148E-11  4.03514669855637E-01
 cg2d: Sum(rhs),rhsMax =  -2.14851469948485E-11  4.24303801687709E-01
 cg2d: Sum(rhs),rhsMax =  -2.04976036144444E-11  4.45079312936772E-01
 cg2d: Sum(rhs),rhsMax =  -1.96058724810655E-11  4.65818783088009E-01
 cg2d: Sum(rhs),rhsMax =  -1.88364879250003E-11  4.86499196362911E-01
 cg2d: Sum(rhs),rhsMax =  -1.80525594473124E-11  5.07097006878942E-01
 cg2d: Sum(rhs),rhsMax =  -1.73743242015689E-11  5.27588208033087E-01
 cg2d: Sum(rhs),rhsMax =  -1.67522662408714E-11  5.47948405539674E-01
 cg2d: Sum(rhs),rhsMax =  -1.61514135399443E-11  5.68152893466773E-01
 cg2d: Sum(rhs),rhsMax =  -1.55899737563914E-11  5.88176732567500E-01
 cg2d: Sum(rhs),rhsMax =  -1.50843781909771E-11  6.07994830158081E-01
 cg2d: Sum(rhs),rhsMax =  -1.46112011378818E-11  6.27582020763447E-01
 cg2d: Sum(rhs),rhsMax =  -1.41313627466388E-11  6.46913146765299E-01
 cg2d: Sum(rhs),rhsMax =  -1.37084787965591E-11  6.65963138366839E-01
 cg2d: Sum(rhs),rhsMax =  -1.33205668717551E-11  6.84707092264753E-01
 cg2d: Sum(rhs),rhsMax =  -1.29726229758376E-11  7.03120348527735E-01
 cg2d: Sum(rhs),rhsMax =  -1.26253452137348E-11  7.21178565301278E-01
 cg2d: Sum(rhs),rhsMax =  -1.22799548307739E-11  7.38857791082977E-01
 cg2d: Sum(rhs),rhsMax =  -1.20055076990866E-11  7.56134534427399E-01
 cg2d: Sum(rhs),rhsMax =  -1.17196252702456E-11  7.72985831045839E-01
 cg2d: Sum(rhs),rhsMax =  -1.14449560939534E-11  7.89389308348507E-01
 cg2d: Sum(rhs),rhsMax =  -1.12163611731830E-11  8.05323247537245E-01
 cg2d: Sum(rhs),rhsMax =  -1.09680042825744E-11  8.20766643387426E-01
 cg2d: Sum(rhs),rhsMax =  -1.07459596776494E-11  8.35699261850851E-01
 cg2d: Sum(rhs),rhsMax =  -1.05453423770996E-11  8.50101695568154E-01
 cg2d: Sum(rhs),rhsMax =  -1.03569375298207E-11  8.63955417313316E-01
 cg2d: Sum(rhs),rhsMax =  -1.02065023099840E-11  8.77242831310462E-01
 cg2d: Sum(rhs),rhsMax =  -1.00154329274460E-11  8.89947322265265E-01
 cg2d: Sum(rhs),rhsMax =  -9.88031878534912E-12  9.02053301851878E-01
 cg2d: Sum(rhs),rhsMax =  -9.75075575837536E-12  9.13546252280239E-01
 cg2d: Sum(rhs),rhsMax =  -9.59721191406970E-12  9.24412766663592E-01
 cg2d: Sum(rhs),rhsMax =  -9.51949630234594E-12  9.34640585627455E-01
 cg2d: Sum(rhs),rhsMax =  -9.39659461351994E-12  9.44218629721374E-01
 cg2d: Sum(rhs),rhsMax =  -9.33708665940003E-12  9.53137027167104E-01
 cg2d: Sum(rhs),rhsMax =  -9.28279675349586E-12  9.61387136595350E-01
 cg2d: Sum(rhs),rhsMax =  -9.22983911522124E-12  9.68961564450994E-01
 cg2d: Sum(rhs),rhsMax =  -9.23094933824586E-12  9.75854176840059E-01
 cg2d: Sum(rhs),rhsMax =  -9.26092535991074E-12  9.82060105918133E-01
 cg2d: Sum(rhs),rhsMax =  -9.21529519359865E-12  9.87575750447516E-01
 cg2d: Sum(rhs),rhsMax =  -9.22650844614736E-12  9.92398771655896E-01
 cg2d: Sum(rhs),rhsMax =  -9.25082233038665E-12  9.96528082280047E-01
 cg2d: Sum(rhs),rhsMax =  -9.22462106700550E-12  9.99963830829511E-01
 cg2d: Sum(rhs),rhsMax =  -9.42057543085184E-12  1.00270738208376E+00
 cg2d: Sum(rhs),rhsMax =  -9.44277989134434E-12  1.00476129407325E+00
 cg2d: Sum(rhs),rhsMax =  -9.39492927898300E-12  1.00612929172076E+00
 cg2d: Sum(rhs),rhsMax =  -9.34197164070838E-12  1.00681623760939E+00
 cg2d: Sum(rhs),rhsMax =  -9.26114740451567E-12  1.00682810032206E+00
 cg2d: Sum(rhs),rhsMax =  -9.18198850285989E-12  1.00617192074596E+00
 cg2d: Sum(rhs),rhsMax =  -9.09516906233421E-12  1.00485577625877E+00
 cg2d: Sum(rhs),rhsMax =  -9.06963393276783E-12  1.00288874413400E+00
 cg2d: Sum(rhs),rhsMax =  -9.02655727941237E-12  1.00028086377671E+00
 cg2d: Sum(rhs),rhsMax =  -9.02999897078871E-12  9.97043096340354E-01
 cg2d: Sum(rhs),rhsMax =  -9.04387675859653E-12  9.93187283651544E-01
 cg2d: Sum(rhs),rhsMax =  -9.08595421122982E-12  9.88726105881349E-01
 cg2d: Sum(rhs),rhsMax =  -9.22018017490700E-12  9.83673038609488E-01
 cg2d: Sum(rhs),rhsMax =  -9.20208353960561E-12  9.78042308361942E-01
 cg2d: Sum(rhs),rhsMax =  -9.16033915387970E-12  9.71848843114223E-01
 cg2d: Sum(rhs),rhsMax =  -9.16422493446589E-12  9.65108221257146E-01
 cg2d: Sum(rhs),rhsMax =  -9.18998210863720E-12  9.57836618471952E-01
 cg2d: Sum(rhs),rhsMax =  -9.20674647630904E-12  9.50050754102082E-01
 cg2d: Sum(rhs),rhsMax =  -9.24316179151674E-12  9.41767831151642E-01
 cg2d: Sum(rhs),rhsMax =  -9.25348686564575E-12  9.33005477467478E-01
 cg2d: Sum(rhs),rhsMax =  -9.30555632550067E-12  9.23781685995033E-01
 cg2d: Sum(rhs),rhsMax =  -9.36373201199103E-12  9.14114752605576E-01
 cg2d: Sum(rhs),rhsMax =  -9.38782385162540E-12  9.04023215459514E-01
 cg2d: Sum(rhs),rhsMax =  -9.44244682443696E-12  8.93525796517753E-01
 cg2d: Sum(rhs),rhsMax =  -9.53270795633898E-12  8.82641344616662E-01
 cg2d: Sum(rhs),rhsMax =  -9.63029656020353E-12  8.71388779427405E-01
 cg2d: Sum(rhs),rhsMax =  -9.71733804533415E-12  8.59787038083038E-01
 cg2d: Sum(rhs),rhsMax =  -9.81470460459377E-12  8.47855024747256E-01
 cg2d: Sum(rhs),rhsMax =  -1.00043306971997E-11  8.35611563840161E-01
 cg2d: Sum(rhs),rhsMax =  -1.01475494673764E-11  8.23075356432933E-01
 cg2d: Sum(rhs),rhsMax =  -1.02836628101954E-11  8.10264939577406E-01
 cg2d: Sum(rhs),rhsMax =  -1.04736219697088E-11  7.97198648724742E-01
 cg2d: Sum(rhs),rhsMax =  -1.06744613148635E-11  7.83894583195696E-01
 cg2d: Sum(rhs),rhsMax =  -1.08657527420064E-11  7.70370573479189E-01
 cg2d: Sum(rhs),rhsMax =  -1.10744746706359E-11  7.56644150107919E-01
 cg2d: Sum(rhs),rhsMax =  -1.12618803171927E-11  7.42732511885530E-01
 cg2d: Sum(rhs),rhsMax =  -1.15059073380053E-11  7.28652498850610E-01
 cg2d: Sum(rhs),rhsMax =  -1.17290621659549E-11  7.14420565575408E-01
 cg2d: Sum(rhs),rhsMax =  -1.19544374399538E-11  7.00052753466552E-01
 cg2d: Sum(rhs),rhsMax =  -1.22236665234254E-11  6.85564661425129E-01
 cg2d: Sum(rhs),rhsMax =  -1.24504850873564E-11  6.70971420392953E-01
 cg2d: Sum(rhs),rhsMax =  -1.27037269592734E-11  6.56287666877391E-01
 cg2d: Sum(rhs),rhsMax =  -1.29268817872230E-11  6.41527516178108E-01
 cg2d: Sum(rhs),rhsMax =  -1.32085453685704E-11  6.26704535854802E-01
 cg2d: Sum(rhs),rhsMax =  -1.34968702880656E-11  6.11831719876615E-01
 cg2d: Sum(rhs),rhsMax =  -1.37398981081560E-11  5.96921464745419E-01
 cg2d: Sum(rhs),rhsMax =  -1.40434330830885E-11  5.81985547859860E-01
 cg2d: Sum(rhs),rhsMax =  -1.43310918687689E-11  5.67035107671395E-01
 cg2d: Sum(rhs),rhsMax =  -1.46106460263695E-11  5.52080626428914E-01
 cg2d: Sum(rhs),rhsMax =  -1.50092160922100E-11  5.37131915928631E-01
 cg2d: Sum(rhs),rhsMax =  -1.54052326450937E-11  5.22198106632085E-01
 cg2d: Sum(rhs),rhsMax =  -1.58072444023105E-11  5.07287641024255E-01
 cg2d: Sum(rhs),rhsMax =  -1.62486690769015E-11  4.92408269495743E-01
 cg2d: Sum(rhs),rhsMax =  -1.66794356104560E-11  4.77567050635215E-01
 cg2d: Sum(rhs),rhsMax =  -1.71460623477060E-11  4.62770355923732E-01
 cg2d: Sum(rhs),rhsMax =  -1.76698655707241E-11  4.48023878593701E-01
 cg2d: Sum(rhs),rhsMax =  -1.82281967298081E-11  4.33332646161661E-01
 cg2d: Sum(rhs),rhsMax =  -1.88074000817551E-11  4.18701035213645E-01
 cg2d: Sum(rhs),rhsMax =  -1.93577376350618E-11  4.04132789160373E-01
 cg2d: Sum(rhs),rhsMax =  -1.99456007266008E-11  3.90863481259936E-01
 cg2d: Sum(rhs),rhsMax =  -2.04560812733234E-11  3.80286668649731E-01
 cg2d: Sum(rhs),rhsMax =  -2.09539052775654E-11  3.69597677897241E-01
 cg2d: Sum(rhs),rhsMax =  -2.17457163387280E-11  3.58795086600192E-01
 cg2d: Sum(rhs),rhsMax =  -2.23017160294603E-11  3.47877160479383E-01
 cg2d: Sum(rhs),rhsMax =  -2.29749552715930E-11  3.36841864278950E-01
 cg2d: Sum(rhs),rhsMax =  -2.36832775613038E-11  3.25686877975083E-01
 cg2d: Sum(rhs),rhsMax =  -2.44011477690265E-11  3.14409618894134E-01
 cg2d: Sum(rhs),rhsMax =  -2.52465826022785E-11  3.03007275310307E-01
 cg2d: Sum(rhs),rhsMax =  -2.61602961515450E-11  2.91476846168826E-01
 cg2d: Sum(rhs),rhsMax =  -2.71049849231986E-11  2.79815187514057E-01
 cg2d: Sum(rhs),rhsMax =  -2.82212031521567E-11  2.68019065306594E-01
 cg2d: Sum(rhs),rhsMax =  -2.94875235340442E-11  2.56085213339488E-01
 cg2d: Sum(rhs),rhsMax =  -3.08801872961340E-11  2.44010394137364E-01
 cg2d: Sum(rhs),rhsMax =  -3.24400506457323E-11  2.31791460161303E-01
 cg2d: Sum(rhs),rhsMax =  -3.42144090836882E-11  2.19425411583644E-01
 cg2d: Sum(rhs),rhsMax =  -3.62191387992539E-11  2.06909450380342E-01
 cg2d: Sum(rhs),rhsMax =  -3.85194098839747E-11  1.94241030228326E-01
 cg2d: Sum(rhs),rhsMax =  -4.11564116120644E-11  1.81417897350370E-01
 cg2d: Sum(rhs),rhsMax =  -4.42292868996219E-11  1.68438123061906E-01
 cg2d: Sum(rhs),rhsMax =  -4.79301043299074E-11  1.55300127814921E-01
 cg2d: Sum(rhs),rhsMax =  -5.23203702584851E-11  1.42002700545915E-01
 cg2d: Sum(rhs),rhsMax =  -5.77471404028529E-11  1.28545013293133E-01
 cg2d: Sum(rhs),rhsMax =  -6.44888586975867E-11  1.14926634338953E-01
 cg2d: Sum(rhs),rhsMax =  -7.31747995530441E-11  1.01147541087870E-01
 cg2d: Sum(rhs),rhsMax =  -8.47865111452961E-11  8.72081339211867E-02
 cg2d: Sum(rhs),rhsMax =  -8.61275495367408E-11  8.57413608937150E-02
 cg2d: Sum(rhs),rhsMax =  -8.68558558408949E-11  8.49242278782530E-02
 cg2d: Sum(rhs),rhsMax =  -8.73562333580935E-11  8.43160784473031E-02
 cg2d: Sum(rhs),rhsMax =  -8.68190519476286E-11  8.47508434969151E-02
 cg2d: Sum(rhs),rhsMax =  -8.62895865871849E-11  8.51939432118891E-02
 cg2d: Sum(rhs),rhsMax =  -8.57666663384160E-11  8.56339585522553E-02
 cg2d: Sum(rhs),rhsMax =  -8.52728998523844E-11  8.60708553290357E-02
 cg2d: Sum(rhs),rhsMax =  -8.48258685515191E-11  8.64678965256405E-02
 cg2d: Sum(rhs),rhsMax =  -8.18626277876433E-11  8.95824306110601E-02
 cg2d: Sum(rhs),rhsMax =  -7.62029328527092E-11  9.62331423144468E-02
 cg2d: Sum(rhs),rhsMax =  -7.13135106522600E-11  1.02806126561216E-01
 cg2d: Sum(rhs),rhsMax =  -6.41653397082109E-11  1.14252107844685E-01
 cg2d: Sum(rhs),rhsMax =  -5.81592551895938E-11  1.26030426589760E-01
 cg2d: Sum(rhs),rhsMax =  -5.32095478789074E-11  1.37825222000652E-01
 cg2d: Sum(rhs),rhsMax =  -4.90820717402585E-11  1.49837266582751E-01
 cg2d: Sum(rhs),rhsMax =  -4.54627446799805E-11  1.61845703209295E-01
 cg2d: Sum(rhs),rhsMax =  -4.23532320326103E-11  1.74098602378643E-01
 cg2d: Sum(rhs),rhsMax =  -3.93618471150603E-11  1.87606451565956E-01
 cg2d: Sum(rhs),rhsMax =  -3.63060692620820E-11  2.03811462645302E-01
 cg2d: Sum(rhs),rhsMax =  -3.36517480548082E-11  2.20052026125810E-01
 cg2d: Sum(rhs),rhsMax =  -3.13757908543266E-11  2.36315384624729E-01
 cg2d: Sum(rhs),rhsMax =  -2.92952329061791E-11  2.52588205927975E-01
 cg2d: Sum(rhs),rhsMax =  -2.74741340788864E-11  2.68856610725685E-01
 cg2d: Sum(rhs),rhsMax =  -2.58981724954310E-11  2.85106207005990E-01
 cg2d: Sum(rhs),rhsMax =  -2.45499176543262E-11  3.01322131384116E-01
 cg2d: Sum(rhs),rhsMax =  -2.34290364886647E-11  3.17489097476406E-01
 cg2d: Sum(rhs),rhsMax =  -2.24548157845561E-11  3.33591450987399E-01
 cg2d: Sum(rhs),rhsMax =  -2.15694129224175E-11  3.49613230814175E-01
 cg2d: Sum(rhs),rhsMax =  -2.08401074175413E-11  3.65538234628499E-01
 cg2d: Sum(rhs),rhsMax =  -2.01524352760885E-11  3.81350087387503E-01
 cg2d: Sum(rhs),rhsMax =  -1.94867455505232E-11  3.97032311429734E-01
 cg2d: Sum(rhs),rhsMax =  -1.89109838899526E-11  4.12568396086452E-01
 cg2d: Sum(rhs),rhsMax =  -1.83516535301465E-11  4.27941864572788E-01
 cg2d: Sum(rhs),rhsMax =  -1.78764780756069E-11  4.43136337090418E-01
 cg2d: Sum(rhs),rhsMax =  -1.74036340894190E-11  4.58135587645187E-01
 cg2d: Sum(rhs),rhsMax =  -1.69682046191610E-11  4.72923593406996E-01
 cg2d: Sum(rhs),rhsMax =  -1.65895075454614E-11  4.87484575690350E-01
 cg2d: Sum(rhs),rhsMax =  -1.62111435386691E-11  5.01803032132968E-01
 cg2d: Sum(rhs),rhsMax =  -1.58690838247821E-11  5.15863759925147E-01
 cg2d: Sum(rhs),rhsMax =  -1.56027413211746E-11  5.29651869839861E-01
 cg2d: Sum(rhs),rhsMax =  -1.53660417723245E-11  5.43152793073181E-01
 cg2d: Sum(rhs),rhsMax =  -1.51441081897019E-11  5.56352282010472E-01
 cg2d: Sum(rhs),rhsMax =  -1.49539269855836E-11  5.69236406660084E-01
 cg2d: Sum(rhs),rhsMax =  -1.47176715259434E-11  5.81791549392598E-01
 cg2d: Sum(rhs),rhsMax =  -1.45223832959118E-11  5.94004400351544E-01
 cg2d: Sum(rhs),rhsMax =  -1.43365319615896E-11  6.05861955779663E-01
 cg2d: Sum(rhs),rhsMax =  -1.41094913530537E-11  6.17351520567770E-01
 cg2d: Sum(rhs),rhsMax =  -1.38506983660136E-11  6.28460717187996E-01
 cg2d: Sum(rhs),rhsMax =  -1.35830235947765E-11  6.39177502357065E-01
 cg2d: Sum(rhs),rhsMax =  -1.33139055336073E-11  6.49490192055444E-01
 cg2d: Sum(rhs),rhsMax =  -1.30997435121571E-11  6.59387494918878E-01
 cg2d: Sum(rhs),rhsMax =  -1.28518307107583E-11  6.68858553691363E-01
 cg2d: Sum(rhs),rhsMax =  -1.26311183734629E-11  6.77892992898330E-01
 cg2d: Sum(rhs),rhsMax =  -1.24203980433890E-11  6.86480971874628E-01
 cg2d: Sum(rhs),rhsMax =  -1.22039045535871E-11  6.94613240952250E-01
 cg2d: Sum(rhs),rhsMax =  -1.20046195206669E-11  7.02281198614053E-01
 cg2d: Sum(rhs),rhsMax =  -1.18594023490459E-11  7.09476947073417E-01
 cg2d: Sum(rhs),rhsMax =  -1.16644471859217E-11  7.16193343842124E-01
 cg2d: Sum(rhs),rhsMax =  -1.15165654790417E-11  7.22424047174939E-01
(PID.TID 0000.0001)      cg2d_init_res =   4.87059270578949E-02
(PID.TID 0000.0001)      cg2d_iters(min,last) =      -1      35
(PID.TID 0000.0001)      cg2d_last_res =   6.56300235963867E-14
(PID.TID 0000.0001) // =======================================================
(PID.TID 0000.0001) // Begin MONITOR dynamic field statistics
(PID.TID 0000.0001) // =======================================================
(PID.TID 0000.0001) %MON time_tsnumber                =                  1440
(PID.TID 0000.0001) %MON time_secondsf                =   2.1600000000000E+04
(PID.TID 0000.0001) %MON dynstat_eta_max              =   1.4191329780003E-01
(PID.TID 0000.0001) %MON dynstat_eta_min              =  -1.0948652366309E-01
(PID.TID 0000.0001) %MON dynstat_eta_mean             =   1.7180575660205E-14
(PID.TID 0000.0001) %MON dynstat_eta_sd               =   9.0121488157009E-02
(PID.TID 0000.0001) %MON dynstat_eta_del2             =   5.3569132661909E-05
(PID.TID 0000.0001) %MON dynstat_uvel_max             =   1.5335111729599E+00
(PID.TID 0000.0001) %MON dynstat_uvel_min             =  -2.6028159058446E-01
(PID.TID 0000.0001) %MON dynstat_uvel_mean            =   5.8296828417239E-01
(PID.TID 0000.0001) %MON dynstat_uvel_sd              =   1.2090128921349E-01
(PID.TID 0000.0001) %MON dynstat_uvel_del2            =   9.3333269017576E-04
(PID.TID 0000.0001) %MON dynstat_vvel_max             =   0.0000000000000E+00
(PID.TID 0000.0001) %MON dynstat_vvel_min             =   0.0000000000000E+00
(PID.TID 0000.0001) %MON dynstat_vvel_mean            =   0.0000000000000E+00
(PID.TID 0000.0001) %MON dynstat_vvel_sd              =   0.0000000000000E+00
(PID.TID 0000.0001) %MON dynstat_vvel_del2            =   0.0000000000000E+00
(PID.TID 0000.0001) %MON dynstat_wvel_max             =   5.4529820125114E-02
(PID.TID 0000.0001) %MON dynstat_wvel_min             =  -4.4831126274964E-02
(PID.TID 0000.0001) %MON dynstat_wvel_mean            =   3.6678990773310E-20
(PID.TID 0000.0001) %MON dynstat_wvel_sd              =   4.4628095100609E-03
(PID.TID 0000.0001) %MON dynstat_wvel_del2            =   8.3540827427748E-05
(PID.TID 0000.0001) %MON dynstat_theta_max            =   1.5000000000004E+01
(PID.TID 0000.0001) %MON dynstat_theta_min            =   9.9999999999974E+00
(PID.TID 0000.0001) %MON dynstat_theta_mean           =   1.2567198567221E+01
(PID.TID 0000.0001) %MON dynstat_theta_sd             =   2.4406263959973E+00
(PID.TID 0000.0001) %MON dynstat_theta_del2           =   1.5672058775197E-03
(PID.TID 0000.0001) %MON dynstat_salt_max             =   3.5000000000000E+01
(PID.TID 0000.0001) %MON dynstat_salt_min             =   3.5000000000000E+01
(PID.TID 0000.0001) %MON dynstat_salt_mean            =   3.5000000000000E+01
(PID.TID 0000.0001) %MON dynstat_salt_sd              =   3.9790393202566E-13
(PID.TID 0000.0001) %MON dynstat_salt_del2            =   0.0000000000000E+00
(PID.TID 0000.0001) %MON dynstat_sst_max              =   1.5000000000000E+01
(PID.TID 0000.0001) %MON dynstat_sst_min              =   1.4999999975790E+01
(PID.TID 0000.0001) %MON dynstat_sst_mean             =   1.4999999999742E+01
(PID.TID 0000.0001) %MON dynstat_sst_sd               =   1.8962893568526E-09
(PID.TID 0000.0001) %MON dynstat_sst_del2             =   9.1074789071306E-11
(PID.TID 0000.0001) %MON dynstat_sss_max              =   3.5000000000000E+01
(PID.TID 0000.0001) %MON dynstat_sss_min              =   3.5000000000000E+01
(PID.TID 0000.0001) %MON dynstat_sss_mean             =   3.5000000000000E+01
(PID.TID 0000.0001) %MON dynstat_sss_sd               =   5.6843418860808E-14
(PID.TID 0000.0001) %MON dynstat_sss_del2             =   0.0000000000000E+00
(PID.TID 0000.0001) %MON forcing_qnet_max             =   0.0000000000000E+00
(PID.TID 0000.0001) %MON forcing_qnet_min             =   0.0000000000000E+00
(PID.TID 0000.0001) %MON forcing_qnet_mean            =   0.0000000000000E+00
(PID.TID 0000.0001) %MON forcing_qnet_sd              =   0.0000000000000E+00
(PID.TID 0000.0001) %MON forcing_qnet_del2            =   0.0000000000000E+00
(PID.TID 0000.0001) %MON forcing_qsw_max              =   0.0000000000000E+00
(PID.TID 0000.0001) %MON forcing_qsw_min              =   0.0000000000000E+00
(PID.TID 0000.0001) %MON forcing_qsw_mean             =   0.0000000000000E+00
(PID.TID 0000.0001) %MON forcing_qsw_sd               =   0.0000000000000E+00
(PID.TID 0000.0001) %MON forcing_qsw_del2             =   0.0000000000000E+00
(PID.TID 0000.0001) %MON forcing_empmr_max            =   0.0000000000000E+00
(PID.TID 0000.0001) %MON forcing_empmr_min            =   0.0000000000000E+00
(PID.TID 0000.0001) %MON forcing_empmr_mean           =   0.0000000000000E+00
(PID.TID 0000.0001) %MON forcing_empmr_sd             =   0.0000000000000E+00
(PID.TID 0000.0001) %MON forcing_empmr_del2           =   0.0000000000000E+00
(PID.TID 0000.0001) %MON forcing_fu_max               =   0.0000000000000E+00
(PID.TID 0000.0001) %MON forcing_fu_min               =   0.0000000000000E+00
(PID.TID 0000.0001) %MON forcing_fu_mean              =   0.0000000000000E+00
(PID.TID 0000.0001) %MON forcing_fu_sd                =   0.0000000000000E+00
(PID.TID 0000.0001) %MON forcing_fu_del2              =   0.0000000000000E+00
(PID.TID 0000.0001) %MON forcing_fv_max               =   0.0000000000000E+00
(PID.TID 0000.0001) %MON forcing_fv_min               =   0.0000000000000E+00
(PID.TID 0000.0001) %MON forcing_fv_mean              =   0.0000000000000E+00
(PID.TID 0000.0001) %MON forcing_fv_sd                =   0.0000000000000E+00
(PID.TID 0000.0001) %MON forcing_fv_del2              =   0.0000000000000E+00
(PID.TID 0000.0001) %MON advcfl_uvel_max              =   1.1501333797199E-01
(PID.TID 0000.0001) %MON advcfl_vvel_max              =   0.0000000000000E+00
(PID.TID 0000.0001) %MON advcfl_wvel_max              =   7.4551631565606E-01
(PID.TID 0000.0001) %MON advcfl_W_hf_max              =   7.5550066842960E-01
(PID.TID 0000.0001) %MON pe_b_mean                    =   2.0454727152520E-04
(PID.TID 0000.0001) %MON ke_max                       =   1.1249677160625E+00
(PID.TID 0000.0001) %MON ke_mean                      =   1.7730449524529E-01
(PID.TID 0000.0001) %MON ke_vol                       =   9.5121673331316E+10
(PID.TID 0000.0001) %MON vort_r_min                   =   0.0000000000000E+00
(PID.TID 0000.0001) %MON vort_r_max                   =   0.0000000000000E+00
(PID.TID 0000.0001) %MON vort_a_mean                  =   0.0000000000000E+00
(PID.TID 0000.0001) %MON vort_a_sd                    =   0.0000000000000E+00
(PID.TID 0000.0001) %MON vort_p_mean                  =   0.0000000000000E+00
(PID.TID 0000.0001) %MON vort_p_sd                    =   0.0000000000000E+00
(PID.TID 0000.0001) %MON surfExpan_theta_mean         =  -4.1125321845642E-15
(PID.TID 0000.0001) %MON surfExpan_salt_mean          =   9.4971412651334E-19
(PID.TID 0000.0001) // =======================================================
(PID.TID 0000.0001) // End MONITOR dynamic field statistics
(PID.TID 0000.0001) // =======================================================
(PID.TID 0000.0001) // =======================================================
(PID.TID 0000.0001) // Begin OBCS MONITOR field statistics
(PID.TID 0000.0001) // =======================================================
(PID.TID 0000.0001) %MON obc_E_uVel_max               =   5.6028564143658E-01
(PID.TID 0000.0001) %MON obc_E_uVel_min               =   5.6028564143658E-01
(PID.TID 0000.0001) %MON obc_E_uVel_mean              =   5.6028564143658E-01
(PID.TID 0000.0001) %MON obc_E_uVel_sd                =   7.4505805969238E-09
(PID.TID 0000.0001) %MON obc_E_uVel_Int               =   5.6028564143658E+05
(PID.TID 0000.0001) %MON obc_W_uVel_max               =   5.6028564143658E-01
(PID.TID 0000.0001) %MON obc_W_uVel_min               =   5.6028564143658E-01
(PID.TID 0000.0001) %MON obc_W_uVel_mean              =   5.6028564143658E-01
(PID.TID 0000.0001) %MON obc_W_uVel_sd                =   7.4505805969238E-09
(PID.TID 0000.0001) %MON obc_W_uVel_Int               =   5.6028564143658E+05
(PID.TID 0000.0001) // =======================================================
(PID.TID 0000.0001) // End OBCS MONITOR field statistics
(PID.TID 0000.0001) // =======================================================
(PID.TID 0000.0001) %CHECKPOINT      1440 0000001440
 cg2d: Sum(rhs),rhsMax =  -1.13786757793832E-11  7.28163553773761E-01
 cg2d: Sum(rhs),rhsMax =  -1.12362341653238E-11  7.33407227771149E-01
 cg2d: Sum(rhs),rhsMax =  -1.11374243161322E-11  7.38151320660898E-01
 cg2d: Sum(rhs),rhsMax =  -1.10368381101011E-11  7.42392982437031E-01
 cg2d: Sum(rhs),rhsMax =  -1.09605657883094E-11  7.46130264679374E-01
 cg2d: Sum(rhs),rhsMax =  -1.08775211060674E-11  7.49362116799180E-01
 cg2d: Sum(rhs),rhsMax =  -1.08439923707238E-11  7.52088376412760E-01
 cg2d: Sum(rhs),rhsMax =  -1.08011377619732E-11  7.54309755392174E-01
 cg2d: Sum(rhs),rhsMax =  -1.07849285058137E-11  7.56027822833364E-01
 cg2d: Sum(rhs),rhsMax =  -1.07682751604443E-11  7.57244985970874E-01
 cg2d: Sum(rhs),rhsMax =  -1.07902575763319E-11  7.57964469671440E-01
 cg2d: Sum(rhs),rhsMax =  -1.08043574087446E-11  7.58190295877221E-01
 cg2d: Sum(rhs),rhsMax =  -1.07908126878442E-11  7.57927261667475E-01
 cg2d: Sum(rhs),rhsMax =  -1.08486553074272E-11  7.57180916856756E-01
 cg2d: Sum(rhs),rhsMax =  -1.08946185406467E-11  7.55957541552471E-01
 cg2d: Sum(rhs),rhsMax =  -1.09703357509261E-11  7.54264121107660E-01
 cg2d: Sum(rhs),rhsMax =  -1.09601216990995E-11  7.54922454675954E-01
 cg2d: Sum(rhs),rhsMax =  -1.09393605285391E-11  7.57008628792658E-01
 cg2d: Sum(rhs),rhsMax =  -1.09363629263726E-11  7.58715482126151E-01
 cg2d: Sum(rhs),rhsMax =  -1.08615338945128E-11  7.60042594437608E-01
 cg2d: Sum(rhs),rhsMax =  -1.07978070928993E-11  7.60990028229562E-01
 cg2d: Sum(rhs),rhsMax =  -1.07810427252275E-11  7.61558321174609E-01
 cg2d: Sum(rhs),rhsMax =  -1.07536202165193E-11  7.61748477154323E-01
 cg2d: Sum(rhs),rhsMax =  -1.07469588783715E-11  7.61561955439871E-01
 cg2d: Sum(rhs),rhsMax =  -1.07157616113795E-11  7.61000657888437E-01
 cg2d: Sum(rhs),rhsMax =  -1.07462927445567E-11  7.60066914081174E-01
 cg2d: Sum(rhs),rhsMax =  -1.07293063322800E-11  7.58763463659441E-01
 cg2d: Sum(rhs),rhsMax =  -1.07417408301558E-11  7.57093437903077E-01
 cg2d: Sum(rhs),rhsMax =  -1.07736042309625E-11  7.55060339487966E-01
 cg2d: Sum(rhs),rhsMax =  -1.07719388964256E-11  7.52668019719491E-01
 cg2d: Sum(rhs),rhsMax =  -1.08473230397976E-11  7.49920653297772E-01
 cg2d: Sum(rhs),rhsMax =  -1.08749675931108E-11  7.46822713734476E-01
 cg2d: Sum(rhs),rhsMax =  -1.09103837075963E-11  7.43378947151076E-01
 cg2d: Sum(rhs),rhsMax =  -1.09604547660069E-11  7.39594344940449E-01
 cg2d: Sum(rhs),rhsMax =  -1.10156328503308E-11  7.35474116577377E-01
 cg2d: Sum(rhs),rhsMax =  -1.10631503957848E-11  7.31023660452643E-01
 cg2d: Sum(rhs),rhsMax =  -1.10915721052152E-11  7.26248533864986E-01
 cg2d: Sum(rhs),rhsMax =  -1.11241016398367E-11  7.21154424206114E-01
 cg2d: Sum(rhs),rhsMax =  -1.11510800593351E-11  7.15747120926398E-01
 cg2d: Sum(rhs),rhsMax =  -1.12897469151108E-11  7.10032488424642E-01
 cg2d: Sum(rhs),rhsMax =  -1.13729026196552E-11  7.04016436073600E-01
 cg2d: Sum(rhs),rhsMax =  -1.14755982494330E-11  6.97704889454485E-01
 cg2d: Sum(rhs),rhsMax =  -1.16320286736027E-11  6.91103762858630E-01
 cg2d: Sum(rhs),rhsMax =  -1.17310605673993E-11  6.84218932501001E-01
 cg2d: Sum(rhs),rhsMax =  -1.17662546372799E-11  6.77056210195776E-01
 cg2d: Sum(rhs),rhsMax =  -1.17370557717322E-11  6.69621318486459E-01
 cg2d: Sum(rhs),rhsMax =  -1.17030829471787E-11  6.61919867934798E-01
 cg2d: Sum(rhs),rhsMax =  -1.16632259405947E-11  6.53957335825227E-01
 cg2d: Sum(rhs),rhsMax =  -1.16540110894903E-11  6.45739046823932E-01
 cg2d: Sum(rhs),rhsMax =  -1.16312515174855E-11  6.37270156350434E-01
 cg2d: Sum(rhs),rhsMax =  -1.16260334692697E-11  6.28555637161178E-01
 cg2d: Sum(rhs),rhsMax =  -1.16343601419544E-11  6.19600269313423E-01
 cg2d: Sum(rhs),rhsMax =  -1.17351683925904E-11  6.10408632584672E-01
 cg2d: Sum(rhs),rhsMax =  -1.19345644478130E-11  6.00985103462718E-01
 cg2d: Sum(rhs),rhsMax =  -1.21508358930100E-11  5.91333855825423E-01
 cg2d: Sum(rhs),rhsMax =  -1.23457910561342E-11  5.81458863499851E-01
 cg2d: Sum(rhs),rhsMax =  -1.25564003639056E-11  5.71363904513715E-01
 cg2d: Sum(rhs),rhsMax =  -1.28121957487792E-11  5.61052566554990E-01
 cg2d: Sum(rhs),rhsMax =  -1.30668809106282E-11  5.50528253266041E-01
 cg2d: Sum(rhs),rhsMax =  -1.33670852164869E-11  5.39794193429371E-01
 cg2d: Sum(rhs),rhsMax =  -1.36999300792695E-11  5.28853449238589E-01
 cg2d: Sum(rhs),rhsMax =  -1.40523148672855E-11  5.17708923587083E-01
 cg2d: Sum(rhs),rhsMax =  -1.44249057143497E-11  5.06363366407654E-01
 cg2d: Sum(rhs),rhsMax =  -1.48375756126029E-11  4.94819380043313E-01
 cg2d: Sum(rhs),rhsMax =  -1.53519419399117E-11  4.83079423653894E-01
 cg2d: Sum(rhs),rhsMax =  -1.57499568942399E-11  4.71145816673692E-01
 cg2d: Sum(rhs),rhsMax =  -1.62035940221017E-11  4.59020741288505E-01
 cg2d: Sum(rhs),rhsMax =  -1.66873181939309E-11  4.46706244755688E-01
 cg2d: Sum(rhs),rhsMax =  -1.72151182198377E-11  4.34204242222439E-01
 cg2d: Sum(rhs),rhsMax =  -1.77807768508842E-11  4.21516518805831E-01
 cg2d: Sum(rhs),rhsMax =  -1.84045001461186E-11  4.08644733028278E-01
 cg2d: Sum(rhs),rhsMax =  -1.90656379572829E-11  3.95590422007395E-01
 cg2d: Sum(rhs),rhsMax =  -1.97916127930853E-11  3.82355008703805E-01
 cg2d: Sum(rhs),rhsMax =  -2.05719885570943E-11  3.68939811499793E-01
 cg2d: Sum(rhs),rhsMax =  -2.14446238544497E-11  3.55346056773982E-01
 cg2d: Sum(rhs),rhsMax =  -2.23892016038008E-11  3.41574893844963E-01
 cg2d: Sum(rhs),rhsMax =  -2.34059438497525E-11  3.27627412592539E-01
 cg2d: Sum(rhs),rhsMax =  -2.45377052010554E-11  3.13504664661279E-01
 cg2d: Sum(rhs),rhsMax =  -2.58093546534610E-11  2.99207687705983E-01
 cg2d: Sum(rhs),rhsMax =  -2.71731526169106E-11  2.84737532050979E-01
 cg2d: Sum(rhs),rhsMax =  -2.87710966162535E-11  2.70095289205699E-01
 cg2d: Sum(rhs),rhsMax =  -3.05075964490698E-11  2.55282121693899E-01
 cg2d: Sum(rhs),rhsMax =  -3.24800186746188E-11  2.40299293628743E-01
 cg2d: Sum(rhs),rhsMax =  -3.46787043525865E-11  2.25148201842335E-01
 cg2d: Sum(rhs),rhsMax =  -3.72846753471379E-11  2.09830405720817E-01
 cg2d: Sum(rhs),rhsMax =  -4.03093114442754E-11  1.94347655746441E-01
 cg2d: Sum(rhs),rhsMax =  -4.38886149645157E-11  1.78701920771418E-01
 cg2d: Sum(rhs),rhsMax =  -4.82261452994237E-11  1.62895413097448E-01
 cg2d: Sum(rhs),rhsMax =  -5.35484434571742E-11  1.46930611263035E-01
 cg2d: Sum(rhs),rhsMax =  -6.02412564276733E-11  1.30810279699541E-01
 cg2d: Sum(rhs),rhsMax =  -6.89274748388868E-11  1.14537485420055E-01
 cg2d: Sum(rhs),rhsMax =  -8.04947775101539E-11  9.81156121746914E-02
 cg2d: Sum(rhs),rhsMax =  -9.69022639907280E-11  8.15483727625718E-02
 cg2d: Sum(rhs),rhsMax =  -1.00271610459224E-10  7.88799160561635E-02
 cg2d: Sum(rhs),rhsMax =  -9.94326704306658E-11  7.96260067938298E-02
 cg2d: Sum(rhs),rhsMax =  -9.85354298155272E-11  8.03893198713773E-02
 cg2d: Sum(rhs),rhsMax =  -9.76854153122986E-11  8.11589377214796E-02
 cg2d: Sum(rhs),rhsMax =  -9.67890767533675E-11  8.19173692989440E-02
 cg2d: Sum(rhs),rhsMax =  -9.60000967609176E-11  8.26561986606682E-02
 cg2d: Sum(rhs),rhsMax =  -9.52085077443598E-11  8.33710696722402E-02
 cg2d: Sum(rhs),rhsMax =  -9.41365874140843E-11  8.43743504945110E-02
 cg2d: Sum(rhs),rhsMax =  -8.08624278647585E-11  9.82772643757514E-02
 cg2d: Sum(rhs),rhsMax =  -7.07184311110609E-11  1.12412723931683E-01
 cg2d: Sum(rhs),rhsMax =  -6.26763085875837E-11  1.26878262675009E-01
 cg2d: Sum(rhs),rhsMax =  -5.61646285035522E-11  1.41777473678921E-01
 cg2d: Sum(rhs),rhsMax =  -5.08175723723525E-11  1.56930652532496E-01
 cg2d: Sum(rhs),rhsMax =  -4.63151739182877E-11  1.72363484800128E-01
 cg2d: Sum(rhs),rhsMax =  -4.24826840372816E-11  1.88217189600073E-01
 cg2d: Sum(rhs),rhsMax =  -3.91803256505341E-11  2.04266481892750E-01
 cg2d: Sum(rhs),rhsMax =  -3.63306051909262E-11  2.20644923863421E-01
 cg2d: Sum(rhs),rhsMax =  -3.37807559702696E-11  2.37341819012837E-01
 cg2d: Sum(rhs),rhsMax =  -3.15830694930241E-11  2.54260406474246E-01
 cg2d: Sum(rhs),rhsMax =  -2.96228597207460E-11  2.71556389194940E-01
 cg2d: Sum(rhs),rhsMax =  -2.78937983821947E-11  2.89392334483415E-01
 cg2d: Sum(rhs),rhsMax =  -2.62899702008212E-11  3.07442767815206E-01
 cg2d: Sum(rhs),rhsMax =  -2.49301690402604E-11  3.25444503035058E-01
 cg2d: Sum(rhs),rhsMax =  -2.36642927475827E-11  3.43384336362817E-01
 cg2d: Sum(rhs),rhsMax =  -2.25612861726177E-11  3.61248785060174E-01
 cg2d: Sum(rhs),rhsMax =  -2.15547579784925E-11  3.79024115301718E-01
 cg2d: Sum(rhs),rhsMax =  -2.06590300422249E-11  3.96696370591271E-01
 cg2d: Sum(rhs),rhsMax =  -1.98324690003915E-11  4.14251400465748E-01
 cg2d: Sum(rhs),rhsMax =  -1.90857329940286E-11  4.31674889305994E-01
 cg2d: Sum(rhs),rhsMax =  -1.83721926561020E-11  4.48952385154215E-01
 cg2d: Sum(rhs),rhsMax =  -1.77174941384806E-11  4.66069328529935E-01
 cg2d: Sum(rhs),rhsMax =  -1.71642700053098E-11  4.83011081292055E-01
 cg2d: Sum(rhs),rhsMax =  -1.66433533621557E-11  4.99762955642018E-01
 cg2d: Sum(rhs),rhsMax =  -1.61290980571493E-11  5.16310243386857E-01
 cg2d: Sum(rhs),rhsMax =  -1.57196478056676E-11  5.32638245596597E-01
 cg2d: Sum(rhs),rhsMax =  -1.53174140038459E-11  5.48732302811497E-01
 cg2d: Sum(rhs),rhsMax =  -1.49542600524910E-11  5.64577825961552E-01
 cg2d: Sum(rhs),rhsMax =  -1.46287426616709E-11  5.80160328143853E-01
 cg2d: Sum(rhs),rhsMax =  -1.42964529104006E-11  5.95465457348609E-01
 cg2d: Sum(rhs),rhsMax =  -1.39975808721715E-11  6.10479030171579E-01
 cg2d: Sum(rhs),rhsMax =  -1.37421185542053E-11  6.25187066487879E-01
 cg2d: Sum(rhs),rhsMax =  -1.34695588016598E-11  6.39575824978813E-01
 cg2d: Sum(rhs),rhsMax =  -1.32368560556984E-11  6.53631839333300E-01
 cg2d: Sum(rhs),rhsMax =  -1.30155886068906E-11  6.67341954871029E-01
 cg2d: Sum(rhs),rhsMax =  -1.27944321803852E-11  6.80693365262712E-01
 cg2d: Sum(rhs),rhsMax =  -1.26160193403280E-11  6.93673648961373E-01
 cg2d: Sum(rhs),rhsMax =  -1.24393828571101E-11  7.06270804915857E-01
 cg2d: Sum(rhs),rhsMax =  -1.22627463738922E-11  7.18473287123668E-01
 cg2d: Sum(rhs),rhsMax =  -1.21089804849817E-11  7.30270037580151E-01
 cg2d: Sum(rhs),rhsMax =  -1.20100596134876E-11  7.41650517233987E-01
 cg2d: Sum(rhs),rhsMax =  -1.19292353772948E-11  7.52604734679855E-01
 cg2d: Sum(rhs),rhsMax =  -1.18580700814164E-11  7.63123272261370E-01
 cg2d: Sum(rhs),rhsMax =  -1.17689191725390E-11  7.73197309412779E-01
 cg2d: Sum(rhs),rhsMax =  -1.17031939694812E-11  7.82818643189284E-01
 cg2d: Sum(rhs),rhsMax =  -1.16477938405524E-11  7.91979706012019E-01
 cg2d: Sum(rhs),rhsMax =  -1.15875087303152E-11  8.00673580704084E-01
 cg2d: Sum(rhs),rhsMax =  -1.15331078021086E-11  8.08894012942070E-01
 cg2d: Sum(rhs),rhsMax =  -1.14399600903425E-11  8.16635421200209E-01
 cg2d: Sum(rhs),rhsMax =  -1.14065423773013E-11  8.23892904542251E-01
 cg2d: Sum(rhs),rhsMax =  -1.13199449813806E-11  8.30662248261521E-01
 cg2d: Sum(rhs),rhsMax =  -1.12412301689346E-11  8.36939927830463E-01
 cg2d: Sum(rhs),rhsMax =  -1.12740927704635E-11  8.42723110571518E-01
 cg2d: Sum(rhs),rhsMax =  -1.12791997963768E-11  8.48009655652243E-01
 cg2d: Sum(rhs),rhsMax =  -1.12245768235653E-11  8.52798111304178E-01
 cg2d: Sum(rhs),rhsMax =  -1.10507158979090E-11  8.57087710052480E-01
 cg2d: Sum(rhs),rhsMax =  -1.09268150083608E-11  8.60878362333806E-01
 cg2d: Sum(rhs),rhsMax =  -1.07706066287960E-11  8.64170648389694E-01
 cg2d: Sum(rhs),rhsMax =  -1.05926378779486E-11  8.66965808297705E-01
 cg2d: Sum(rhs),rhsMax =  -1.04596331595985E-11  8.69265730086890E-01
 cg2d: Sum(rhs),rhsMax =  -1.04131148148667E-11  8.71072935994317E-01
 cg2d: Sum(rhs),rhsMax =  -1.04358743868715E-11  8.72390567018746E-01
 cg2d: Sum(rhs),rhsMax =  -1.03516084593025E-11  8.73222365985209E-01
 cg2d: Sum(rhs),rhsMax =  -1.02450270489385E-11  8.73572659130795E-01
 cg2d: Sum(rhs),rhsMax =  -1.01250119399765E-11  8.73446336826326E-01
 cg2d: Sum(rhs),rhsMax =  -1.00356389864942E-11  8.72848833708167E-01
 cg2d: Sum(rhs),rhsMax =  -9.94337945314783E-12  8.71786107815769E-01
 cg2d: Sum(rhs),rhsMax =  -9.85123094210394E-12  8.70264618826863E-01
 cg2d: Sum(rhs),rhsMax =  -9.75097780298029E-12  8.68291303979117E-01
 cg2d: Sum(rhs),rhsMax =  -9.67748103875010E-12  8.65873555911583E-01
 cg2d: Sum(rhs),rhsMax =  -9.60065360544604E-12  8.63019198764230E-01
 cg2d: Sum(rhs),rhsMax =  -9.57856016725600E-12  8.59736462747480E-01
 cg2d: Sum(rhs),rhsMax =  -9.55191481466500E-12  8.56033958485405E-01
 cg2d: Sum(rhs),rhsMax =  -9.53315204554883E-12  8.51920649612247E-01
 cg2d: Sum(rhs),rhsMax =  -9.56645873628759E-12  8.47405823870554E-01
 cg2d: Sum(rhs),rhsMax =  -9.57700585502153E-12  8.42499063103456E-01
 cg2d: Sum(rhs),rhsMax =  -9.62729895803704E-12  8.37210214408241E-01
 cg2d: Sum(rhs),rhsMax =  -9.70323821292141E-12  8.31549358950972E-01
 cg2d: Sum(rhs),rhsMax =  -9.80526770888446E-12  8.25526779728720E-01
 cg2d: Sum(rhs),rhsMax =  -9.94360149775275E-12  8.19152930483473E-01
 cg2d: Sum(rhs),rhsMax =  -1.00640606959246E-11  8.12438407838320E-01
 cg2d: Sum(rhs),rhsMax =  -1.01304520327972E-11  8.05393921124350E-01
 cg2d: Sum(rhs),rhsMax =  -1.02166053395081E-11  7.98030265212843E-01
 cg2d: Sum(rhs),rhsMax =  -1.03184127908662E-11  7.90358294994277E-01
 cg2d: Sum(rhs),rhsMax =  -1.04202202422243E-11  7.82388902978440E-01
 cg2d: Sum(rhs),rhsMax =  -1.05188080468110E-11  7.74132999488562E-01
 cg2d: Sum(rhs),rhsMax =  -1.06674669098084E-11  7.65601495229401E-01
 cg2d: Sum(rhs),rhsMax =  -1.07869269072580E-11  7.56805285480751E-01
 cg2d: Sum(rhs),rhsMax =  -1.09268150083608E-11  7.47755236802591E-01
 cg2d: Sum(rhs),rhsMax =  -1.10634834626921E-11  7.38462175126746E-01
 cg2d: Sum(rhs),rhsMax =  -1.11674003377971E-11  7.28936876119561E-01
 cg2d: Sum(rhs),rhsMax =  -1.13230536058495E-11  7.19190056080663E-01
 cg2d: Sum(rhs),rhsMax =  -1.14063203326964E-11  7.09232362770922E-01
 cg2d: Sum(rhs),rhsMax =  -1.15448761661696E-11  6.99074365595885E-01
 cg2d: Sum(rhs),rhsMax =  -1.16543441563977E-11  6.88726544669965E-01
 cg2d: Sum(rhs),rhsMax =  -1.17928999898709E-11  6.78199276760133E-01
 cg2d: Sum(rhs),rhsMax =  -1.19314558233441E-11  6.67502821719371E-01
 cg2d: Sum(rhs),rhsMax =  -1.21012089238093E-11  6.56647306391720E-01
 cg2d: Sum(rhs),rhsMax =  -1.22654109091513E-11  6.45642705134540E-01
 cg2d: Sum(rhs),rhsMax =  -1.24508181542637E-11  6.34498817106426E-01
 cg2d: Sum(rhs),rhsMax =  -1.25639498804730E-11  6.23225240114181E-01
 cg2d: Sum(rhs),rhsMax =  -1.27482469025608E-11  6.11831345701159E-01
 cg2d: Sum(rhs),rhsMax =  -1.29469768239687E-11  6.00326252259974E-01
 cg2d: Sum(rhs),rhsMax =  -1.31444855000495E-11  5.88718796983682E-01
 cg2d: Sum(rhs),rhsMax =  -1.32934774299542E-11  5.77017507911774E-01
 cg2d: Sum(rhs),rhsMax =  -1.35003119794419E-11  5.65230576894515E-01
 cg2d: Sum(rhs),rhsMax =  -1.37270195210704E-11  5.53365834607906E-01
 cg2d: Sum(rhs),rhsMax =  -1.39295242007620E-11  5.41430728043267E-01
 cg2d: Sum(rhs),rhsMax =  -1.41622269467234E-11  5.29432301685795E-01
 cg2d: Sum(rhs),rhsMax =  -1.44009248970178E-11  5.17377182274461E-01
 cg2d: Sum(rhs),rhsMax =  -1.47374334957817E-11  5.05271567018185E-01
 cg2d: Sum(rhs),rhsMax =  -1.53272949887651E-11  4.93121215619039E-01
 cg2d: Sum(rhs),rhsMax =  -1.56754609292875E-11  4.80931446096646E-01
 cg2d: Sum(rhs),rhsMax =  -1.60176316654770E-11  4.68707133439256E-01
 cg2d: Sum(rhs),rhsMax =  -1.64078750586327E-11  4.56452712098784E-01
 cg2d: Sum(rhs),rhsMax =  -1.68592917404453E-11  4.44172181939602E-01
 cg2d: Sum(rhs),rhsMax =  -1.72745151516551E-11  4.31869116517704E-01
 cg2d: Sum(rhs),rhsMax =  -1.77479142493553E-11  4.19546673476009E-01
 cg2d: Sum(rhs),rhsMax =  -1.82136528081855E-11  4.07207607237175E-01
 cg2d: Sum(rhs),rhsMax =  -1.87243553995131E-11  3.94854282167879E-01
 cg2d: Sum(rhs),rhsMax =  -1.92690308153942E-11  3.82488687709979E-01
 cg2d: Sum(rhs),rhsMax =  -1.98616678659391E-11  3.70112455487718E-01
 cg2d: Sum(rhs),rhsMax =  -2.04707362172485E-11  3.57726877319354E-01
 cg2d: Sum(rhs),rhsMax =  -2.11568540464668E-11  3.45332924085228E-01
 cg2d: Sum(rhs),rhsMax =  -2.18667306484122E-11  3.32931265999012E-01
 cg2d: Sum(rhs),rhsMax =  -2.26196839037129E-11  3.20522294746801E-01
 cg2d: Sum(rhs),rhsMax =  -2.34984254277038E-11  3.08106146363818E-01
 cg2d: Sum(rhs),rhsMax =  -2.44233522295190E-11  2.95682725367217E-01
 cg2d: Sum(rhs),rhsMax =  -2.54020138257260E-11  2.83251730513587E-01
 cg2d: Sum(rhs),rhsMax =  -2.65041322222714E-11  2.70812681462298E-01
 cg2d: Sum(rhs),rhsMax =  -2.77357026234881E-11  2.58364947073301E-01
 cg2d: Sum(rhs),rhsMax =  -2.90109047895726E-11  2.45907774102861E-01
 cg2d: Sum(rhs),rhsMax =  -3.05248049059514E-11  2.33440316001724E-01
 cg2d: Sum(rhs),rhsMax =  -3.21531690161692E-11  2.20961661131027E-01
 cg2d: Sum(rhs),rhsMax =  -3.39980266161888E-11  2.08470860214109E-01
 cg2d: Sum(rhs),rhsMax =  -3.60668162002753E-11  1.95966952237700E-01
 cg2d: Sum(rhs),rhsMax =  -3.85041998285374E-11  1.83448989037101E-01
 cg2d: Sum(rhs),rhsMax =  -4.12700984497860E-11  1.70916057502070E-01
 cg2d: Sum(rhs),rhsMax =  -4.44746461880641E-11  1.58367298737672E-01
 cg2d: Sum(rhs),rhsMax =  -4.82716089322821E-11  1.45801924041069E-01
 cg2d: Sum(rhs),rhsMax =  -5.27864418842228E-11  1.33219227744374E-01
 cg2d: Sum(rhs),rhsMax =  -5.82662806891676E-11  1.20618597028848E-01
 cg2d: Sum(rhs),rhsMax =  -6.49801323859833E-11  1.07999518886679E-01
 cg2d: Sum(rhs),rhsMax =  -7.34893257359204E-11  9.53615845040303E-02
 cg2d: Sum(rhs),rhsMax =  -7.75736141989114E-11  9.03148897235767E-02
 cg2d: Sum(rhs),rhsMax =  -7.78441755500126E-11  8.98872643397193E-02
 cg2d: Sum(rhs),rhsMax =  -7.81066322730339E-11  8.94744296722530E-02
 cg2d: Sum(rhs),rhsMax =  -7.83781373137060E-11  8.90910358599954E-02
 cg2d: Sum(rhs),rhsMax =  -7.86324842044772E-11  8.87406461987563E-02
 cg2d: Sum(rhs),rhsMax =  -7.87448717343153E-11  8.85081331040227E-02
 cg2d: Sum(rhs),rhsMax =  -7.90087995028443E-11  8.81685691393493E-02
 cg2d: Sum(rhs),rhsMax =  -7.91140486455788E-11  8.79445169696609E-02
 cg2d: Sum(rhs),rhsMax =  -7.92511611891200E-11  8.77477798400213E-02
 cg2d: Sum(rhs),rhsMax =  -7.43314299000986E-11  9.35031400851515E-02
 cg2d: Sum(rhs),rhsMax =  -6.75033362540489E-11  1.02861540624999E-01
 cg2d: Sum(rhs),rhsMax =  -6.17571549454965E-11  1.12329047207007E-01
 cg2d: Sum(rhs),rhsMax =  -5.67935698470023E-11  1.22106481589939E-01
 cg2d: Sum(rhs),rhsMax =  -5.25500754022801E-11  1.31846513824866E-01
 cg2d: Sum(rhs),rhsMax =  -4.73536765355220E-11  1.46221106434040E-01
 cg2d: Sum(rhs),rhsMax =  -4.30899760317516E-11  1.60704046641858E-01
 cg2d: Sum(rhs),rhsMax =  -3.95063981528665E-11  1.75151227361478E-01
 cg2d: Sum(rhs),rhsMax =  -3.64720476042635E-11  1.89553390494688E-01
 cg2d: Sum(rhs),rhsMax =  -3.38418182366240E-11  2.03901137575318E-01
 cg2d: Sum(rhs),rhsMax =  -3.16293657931510E-11  2.18184950281644E-01
 cg2d: Sum(rhs),rhsMax =  -2.96376256869735E-11  2.32395212940342E-01
 cg2d: Sum(rhs),rhsMax =  -2.79215539578104E-11  2.46522236336711E-01
 cg2d: Sum(rhs),rhsMax =  -2.63929988975065E-11  2.60556282396344E-01
 cg2d: Sum(rhs),rhsMax =  -2.50480747254755E-11  2.74487589096688E-01
 cg2d: Sum(rhs),rhsMax =  -2.38061792501298E-11  2.88306395044947E-01
 cg2d: Sum(rhs),rhsMax =  -2.26810792369747E-11  3.02002963263547E-01
 cg2d: Sum(rhs),rhsMax =  -2.16499040917029E-11  3.15567603646583E-01
 cg2d: Sum(rhs),rhsMax =  -2.06940020675006E-11  3.28990693331851E-01
 cg2d: Sum(rhs),rhsMax =  -1.98435712306377E-11  3.42262694094319E-01
 cg2d: Sum(rhs),rhsMax =  -1.90344406902909E-11  3.55374166188283E-01
 cg2d: Sum(rhs),rhsMax =  -1.83520976193563E-11  3.68315777903952E-01
 cg2d: Sum(rhs),rhsMax =  -1.76505476900957E-11  3.81078312057442E-01
 cg2d: Sum(rhs),rhsMax =  -1.70190528336889E-11  3.93652669490782E-01
 cg2d: Sum(rhs),rhsMax =  -1.64235292032799E-11  4.06029871596034E-01
 cg2d: Sum(rhs),rhsMax =  -1.58707491593191E-11  4.18201063496619E-01
 cg2d: Sum(rhs),rhsMax =  -1.53816959169717E-11  4.30157517810697E-01
 cg2d: Sum(rhs),rhsMax =  -1.48985268566548E-11  4.41890640137644E-01
 cg2d: Sum(rhs),rhsMax =  -1.44588785389033E-11  4.53391976389996E-01
 cg2d: Sum(rhs),rhsMax =  -1.40298883621881E-11  4.64653220691530E-01
 cg2d: Sum(rhs),rhsMax =  -1.36293198949033E-11  4.75666223642577E-01
 cg2d: Sum(rhs),rhsMax =  -1.32373001449082E-11  4.86423000910345E-01
 cg2d: Sum(rhs),rhsMax =  -1.28790311748617E-11  4.96915742571739E-01
 cg2d: Sum(rhs),rhsMax =  -1.25286447882900E-11  5.07136822912404E-01
 cg2d: Sum(rhs),rhsMax =  -1.22072352226610E-11  5.17078811831975E-01
 cg2d: Sum(rhs),rhsMax =  -1.19173559909314E-11  5.26734487997777E-01
 cg2d: Sum(rhs),rhsMax =  -1.16328058297199E-11  5.36096853786434E-01
 cg2d: Sum(rhs),rhsMax =  -1.13526965606070E-11  5.45159151894127E-01
 cg2d: Sum(rhs),rhsMax =  -1.11202158592505E-11  5.53914883153764E-01
 cg2d: Sum(rhs),rhsMax =  -1.08688613664754E-11  5.62357824706495E-01
 cg2d: Sum(rhs),rhsMax =  -1.06635811292222E-11  5.70482047489709E-01
 cg2d: Sum(rhs),rhsMax =  -1.04604103157158E-11  5.78281930880583E-01
 cg2d: Sum(rhs),rhsMax =  -1.02432506920991E-11  5.85752174433651E-01
 cg2d: Sum(rhs),rhsMax =  -1.01070263269776E-11  5.92887806534964E-01
 cg2d: Sum(rhs),rhsMax =  -9.92605997396367E-12  5.99684190576431E-01
 cg2d: Sum(rhs),rhsMax =  -9.76374536776348E-12  6.06137029791864E-01
 cg2d: Sum(rhs),rhsMax =  -9.63473745230203E-12  6.12242372116216E-01
 cg2d: Sum(rhs),rhsMax =  -9.49607059652635E-12  6.17996616376764E-01
 cg2d: Sum(rhs),rhsMax =  -9.32964816513504E-12  6.23396520962627E-01
 cg2d: Sum(rhs),rhsMax =  -9.22428800009811E-12  6.28439215700203E-01
 cg2d: Sum(rhs),rhsMax =  -9.08717545655691E-12  6.33122217157245E-01
 cg2d: Sum(rhs),rhsMax =  -8.98536800519878E-12  6.37443446916238E-01
 cg2d: Sum(rhs),rhsMax =  -8.88333850923573E-12  6.41401251737101E-01
 cg2d: Sum(rhs),rhsMax =  -8.82649509037492E-12  6.44994424193877E-01
 cg2d: Sum(rhs),rhsMax =  -8.78308537011208E-12  6.48222222242036E-01
 cg2d: Sum(rhs),rhsMax =  -8.75666206212600E-12  6.51084386191408E-01
 cg2d: Sum(rhs),rhsMax =  -8.68982663604356E-12  6.54044459887193E-01
 cg2d: Sum(rhs),rhsMax =  -8.61566373799860E-12  6.60053258372229E-01
 cg2d: Sum(rhs),rhsMax =  -8.53672688094775E-12  6.65758434363814E-01
 cg2d: Sum(rhs),rhsMax =  -8.50408632402377E-12  6.71155254959320E-01
 cg2d: Sum(rhs),rhsMax =  -8.42592662309016E-12  6.76239295936587E-01
 cg2d: Sum(rhs),rhsMax =  -8.34687874373685E-12  6.81006453357044E-01
 cg2d: Sum(rhs),rhsMax =  -8.34554647610730E-12  6.85452950360790E-01
 cg2d: Sum(rhs),rhsMax =  -8.29958324288782E-12  6.89575339951978E-01
 cg2d: Sum(rhs),rhsMax =  -8.24418311395902E-12  6.93370502783268E-01
 cg2d: Sum(rhs),rhsMax =  -8.21631651604093E-12  6.96835641067437E-01
 cg2d: Sum(rhs),rhsMax =  -8.17801382169137E-12  6.99968269034197E-01
 cg2d: Sum(rhs),rhsMax =  -8.14581735397724E-12  7.02766200561742E-01
 cg2d: Sum(rhs),rhsMax =  -8.11295475244833E-12  7.05227534786818E-01
 cg2d: Sum(rhs),rhsMax =  -8.09929900924544E-12  7.07350640690232E-01
 cg2d: Sum(rhs),rhsMax =  -8.03657140835412E-12  7.09134141680748E-01
 cg2d: Sum(rhs),rhsMax =  -7.98505706001151E-12  7.10576901145771E-01
 cg2d: Sum(rhs),rhsMax =  -7.97628629811697E-12  7.11678009678066E-01
 cg2d: Sum(rhs),rhsMax =  -7.93842769297726E-12  7.12436775428973E-01
 cg2d: Sum(rhs),rhsMax =  -7.92199639221280E-12  7.12852717386763E-01
 cg2d: Sum(rhs),rhsMax =  -7.90145726625724E-12  7.12925561786802E-01
 cg2d: Sum(rhs),rhsMax =  -7.93232146634182E-12  7.12655241574129E-01
 cg2d: Sum(rhs),rhsMax =  -7.92488297207683E-12  7.12041898557307E-01
 cg2d: Sum(rhs),rhsMax =  -7.90612020296066E-12  7.11085887255296E-01
 cg2d: Sum(rhs),rhsMax =  -7.92377274905220E-12  7.09787780244908E-01
 cg2d: Sum(rhs),rhsMax =  -7.94408983040285E-12  7.08148374399069E-01
 cg2d: Sum(rhs),rhsMax =  -7.91922083465124E-12  7.06168696046849E-01
 cg2d: Sum(rhs),rhsMax =  -7.93098919871227E-12  7.03850003749889E-01
 cg2d: Sum(rhs),rhsMax =  -7.96773758082736E-12  7.01193789130865E-01
 cg2d: Sum(rhs),rhsMax =  -8.04545319255112E-12  6.98201775657009E-01
 cg2d: Sum(rhs),rhsMax =  -8.10618239199812E-12  6.94875913754325E-01
 cg2d: Sum(rhs),rhsMax =  -8.17701462096920E-12  6.91218372566660E-01
 cg2d: Sum(rhs),rhsMax =  -8.15547629429147E-12  6.87231529290461E-01
 cg2d: Sum(rhs),rhsMax =  -8.08919597972135E-12  6.82917953673209E-01
 cg2d: Sum(rhs),rhsMax =  -8.02879984718174E-12  6.78280391142598E-01
 cg2d: Sum(rhs),rhsMax =  -7.99393884420851E-12  6.73321745811291E-01
 cg2d: Sum(rhs),rhsMax =  -7.96274157721655E-12  6.68045064350823E-01
 cg2d: Sum(rhs),rhsMax =  -7.88447085398047E-12  6.62453518979386E-01
 cg2d: Sum(rhs),rhsMax =  -7.85360665389589E-12  6.56550390285838E-01
 cg2d: Sum(rhs),rhsMax =  -7.86870568703080E-12  6.50339052464037E-01
 cg2d: Sum(rhs),rhsMax =  -8.01381183634930E-12  6.43822961414402E-01
 cg2d: Sum(rhs),rhsMax =  -8.10018718766514E-12  6.37005644423959E-01
 cg2d: Sum(rhs),rhsMax =  -8.20521428579468E-12  6.29890692762867E-01
 cg2d: Sum(rhs),rhsMax =  -8.30013835440013E-12  6.22481756652218E-01
 cg2d: Sum(rhs),rhsMax =  -8.42126368638674E-12  6.14782542220225E-01
 cg2d: Sum(rhs),rhsMax =  -8.57214299543330E-12  6.06796809599636E-01
 cg2d: Sum(rhs),rhsMax =  -8.74822436713885E-12  5.98528371911278E-01
 cg2d: Sum(rhs),rhsMax =  -8.95672425116345E-12  5.89981094994202E-01
 cg2d: Sum(rhs),rhsMax =  -9.11304365303067E-12  5.81158897651868E-01
 cg2d: Sum(rhs),rhsMax =  -9.32554033994393E-12  5.72065751317344E-01
 cg2d: Sum(rhs),rhsMax =  -9.54236689665322E-12  5.62705679790495E-01
 cg2d: Sum(rhs),rhsMax =  -9.77007363900384E-12  5.53082759768586E-01
 cg2d: Sum(rhs),rhsMax =  -1.00321972951178E-11  5.43201119873326E-01
 cg2d: Sum(rhs),rhsMax =  -1.02929886836023E-11  5.33064938334827E-01
 cg2d: Sum(rhs),rhsMax =  -1.05877528966403E-11  5.22678439788789E-01
 cg2d: Sum(rhs),rhsMax =  -1.08910658269679E-11  5.12045890348169E-01
 cg2d: Sum(rhs),rhsMax =  -1.12153619724609E-11  5.01171595088560E-01
 cg2d: Sum(rhs),rhsMax =  -1.15980558490492E-11  4.90059894776683E-01
 cg2d: Sum(rhs),rhsMax =  -1.18732801368537E-11  4.78715162150959E-01
 cg2d: Sum(rhs),rhsMax =  -1.22185594975122E-11  4.67141798157053E-01
 cg2d: Sum(rhs),rhsMax =  -1.25554011631834E-11  4.55344228545895E-01
 cg2d: Sum(rhs),rhsMax =  -1.29405375304259E-11  4.43326901096964E-01
 cg2d: Sum(rhs),rhsMax =  -1.33889566100720E-11  4.31094283597305E-01
 cg2d: Sum(rhs),rhsMax =  -1.38005162853005E-11  4.18650862513224E-01
 cg2d: Sum(rhs),rhsMax =  -1.43025591370360E-11  4.06001142521011E-01
 cg2d: Sum(rhs),rhsMax =  -1.47831746843963E-11  3.93149647316969E-01
 cg2d: Sum(rhs),rhsMax =  -1.53898005450515E-11  3.80100920577160E-01
 cg2d: Sum(rhs),rhsMax =  -1.59493529494625E-11  3.66859528146113E-01
 cg2d: Sum(rhs),rhsMax =  -1.66370250909154E-11  3.53430061385655E-01
 cg2d: Sum(rhs),rhsMax =  -1.73411285331326E-11  3.39817141591399E-01
 cg2d: Sum(rhs),rhsMax =  -1.81719084224596E-11  3.26025425384850E-01
 cg2d: Sum(rhs),rhsMax =  -1.90774063213439E-11  3.12059611491718E-01
 cg2d: Sum(rhs),rhsMax =  -2.00375271930398E-11  2.97924448023588E-01
 cg2d: Sum(rhs),rhsMax =  -2.11505257752265E-11  2.83624740843172E-01
 cg2d: Sum(rhs),rhsMax =  -2.23676632771230E-11  2.69165363359711E-01
 cg2d: Sum(rhs),rhsMax =  -2.37445618722631E-11  2.54551267377625E-01
 cg2d: Sum(rhs),rhsMax =  -2.52535770073337E-11  2.39787494635996E-01
 cg2d: Sum(rhs),rhsMax =  -2.69644306882810E-11  2.24879188758814E-01
 cg2d: Sum(rhs),rhsMax =  -2.89321899771267E-11  2.09831607401509E-01
 cg2d: Sum(rhs),rhsMax =  -3.12505576971489E-11  1.94650134395535E-01
 cg2d: Sum(rhs),rhsMax =  -3.39674954830116E-11  1.79340291726941E-01
 cg2d: Sum(rhs),rhsMax =  -3.72075703580776E-11  1.63907751331584E-01
 cg2d: Sum(rhs),rhsMax =  -4.11991551985125E-11  1.48358345502990E-01
 cg2d: Sum(rhs),rhsMax =  -4.61242155580521E-11  1.32698076643186E-01
 cg2d: Sum(rhs),rhsMax =  -5.24158494386029E-11  1.16933126176868E-01
 cg2d: Sum(rhs),rhsMax =  -6.07532912866304E-11  1.01069862480711E-01
 cg2d: Sum(rhs),rhsMax =  -7.21475101883584E-11  8.51148480181312E-02
 cg2d: Sum(rhs),rhsMax =  -7.64255325691465E-11  8.04142819446143E-02
 cg2d: Sum(rhs),rhsMax =  -7.60872476135432E-11  8.08237465143528E-02
 cg2d: Sum(rhs),rhsMax =  -7.57575668863808E-11  8.12257146241317E-02
 cg2d: Sum(rhs),rhsMax =  -7.54555029569559E-11  8.16096780836959E-02
 cg2d: Sum(rhs),rhsMax =  -7.51612660998546E-11  8.19738807955290E-02
 cg2d: Sum(rhs),rhsMax =  -7.48520828652843E-11  8.23268005819039E-02
 cg2d: Sum(rhs),rhsMax =  -7.45696837611831E-11  8.26789271218154E-02
 cg2d: Sum(rhs),rhsMax =  -7.39655559023333E-11  8.33978193301102E-02
 cg2d: Sum(rhs),rhsMax =  -7.33845761935470E-11  8.41196049191979E-02
 cg2d: Sum(rhs),rhsMax =  -6.61782295630076E-11  9.33477689692974E-02
 cg2d: Sum(rhs),rhsMax =  -5.76033665211639E-11  1.07203910745271E-01
 cg2d: Sum(rhs),rhsMax =  -5.10720354895966E-11  1.21235604280409E-01
 cg2d: Sum(rhs),rhsMax =  -4.57438531498155E-11  1.35627640742020E-01
 cg2d: Sum(rhs),rhsMax =  -4.14263068293508E-11  1.50094496102561E-01
 cg2d: Sum(rhs),rhsMax =  -3.77564646214523E-11  1.64889122487967E-01
 cg2d: Sum(rhs),rhsMax =  -3.46775941295618E-11  1.79782973021809E-01
 cg2d: Sum(rhs),rhsMax =  -3.20483639626445E-11  1.94899985016658E-01
 cg2d: Sum(rhs),rhsMax =  -2.97388780268193E-11  2.10201861228492E-01
 cg2d: Sum(rhs),rhsMax =  -2.77472489429442E-11  2.25655427261803E-01
 cg2d: Sum(rhs),rhsMax =  -2.59743337949203E-11  2.41383700160980E-01
 cg2d: Sum(rhs),rhsMax =  -2.44040343488905E-11  2.57407480456498E-01
 cg2d: Sum(rhs),rhsMax =  -2.30563346192980E-11  2.73333544945275E-01
 cg2d: Sum(rhs),rhsMax =  -2.18990381384288E-11  2.89152220151930E-01
 cg2d: Sum(rhs),rhsMax =  -2.08237871390793E-11  3.04853871864204E-01
 cg2d: Sum(rhs),rhsMax =  -1.98704386278337E-11  3.20428920791675E-01
 cg2d: Sum(rhs),rhsMax =  -1.90323312665441E-11  3.35867857127919E-01
 cg2d: Sum(rhs),rhsMax =  -1.82632797773863E-11  3.51161253950569E-01
 cg2d: Sum(rhs),rhsMax =  -1.75589542905641E-11  3.66299779456510E-01
 cg2d: Sum(rhs),rhsMax =  -1.69377845082863E-11  3.81274207991943E-01
 cg2d: Sum(rhs),rhsMax =  -1.63458135915562E-11  3.96075429870786E-01
 cg2d: Sum(rhs),rhsMax =  -1.58321133980621E-11  4.10694459986980E-01
 cg2d: Sum(rhs),rhsMax =  -1.53344004161227E-11  4.25122445236848E-01
 cg2d: Sum(rhs),rhsMax =  -1.48659973220333E-11  4.39350670828681E-01
 cg2d: Sum(rhs),rhsMax =  -1.44400047474846E-11  4.53370565589068E-01
 cg2d: Sum(rhs),rhsMax =  -1.40413236593417E-11  4.67173706407041E-01
 cg2d: Sum(rhs),rhsMax =  -1.36806121986410E-11  4.80751821986739E-01
 cg2d: Sum(rhs),rhsMax =  -1.33546507186111E-11  4.94096796104659E-01
 cg2d: Sum(rhs),rhsMax =  -1.30913058171700E-11  5.07200670605719E-01
 cg2d: Sum(rhs),rhsMax =  -1.28494992424066E-11  5.20055648411925E-01
 cg2d: Sum(rhs),rhsMax =  -1.26323396187900E-11  5.32654096821509E-01
 cg2d: Sum(rhs),rhsMax =  -1.24046328764393E-11  5.44988551365074E-01
 cg2d: Sum(rhs),rhsMax =  -1.22233334565180E-11  5.57051720452551E-01
 cg2d: Sum(rhs),rhsMax =  -1.22106769140373E-11  5.68836490980407E-01
 cg2d: Sum(rhs),rhsMax =  -1.20640164524843E-11  5.80335935024258E-01
 cg2d: Sum(rhs),rhsMax =  -1.18923759728773E-11  5.91543317669016E-01
 cg2d: Sum(rhs),rhsMax =  -1.17825749157419E-11  6.02452105952685E-01
 cg2d: Sum(rhs),rhsMax =  -1.16259224469673E-11  6.13055978814554E-01
 cg2d: Sum(rhs),rhsMax =  -1.14567244580144E-11  6.23348837913513E-01
 cg2d: Sum(rhs),rhsMax =  -1.13394849066140E-11  6.33324819109236E-01
 cg2d: Sum(rhs),rhsMax =  -1.12302389609908E-11  6.42978304313973E-01
 cg2d: Sum(rhs),rhsMax =  -1.11630704680010E-11  6.52303933461384E-01
 cg2d: Sum(rhs),rhsMax =  -1.10925713059373E-11  6.61296616343600E-01
 cg2d: Sum(rhs),rhsMax =  -1.10020881294304E-11  6.69951544088378E-01
 cg2d: Sum(rhs),rhsMax =  -1.09404707515637E-11  6.78264200081886E-01
 cg2d: Sum(rhs),rhsMax =  -1.08522080211060E-11  6.86230370115806E-01
 cg2d: Sum(rhs),rhsMax =  -1.07606146215744E-11  6.93846151745092E-01
 cg2d: Sum(rhs),rhsMax =  -1.06692432666478E-11  7.01107962802747E-01
 cg2d: Sum(rhs),rhsMax =  -1.05900843649920E-11  7.08012549045888E-01
 cg2d: Sum(rhs),rhsMax =  -1.04870556683068E-11  7.14556990866540E-01
 cg2d: Sum(rhs),rhsMax =  -1.03873576406954E-11  7.20738708983935E-01
 cg2d: Sum(rhs),rhsMax =  -1.03362873815627E-11  7.26555469584121E-01
 cg2d: Sum(rhs),rhsMax =  -1.03629327341537E-11  7.32005388523047E-01
 cg2d: Sum(rhs),rhsMax =  -1.04175557069652E-11  7.37086934937961E-01
 cg2d: Sum(rhs),rhsMax =  -1.03571595744256E-11  7.41798933796195E-01
 cg2d: Sum(rhs),rhsMax =  -1.02048369754471E-11  7.46140568244172E-01
 cg2d: Sum(rhs),rhsMax =  -1.00782715506398E-11  7.50111381627701E-01
 cg2d: Sum(rhs),rhsMax =  -9.95614701793102E-12  7.53711279062085E-01
 cg2d: Sum(rhs),rhsMax =  -9.82525172332771E-12  7.56940528442832E-01
 cg2d: Sum(rhs),rhsMax =  -9.70279412371156E-12  7.59799760794216E-01
 cg2d: Sum(rhs),rhsMax =  -9.60720392129133E-12  7.62289969865643E-01
 cg2d: Sum(rhs),rhsMax =  -9.49895717639038E-12  7.64412510860980E-01
 cg2d: Sum(rhs),rhsMax =  -9.40014732719874E-12  7.66169098174575E-01
 cg2d: Sum(rhs),rhsMax =  -9.35773680765806E-12  7.67561801903985E-01
 cg2d: Sum(rhs),rhsMax =  -9.29700760821106E-12  7.68593042936117E-01
 cg2d: Sum(rhs),rhsMax =  -9.14801567830636E-12  7.69265586962128E-01
 cg2d: Sum(rhs),rhsMax =  -9.03066510460349E-12  7.69582536666976E-01
 cg2d: Sum(rhs),rhsMax =  -8.88755735672930E-12  7.69547322044140E-01
 cg2d: Sum(rhs),rhsMax =  -8.79341044424109E-12  7.69163688784768E-01
 cg2d: Sum(rhs),rhsMax =  -8.70881144976465E-12  7.68435684807311E-01
 cg2d: Sum(rhs),rhsMax =  -8.62832028047933E-12  7.67367643876200E-01
 cg2d: Sum(rhs),rhsMax =  -8.57891535588351E-12  7.65964170101002E-01
 cg2d: Sum(rhs),rhsMax =  -8.53761505936745E-12  7.64230120489715E-01
 cg2d: Sum(rhs),rhsMax =  -8.50008952113512E-12  7.62170585068395E-01
(PID.TID 0000.0001)      cg2d_init_res =   1.13356101415001E-02
(PID.TID 0000.0001)      cg2d_iters(min,last) =      -1      34
(PID.TID 0000.0001)      cg2d_last_res =   6.78880125478992E-14
(PID.TID 0000.0001) // =======================================================
(PID.TID 0000.0001) // Begin MONITOR dynamic field statistics
(PID.TID 0000.0001) // =======================================================
(PID.TID 0000.0001) %MON time_tsnumber                =                  1920
(PID.TID 0000.0001) %MON time_secondsf                =   2.8800000000000E+04
(PID.TID 0000.0001) %MON dynstat_eta_max              =   1.2512632853198E-01
(PID.TID 0000.0001) %MON dynstat_eta_min              =  -1.2147461650980E-01
(PID.TID 0000.0001) %MON dynstat_eta_mean             =   1.3423078727124E-14
(PID.TID 0000.0001) %MON dynstat_eta_sd               =   8.9207710740354E-02
(PID.TID 0000.0001) %MON dynstat_eta_del2             =   6.9362346435852E-05
(PID.TID 0000.0001) %MON dynstat_uvel_max             =   1.4571038728937E+00
(PID.TID 0000.0001) %MON dynstat_uvel_min             =  -5.6327618806168E-01
(PID.TID 0000.0001) %MON dynstat_uvel_mean            =   5.7645190405818E-01
(PID.TID 0000.0001) %MON dynstat_uvel_sd              =   1.2669519687518E-01
(PID.TID 0000.0001) %MON dynstat_uvel_del2            =   9.6671116089333E-04
(PID.TID 0000.0001) %MON dynstat_vvel_max             =   0.0000000000000E+00
(PID.TID 0000.0001) %MON dynstat_vvel_min             =   0.0000000000000E+00
(PID.TID 0000.0001) %MON dynstat_vvel_mean            =   0.0000000000000E+00
(PID.TID 0000.0001) %MON dynstat_vvel_sd              =   0.0000000000000E+00
(PID.TID 0000.0001) %MON dynstat_vvel_del2            =   0.0000000000000E+00
(PID.TID 0000.0001) %MON dynstat_wvel_max             =   4.3716143558313E-02
(PID.TID 0000.0001) %MON dynstat_wvel_min             =  -4.8338091043132E-02
(PID.TID 0000.0001) %MON dynstat_wvel_mean            =  -4.5403782519721E-20
(PID.TID 0000.0001) %MON dynstat_wvel_sd              =   4.4639872788474E-03
(PID.TID 0000.0001) %MON dynstat_wvel_del2            =   9.3436778674528E-05
(PID.TID 0000.0001) %MON dynstat_theta_max            =   1.5000000000006E+01
(PID.TID 0000.0001) %MON dynstat_theta_min            =   9.9999999999966E+00
(PID.TID 0000.0001) %MON dynstat_theta_mean           =   1.2564944391412E+01
(PID.TID 0000.0001) %MON dynstat_theta_sd             =   2.4259309742830E+00
(PID.TID 0000.0001) %MON dynstat_theta_del2           =   1.5415835399088E-03
(PID.TID 0000.0001) %MON dynstat_salt_max             =   3.5000000000000E+01
(PID.TID 0000.0001) %MON dynstat_salt_min             =   3.5000000000000E+01
(PID.TID 0000.0001) %MON dynstat_salt_mean            =   3.5000000000000E+01
(PID.TID 0000.0001) %MON dynstat_salt_sd              =   3.9790393202566E-13
(PID.TID 0000.0001) %MON dynstat_salt_del2            =   0.0000000000000E+00
(PID.TID 0000.0001) %MON dynstat_sst_max              =   1.5000000000000E+01
(PID.TID 0000.0001) %MON dynstat_sst_min              =   1.4999328786988E+01
(PID.TID 0000.0001) %MON dynstat_sst_mean             =   1.4999992158688E+01
(PID.TID 0000.0001) %MON dynstat_sst_sd               =   6.4370773063255E-05
(PID.TID 0000.0001) %MON dynstat_sst_del2             =   2.5134896363096E-06
(PID.TID 0000.0001) %MON dynstat_sss_max              =   3.5000000000000E+01
(PID.TID 0000.0001) %MON dynstat_sss_min              =   3.5000000000000E+01
(PID.TID 0000.0001) %MON dynstat_sss_mean             =   3.5000000000000E+01
(PID.TID 0000.0001) %MON dynstat_sss_sd               =   5.6843418860808E-14
(PID.TID 0000.0001) %MON dynstat_sss_del2             =   0.0000000000000E+00
(PID.TID 0000.0001) %MON forcing_qnet_max             =   0.0000000000000E+00
(PID.TID 0000.0001) %MON forcing_qnet_min             =   0.0000000000000E+00
(PID.TID 0000.0001) %MON forcing_qnet_mean            =   0.0000000000000E+00
(PID.TID 0000.0001) %MON forcing_qnet_sd              =   0.0000000000000E+00
(PID.TID 0000.0001) %MON forcing_qnet_del2            =   0.0000000000000E+00
(PID.TID 0000.0001) %MON forcing_qsw_max              =   0.0000000000000E+00
(PID.TID 0000.0001) %MON forcing_qsw_min              =   0.0000000000000E+00
(PID.TID 0000.0001) %MON forcing_qsw_mean             =   0.0000000000000E+00
(PID.TID 0000.0001) %MON forcing_qsw_sd               =   0.0000000000000E+00
(PID.TID 0000.0001) %MON forcing_qsw_del2             =   0.0000000000000E+00
(PID.TID 0000.0001) %MON forcing_empmr_max            =   0.0000000000000E+00
(PID.TID 0000.0001) %MON forcing_empmr_min            =   0.0000000000000E+00
(PID.TID 0000.0001) %MON forcing_empmr_mean           =   0.0000000000000E+00
(PID.TID 0000.0001) %MON forcing_empmr_sd             =   0.0000000000000E+00
(PID.TID 0000.0001) %MON forcing_empmr_del2           =   0.0000000000000E+00
(PID.TID 0000.0001) %MON forcing_fu_max               =   0.0000000000000E+00
(PID.TID 0000.0001) %MON forcing_fu_min               =   0.0000000000000E+00
(PID.TID 0000.0001) %MON forcing_fu_mean              =   0.0000000000000E+00
(PID.TID 0000.0001) %MON forcing_fu_sd                =   0.0000000000000E+00
(PID.TID 0000.0001) %MON forcing_fu_del2              =   0.0000000000000E+00
(PID.TID 0000.0001) %MON forcing_fv_max               =   0.0000000000000E+00
(PID.TID 0000.0001) %MON forcing_fv_min               =   0.0000000000000E+00
(PID.TID 0000.0001) %MON forcing_fv_mean              =   0.0000000000000E+00
(PID.TID 0000.0001) %MON forcing_fv_sd                =   0.0000000000000E+00
(PID.TID 0000.0001) %MON forcing_fv_del2              =   0.0000000000000E+00
(PID.TID 0000.0001) %MON advcfl_uvel_max              =   1.0928279046702E-01
(PID.TID 0000.0001) %MON advcfl_vvel_max              =   0.0000000000000E+00
(PID.TID 0000.0001) %MON advcfl_wvel_max              =   6.1706563136856E-01
(PID.TID 0000.0001) %MON advcfl_W_hf_max              =   6.2532970395642E-01
(PID.TID 0000.0001) %MON pe_b_mean                    =   2.0042032909415E-04
(PID.TID 0000.0001) %MON ke_max                       =   1.0395950419457E+00
(PID.TID 0000.0001) %MON ke_mean                      =   1.7421024402252E-01
(PID.TID 0000.0001) %MON ke_vol                       =   9.5121673331316E+10
(PID.TID 0000.0001) %MON vort_r_min                   =   0.0000000000000E+00
(PID.TID 0000.0001) %MON vort_r_max                   =   0.0000000000000E+00
(PID.TID 0000.0001) %MON vort_a_mean                  =   0.0000000000000E+00
(PID.TID 0000.0001) %MON vort_a_sd                    =   0.0000000000000E+00
(PID.TID 0000.0001) %MON vort_p_mean                  =   0.0000000000000E+00
(PID.TID 0000.0001) %MON vort_p_sd                    =   0.0000000000000E+00
(PID.TID 0000.0001) %MON surfExpan_theta_mean         =  -6.9299166645386E-11
(PID.TID 0000.0001) %MON surfExpan_salt_mean          =  -3.5828430968856E-18
(PID.TID 0000.0001) // =======================================================
(PID.TID 0000.0001) // End MONITOR dynamic field statistics
(PID.TID 0000.0001) // =======================================================
(PID.TID 0000.0001) // =======================================================
(PID.TID 0000.0001) // Begin OBCS MONITOR field statistics
(PID.TID 0000.0001) // =======================================================
(PID.TID 0000.0001) %MON obc_E_uVel_max               =   5.6028564143658E-01
(PID.TID 0000.0001) %MON obc_E_uVel_min               =   5.6028564143658E-01
(PID.TID 0000.0001) %MON obc_E_uVel_mean              =   5.6028564143658E-01
(PID.TID 0000.0001) %MON obc_E_uVel_sd                =   7.4505805969238E-09
(PID.TID 0000.0001) %MON obc_E_uVel_Int               =   5.6028564143658E+05
(PID.TID 0000.0001) %MON obc_W_uVel_max               =   5.6028564143658E-01
(PID.TID 0000.0001) %MON obc_W_uVel_min               =   5.6028564143658E-01
(PID.TID 0000.0001) %MON obc_W_uVel_mean              =   5.6028564143658E-01
(PID.TID 0000.0001) %MON obc_W_uVel_sd                =   7.4505805969238E-09
(PID.TID 0000.0001) %MON obc_W_uVel_Int               =   5.6028564143658E+05
(PID.TID 0000.0001) // =======================================================
(PID.TID 0000.0001) // End OBCS MONITOR field statistics
(PID.TID 0000.0001) // =======================================================
 cg2d: Sum(rhs),rhsMax =  -8.47555359229091E-12  7.59790866586108E-01
 cg2d: Sum(rhs),rhsMax =  -8.50486348014101E-12  7.57096461063468E-01
 cg2d: Sum(rhs),rhsMax =  -8.49809111969080E-12  7.54093038004412E-01
 cg2d: Sum(rhs),rhsMax =  -8.54516457593490E-12  7.50786420830905E-01
 cg2d: Sum(rhs),rhsMax =  -8.61144489050503E-12  7.47182568038858E-01
 cg2d: Sum(rhs),rhsMax =  -8.69004868064849E-12  7.43287556585754E-01
 cg2d: Sum(rhs),rhsMax =  -8.71758221165919E-12  7.39107564299940E-01
 cg2d: Sum(rhs),rhsMax =  -8.81639206085083E-12  7.34648854363957E-01
 cg2d: Sum(rhs),rhsMax =  -8.84681217172556E-12  7.29917761745325E-01
 cg2d: Sum(rhs),rhsMax =  -8.91176021866613E-12  7.24920681595585E-01
 cg2d: Sum(rhs),rhsMax =  -8.97515395337223E-12  7.19664059535617E-01
 cg2d: Sum(rhs),rhsMax =  -9.00213237287062E-12  7.14154379948444E-01
 cg2d: Sum(rhs),rhsMax =  -9.07496300328603E-12  7.08398155763413E-01
 cg2d: Sum(rhs),rhsMax =  -9.12148134801782E-12  7.02401919442260E-01
 cg2d: Sum(rhs),rhsMax =  -9.12225850413506E-12  6.96172213636903E-01
 cg2d: Sum(rhs),rhsMax =  -9.22795173607938E-12  6.89715581619791E-01
 cg2d: Sum(rhs),rhsMax =  -9.23339182890004E-12  6.83038556929059E-01
 cg2d: Sum(rhs),rhsMax =  -9.24782472822017E-12  6.76147653061388E-01
 cg2d: Sum(rhs),rhsMax =  -9.27813381679243E-12  6.69049352524228E-01
 cg2d: Sum(rhs),rhsMax =  -9.29889498735292E-12  6.61750094036785E-01
 cg2d: Sum(rhs),rhsMax =  -9.29023524776085E-12  6.54256259155727E-01
 cg2d: Sum(rhs),rhsMax =  -9.38016331275549E-12  6.46574158603010E-01
 cg2d: Sum(rhs),rhsMax =  -9.45354905468321E-12  6.38710018467289E-01
 cg2d: Sum(rhs),rhsMax =  -9.50706180447014E-12  6.30669966436861E-01
 cg2d: Sum(rhs),rhsMax =  -9.59576862413769E-12  6.22460017320272E-01
 cg2d: Sum(rhs),rhsMax =  -9.69613278556380E-12  6.14086060642130E-01
 cg2d: Sum(rhs),rhsMax =  -9.73410241300598E-12  6.05553849329801E-01
 cg2d: Sum(rhs),rhsMax =  -9.75497460586894E-12  5.96868988758402E-01
 cg2d: Sum(rhs),rhsMax =  -9.81215109163713E-12  5.88036926520947E-01
 cg2d: Sum(rhs),rhsMax =  -9.91517978832235E-12  5.79062943446122E-01
 cg2d: Sum(rhs),rhsMax =  -9.99311744465103E-12  5.69952144949677E-01
 cg2d: Sum(rhs),rhsMax =  -1.00864872010220E-11  5.60709456734132E-01
 cg2d: Sum(rhs),rhsMax =  -1.01899599869171E-11  5.51339621491699E-01
 cg2d: Sum(rhs),rhsMax =  -1.02851061001275E-11  5.41847196364679E-01
 cg2d: Sum(rhs),rhsMax =  -1.04256603350450E-11  5.32236551636265E-01
 cg2d: Sum(rhs),rhsMax =  -1.05231379166071E-11  5.22511870770115E-01
 cg2d: Sum(rhs),rhsMax =  -1.06510356090439E-11  5.12677151736765E-01
 cg2d: Sum(rhs),rhsMax =  -1.07789333014807E-11  5.02736209457631E-01
 cg2d: Sum(rhs),rhsMax =  -1.08940634291343E-11  4.92692679096900E-01
 cg2d: Sum(rhs),rhsMax =  -1.10121911589545E-11  4.82550019850271E-01
 cg2d: Sum(rhs),rhsMax =  -1.11795017687655E-11  4.72311519256669E-01
 cg2d: Sum(rhs),rhsMax =  -1.13299369886022E-11  4.61980298441923E-01
 cg2d: Sum(rhs),rhsMax =  -1.15115694754309E-11  4.51559316566562E-01
 cg2d: Sum(rhs),rhsMax =  -1.16967546759383E-11  4.41051375354144E-01
 cg2d: Sum(rhs),rhsMax =  -1.18935972182044E-11  4.30459123904482E-01
 cg2d: Sum(rhs),rhsMax =  -1.20857768237670E-11  4.19785063211540E-01
 cg2d: Sum(rhs),rhsMax =  -1.23179244582161E-11  4.09031550556696E-01
 cg2d: Sum(rhs),rhsMax =  -1.26325616633949E-11  3.98200803747793E-01
 cg2d: Sum(rhs),rhsMax =  -1.29320998354387E-11  3.87294905455156E-01
 cg2d: Sum(rhs),rhsMax =  -1.32508448658086E-11  3.76315807205297E-01
 cg2d: Sum(rhs),rhsMax =  -1.36316513632551E-11  3.65265333522991E-01
 cg2d: Sum(rhs),rhsMax =  -1.40166767081951E-11  3.54145186710110E-01
 cg2d: Sum(rhs),rhsMax =  -1.44000367185981E-11  3.42956952617861E-01
 cg2d: Sum(rhs),rhsMax =  -1.48471235306147E-11  3.31702106371306E-01
 cg2d: Sum(rhs),rhsMax =  -1.53522750068191E-11  3.20382018741783E-01
 cg2d: Sum(rhs),rhsMax =  -1.58555391038817E-11  3.08997963569153E-01
 cg2d: Sum(rhs),rhsMax =  -1.63927760254978E-11  2.97551126298979E-01
 cg2d: Sum(rhs),rhsMax =  -1.70429226287183E-11  2.86042613928103E-01
 cg2d: Sum(rhs),rhsMax =  -1.76775261095941E-11  2.74473465505580E-01
 cg2d: Sum(rhs),rhsMax =  -1.84043891238161E-11  2.62844663748045E-01
 cg2d: Sum(rhs),rhsMax =  -1.92311722102545E-11  2.51157147915842E-01
 cg2d: Sum(rhs),rhsMax =  -2.00744976197598E-11  2.39411827343338E-01
 cg2d: Sum(rhs),rhsMax =  -2.10527151267570E-11  2.27609595755292E-01
 cg2d: Sum(rhs),rhsMax =  -2.21528351218581E-11  2.15751346238695E-01
 cg2d: Sum(rhs),rhsMax =  -2.34121610986904E-11  2.03837986605536E-01
 cg2d: Sum(rhs),rhsMax =  -2.48046028161752E-11  1.91870454807434E-01
 cg2d: Sum(rhs),rhsMax =  -2.63573607384160E-11  1.79849734176398E-01
 cg2d: Sum(rhs),rhsMax =  -2.81809020563628E-11  1.67776868675660E-01
 cg2d: Sum(rhs),rhsMax =  -3.03161939996244E-11  1.55652977275233E-01
 cg2d: Sum(rhs),rhsMax =  -3.28365112878259E-11  1.43479267316629E-01
 cg2d: Sum(rhs),rhsMax =  -3.58144069956268E-11  1.31257046778992E-01
 cg2d: Sum(rhs),rhsMax =  -3.94562715833047E-11  1.18987735318784E-01
 cg2d: Sum(rhs),rhsMax =  -4.39623337733508E-11  1.06672873884037E-01
 cg2d: Sum(rhs),rhsMax =  -4.83582340837785E-11  9.67675366488068E-02
 cg2d: Sum(rhs),rhsMax =  -4.82834189297066E-11  9.67603223262991E-02
 cg2d: Sum(rhs),rhsMax =  -4.82420423053576E-11  9.67365740975305E-02
 cg2d: Sum(rhs),rhsMax =  -4.81553963371795E-11  9.66932542113692E-02
 cg2d: Sum(rhs),rhsMax =  -4.81271134056271E-11  9.66163712913065E-02
 cg2d: Sum(rhs),rhsMax =  -4.81247819372754E-11  9.65159874064099E-02
 cg2d: Sum(rhs),rhsMax =  -4.80772088806702E-11  9.64068730377244E-02
 cg2d: Sum(rhs),rhsMax =  -4.43185488308018E-11  1.04449679724701E-01
 cg2d: Sum(rhs),rhsMax =  -4.01876310007765E-11  1.14888121577357E-01
 cg2d: Sum(rhs),rhsMax =  -3.68003405526451E-11  1.25289631150922E-01
 cg2d: Sum(rhs),rhsMax =  -3.38874484029361E-11  1.35649034915601E-01
 cg2d: Sum(rhs),rhsMax =  -3.14125392364417E-11  1.46124317849660E-01
 cg2d: Sum(rhs),rhsMax =  -2.91924262540988E-11  1.56708806713304E-01
 cg2d: Sum(rhs),rhsMax =  -2.73097100489395E-11  1.67233295403214E-01
 cg2d: Sum(rhs),rhsMax =  -2.56711318868952E-11  1.77692360566429E-01
 cg2d: Sum(rhs),rhsMax =  -2.42057485166924E-11  1.88080616543593E-01
 cg2d: Sum(rhs),rhsMax =  -2.28574936755876E-11  1.98392514743923E-01
 cg2d: Sum(rhs),rhsMax =  -2.16413553744133E-11  2.08622850702387E-01
 cg2d: Sum(rhs),rhsMax =  -2.05875316794391E-11  2.18766307427272E-01
 cg2d: Sum(rhs),rhsMax =  -1.95963245630537E-11  2.28817570064785E-01
 cg2d: Sum(rhs),rhsMax =  -1.86980431138295E-11  2.38771133471901E-01
 cg2d: Sum(rhs),rhsMax =  -1.78975723130748E-11  2.48621619342807E-01
 cg2d: Sum(rhs),rhsMax =  -1.70539138366621E-11  2.59781847608815E-01
 cg2d: Sum(rhs),rhsMax =  -1.62712066043014E-11  2.71662712493638E-01
 cg2d: Sum(rhs),rhsMax =  -1.54948276431810E-11  2.83406067157731E-01
 cg2d: Sum(rhs),rhsMax =  -1.48356882334610E-11  2.95005340916890E-01
 cg2d: Sum(rhs),rhsMax =  -1.41932021691105E-11  3.06454037700863E-01
 cg2d: Sum(rhs),rhsMax =  -1.36436417719210E-11  3.17745746587400E-01
 cg2d: Sum(rhs),rhsMax =  -1.31289423777048E-11  3.28874153178450E-01
 cg2d: Sum(rhs),rhsMax =  -1.26304522396481E-11  3.39833051833138E-01
 cg2d: Sum(rhs),rhsMax =  -1.22079013564758E-11  3.50616358473988E-01
 cg2d: Sum(rhs),rhsMax =  -1.17715837077981E-11  3.61218122979041E-01
 cg2d: Sum(rhs),rhsMax =  -1.13865583628581E-11  3.71632539110504E-01
 cg2d: Sum(rhs),rhsMax =  -1.10280673482066E-11  3.81853952710059E-01
 cg2d: Sum(rhs),rhsMax =  -1.07233111279470E-11  3.91876869180418E-01
 cg2d: Sum(rhs),rhsMax =  -1.04206643314342E-11  4.01695959981094E-01
 cg2d: Sum(rhs),rhsMax =  -1.01170183341992E-11  4.11306066977719E-01
 cg2d: Sum(rhs),rhsMax =  -9.84745618382021E-12  4.20702203576326E-01
 cg2d: Sum(rhs),rhsMax =  -9.60431734142730E-12  4.29879552248281E-01
 cg2d: Sum(rhs),rhsMax =  -9.31121846292626E-12  4.38833458819565E-01
 cg2d: Sum(rhs),rhsMax =  -9.03688235354139E-12  4.47559424526907E-01
 cg2d: Sum(rhs),rhsMax =  -8.76765327006979E-12  4.56053097269873E-01
 cg2d: Sum(rhs),rhsMax =  -8.53916937160193E-12  4.64310263614311E-01
 cg2d: Sum(rhs),rhsMax =  -8.32067748035570E-12  4.72326842787015E-01
 cg2d: Sum(rhs),rhsMax =  -8.09707856319619E-12  4.80098883288607E-01
 cg2d: Sum(rhs),rhsMax =  -7.90933984973208E-12  4.87622562870946E-01
 cg2d: Sum(rhs),rhsMax =  -7.68218821889377E-12  4.94894192377833E-01
 cg2d: Sum(rhs),rhsMax =  -7.51321227454582E-12  5.01910222899030E-01
 cg2d: Sum(rhs),rhsMax =  -7.35733696188845E-12  5.08667255625571E-01
 cg2d: Sum(rhs),rhsMax =  -7.15694170594361E-12  5.15162054324385E-01
 cg2d: Sum(rhs),rhsMax =  -7.03381797251268E-12  5.21391560518265E-01
 cg2d: Sum(rhs),rhsMax =  -6.89903689732319E-12  5.27352911365131E-01
 cg2d: Sum(rhs),rhsMax =  -6.72639721699397E-12  5.33043459808448E-01
 cg2d: Sum(rhs),rhsMax =  -6.63902266495597E-12  5.38460795345698E-01
 cg2d: Sum(rhs),rhsMax =  -6.56219523165191E-12  5.43602766184409E-01
 cg2d: Sum(rhs),rhsMax =  -6.42330633127131E-12  5.48467501894636E-01
 cg2d: Sum(rhs),rhsMax =  -6.35080876776328E-12  5.53680366256048E-01
 cg2d: Sum(rhs),rhsMax =  -6.19304607596405E-12  5.61507945196859E-01
 cg2d: Sum(rhs),rhsMax =  -6.07958128284736E-12  5.69086648656729E-01
 cg2d: Sum(rhs),rhsMax =  -5.93214366517714E-12  5.76410898923713E-01
 cg2d: Sum(rhs),rhsMax =  -5.82278669725156E-12  5.83475243485798E-01
 cg2d: Sum(rhs),rhsMax =  -5.68822766666699E-12  5.90274368383020E-01
 cg2d: Sum(rhs),rhsMax =  -5.59718937864773E-12  5.96803111979911E-01
 cg2d: Sum(rhs),rhsMax =  -5.50615109062846E-12  6.03056478831467E-01
 cg2d: Sum(rhs),rhsMax =  -5.45230527393414E-12  6.09029653330958E-01
 cg2d: Sum(rhs),rhsMax =  -5.38591393706156E-12  6.14718012674740E-01
 cg2d: Sum(rhs),rhsMax =  -5.32618393833673E-12  6.20117138828501E-01
 cg2d: Sum(rhs),rhsMax =  -5.27911048209262E-12  6.25222829283379E-01
 cg2d: Sum(rhs),rhsMax =  -5.23348031578053E-12  6.30031106510786E-01
 cg2d: Sum(rhs),rhsMax =  -5.23714405176179E-12  6.34538225647513E-01
 cg2d: Sum(rhs),rhsMax =  -5.20683496318952E-12  6.38740680397352E-01
 cg2d: Sum(rhs),rhsMax =  -5.15631981556908E-12  6.42635207231213E-01
 cg2d: Sum(rhs),rhsMax =  -5.16153786378482E-12  6.46218787705468E-01
 cg2d: Sum(rhs),rhsMax =  -5.11590769747272E-12  6.49488649541734E-01
 cg2d: Sum(rhs),rhsMax =  -5.07127673188279E-12  6.52442266609774E-01
 cg2d: Sum(rhs),rhsMax =  -5.05762098867990E-12  6.55077358060412E-01
 cg2d: Sum(rhs),rhsMax =  -5.00244290435603E-12  6.57391886816550E-01
 cg2d: Sum(rhs),rhsMax =  -5.01410024611459E-12  6.59384057699592E-01
 cg2d: Sum(rhs),rhsMax =  -4.99200680792455E-12  6.61052315451767E-01
 cg2d: Sum(rhs),rhsMax =  -5.02842212313226E-12  6.62395342655899E-01
 cg2d: Sum(rhs),rhsMax =  -5.00899322020132E-12  6.63412058179708E-01
 cg2d: Sum(rhs),rhsMax =  -5.02375918642883E-12  6.64101615923677E-01
 cg2d: Sum(rhs),rhsMax =  -4.98512342517188E-12  6.64463403625901E-01
 cg2d: Sum(rhs),rhsMax =  -4.93338703222435E-12  6.64497041629682E-01
 cg2d: Sum(rhs),rhsMax =  -4.93061147466278E-12  6.64202381481898E-01
 cg2d: Sum(rhs),rhsMax =  -4.93460827755143E-12  6.63579504189771E-01
 cg2d: Sum(rhs),rhsMax =  -4.91340301778109E-12  6.62628717526553E-01
 cg2d: Sum(rhs),rhsMax =  -4.88697970979501E-12  6.61350553127447E-01
 cg2d: Sum(rhs),rhsMax =  -4.87831997020294E-12  6.59745763080771E-01
 cg2d: Sum(rhs),rhsMax =  -4.85078643919223E-12  6.57815315283332E-01
 cg2d: Sum(rhs),rhsMax =  -4.91418017389833E-12  6.55560387058345E-01
 cg2d: Sum(rhs),rhsMax =  -4.95781193876610E-12  6.52982358541236E-01
 cg2d: Sum(rhs),rhsMax =  -4.86777285146900E-12  6.50082806037422E-01
 cg2d: Sum(rhs),rhsMax =  -4.78039829943100E-12  6.46863494308332E-01
 cg2d: Sum(rhs),rhsMax =  -4.67181848762266E-12  6.43326368876669E-01
 cg2d: Sum(rhs),rhsMax =  -4.69480010423240E-12  6.39473547825403E-01
 cg2d: Sum(rhs),rhsMax =  -4.84556839097650E-12  6.35307312269680E-01
 cg2d: Sum(rhs),rhsMax =  -4.90241180983730E-12  6.30830097617943E-01
 cg2d: Sum(rhs),rhsMax =  -4.96003238481535E-12  6.26044485879972E-01
 cg2d: Sum(rhs),rhsMax =  -4.99578156620828E-12  6.20953199763269E-01
 cg2d: Sum(rhs),rhsMax =  -5.07638375779607E-12  6.15559095668811E-01
 cg2d: Sum(rhs),rhsMax =  -5.17030862567935E-12  6.09865156003748E-01
 cg2d: Sum(rhs),rhsMax =  -5.31064081599197E-12  6.03874482468382E-01
 cg2d: Sum(rhs),rhsMax =  -5.45030687248982E-12  5.97590290148417E-01
 cg2d: Sum(rhs),rhsMax =  -5.59752244555511E-12  5.91015901297850E-01
 cg2d: Sum(rhs),rhsMax =  -5.76405589924889E-12  5.84154739675329E-01
 cg2d: Sum(rhs),rhsMax =  -5.87996318301975E-12  5.77010324748926E-01
 cg2d: Sum(rhs),rhsMax =  -5.99087446317981E-12  5.69586265808425E-01
 cg2d: Sum(rhs),rhsMax =  -6.14308603985592E-12  5.61886256006676E-01
 cg2d: Sum(rhs),rhsMax =  -6.25977047974402E-12  5.53914065969508E-01
 cg2d: Sum(rhs),rhsMax =  -6.43696207447420E-12  5.45673537527417E-01
 cg2d: Sum(rhs),rhsMax =  -6.56352749928146E-12  5.37168577912458E-01
 cg2d: Sum(rhs),rhsMax =  -6.76225742068937E-12  5.28403153638314E-01
 cg2d: Sum(rhs),rhsMax =  -6.94078128304909E-12  5.19381286388162E-01
 cg2d: Sum(rhs),rhsMax =  -7.14406311885796E-12  5.10107050202369E-01
 cg2d: Sum(rhs),rhsMax =  -7.35689287267860E-12  5.00584568911495E-01
 cg2d: Sum(rhs),rhsMax =  -7.60003171507151E-12  4.90818014177273E-01
 cg2d: Sum(rhs),rhsMax =  -7.84861065028508E-12  4.80811604668073E-01
 cg2d: Sum(rhs),rhsMax =  -8.09130540346814E-12  4.70569605490471E-01
 cg2d: Sum(rhs),rhsMax =  -8.37641067619188E-12  4.60096331589882E-01
 cg2d: Sum(rhs),rhsMax =  -8.62987459271380E-12  4.49396152237017E-01
 cg2d: Sum(rhs),rhsMax =  -8.81761330617792E-12  4.38473496384791E-01
 cg2d: Sum(rhs),rhsMax =  -9.09194941556279E-12  4.27332859116421E-01
 cg2d: Sum(rhs),rhsMax =  -9.36384303429350E-12  4.15978809310747E-01
 cg2d: Sum(rhs),rhsMax =  -9.68269908696584E-12  4.04415998526839E-01
 cg2d: Sum(rhs),rhsMax =  -1.00094377231130E-11  3.92649170976492E-01
 cg2d: Sum(rhs),rhsMax =  -1.04029007630402E-11  3.80683174337689E-01
 cg2d: Sum(rhs),rhsMax =  -1.07511777258651E-11  3.68522971124200E-01
 cg2d: Sum(rhs),rhsMax =  -1.11629594456986E-11  3.56173650395849E-01
 cg2d: Sum(rhs),rhsMax =  -1.16462395283179E-11  3.43640439337921E-01
 cg2d: Sum(rhs),rhsMax =  -1.21627152793735E-11  3.30928714803602E-01
 cg2d: Sum(rhs),rhsMax =  -1.27057253607177E-11  3.18044014407258E-01
 cg2d: Sum(rhs),rhsMax =  -1.32908128946951E-11  3.04992046777815E-01
 cg2d: Sum(rhs),rhsMax =  -1.39663836051795E-11  2.91778700654348E-01
 cg2d: Sum(rhs),rhsMax =  -1.47127865446350E-11  2.78410052960309E-01
 cg2d: Sum(rhs),rhsMax =  -1.55380153188389E-11  2.64892374714030E-01
 cg2d: Sum(rhs),rhsMax =  -1.64359637011557E-11  2.51232135228814E-01
 cg2d: Sum(rhs),rhsMax =  -1.74993353141417E-11  2.37436004761660E-01
 cg2d: Sum(rhs),rhsMax =  -1.86882731512128E-11  2.23510855199449E-01
 cg2d: Sum(rhs),rhsMax =  -1.99715799453770E-11  2.09463758447791E-01
 cg2d: Sum(rhs),rhsMax =  -2.14196438363956E-11  1.95301982323050E-01
 cg2d: Sum(rhs),rhsMax =  -2.31743513268157E-11  1.81032983854688E-01
 cg2d: Sum(rhs),rhsMax =  -2.52271536993476E-11  1.66664399963712E-01
 cg2d: Sum(rhs),rhsMax =  -2.77009526428174E-11  1.52204035584457E-01
 cg2d: Sum(rhs),rhsMax =  -2.97818436578723E-11  1.41669842821387E-01
 cg2d: Sum(rhs),rhsMax =  -3.17502690805327E-11  1.33181350329739E-01
 cg2d: Sum(rhs),rhsMax =  -3.39840378060785E-11  1.24793390026591E-01
 cg2d: Sum(rhs),rhsMax =  -3.64694940913068E-11  1.16450622608953E-01
 cg2d: Sum(rhs),rhsMax =  -3.93861609992996E-11  1.08074466274111E-01
 cg2d: Sum(rhs),rhsMax =  -4.28120872086879E-11  9.96658972309258E-02
 cg2d: Sum(rhs),rhsMax =  -4.68910466011607E-11  9.12257217008883E-02
 cg2d: Sum(rhs),rhsMax =  -5.02191621620796E-11  8.53252496870969E-02
 cg2d: Sum(rhs),rhsMax =  -5.01640951000581E-11  8.55084858469337E-02
 cg2d: Sum(rhs),rhsMax =  -5.00998686980836E-11  8.56969524008140E-02
 cg2d: Sum(rhs),rhsMax =  -5.00133823244653E-11  8.58948873789897E-02
 cg2d: Sum(rhs),rhsMax =  -4.99587593516537E-11  8.60963196068754E-02
 cg2d: Sum(rhs),rhsMax =  -4.98762559031363E-11  8.63088885596813E-02
 cg2d: Sum(rhs),rhsMax =  -4.97515431630013E-11  8.65370701612773E-02
 cg2d: Sum(rhs),rhsMax =  -4.96358232293659E-11  8.67791662094240E-02
 cg2d: Sum(rhs),rhsMax =  -4.57150983734778E-11  9.43122972835828E-02
 cg2d: Sum(rhs),rhsMax =  -4.02752831085706E-11  1.07271056179985E-01
 cg2d: Sum(rhs),rhsMax =  -3.59519081172266E-11  1.20337572912707E-01
 cg2d: Sum(rhs),rhsMax =  -3.24684723551627E-11  1.33567269386583E-01
 cg2d: Sum(rhs),rhsMax =  -2.95668489691536E-11  1.46897678469538E-01
 cg2d: Sum(rhs),rhsMax =  -2.71810907115366E-11  1.60363225572535E-01
 cg2d: Sum(rhs),rhsMax =  -2.50662823830794E-11  1.73926621548536E-01
 cg2d: Sum(rhs),rhsMax =  -2.33163488516652E-11  1.87593233890277E-01
 cg2d: Sum(rhs),rhsMax =  -2.17219575660010E-11  2.01452865249019E-01
 cg2d: Sum(rhs),rhsMax =  -2.03436156809289E-11  2.15441238893182E-01
 cg2d: Sum(rhs),rhsMax =  -1.91422433459820E-11  2.29512343842317E-01
 cg2d: Sum(rhs),rhsMax =  -1.81075154870314E-11  2.43475878672581E-01
 cg2d: Sum(rhs),rhsMax =  -1.72071246140604E-11  2.57326079979443E-01
 cg2d: Sum(rhs),rhsMax =  -1.64139812852682E-11  2.71057197572098E-01
 cg2d: Sum(rhs),rhsMax =  -1.56951118768234E-11  2.84663479096281E-01
 cg2d: Sum(rhs),rhsMax =  -1.50373047347330E-11  2.98139157104754E-01
 cg2d: Sum(rhs),rhsMax =  -1.44572132043663E-11  3.11478438789996E-01
 cg2d: Sum(rhs),rhsMax =  -1.39189770820281E-11  3.24675498548635E-01
 cg2d: Sum(rhs),rhsMax =  -1.34192656986443E-11  3.37724473496664E-01
 cg2d: Sum(rhs),rhsMax =  -1.29447563779195E-11  3.50619461986977E-01
 cg2d: Sum(rhs),rhsMax =  -1.25217614055373E-11  3.63354525154098E-01
 cg2d: Sum(rhs),rhsMax =  -1.21618271009538E-11  3.75923691496213E-01
 cg2d: Sum(rhs),rhsMax =  -1.18158816064806E-11  3.88320964450810E-01
 cg2d: Sum(rhs),rhsMax =  -1.15131237876653E-11  4.00540332853993E-01
 cg2d: Sum(rhs),rhsMax =  -1.12138076602264E-11  4.12575784140162E-01
 cg2d: Sum(rhs),rhsMax =  -1.09244835400091E-11  4.24421320046958E-01
 cg2d: Sum(rhs),rhsMax =  -1.06828990098506E-11  4.36070974493458E-01
 cg2d: Sum(rhs),rhsMax =  -1.04977138093432E-11  4.47518833163262E-01
 cg2d: Sum(rhs),rhsMax =  -1.03526076600247E-11  4.58759054220603E-01
 cg2d: Sum(rhs),rhsMax =  -1.01857411394235E-11  4.69785889525995E-01
 cg2d: Sum(rhs),rhsMax =  -1.00585095808015E-11  4.80593705680756E-01
 cg2d: Sum(rhs),rhsMax =  -9.90640902642781E-12  4.91177004221195E-01
 cg2d: Sum(rhs),rhsMax =  -9.73376934609860E-12  5.01530440315713E-01
 cg2d: Sum(rhs),rhsMax =  -9.62196988751884E-12  5.11648839397786E-01
 cg2d: Sum(rhs),rhsMax =  -9.52626866279616E-12  5.21527211287661E-01
 cg2d: Sum(rhs),rhsMax =  -9.38904509695249E-12  5.31160761522023E-01
 cg2d: Sum(rhs),rhsMax =  -9.31199561904350E-12  5.40544899897282E-01
 cg2d: Sum(rhs),rhsMax =  -9.21163145761739E-12  5.49675246283746E-01
 cg2d: Sum(rhs),rhsMax =  -9.09816666450070E-12  5.58547633988860E-01
 cg2d: Sum(rhs),rhsMax =  -9.04909480681226E-12  5.67158111131462E-01
 cg2d: Sum(rhs),rhsMax =  -8.94329055256549E-12  5.75502940569403E-01
 cg2d: Sum(rhs),rhsMax =  -8.87767637181014E-12  5.83578599036637E-01
 cg2d: Sum(rhs),rhsMax =  -8.83582096378177E-12  5.91381776079592E-01
 cg2d: Sum(rhs),rhsMax =  -8.70015171017258E-12  5.98909373260546E-01
 cg2d: Sum(rhs),rhsMax =  -8.63764615388618E-12  6.06158504434057E-01
 cg2d: Sum(rhs),rhsMax =  -8.56426041195846E-12  6.13126497102524E-01
 cg2d: Sum(rhs),rhsMax =  -8.46334113902003E-12  6.19810895342357E-01
 cg2d: Sum(rhs),rhsMax =  -8.37785396612389E-12  6.26209464187276E-01
 cg2d: Sum(rhs),rhsMax =  -8.28470625435784E-12  6.32320195326497E-01
 cg2d: Sum(rhs),rhsMax =  -8.19866396994939E-12  6.38141314006862E-01
 cg2d: Sum(rhs),rhsMax =  -8.09352584951739E-12  6.43671286887829E-01
 cg2d: Sum(rhs),rhsMax =  -8.00981503346065E-12  6.48908830369792E-01
 cg2d: Sum(rhs),rhsMax =  -7.96462895635841E-12  6.53852918463878E-01
 cg2d: Sum(rhs),rhsMax =  -7.94375676349546E-12  6.58502789966680E-01
 cg2d: Sum(rhs),rhsMax =  -7.97617527581451E-12  6.62857954229078E-01
 cg2d: Sum(rhs),rhsMax =  -7.98827670678293E-12  6.66918195359344E-01
 cg2d: Sum(rhs),rhsMax =  -7.87392373524654E-12  6.70683574358624E-01
 cg2d: Sum(rhs),rhsMax =  -7.75135511332792E-12  6.74154428744041E-01
 cg2d: Sum(rhs),rhsMax =  -7.58149099056027E-12  6.77331369386473E-01
 cg2d: Sum(rhs),rhsMax =  -7.46103179238844E-12  6.80215274432932E-01
 cg2d: Sum(rhs),rhsMax =  -7.34379224098802E-12  6.82807280373712E-01
 cg2d: Sum(rhs),rhsMax =  -7.18280990241738E-12  6.85108770433990E-01
 cg2d: Sum(rhs),rhsMax =  -7.06068536970861E-12  6.87121360553123E-01
 cg2d: Sum(rhs),rhsMax =  -6.96021018598003E-12  6.88846883139576E-01
 cg2d: Sum(rhs),rhsMax =  -6.91502410887779E-12  6.90287369608672E-01
 cg2d: Sum(rhs),rhsMax =  -6.78113121210799E-12  6.91445031866438E-01
 cg2d: Sum(rhs),rhsMax =  -6.64590604770865E-12  6.92322243171994E-01
 cg2d: Sum(rhs),rhsMax =  -6.55486775968939E-12  6.92921518964001E-01
 cg2d: Sum(rhs),rhsMax =  -6.42286224206146E-12  6.93245498194543E-01
 cg2d: Sum(rhs),rhsMax =  -6.32804919575847E-12  6.93296925681759E-01
 cg2d: Sum(rhs),rhsMax =  -6.26387830493513E-12  6.93078635888799E-01
 cg2d: Sum(rhs),rhsMax =  -6.19893025799456E-12  6.92593537871033E-01
 cg2d: Sum(rhs),rhsMax =  -6.14797102116427E-12  6.91844603207281E-01
 cg2d: Sum(rhs),rhsMax =  -6.16473538883611E-12  6.90834855704410E-01
 cg2d: Sum(rhs),rhsMax =  -6.14297501755345E-12  6.89567362839604E-01
 cg2d: Sum(rhs),rhsMax =  -6.11488637503044E-12  6.88045228751338E-01
 cg2d: Sum(rhs),rhsMax =  -6.13897821466480E-12  6.86271588405707E-01
 cg2d: Sum(rhs),rhsMax =  -6.14741590965195E-12  6.84249604627487E-01
 cg2d: Sum(rhs),rhsMax =  -6.16384721041641E-12  6.81982465644761E-01
 cg2d: Sum(rhs),rhsMax =  -6.16617867876812E-12  6.79473383082320E-01
 cg2d: Sum(rhs),rhsMax =  -6.16295903199671E-12  6.76725590280565E-01
 cg2d: Sum(rhs),rhsMax =  -6.14519546360270E-12  6.73742341747951E-01
 cg2d: Sum(rhs),rhsMax =  -6.14441830748547E-12  6.70526910206440E-01
 cg2d: Sum(rhs),rhsMax =  -6.16284800969424E-12  6.67082583953963E-01
 cg2d: Sum(rhs),rhsMax =  -6.16140471976223E-12  6.63412664184690E-01
 cg2d: Sum(rhs),rhsMax =  -6.14630568662733E-12  6.59520462435226E-01
 cg2d: Sum(rhs),rhsMax =  -6.14974737800367E-12  6.55409297431791E-01
 cg2d: Sum(rhs),rhsMax =  -6.13065154198011E-12  6.51082492183578E-01
 cg2d: Sum(rhs),rhsMax =  -6.10667072464821E-12  6.46543369034987E-01
 cg2d: Sum(rhs),rhsMax =  -6.08257888501385E-12  6.41795245383380E-01
 cg2d: Sum(rhs),rhsMax =  -6.00575145170978E-12  6.36841429036782E-01
 cg2d: Sum(rhs),rhsMax =  -5.93847193641750E-12  6.31685214613062E-01
 cg2d: Sum(rhs),rhsMax =  -5.89639448378421E-12  6.26329880241895E-01
 cg2d: Sum(rhs),rhsMax =  -5.82556225481312E-12  6.20778684482545E-01
 cg2d: Sum(rhs),rhsMax =  -5.78093128922319E-12  6.15034863449139E-01
 cg2d: Sum(rhs),rhsMax =  -5.69533309402459E-12  6.09101628198704E-01
 cg2d: Sum(rhs),rhsMax =  -5.66102720256367E-12  6.02982162486018E-01
 cg2d: Sum(rhs),rhsMax =  -5.60129720383884E-12  5.96679620920250E-01
 cg2d: Sum(rhs),rhsMax =  -5.57276447210597E-12  5.90197127103374E-01
 cg2d: Sum(rhs),rhsMax =  -5.49793544024624E-12  5.83537772139884E-01
 cg2d: Sum(rhs),rhsMax =  -5.41122702202301E-12  5.76704612739616E-01
 cg2d: Sum(rhs),rhsMax =  -5.36737321255032E-12  5.69700671209359E-01
 cg2d: Sum(rhs),rhsMax =  -5.38269429029015E-12  5.62528935981226E-01
 cg2d: Sum(rhs),rhsMax =  -5.38491473633940E-12  5.55192362000589E-01
 cg2d: Sum(rhs),rhsMax =  -5.40123501480139E-12  5.47693871280564E-01
 cg2d: Sum(rhs),rhsMax =  -5.40112399249892E-12  5.40036354047802E-01
 cg2d: Sum(rhs),rhsMax =  -5.41300337886241E-12  5.32222670645273E-01
 cg2d: Sum(rhs),rhsMax =  -5.44397860124946E-12  5.24255653160613E-01
 cg2d: Sum(rhs),rhsMax =  -5.43931566454603E-12  5.16138110005470E-01
 cg2d: Sum(rhs),rhsMax =  -5.50937073739988E-12  5.07872830582066E-01
 cg2d: Sum(rhs),rhsMax =  -5.48583400927782E-12  4.99462589828859E-01
 cg2d: Sum(rhs),rhsMax =  -5.51481083022054E-12  4.90910152670618E-01
 cg2d: Sum(rhs),rhsMax =  -5.53879164755244E-12  4.82218278341308E-01
 cg2d: Sum(rhs),rhsMax =  -5.56710233468038E-12  4.73389724401652E-01
 cg2d: Sum(rhs),rhsMax =  -5.60740343047428E-12  4.64427250158929E-01
 cg2d: Sum(rhs),rhsMax =  -5.62816460103477E-12  4.55333619140579E-01
 cg2d: Sum(rhs),rhsMax =  -5.69355673718519E-12  4.46111600303285E-01
 cg2d: Sum(rhs),rhsMax =  -5.73330272146677E-12  4.36763968101525E-01
 cg2d: Sum(rhs),rhsMax =  -5.76794167983508E-12  4.27293500015721E-01
 cg2d: Sum(rhs),rhsMax =  -5.80457903964771E-12  4.17702973055898E-01
 cg2d: Sum(rhs),rhsMax =  -5.84732262609577E-12  4.07995159133156E-01
 cg2d: Sum(rhs),rhsMax =  -5.89961413055562E-12  3.98172818963805E-01
 cg2d: Sum(rhs),rhsMax =  -5.95801186165090E-12  3.88238694884994E-01
 cg2d: Sum(rhs),rhsMax =  -6.01874106109790E-12  3.78195503005225E-01
 cg2d: Sum(rhs),rhsMax =  -6.09479133828472E-12  3.68045925345822E-01
 cg2d: Sum(rhs),rhsMax =  -6.16262596508932E-12  3.57792602634425E-01
 cg2d: Sum(rhs),rhsMax =  -6.25088869554702E-12  3.47438127415409E-01
 cg2d: Sum(rhs),rhsMax =  -6.32593977201168E-12  3.36985038556163E-01
 cg2d: Sum(rhs),rhsMax =  -6.48758824439710E-12  3.26435817668502E-01
 cg2d: Sum(rhs),rhsMax =  -6.66022792472631E-12  3.15792887527265E-01
 cg2d: Sum(rhs),rhsMax =  -6.85607126627019E-12  3.05058612807061E-01
 cg2d: Sum(rhs),rhsMax =  -7.03970215454319E-12  2.94235302292390E-01
 cg2d: Sum(rhs),rhsMax =  -7.24331705725945E-12  2.83325213030357E-01
 cg2d: Sum(rhs),rhsMax =  -7.47757411545535E-12  2.72330556451554E-01
 cg2d: Sum(rhs),rhsMax =  -7.72959474204526E-12  2.61253506002767E-01
 cg2d: Sum(rhs),rhsMax =  -7.98994204131986E-12  2.50096206326865E-01
 cg2d: Sum(rhs),rhsMax =  -8.32633961778129E-12  2.38860783487611E-01
 cg2d: Sum(rhs),rhsMax =  -8.65130189708907E-12  2.27549355262635E-01
 cg2d: Sum(rhs),rhsMax =  -9.03599417512169E-12  2.16164041334387E-01
 cg2d: Sum(rhs),rhsMax =  -9.48208178641607E-12  2.04706973320623E-01
 cg2d: Sum(rhs),rhsMax =  -9.97180116257823E-12  1.93180304478083E-01
 cg2d: Sum(rhs),rhsMax =  -1.04800057521004E-11  1.81586218863278E-01
 cg2d: Sum(rhs),rhsMax =  -1.10879638803851E-11  1.69926939611577E-01
 cg2d: Sum(rhs),rhsMax =  -1.18566823026356E-11  1.58204736365403E-01
 cg2d: Sum(rhs),rhsMax =  -1.27824972828705E-11  1.46421932021047E-01
 cg2d: Sum(rhs),rhsMax =  -1.38425382267826E-11  1.34580908362654E-01
 cg2d: Sum(rhs),rhsMax =  -1.50850165692162E-11  1.22684110786102E-01
 cg2d: Sum(rhs),rhsMax =  -1.66336666662659E-11  1.10734052499673E-01
 cg2d: Sum(rhs),rhsMax =  -1.68697972258158E-11  1.08751211725940E-01
 cg2d: Sum(rhs),rhsMax =  -1.67579145005092E-11  1.08845146254001E-01
 cg2d: Sum(rhs),rhsMax =  -1.66721081384935E-11  1.08943853189156E-01
 cg2d: Sum(rhs),rhsMax =  -1.65714109101600E-11  1.09045075245166E-01
 cg2d: Sum(rhs),rhsMax =  -1.64971925009638E-11  1.09131522227300E-01
 cg2d: Sum(rhs),rhsMax =  -1.63946634046397E-11  1.09202175899325E-01
 cg2d: Sum(rhs),rhsMax =  -1.62990732022195E-11  1.09258989567691E-01
 cg2d: Sum(rhs),rhsMax =  -1.61747282234614E-11  1.09300743080606E-01
 cg2d: Sum(rhs),rhsMax =  -1.49112944214380E-11  1.18043826873063E-01
 cg2d: Sum(rhs),rhsMax =  -1.36772815295672E-11  1.27969515179659E-01
 cg2d: Sum(rhs),rhsMax =  -1.26197940986117E-11  1.37834343238587E-01
 cg2d: Sum(rhs),rhsMax =  -1.17146292666348E-11  1.47633584783524E-01
 cg2d: Sum(rhs),rhsMax =  -1.09311448781568E-11  1.57362537199692E-01
 cg2d: Sum(rhs),rhsMax =  -1.02471364726853E-11  1.67016478439262E-01
 cg2d: Sum(rhs),rhsMax =  -9.61697388390803E-12  1.76590553314840E-01
 cg2d: Sum(rhs),rhsMax =  -9.08184638603871E-12  1.86079893183593E-01
 cg2d: Sum(rhs),rhsMax =  -8.61177795741241E-12  1.95479614349302E-01
 cg2d: Sum(rhs),rhsMax =  -8.12883094170047E-12  2.04785139807862E-01
 cg2d: Sum(rhs),rhsMax =  -7.66653407424656E-12  2.13992130269152E-01
 cg2d: Sum(rhs),rhsMax =  -7.28406224226319E-12  2.23096378340932E-01
 cg2d: Sum(rhs),rhsMax =  -6.87772061525038E-12  2.32093522827825E-01
 cg2d: Sum(rhs),rhsMax =  -6.57329746189816E-12  2.40979221023517E-01
 cg2d: Sum(rhs),rhsMax =  -6.23923135378845E-12  2.49749312877727E-01
 cg2d: Sum(rhs),rhsMax =  -5.96922511419962E-12  2.58399808971816E-01
 cg2d: Sum(rhs),rhsMax =  -5.70521407894375E-12  2.66965519093334E-01
 cg2d: Sum(rhs),rhsMax =  -5.40179012631370E-12  2.76952018389527E-01
 cg2d: Sum(rhs),rhsMax =  -5.16986453646950E-12  2.86790804616606E-01
 cg2d: Sum(rhs),rhsMax =  -5.02520247636085E-12  2.96477313405603E-01
 cg2d: Sum(rhs),rhsMax =  -4.76874095767243E-12  3.06007174825675E-01
 cg2d: Sum(rhs),rhsMax =  -4.57123228159162E-12  3.15376216258471E-01
 cg2d: Sum(rhs),rhsMax =  -4.38404867963982E-12  3.24580464651066E-01
 cg2d: Sum(rhs),rhsMax =  -4.21418455687217E-12  3.33616148634544E-01
 cg2d: Sum(rhs),rhsMax =  -4.02555766498836E-12  3.42479699078841E-01
 cg2d: Sum(rhs),rhsMax =  -3.89344112505796E-12  3.51167746594923E-01
 cg2d: Sum(rhs),rhsMax =  -3.73345798720948E-12  3.59677115127482E-01
 cg2d: Sum(rhs),rhsMax =  -3.61066732068593E-12  3.68004813283434E-01
 cg2d: Sum(rhs),rhsMax =  -3.48410189587867E-12  3.76148025245697E-01
 cg2d: Sum(rhs),rhsMax =  -3.35254046746059E-12  3.84104102388367E-01
 cg2d: Sum(rhs),rhsMax =  -3.25739435425021E-12  3.91870548064492E-01
 cg2d: Sum(rhs),rhsMax =  -3.14426262804091E-12  3.99444999108895E-01
 cg2d: Sum(rhs),rhsMax =  -3.05122593857732E-12  4.06825209073321E-01
 cg2d: Sum(rhs),rhsMax =  -2.95641289227433E-12  4.14009034958551E-01
 cg2d: Sum(rhs),rhsMax =  -2.79454237528398E-12  4.20994427631366E-01
 cg2d: Sum(rhs),rhsMax =  -2.66553445982254E-12  4.27779422206110E-01
 cg2d: Sum(rhs),rhsMax =  -2.56727972214321E-12  4.34362131895188E-01
 cg2d: Sum(rhs),rhsMax =  -2.43238762465126E-12  4.40740747169565E-01
 cg2d: Sum(rhs),rhsMax =  -2.33857377907043E-12  4.46913536483725E-01
 cg2d: Sum(rhs),rhsMax =  -2.21822560320106E-12  4.52878847869262E-01
 cg2d: Sum(rhs),rhsMax =  -2.10265138633758E-12  4.58635110293490E-01
 cg2d: Sum(rhs),rhsMax =  -2.03370653650836E-12  4.64180835408851E-01
 cg2d: Sum(rhs),rhsMax =  -1.93089988442807E-12  4.71064226462516E-01
 cg2d: Sum(rhs),rhsMax =  -1.82831527695271E-12  4.79363726055091E-01
 cg2d: Sum(rhs),rhsMax =  -1.74515957240828E-12  4.87444845426638E-01
 cg2d: Sum(rhs),rhsMax =  -1.66211489016632E-12  4.95303003431984E-01
 cg2d: Sum(rhs),rhsMax =  -1.58106860936869E-12  5.02933693575490E-01
 cg2d: Sum(rhs),rhsMax =  -1.49835699403411E-12  5.10332483542472E-01
 cg2d: Sum(rhs),rhsMax =  -1.45927714356731E-12  5.17495016048930E-01
 cg2d: Sum(rhs),rhsMax =  -1.39288580669472E-12  5.24417011221618E-01
 cg2d: Sum(rhs),rhsMax =  -1.33171251803788E-12  5.31094270510567E-01
 cg2d: Sum(rhs),rhsMax =  -1.24222854225309E-12  5.37522681961364E-01
 cg2d: Sum(rhs),rhsMax =  -1.18627330181198E-12  5.43698226759207E-01
 cg2d: Sum(rhs),rhsMax =  -1.12054809875417E-12  5.49616986835003E-01
 cg2d: Sum(rhs),rhsMax =  -1.05060404820279E-12  5.55275153230873E-01
 cg2d: Sum(rhs),rhsMax =  -1.06425979140568E-12  5.60669034845815E-01
 cg2d: Sum(rhs),rhsMax =  -1.01907371430343E-12  5.65795067386071E-01
 cg2d: Sum(rhs),rhsMax =  -1.00719432793994E-12  5.70649822200803E-01
 cg2d: Sum(rhs),rhsMax =  -1.01807451358127E-12  5.75230014983827E-01
 cg2d: Sum(rhs),rhsMax =  -1.02384767330932E-12  5.79532513282587E-01
 cg2d: Sum(rhs),rhsMax =  -1.02096109344529E-12  5.83554343492971E-01
 cg2d: Sum(rhs),rhsMax =  -1.00275343584144E-12  5.87292696647813E-01
 cg2d: Sum(rhs),rhsMax =  -1.01496588911232E-12  5.90744933114019E-01
 cg2d: Sum(rhs),rhsMax =  -9.93760629341978E-13  5.93908586381611E-01
 cg2d: Sum(rhs),rhsMax =  -1.01640917904433E-12  5.96781365909606E-01
 cg2d: Sum(rhs),rhsMax =  -1.02229336107484E-12  5.99361159063314E-01
 cg2d: Sum(rhs),rhsMax =  -9.96314142298615E-13  6.01646032238531E-01
 cg2d: Sum(rhs),rhsMax =  -9.85211912052364E-13  6.03634231315627E-01
 cg2d: Sum(rhs),rhsMax =  -9.19819775901942E-13  6.05324181582134E-01
 cg2d: Sum(rhs),rhsMax =  -8.91064999564151E-13  6.06714487212004E-01
 cg2d: Sum(rhs),rhsMax =  -8.84625706021325E-13  6.07803930992959E-01
 cg2d: Sum(rhs),rhsMax =  -8.61977156318972E-13  6.08591473894502E-01
 cg2d: Sum(rhs),rhsMax =  -8.74966765707086E-13  6.09076254583938E-01
 cg2d: Sum(rhs),rhsMax =  -8.91509088774001E-13  6.09257588966234E-01
 cg2d: Sum(rhs),rhsMax =  -8.51874126794883E-13  6.09134969784641E-01
 cg2d: Sum(rhs),rhsMax =  -8.24562640389104E-13  6.08708066273325E-01
 cg2d: Sum(rhs),rhsMax =  -7.55506768257419E-13  6.07976723708273E-01
 cg2d: Sum(rhs),rhsMax =  -7.32414129345216E-13  6.06940962546391E-01
 cg2d: Sum(rhs),rhsMax =  -7.35633776116629E-13  6.05600978435983E-01
 cg2d: Sum(rhs),rhsMax =  -6.91446899736547E-13  6.03957141748374E-01
 cg2d: Sum(rhs),rhsMax =  -6.54476473016530E-13  6.02009996635100E-01
 cg2d: Sum(rhs),rhsMax =  -7.02327085377874E-13  5.99760258934570E-01
 cg2d: Sum(rhs),rhsMax =  -7.39519556702817E-13  5.97208815811672E-01
 cg2d: Sum(rhs),rhsMax =  -7.75490782700672E-13  5.94356724708358E-01
 cg2d: Sum(rhs),rhsMax =  -7.99027510822725E-13  5.91205212145857E-01
 cg2d: Sum(rhs),rhsMax =  -8.19566636778291E-13  5.87755673596643E-01
 cg2d: Sum(rhs),rhsMax =  -8.53428439029358E-13  5.84009671103837E-01
 cg2d: Sum(rhs),rhsMax =  -9.14379683081279E-13  5.79968931921337E-01
 cg2d: Sum(rhs),rhsMax =  -9.47908418424959E-13  5.75635347971619E-01
 cg2d: Sum(rhs),rhsMax =  -1.04782849064122E-12  5.71010976283471E-01
 cg2d: Sum(rhs),rhsMax =  -1.12887477143886E-12  5.66098041004242E-01
 cg2d: Sum(rhs),rhsMax =  -1.19715348745331E-12  5.60898933317626E-01
(PID.TID 0000.0001)      cg2d_init_res =   5.30006135894260E-02
(PID.TID 0000.0001)      cg2d_iters(min,last) =      -1      35
(PID.TID 0000.0001)      cg2d_last_res =   8.74356779283196E-14
(PID.TID 0000.0001) // =======================================================
(PID.TID 0000.0001) // Begin MONITOR dynamic field statistics
(PID.TID 0000.0001) // =======================================================
(PID.TID 0000.0001) %MON time_tsnumber                =                  2400
(PID.TID 0000.0001) %MON time_secondsf                =   3.6000000000000E+04
(PID.TID 0000.0001) %MON dynstat_eta_max              =   9.3553275847577E-02
(PID.TID 0000.0001) %MON dynstat_eta_min              =  -9.2029038844051E-02
(PID.TID 0000.0001) %MON dynstat_eta_mean             =   1.4884148810264E-15
(PID.TID 0000.0001) %MON dynstat_eta_sd               =   6.6735820029848E-02
(PID.TID 0000.0001) %MON dynstat_eta_del2             =   7.3249694463976E-05
(PID.TID 0000.0001) %MON dynstat_uvel_max             =   1.4423541906707E+00
(PID.TID 0000.0001) %MON dynstat_uvel_min             =  -7.3675394867108E-01
(PID.TID 0000.0001) %MON dynstat_uvel_mean            =   5.6953290954237E-01
(PID.TID 0000.0001) %MON dynstat_uvel_sd              =   1.2722781452123E-01
(PID.TID 0000.0001) %MON dynstat_uvel_del2            =   1.0420629533503E-03
(PID.TID 0000.0001) %MON dynstat_vvel_max             =   0.0000000000000E+00
(PID.TID 0000.0001) %MON dynstat_vvel_min             =   0.0000000000000E+00
(PID.TID 0000.0001) %MON dynstat_vvel_mean            =   0.0000000000000E+00
(PID.TID 0000.0001) %MON dynstat_vvel_sd              =   0.0000000000000E+00
(PID.TID 0000.0001) %MON dynstat_vvel_del2            =   0.0000000000000E+00
(PID.TID 0000.0001) %MON dynstat_wvel_max             =   5.1999246585686E-02
(PID.TID 0000.0001) %MON dynstat_wvel_min             =  -4.9432046683057E-02
(PID.TID 0000.0001) %MON dynstat_wvel_mean            =   2.7260127602924E-20
(PID.TID 0000.0001) %MON dynstat_wvel_sd              =   4.6480135284500E-03
(PID.TID 0000.0001) %MON dynstat_wvel_del2            =   1.0499489869246E-04
(PID.TID 0000.0001) %MON dynstat_theta_max            =   1.5000000000006E+01
(PID.TID 0000.0001) %MON dynstat_theta_min            =   9.9999999999962E+00
(PID.TID 0000.0001) %MON dynstat_theta_mean           =   1.2530313862272E+01
(PID.TID 0000.0001) %MON dynstat_theta_sd             =   2.4117670096848E+00
(PID.TID 0000.0001) %MON dynstat_theta_del2           =   1.2399090050358E-03
(PID.TID 0000.0001) %MON dynstat_salt_max             =   3.5000000000000E+01
(PID.TID 0000.0001) %MON dynstat_salt_min             =   3.5000000000000E+01
(PID.TID 0000.0001) %MON dynstat_salt_mean            =   3.5000000000000E+01
(PID.TID 0000.0001) %MON dynstat_salt_sd              =   3.9790393202566E-13
(PID.TID 0000.0001) %MON dynstat_salt_del2            =   0.0000000000000E+00
(PID.TID 0000.0001) %MON dynstat_sst_max              =   1.5000000000000E+01
(PID.TID 0000.0001) %MON dynstat_sst_min              =   1.4998525552510E+01
(PID.TID 0000.0001) %MON dynstat_sst_mean             =   1.4999972427402E+01
(PID.TID 0000.0001) %MON dynstat_sst_sd               =   1.5502155428739E-04
(PID.TID 0000.0001) %MON dynstat_sst_del2             =   5.8812365606753E-06
(PID.TID 0000.0001) %MON dynstat_sss_max              =   3.5000000000000E+01
(PID.TID 0000.0001) %MON dynstat_sss_min              =   3.5000000000000E+01
(PID.TID 0000.0001) %MON dynstat_sss_mean             =   3.5000000000000E+01
(PID.TID 0000.0001) %MON dynstat_sss_sd               =   5.6843418860808E-14
(PID.TID 0000.0001) %MON dynstat_sss_del2             =   0.0000000000000E+00
(PID.TID 0000.0001) %MON forcing_qnet_max             =   0.0000000000000E+00
(PID.TID 0000.0001) %MON forcing_qnet_min             =   0.0000000000000E+00
(PID.TID 0000.0001) %MON forcing_qnet_mean            =   0.0000000000000E+00
(PID.TID 0000.0001) %MON forcing_qnet_sd              =   0.0000000000000E+00
(PID.TID 0000.0001) %MON forcing_qnet_del2            =   0.0000000000000E+00
(PID.TID 0000.0001) %MON forcing_qsw_max              =   0.0000000000000E+00
(PID.TID 0000.0001) %MON forcing_qsw_min              =   0.0000000000000E+00
(PID.TID 0000.0001) %MON forcing_qsw_mean             =   0.0000000000000E+00
(PID.TID 0000.0001) %MON forcing_qsw_sd               =   0.0000000000000E+00
(PID.TID 0000.0001) %MON forcing_qsw_del2             =   0.0000000000000E+00
(PID.TID 0000.0001) %MON forcing_empmr_max            =   0.0000000000000E+00
(PID.TID 0000.0001) %MON forcing_empmr_min            =   0.0000000000000E+00
(PID.TID 0000.0001) %MON forcing_empmr_mean           =   0.0000000000000E+00
(PID.TID 0000.0001) %MON forcing_empmr_sd             =   0.0000000000000E+00
(PID.TID 0000.0001) %MON forcing_empmr_del2           =   0.0000000000000E+00
(PID.TID 0000.0001) %MON forcing_fu_max               =   0.0000000000000E+00
(PID.TID 0000.0001) %MON forcing_fu_min               =   0.0000000000000E+00
(PID.TID 0000.0001) %MON forcing_fu_mean              =   0.0000000000000E+00
(PID.TID 0000.0001) %MON forcing_fu_sd                =   0.0000000000000E+00
(PID.TID 0000.0001) %MON forcing_fu_del2              =   0.0000000000000E+00
(PID.TID 0000.0001) %MON forcing_fv_max               =   0.0000000000000E+00
(PID.TID 0000.0001) %MON forcing_fv_min               =   0.0000000000000E+00
(PID.TID 0000.0001) %MON forcing_fv_mean              =   0.0000000000000E+00
(PID.TID 0000.0001) %MON forcing_fv_sd                =   0.0000000000000E+00
(PID.TID 0000.0001) %MON forcing_fv_del2              =   0.0000000000000E+00
(PID.TID 0000.0001) %MON advcfl_uvel_max              =   1.0817656430030E-01
(PID.TID 0000.0001) %MON advcfl_vvel_max              =   0.0000000000000E+00
(PID.TID 0000.0001) %MON advcfl_wvel_max              =   7.7998869878529E-01
(PID.TID 0000.0001) %MON advcfl_W_hf_max              =   7.7998869878529E-01
(PID.TID 0000.0001) %MON pe_b_mean                    =   1.1216438627268E-04
(PID.TID 0000.0001) %MON ke_max                       =   1.0092674683418E+00
(PID.TID 0000.0001) %MON ke_mean                      =   1.7027014801905E-01
(PID.TID 0000.0001) %MON ke_vol                       =   9.5121673331316E+10
(PID.TID 0000.0001) %MON vort_r_min                   =   0.0000000000000E+00
(PID.TID 0000.0001) %MON vort_r_max                   =   0.0000000000000E+00
(PID.TID 0000.0001) %MON vort_a_mean                  =   0.0000000000000E+00
(PID.TID 0000.0001) %MON vort_a_sd                    =   0.0000000000000E+00
(PID.TID 0000.0001) %MON vort_p_mean                  =   0.0000000000000E+00
(PID.TID 0000.0001) %MON vort_p_sd                    =   0.0000000000000E+00
(PID.TID 0000.0001) %MON surfExpan_theta_mean         =   8.3206267157155E-10
(PID.TID 0000.0001) %MON surfExpan_salt_mean          =  -1.0242015089850E-18
(PID.TID 0000.0001) // =======================================================
(PID.TID 0000.0001) // End MONITOR dynamic field statistics
(PID.TID 0000.0001) // =======================================================
(PID.TID 0000.0001) // =======================================================
(PID.TID 0000.0001) // Begin OBCS MONITOR field statistics
(PID.TID 0000.0001) // =======================================================
(PID.TID 0000.0001) %MON obc_E_uVel_max               =   5.6028564143658E-01
(PID.TID 0000.0001) %MON obc_E_uVel_min               =   5.6028564143658E-01
(PID.TID 0000.0001) %MON obc_E_uVel_mean              =   5.6028564143658E-01
(PID.TID 0000.0001) %MON obc_E_uVel_sd                =   7.4505805969238E-09
(PID.TID 0000.0001) %MON obc_E_uVel_Int               =   5.6028564143658E+05
(PID.TID 0000.0001) %MON obc_W_uVel_max               =   5.6028564143658E-01
(PID.TID 0000.0001) %MON obc_W_uVel_min               =   5.6028564143658E-01
(PID.TID 0000.0001) %MON obc_W_uVel_mean              =   5.6028564143658E-01
(PID.TID 0000.0001) %MON obc_W_uVel_sd                =   7.4505805969238E-09
(PID.TID 0000.0001) %MON obc_W_uVel_Int               =   5.6028564143658E+05
(PID.TID 0000.0001) // =======================================================
(PID.TID 0000.0001) // End OBCS MONITOR field statistics
(PID.TID 0000.0001) // =======================================================
 cg2d: Sum(rhs),rhsMax =  -1.30062627334837E-12  5.55416211908765E-01
 cg2d: Sum(rhs),rhsMax =  -1.43018930032213E-12  5.49652604090690E-01
 cg2d: Sum(rhs),rhsMax =  -1.48581147385585E-12  5.43611007688515E-01
 cg2d: Sum(rhs),rhsMax =  -1.52455825741526E-12  5.37294492836695E-01
 cg2d: Sum(rhs),rhsMax =  -1.61881619220594E-12  5.30706303805050E-01
 cg2d: Sum(rhs),rhsMax =  -1.70863323489812E-12  5.23849860731309E-01
 cg2d: Sum(rhs),rhsMax =  -1.63280500231622E-12  5.16728761214922E-01
 cg2d: Sum(rhs),rhsMax =  -1.70308211977499E-12  5.09346781957735E-01
 cg2d: Sum(rhs),rhsMax =  -1.77902137465935E-12  5.01707879577965E-01
 cg2d: Sum(rhs),rhsMax =  -1.84774417988365E-12  4.93816191165322E-01
 cg2d: Sum(rhs),rhsMax =  -1.89104287784403E-12  4.85676034210833E-01
 cg2d: Sum(rhs),rhsMax =  -2.02826644368770E-12  4.77291905987275E-01
 cg2d: Sum(rhs),rhsMax =  -2.13462580944679E-12  4.68668484062953E-01
 cg2d: Sum(rhs),rhsMax =  -2.22966090035470E-12  4.59810625325346E-01
 cg2d: Sum(rhs),rhsMax =  -2.33979502439752E-12  4.50723363511670E-01
 cg2d: Sum(rhs),rhsMax =  -2.46891396216142E-12  4.41411905474892E-01
 cg2d: Sum(rhs),rhsMax =  -2.60813592944942E-12  4.31881625913850E-01
 cg2d: Sum(rhs),rhsMax =  -2.76212386296493E-12  4.22138060603829E-01
 cg2d: Sum(rhs),rhsMax =  -2.85604873084822E-12  4.12186900357014E-01
 cg2d: Sum(rhs),rhsMax =  -2.95541369155217E-12  4.02033982877626E-01
 cg2d: Sum(rhs),rhsMax =  -3.06143999040387E-12  3.91685282641239E-01
 cg2d: Sum(rhs),rhsMax =  -3.20043991308694E-12  3.81146899089411E-01
 cg2d: Sum(rhs),rhsMax =  -3.31690230837012E-12  3.70425043433786E-01
 cg2d: Sum(rhs),rhsMax =  -3.48088224910725E-12  3.59526024346967E-01
 cg2d: Sum(rhs),rhsMax =  -3.61000118687116E-12  3.48456232693150E-01
 cg2d: Sum(rhs),rhsMax =  -3.79285491902692E-12  3.37222125585214E-01
 cg2d: Sum(rhs),rhsMax =  -3.97326616052851E-12  3.25830209822289E-01
 cg2d: Sum(rhs),rhsMax =  -4.16122691859755E-12  3.14287024681913E-01
 cg2d: Sum(rhs),rhsMax =  -4.40258940415106E-12  3.02599125494583E-01
 cg2d: Sum(rhs),rhsMax =  -4.64905891561784E-12  2.90773067906510E-01
 cg2d: Sum(rhs),rhsMax =  -4.88031837164726E-12  2.78815393076219E-01
 cg2d: Sum(rhs),rhsMax =  -5.17108578179659E-12  2.66732614155099E-01
 cg2d: Sum(rhs),rhsMax =  -5.49149614670341E-12  2.54531204469793E-01
 cg2d: Sum(rhs),rhsMax =  -5.83211257065841E-12  2.42217588163320E-01
 cg2d: Sum(rhs),rhsMax =  -6.21913631704274E-12  2.29798132133008E-01
 cg2d: Sum(rhs),rhsMax =  -6.66666721826914E-12  2.17279140694064E-01
 cg2d: Sum(rhs),rhsMax =  -7.18025638946074E-12  2.04666852904439E-01
 cg2d: Sum(rhs),rhsMax =  -7.68707320020212E-12  1.92523165188928E-01
 cg2d: Sum(rhs),rhsMax =  -8.06366085015497E-12  1.83252795648715E-01
 cg2d: Sum(rhs),rhsMax =  -8.54794013349647E-12  1.73911527746865E-01
 cg2d: Sum(rhs),rhsMax =  -9.09672337456868E-12  1.64500810142994E-01
 cg2d: Sum(rhs),rhsMax =  -9.67914637328704E-12  1.55022104757487E-01
 cg2d: Sum(rhs),rhsMax =  -1.03844710608314E-11  1.45476910642741E-01
 cg2d: Sum(rhs),rhsMax =  -1.11516351708474E-11  1.35866787817132E-01
 cg2d: Sum(rhs),rhsMax =  -1.20615739618302E-11  1.26193373215239E-01
 cg2d: Sum(rhs),rhsMax =  -1.30012667298729E-11  1.17437087529513E-01
 cg2d: Sum(rhs),rhsMax =  -1.29976029938916E-11  1.18576361810133E-01
 cg2d: Sum(rhs),rhsMax =  -1.29278809879452E-11  1.19717294444288E-01
 cg2d: Sum(rhs),rhsMax =  -1.28599353388381E-11  1.20860437371151E-01
 cg2d: Sum(rhs),rhsMax =  -1.27928778681508E-11  1.21990020561241E-01
 cg2d: Sum(rhs),rhsMax =  -1.27268195981856E-11  1.23105460527496E-01
 cg2d: Sum(rhs),rhsMax =  -1.26819110768395E-11  1.24208365752151E-01
 cg2d: Sum(rhs),rhsMax =  -1.26542110123751E-11  1.25297026254509E-01
 cg2d: Sum(rhs),rhsMax =  -1.26079702233994E-11  1.26370230702579E-01
 cg2d: Sum(rhs),rhsMax =  -1.25457699784448E-11  1.27423900966497E-01
 cg2d: Sum(rhs),rhsMax =  -1.25006949236450E-11  1.28460063897960E-01
 cg2d: Sum(rhs),rhsMax =  -1.24581109317567E-11  1.29488881300457E-01
 cg2d: Sum(rhs),rhsMax =  -1.23895060877288E-11  1.30492871692430E-01
 cg2d: Sum(rhs),rhsMax =  -1.23720894640300E-11  1.31475329612537E-01
 cg2d: Sum(rhs),rhsMax =  -1.23174248578550E-11  1.32436653661883E-01
 cg2d: Sum(rhs),rhsMax =  -1.22846732786286E-11  1.33381286735122E-01
 cg2d: Sum(rhs),rhsMax =  -1.22885590592148E-11  1.34306290227582E-01
 cg2d: Sum(rhs),rhsMax =  -1.19144694110673E-11  1.38910163581929E-01
 cg2d: Sum(rhs),rhsMax =  -1.10287889931726E-11  1.50897636183071E-01
 cg2d: Sum(rhs),rhsMax =  -1.02706176896561E-11  1.63117550728098E-01
 cg2d: Sum(rhs),rhsMax =  -9.54109014017490E-12  1.75387182557269E-01
 cg2d: Sum(rhs),rhsMax =  -8.97337759653283E-12  1.87787708178663E-01
 cg2d: Sum(rhs),rhsMax =  -8.42326208783106E-12  2.00381670435267E-01
 cg2d: Sum(rhs),rhsMax =  -8.03357380618763E-12  2.12882725697751E-01
 cg2d: Sum(rhs),rhsMax =  -7.65176810801904E-12  2.25285235677134E-01
 cg2d: Sum(rhs),rhsMax =  -7.35289606978995E-12  2.37583616209512E-01
 cg2d: Sum(rhs),rhsMax =  -7.07578440284351E-12  2.49772348087191E-01
 cg2d: Sum(rhs),rhsMax =  -6.80433487332266E-12  2.61845988328940E-01
 cg2d: Sum(rhs),rhsMax =  -6.55975274099774E-12  2.73799181636653E-01
 cg2d: Sum(rhs),rhsMax =  -6.31250607341372E-12  2.85626671783687E-01
 cg2d: Sum(rhs),rhsMax =  -6.14142070531898E-12  2.97323312674465E-01
 cg2d: Sum(rhs),rhsMax =  -5.98832095022317E-12  3.08884078802561E-01
 cg2d: Sum(rhs),rhsMax =  -5.81990011738753E-12  3.20304074816964E-01
 cg2d: Sum(rhs),rhsMax =  -5.65858471190950E-12  3.31578543916470E-01
 cg2d: Sum(rhs),rhsMax =  -5.53068701947268E-12  3.42702874783133E-01
 cg2d: Sum(rhs),rhsMax =  -5.38413758022216E-12  3.53672606783719E-01
 cg2d: Sum(rhs),rhsMax =  -5.28210808425911E-12  3.64483433210569E-01
 cg2d: Sum(rhs),rhsMax =  -5.14466247381051E-12  3.75131202372580E-01
 cg2d: Sum(rhs),rhsMax =  -5.05495645342080E-12  3.85611916399659E-01
 cg2d: Sum(rhs),rhsMax =  -5.03008745766920E-12  3.95921727729886E-01
 cg2d: Sum(rhs),rhsMax =  -5.01276797848504E-12  4.06056933339702E-01
 cg2d: Sum(rhs),rhsMax =  -4.97080154815421E-12  4.16013966867182E-01
 cg2d: Sum(rhs),rhsMax =  -4.95603558192670E-12  4.25789388896540E-01
 cg2d: Sum(rhs),rhsMax =  -4.89686069471418E-12  4.35379875796615E-01
 cg2d: Sum(rhs),rhsMax =  -4.86832796298131E-12  4.44782207625139E-01
 cg2d: Sum(rhs),rhsMax =  -4.85733675503752E-12  4.53993255710098E-01
 cg2d: Sum(rhs),rhsMax =  -4.84035034276076E-12  4.63009970557410E-01
 cg2d: Sum(rhs),rhsMax =  -4.81292783405252E-12  4.71829370698101E-01
 cg2d: Sum(rhs),rhsMax =  -4.76019224038282E-12  4.80448533174703E-01
 cg2d: Sum(rhs),rhsMax =  -4.73532324463122E-12  4.88864586148593E-01
 cg2d: Sum(rhs),rhsMax =  -4.70257166540478E-12  4.97074704043316E-01
 cg2d: Sum(rhs),rhsMax =  -4.69124739055360E-12  5.05076105533140E-01
 cg2d: Sum(rhs),rhsMax =  -4.68514116391816E-12  5.12866054481147E-01
 cg2d: Sum(rhs),rhsMax =  -4.70934402585499E-12  5.20441863784948E-01
 cg2d: Sum(rhs),rhsMax =  -4.73732164607554E-12  5.27800901905943E-01
 cg2d: Sum(rhs),rhsMax =  -4.72644146043422E-12  5.34940601647151E-01
 cg2d: Sum(rhs),rhsMax =  -4.72566430431698E-12  5.41858470925023E-01
 cg2d: Sum(rhs),rhsMax =  -4.67714755814086E-12  5.48552104672157E-01
 cg2d: Sum(rhs),rhsMax =  -4.62896387887213E-12  5.55019197582664E-01
 cg2d: Sum(rhs),rhsMax =  -4.60131932555896E-12  5.61257556972945E-01
 cg2d: Sum(rhs),rhsMax =  -4.57489601757288E-12  5.67265115224887E-01
 cg2d: Sum(rhs),rhsMax =  -4.56301663120939E-12  5.73039941442955E-01
 cg2d: Sum(rhs),rhsMax =  -4.54980497721635E-12  5.78580252026354E-01
 cg2d: Sum(rhs),rhsMax =  -4.54603021893263E-12  5.83884419890403E-01
 cg2d: Sum(rhs),rhsMax =  -4.53725945703809E-12  5.88950982272762E-01
 cg2d: Sum(rhs),rhsMax =  -4.53104220810019E-12  5.93778646559867E-01
 cg2d: Sum(rhs),rhsMax =  -4.55602222615425E-12  5.98366294261574E-01
 cg2d: Sum(rhs),rhsMax =  -4.52449189225490E-12  6.02712983367308E-01
 cg2d: Sum(rhs),rhsMax =  -4.47752945831326E-12  6.06817948362586E-01
 cg2d: Sum(rhs),rhsMax =  -4.47097914246797E-12  6.10680598496929E-01
 cg2d: Sum(rhs),rhsMax =  -4.49784653966390E-12  6.14300514225816E-01
 cg2d: Sum(rhs),rhsMax =  -4.60276261549097E-12  6.17677441787723E-01
 cg2d: Sum(rhs),rhsMax =  -4.61330973422491E-12  6.20811285948039E-01
 cg2d: Sum(rhs),rhsMax =  -4.65028016094493E-12  6.23702101039815E-01
 cg2d: Sum(rhs),rhsMax =  -4.60798066370671E-12  6.26350080530381E-01
 cg2d: Sum(rhs),rhsMax =  -4.54269954985875E-12  6.28755545429694E-01
 cg2d: Sum(rhs),rhsMax =  -4.44955183809270E-12  6.30918931865214E-01
 cg2d: Sum(rhs),rhsMax =  -4.37194724867140E-12  6.32840778301611E-01
 cg2d: Sum(rhs),rhsMax =  -4.29711821681167E-12  6.34521713151690E-01
 cg2d: Sum(rhs),rhsMax =  -4.23039381303170E-12  6.35962442894649E-01
 cg2d: Sum(rhs),rhsMax =  -4.13202805304991E-12  6.37163741173256E-01
 cg2d: Sum(rhs),rhsMax =  -4.19519974315108E-12  6.38126439294297E-01
 cg2d: Sum(rhs),rhsMax =  -4.15278922361040E-12  6.38851418474522E-01
 cg2d: Sum(rhs),rhsMax =  -4.11815026524209E-12  6.39339604056843E-01
 cg2d: Sum(rhs),rhsMax =  -4.05242506218428E-12  6.39591961794455E-01
 cg2d: Sum(rhs),rhsMax =  -4.09550171553974E-12  6.39609496443267E-01
 cg2d: Sum(rhs),rhsMax =  -4.13369338758685E-12  6.39393251361490E-01
 cg2d: Sum(rhs),rhsMax =  -4.12192502352582E-12  6.38944310448871E-01
 cg2d: Sum(rhs),rhsMax =  -4.00557365054510E-12  6.38263802134931E-01
 cg2d: Sum(rhs),rhsMax =  -3.95816712739361E-12  6.37352904309829E-01
 cg2d: Sum(rhs),rhsMax =  -3.97448740585560E-12  6.36212850015540E-01
 cg2d: Sum(rhs),rhsMax =  -3.97248900441127E-12  6.34844933626585E-01
 cg2d: Sum(rhs),rhsMax =  -3.87434528903441E-12  6.33250516646107E-01
 cg2d: Sum(rhs),rhsMax =  -3.82993636804940E-12  6.31431035194240E-01
 cg2d: Sum(rhs),rhsMax =  -3.77087250313934E-12  6.29388007057768E-01
 cg2d: Sum(rhs),rhsMax =  -3.71191966053175E-12  6.27123038121052E-01
 cg2d: Sum(rhs),rhsMax =  -3.62898600059225E-12  6.24637828902205E-01
 cg2d: Sum(rhs),rhsMax =  -3.55149243347341E-12  6.21934178712030E-01
 cg2d: Sum(rhs),rhsMax =  -3.52706752693166E-12  6.19013988738857E-01
 cg2d: Sum(rhs),rhsMax =  -3.50064421894558E-12  6.15879264351626E-01
 cg2d: Sum(rhs),rhsMax =  -3.46211947999109E-12  6.12532115956461E-01
 cg2d: Sum(rhs),rhsMax =  -3.42437189715383E-12  6.08974757810431E-01
 cg2d: Sum(rhs),rhsMax =  -3.39528405390865E-12  6.05209504945049E-01
 cg2d: Sum(rhs),rhsMax =  -3.35342864588029E-12  6.01238768416334E-01
 cg2d: Sum(rhs),rhsMax =  -3.30735439035834E-12  5.97065046833668E-01
 cg2d: Sum(rhs),rhsMax =  -3.27926574783532E-12  5.92690916004817E-01
 cg2d: Sum(rhs),rhsMax =  -3.22830651100503E-12  5.88119016060492E-01
 cg2d: Sum(rhs),rhsMax =  -3.15703019282410E-12  5.83352036850803E-01
 cg2d: Sum(rhs),rhsMax =  -3.12794234957892E-12  5.78392701814153E-01
 cg2d: Sum(rhs),rhsMax =  -3.08797432069241E-12  5.73243750612399E-01
 cg2d: Sum(rhs),rhsMax =  -3.05266922850933E-12  5.67907921020020E-01
 cg2d: Sum(rhs),rhsMax =  -3.03801428458428E-12  5.62387930711429E-01
 cg2d: Sum(rhs),rhsMax =  -3.00615088377754E-12  5.56686459698189E-01
 cg2d: Sum(rhs),rhsMax =  -2.98561175782197E-12  5.50806134280363E-01
 cg2d: Sum(rhs),rhsMax =  -2.94042568071973E-12  5.44749513325147E-01
 cg2d: Sum(rhs),rhsMax =  -2.93798319006555E-12  5.38519076396166E-01
 cg2d: Sum(rhs),rhsMax =  -2.81952239333805E-12  5.32117217318520E-01
 cg2d: Sum(rhs),rhsMax =  -2.76789702269298E-12  5.25546241869925E-01
 cg2d: Sum(rhs),rhsMax =  -2.65543143029845E-12  5.18808369601416E-01
 cg2d: Sum(rhs),rhsMax =  -2.61735078055381E-12  5.11905739990172E-01
 cg2d: Sum(rhs),rhsMax =  -2.53497223212662E-12  5.04840422916859E-01
 cg2d: Sum(rhs),rhsMax =  -2.54984922065660E-12  4.97614433215471E-01
 cg2d: Sum(rhs),rhsMax =  -2.51909604287448E-12  4.90229748032463E-01
 cg2d: Sum(rhs),rhsMax =  -2.51354492775135E-12  4.82688326473574E-01
 cg2d: Sum(rhs),rhsMax =  -2.49789078310414E-12  4.74992130832588E-01
 cg2d: Sum(rhs),rhsMax =  -2.46369591394568E-12  4.67143146437432E-01
 cg2d: Sum(rhs),rhsMax =  -2.48179254924707E-12  4.59143398916524E-01
 cg2d: Sum(rhs),rhsMax =  -2.46225262401367E-12  4.50994967842519E-01
 cg2d: Sum(rhs),rhsMax =  -2.43771669516946E-12  4.42699995887204E-01
 cg2d: Sum(rhs),rhsMax =  -2.42394992966410E-12  4.34260692862664E-01
 cg2d: Sum(rhs),rhsMax =  -2.40674147278241E-12  4.25679334377770E-01
 cg2d: Sum(rhs),rhsMax =  -2.34656738484773E-12  4.16958255436201E-01
 cg2d: Sum(rhs),rhsMax =  -2.34989805392161E-12  4.08099839245916E-01
 cg2d: Sum(rhs),rhsMax =  -2.30737651207846E-12  3.99106502227994E-01
 cg2d: Sum(rhs),rhsMax =  -2.29860575018392E-12  3.89980677203049E-01
 cg2d: Sum(rhs),rhsMax =  -2.25874874359988E-12  3.80724795886490E-01
 cg2d: Sum(rhs),rhsMax =  -2.20357065927601E-12  3.71341272888077E-01
 cg2d: Sum(rhs),rhsMax =  -2.20901075209667E-12  3.61832492222708E-01
 cg2d: Sum(rhs),rhsMax =  -2.15072404330385E-12  3.52200797606920E-01
 cg2d: Sum(rhs),rhsMax =  -2.10031991798587E-12  3.42448487664512E-01
 cg2d: Sum(rhs),rhsMax =  -2.11697326335525E-12  3.32577817043288E-01
 cg2d: Sum(rhs),rhsMax =  -2.17093010235203E-12  3.22591002998695E-01
 cg2d: Sum(rhs),rhsMax =  -2.19313456284453E-12  3.12490237757284E-01
 cg2d: Sum(rhs),rhsMax =  -2.21500595642965E-12  3.02277706279578E-01
 cg2d: Sum(rhs),rhsMax =  -2.26352270260577E-12  2.91955608348600E-01
 cg2d: Sum(rhs),rhsMax =  -2.27717844580866E-12  2.81526183702316E-01
 cg2d: Sum(rhs),rhsMax =  -2.31181740417696E-12  2.70991739092900E-01
 cg2d: Sum(rhs),rhsMax =  -2.32669439270694E-12  2.60354675303004E-01
 cg2d: Sum(rhs),rhsMax =  -2.38054020940126E-12  2.49617513017610E-01
 cg2d: Sum(rhs),rhsMax =  -2.43027820090447E-12  2.38782916576450E-01
 cg2d: Sum(rhs),rhsMax =  -2.46880293985896E-12  2.27853714603199E-01
 cg2d: Sum(rhs),rhsMax =  -2.49861242807015E-12  2.16832916217637E-01
 cg2d: Sum(rhs),rhsMax =  -2.57255328151018E-12  2.05723722174590E-01
 cg2d: Sum(rhs),rhsMax =  -2.64066546407093E-12  1.94529530856742E-01
 cg2d: Sum(rhs),rhsMax =  -2.71160871534448E-12  1.83253938266985E-01
 cg2d: Sum(rhs),rhsMax =  -2.82934786710598E-12  1.71900732599241E-01
 cg2d: Sum(rhs),rhsMax =  -2.95330426780538E-12  1.60473884115557E-01
 cg2d: Sum(rhs),rhsMax =  -3.13843395716162E-12  1.48977530886828E-01
 cg2d: Sum(rhs),rhsMax =  -3.27723959081538E-12  1.40234000241044E-01
 cg2d: Sum(rhs),rhsMax =  -3.22195048418905E-12  1.40797893548805E-01
 cg2d: Sum(rhs),rhsMax =  -3.11128900420954E-12  1.41388341790143E-01
 cg2d: Sum(rhs),rhsMax =  -3.02583479105945E-12  1.41998107897275E-01
 cg2d: Sum(rhs),rhsMax =  -2.94467228378892E-12  1.42607983237078E-01
 cg2d: Sum(rhs),rhsMax =  -2.87264656506636E-12  1.43203828805813E-01
 cg2d: Sum(rhs),rhsMax =  -2.80497847171546E-12  1.43805773456926E-01
 cg2d: Sum(rhs),rhsMax =  -2.73914224635519E-12  1.44407369150526E-01
 cg2d: Sum(rhs),rhsMax =  -2.65576449720584E-12  1.44985562042168E-01
 cg2d: Sum(rhs),rhsMax =  -2.58082444304364E-12  1.45528771286691E-01
 cg2d: Sum(rhs),rhsMax =  -2.49622544856720E-12  1.46058290838348E-01
 cg2d: Sum(rhs),rhsMax =  -2.42506015268873E-12  1.46571026459306E-01
 cg2d: Sum(rhs),rhsMax =  -2.34456898340341E-12  1.47057927802574E-01
 cg2d: Sum(rhs),rhsMax =  -2.27817764653082E-12  1.47513516142917E-01
 cg2d: Sum(rhs),rhsMax =  -2.17859064122194E-12  1.47921779680370E-01
 cg2d: Sum(rhs),rhsMax =  -2.13962181305760E-12  1.48289701455619E-01
 cg2d: Sum(rhs),rhsMax =  -2.04247729840290E-12  1.48659780927224E-01
 cg2d: Sum(rhs),rhsMax =  -1.98874250401104E-12  1.49040590721888E-01
 cg2d: Sum(rhs),rhsMax =  -1.83530968200785E-12  1.56761265811865E-01
 cg2d: Sum(rhs),rhsMax =  -1.69075864420165E-12  1.66624817506673E-01
 cg2d: Sum(rhs),rhsMax =  -1.50779388974343E-12  1.76404728561707E-01
 cg2d: Sum(rhs),rhsMax =  -1.37279076994901E-12  1.86097473093475E-01
 cg2d: Sum(rhs),rhsMax =  -1.24067423001861E-12  1.95699482633766E-01
 cg2d: Sum(rhs),rhsMax =  -1.08990594327452E-12  2.05207139912696E-01
 cg2d: Sum(rhs),rhsMax =  -9.65783009121424E-13  2.14616771338433E-01
 cg2d: Sum(rhs),rhsMax =  -8.70747918213510E-13  2.23924652142345E-01
 cg2d: Sum(rhs),rhsMax =  -7.38187289073267E-13  2.33127019664872E-01
 cg2d: Sum(rhs),rhsMax =  -6.32272012524027E-13  2.42220091360591E-01
 cg2d: Sum(rhs),rhsMax =  -5.37014877011188E-13  2.51200086211984E-01
 cg2d: Sum(rhs),rhsMax =  -4.52748949442139E-13  2.60063242139022E-01
 cg2d: Sum(rhs),rhsMax =  -3.75144360020840E-13  2.68805836542008E-01
 cg2d: Sum(rhs),rhsMax =  -2.96096480667529E-13  2.77424202691017E-01
 cg2d: Sum(rhs),rhsMax =  -2.16160422894518E-13  2.85914739310686E-01
 cg2d: Sum(rhs),rhsMax =  -1.59205981731247E-13  2.94273919926529E-01
 cg2d: Sum(rhs),rhsMax =  -7.99360577730113E-14  3.02498296055540E-01
 cg2d: Sum(rhs),rhsMax =  -4.19664303308309E-14  3.10584498666520E-01
 cg2d: Sum(rhs),rhsMax =   1.93178806284777E-14  3.18529235674430E-01
 cg2d: Sum(rhs),rhsMax =   5.68434188608080E-14  3.26329287623227E-01
 cg2d: Sum(rhs),rhsMax =   1.09245945623115E-13  3.33981501118034E-01
 cg2d: Sum(rhs),rhsMax =   1.73527858748912E-13  3.41482783000626E-01
 cg2d: Sum(rhs),rhsMax =   2.10942374678780E-13  3.48830112492278E-01
 cg2d: Sum(rhs),rhsMax =   2.41251463251047E-13  3.56020492213248E-01
 cg2d: Sum(rhs),rhsMax =   2.90878432451791E-13  3.63050965449638E-01
 cg2d: Sum(rhs),rhsMax =   3.53050921830800E-13  3.69918636435417E-01
 cg2d: Sum(rhs),rhsMax =   3.84581255730154E-13  3.76620680204120E-01
 cg2d: Sum(rhs),rhsMax =   4.67625937972116E-13  3.83154348259200E-01
 cg2d: Sum(rhs),rhsMax =   5.53113110868253E-13  3.89516960967686E-01
 cg2d: Sum(rhs),rhsMax =   6.34270413968352E-13  3.95705928691985E-01
 cg2d: Sum(rhs),rhsMax =   7.10875802667488E-13  4.01718766734178E-01
 cg2d: Sum(rhs),rhsMax =   7.68163310738146E-13  4.07603864478960E-01
 cg2d: Sum(rhs),rhsMax =   8.31223978536855E-13  4.16068367151387E-01
 cg2d: Sum(rhs),rhsMax =   8.91398066471538E-13  4.24336357778269E-01
 cg2d: Sum(rhs),rhsMax =   9.74331726411037E-13  4.32402924338251E-01
 cg2d: Sum(rhs),rhsMax =   1.01785246897634E-12  4.40263200879628E-01
 cg2d: Sum(rhs),rhsMax =   1.04727337912891E-12  4.47912369618417E-01
 cg2d: Sum(rhs),rhsMax =   1.08069109217013E-12  4.55345664388741E-01
 cg2d: Sum(rhs),rhsMax =   1.12265752250096E-12  4.62558375756295E-01
 cg2d: Sum(rhs),rhsMax =   1.18205445431840E-12  4.69545858040929E-01
 cg2d: Sum(rhs),rhsMax =   1.18638432411444E-12  4.76303538644678E-01
 cg2d: Sum(rhs),rhsMax =   1.24023014080876E-12  4.82826929597341E-01
 cg2d: Sum(rhs),rhsMax =   1.24755761277129E-12  4.89111641553247E-01
 cg2d: Sum(rhs),rhsMax =   1.31705757411282E-12  4.95153400079057E-01
 cg2d: Sum(rhs),rhsMax =   1.32183153311871E-12  5.00948063982184E-01
 cg2d: Sum(rhs),rhsMax =   1.39011024913316E-12  5.06491645412597E-01
 cg2d: Sum(rhs),rhsMax =   1.46460621408551E-12  5.11780330957221E-01
 cg2d: Sum(rhs),rhsMax =   1.48570045155338E-12  5.16810503193369E-01
 cg2d: Sum(rhs),rhsMax =   1.56064050571558E-12  5.21578761848563E-01
 cg2d: Sum(rhs),rhsMax =   1.59705582092329E-12  5.26081943735072E-01
 cg2d: Sum(rhs),rhsMax =   1.66888725061654E-12  5.30317140262004E-01
 cg2d: Sum(rhs),rhsMax =   1.72395431263794E-12  5.34281711459398E-01
 cg2d: Sum(rhs),rhsMax =   1.73716596663098E-12  5.37973296166413E-01
 cg2d: Sum(rhs),rhsMax =   1.72906133855122E-12  5.41389817050118E-01
 cg2d: Sum(rhs),rhsMax =   1.77879933005443E-12  5.44529480481868E-01
 cg2d: Sum(rhs),rhsMax =   1.78412840057263E-12  5.47390771185513E-01
 cg2d: Sum(rhs),rhsMax =   1.81310522151534E-12  5.49972441768698E-01
 cg2d: Sum(rhs),rhsMax =   1.78956849339329E-12  5.52273497584722E-01
 cg2d: Sum(rhs),rhsMax =   1.75315317818558E-12  5.54293177704271E-01
 cg2d: Sum(rhs),rhsMax =   1.71396230541632E-12  5.56030933026049E-01
 cg2d: Sum(rhs),rhsMax =   1.67565961106675E-12  5.57486402741065E-01
 cg2d: Sum(rhs),rhsMax =   1.67221791969041E-12  5.58659391027486E-01
 cg2d: Sum(rhs),rhsMax =   1.68620672980069E-12  5.59549844893818E-01
 cg2d: Sum(rhs),rhsMax =   1.66444635851803E-12  5.60157834521836E-01
 cg2d: Sum(rhs),rhsMax =   1.67110769666579E-12  5.60483537286333E-01
 cg2d: Sum(rhs),rhsMax =   1.68842717584994E-12  5.60527226364501E-01
 cg2d: Sum(rhs),rhsMax =   1.75948144942595E-12  5.60289264511975E-01
 cg2d: Sum(rhs),rhsMax =   1.77458048256085E-12  5.59770103481019E-01
 cg2d: Sum(rhs),rhsMax =   1.91557880668825E-12  5.58970287271195E-01
 cg2d: Sum(rhs),rhsMax =   1.94533278374820E-12  5.57890461910979E-01
 cg2d: Sum(rhs),rhsMax =   1.88238313825195E-12  5.56531388825793E-01
 cg2d: Sum(rhs),rhsMax =   1.84541271153194E-12  5.54893960823887E-01
 cg2d: Sum(rhs),rhsMax =   1.81887838124339E-12  5.52979219241455E-01
 cg2d: Sum(rhs),rhsMax =   1.78501657899233E-12  5.50788371748692E-01
 cg2d: Sum(rhs),rhsMax =   1.69575464781246E-12  5.48322810173881E-01
 cg2d: Sum(rhs),rhsMax =   1.66222591246878E-12  5.45584126054424E-01
 cg2d: Sum(rhs),rhsMax =   1.60249591374395E-12  5.42574123808352E-01
 cg2d: Sum(rhs),rhsMax =   1.56008539420327E-12  5.39294829287320E-01
 cg2d: Sum(rhs),rhsMax =   1.51800794156998E-12  5.35748493380502E-01
 cg2d: Sum(rhs),rhsMax =   1.42885703269258E-12  5.31937591762194E-01
 cg2d: Sum(rhs),rhsMax =   1.34114941374719E-12  5.27864820569590E-01
 cg2d: Sum(rhs),rhsMax =   1.30317978630501E-12  5.23533088155108E-01
 cg2d: Sum(rhs),rhsMax =   1.28552724021347E-12  5.18945503977338E-01
 cg2d: Sum(rhs),rhsMax =   1.21158638677343E-12  5.14105362025037E-01
 cg2d: Sum(rhs),rhsMax =   1.18527410108982E-12  5.09016122026254E-01
 cg2d: Sum(rhs),rhsMax =   1.08635322959572E-12  5.03681389781458E-01
 cg2d: Sum(rhs),rhsMax =   1.06314956838105E-12  4.98104896844015E-01
 cg2d: Sum(rhs),rhsMax =   1.03639319348758E-12  4.92290479832981E-01
 cg2d: Sum(rhs),rhsMax =   1.01629815674187E-12  4.86242060533295E-01
 cg2d: Sum(rhs),rhsMax =   1.00575103800793E-12  4.79963627474492E-01
 cg2d: Sum(rhs),rhsMax =   9.40802991067358E-13  4.73459219575271E-01
 cg2d: Sum(rhs),rhsMax =   9.13824571568966E-13  4.66732912412807E-01
 cg2d: Sum(rhs),rhsMax =   8.84736728323787E-13  4.59788807534577E-01
 cg2d: Sum(rhs),rhsMax =   8.33111357678717E-13  4.52631024485936E-01
 cg2d: Sum(rhs),rhsMax =   8.03690447526151E-13  4.45263695432404E-01
 cg2d: Sum(rhs),rhsMax =   7.62057084102707E-13  4.37690963690738E-01
 cg2d: Sum(rhs),rhsMax =   7.18203274630014E-13  4.29916986006095E-01
 cg2d: Sum(rhs),rhsMax =   6.85895784613422E-13  4.21945936641933E-01
 cg2d: Sum(rhs),rhsMax =   6.16062756364499E-13  4.13782012929968E-01
 cg2d: Sum(rhs),rhsMax =   5.58886270596304E-13  4.05429441942987E-01
 cg2d: Sum(rhs),rhsMax =   4.88387108532606E-13  3.96892487890423E-01
 cg2d: Sum(rhs),rhsMax =   4.14335232790108E-13  3.88175458818218E-01
 cg2d: Sum(rhs),rhsMax =   3.34510197319560E-13  3.79282715570931E-01
 cg2d: Sum(rhs),rhsMax =   3.16968673530482E-13  3.70218679404814E-01
 cg2d: Sum(rhs),rhsMax =   3.01092484278342E-13  3.60987837964956E-01
 cg2d: Sum(rhs),rhsMax =   2.45914399954472E-13  3.51594749680717E-01
 cg2d: Sum(rhs),rhsMax =   2.33701946683595E-13  3.42044046731922E-01
 cg2d: Sum(rhs),rhsMax =   2.42916797787984E-13  3.32340436703680E-01
 cg2d: Sum(rhs),rhsMax =   1.98951966012828E-13  3.22488703002552E-01
 cg2d: Sum(rhs),rhsMax =   1.67976743625786E-13  3.12493704161782E-01
 cg2d: Sum(rhs),rhsMax =   1.16573417585641E-13  3.02360372260807E-01
 cg2d: Sum(rhs),rhsMax =   7.48290318597356E-14  2.92093709592030E-01
 cg2d: Sum(rhs),rhsMax =   1.65423230669148E-14  2.81698784771655E-01
 cg2d: Sum(rhs),rhsMax =  -9.76996261670138E-15  2.71180728819158E-01
 cg2d: Sum(rhs),rhsMax =  -9.35918009759007E-14  2.60544730480348E-01
 cg2d: Sum(rhs),rhsMax =  -1.60649271663260E-13  2.51374397364203E-01
 cg2d: Sum(rhs),rhsMax =  -1.60982338570648E-13  2.43143614971951E-01
 cg2d: Sum(rhs),rhsMax =  -2.39031017201796E-13  2.34813859839455E-01
 cg2d: Sum(rhs),rhsMax =  -3.08419956240868E-13  2.26387708990161E-01
 cg2d: Sum(rhs),rhsMax =  -3.86246590267092E-13  2.17867778032211E-01
 cg2d: Sum(rhs),rhsMax =  -4.75286476842030E-13  2.09256716518122E-01
 cg2d: Sum(rhs),rhsMax =  -5.61772850460329E-13  2.05877893391883E-01
 cg2d: Sum(rhs),rhsMax =  -6.40709707511178E-13  2.07779631823511E-01
 cg2d: Sum(rhs),rhsMax =  -6.96998014859673E-13  2.09690641603456E-01
 cg2d: Sum(rhs),rhsMax =  -7.68385355343071E-13  2.11602868394860E-01
 cg2d: Sum(rhs),rhsMax =  -8.28670465580217E-13  2.13517989127489E-01
 cg2d: Sum(rhs),rhsMax =  -8.96727136989739E-13  2.15446032524286E-01
 cg2d: Sum(rhs),rhsMax =  -9.42357303301833E-13  2.17391639811213E-01
 cg2d: Sum(rhs),rhsMax =  -9.99422766767566E-13  2.19359867928971E-01
 cg2d: Sum(rhs),rhsMax =  -1.06437081370814E-12  2.21354843367207E-01
 cg2d: Sum(rhs),rhsMax =  -1.11410880521134E-12  2.23348388376335E-01
 cg2d: Sum(rhs),rhsMax =  -1.17217346939924E-12  2.25340839010929E-01
 cg2d: Sum(rhs),rhsMax =  -1.23256960193885E-12  2.27335251330524E-01
 cg2d: Sum(rhs),rhsMax =  -1.27092780743965E-12  2.29340338155522E-01
 cg2d: Sum(rhs),rhsMax =  -1.20703447237247E-12  2.31353347614785E-01
 cg2d: Sum(rhs),rhsMax =  -1.28003163624157E-12  2.33378669396391E-01
 cg2d: Sum(rhs),rhsMax =  -1.34869893031464E-12  2.35440784005203E-01
 cg2d: Sum(rhs),rhsMax =  -1.41825440280741E-12  2.37485362910445E-01
 cg2d: Sum(rhs),rhsMax =  -1.46485601426605E-12  2.39504052472170E-01
 cg2d: Sum(rhs),rhsMax =  -1.52072798798031E-12  2.41516068620653E-01
 cg2d: Sum(rhs),rhsMax =  -1.57310275916700E-12  2.43524000743806E-01
 cg2d: Sum(rhs),rhsMax =  -1.61648472385423E-12  2.45535833080470E-01
 cg2d: Sum(rhs),rhsMax =  -1.68500109698488E-12  2.47536898001151E-01
 cg2d: Sum(rhs),rhsMax =  -1.71905892298874E-12  2.49497725349784E-01
 cg2d: Sum(rhs),rhsMax =  -1.77084735764055E-12  2.51412913314113E-01
 cg2d: Sum(rhs),rhsMax =  -1.83182635726808E-12  2.53279898602197E-01
 cg2d: Sum(rhs),rhsMax =  -1.86428650295056E-12  2.55127282670903E-01
 cg2d: Sum(rhs),rhsMax =  -1.91235915991683E-12  2.56920599630522E-01
 cg2d: Sum(rhs),rhsMax =  -1.96281879638605E-12  2.58642144145145E-01
 cg2d: Sum(rhs),rhsMax =  -2.00117700188684E-12  2.60261480316842E-01
 cg2d: Sum(rhs),rhsMax =  -2.04147809768074E-12  2.61773527890104E-01
 cg2d: Sum(rhs),rhsMax =  -2.10653716692377E-12  2.63163107482957E-01
 cg2d: Sum(rhs),rhsMax =  -2.13279394145616E-12  2.64440217689829E-01
 cg2d: Sum(rhs),rhsMax =  -2.15494289079743E-12  2.65581052019750E-01
 cg2d: Sum(rhs),rhsMax =  -2.20973239706268E-12  2.66578727663085E-01
 cg2d: Sum(rhs),rhsMax =  -2.27029506305598E-12  2.67435667622666E-01
 cg2d: Sum(rhs),rhsMax =  -2.32680541500940E-12  2.68153145035114E-01
 cg2d: Sum(rhs),rhsMax =  -2.36122232877278E-12  2.68718723676636E-01
 cg2d: Sum(rhs),rhsMax =  -2.42972308939216E-12  2.69114478592471E-01
 cg2d: Sum(rhs),rhsMax =  -2.46858089525404E-12  2.69359919696649E-01
 cg2d: Sum(rhs),rhsMax =  -2.48689957516035E-12  2.69419987149577E-01
 cg2d: Sum(rhs),rhsMax =  -2.48301379457416E-12  2.76353913513102E-01
 cg2d: Sum(rhs),rhsMax =  -2.41395792244248E-12  2.86643777387447E-01
 cg2d: Sum(rhs),rhsMax =  -2.40296671449869E-12  2.96813586663051E-01
 cg2d: Sum(rhs),rhsMax =  -2.33524310999655E-12  3.06859341022197E-01
 cg2d: Sum(rhs),rhsMax =  -2.30504504372675E-12  3.16777085552723E-01
 cg2d: Sum(rhs),rhsMax =  -2.25885976590234E-12  3.26562916974567E-01
 cg2d: Sum(rhs),rhsMax =  -2.21356266649764E-12  3.36212990327456E-01
 cg2d: Sum(rhs),rhsMax =  -2.24997798170534E-12  3.45723525948324E-01
 cg2d: Sum(rhs),rhsMax =  -2.31237251568928E-12  3.55090816546061E-01
 cg2d: Sum(rhs),rhsMax =  -2.32203145600351E-12  3.64311234171678E-01
 cg2d: Sum(rhs),rhsMax =  -2.37176944750672E-12  3.73381236891480E-01
 cg2d: Sum(rhs),rhsMax =  -2.40885089652920E-12  3.82297374966571E-01
 cg2d: Sum(rhs),rhsMax =  -2.42583730880597E-12  3.91056296413009E-01
 cg2d: Sum(rhs),rhsMax =  -2.48145948233969E-12  3.99654751797014E-01
 cg2d: Sum(rhs),rhsMax =  -2.46602738229740E-12  4.08089598192698E-01
 cg2d: Sum(rhs),rhsMax =  -2.47302178735254E-12  4.16357802285663E-01
 cg2d: Sum(rhs),rhsMax =  -2.50344189822727E-12  4.24456442651976E-01
 cg2d: Sum(rhs),rhsMax =  -2.49344989100564E-12  4.32382711293231E-01
 cg2d: Sum(rhs),rhsMax =  -2.51054732558487E-12  4.40133914465193E-01
 cg2d: Sum(rhs),rhsMax =  -2.51776377524493E-12  4.47707472910401E-01
 cg2d: Sum(rhs),rhsMax =  -2.52242671194836E-12  4.55100921618727E-01
 cg2d: Sum(rhs),rhsMax =  -2.53874699041035E-12  4.62311909230998E-01
 cg2d: Sum(rhs),rhsMax =  -2.51754173064000E-12  4.69338197161180E-01
 cg2d: Sum(rhs),rhsMax =  -2.58548737974706E-12  4.76177658461590E-01
 cg2d: Sum(rhs),rhsMax =  -2.64799293603346E-12  4.82828276403562E-01
 cg2d: Sum(rhs),rhsMax =  -2.73114864057789E-12  4.89288142884967E-01
 cg2d: Sum(rhs),rhsMax =  -2.76945133492745E-12  4.95555456347249E-01
 cg2d: Sum(rhs),rhsMax =  -2.81508150123955E-12  5.01628519349565E-01
 cg2d: Sum(rhs),rhsMax =  -2.86082268985410E-12  5.07505735600044E-01
 cg2d: Sum(rhs),rhsMax =  -2.89457346980271E-12  5.13185606383914E-01
 cg2d: Sum(rhs),rhsMax =  -2.93698398934339E-12  5.18666726406675E-01
 cg2d: Sum(rhs),rhsMax =  -2.96507263186641E-12  5.23947779182892E-01
 cg2d: Sum(rhs),rhsMax =  -3.02535774210355E-12  5.29027532071659E-01
 cg2d: Sum(rhs),rhsMax =  -3.00970359745634E-12  5.33904831101729E-01
 cg2d: Sum(rhs),rhsMax =  -3.08275627247667E-12  5.38578595882561E-01
 cg2d: Sum(rhs),rhsMax =  -3.08741920918010E-12  5.43047814631604E-01
 cg2d: Sum(rhs),rhsMax =  -3.14159809278181E-12  5.47311539505644E-01
 cg2d: Sum(rhs),rhsMax =  -3.17812443029197E-12  5.51368882802058E-01
 cg2d: Sum(rhs),rhsMax =  -3.24096305348576E-12  5.55219014095856E-01
 cg2d: Sum(rhs),rhsMax =  -3.23829851822666E-12  5.58861158243946E-01
 cg2d: Sum(rhs),rhsMax =  -3.29258842413083E-12  5.62294594470530E-01
 cg2d: Sum(rhs),rhsMax =  -3.29725136083425E-12  5.65518656572409E-01
 cg2d: Sum(rhs),rhsMax =  -3.34099414800448E-12  5.68532734105991E-01
 cg2d: Sum(rhs),rhsMax =  -3.36453087612654E-12  5.71336274364435E-01
 cg2d: Sum(rhs),rhsMax =  -3.39606121002589E-12  5.73928784919388E-01
 cg2d: Sum(rhs),rhsMax =  -3.45712347638027E-12  5.76309836477985E-01
 cg2d: Sum(rhs),rhsMax =  -3.44846373678820E-12  5.78479065652133E-01
 cg2d: Sum(rhs),rhsMax =  -3.55493412484975E-12  5.80436177909086E-01
 cg2d: Sum(rhs),rhsMax =  -3.64608343517148E-12  5.82180950076575E-01
 cg2d: Sum(rhs),rhsMax =  -3.70936614757511E-12  5.83713232276963E-01
 cg2d: Sum(rhs),rhsMax =  -3.80395714927317E-12  5.85032949250009E-01
 cg2d: Sum(rhs),rhsMax =  -3.86735088397927E-12  5.86140101115428E-01
 cg2d: Sum(rhs),rhsMax =  -3.93285404243215E-12  5.87034763706646E-01
 cg2d: Sum(rhs),rhsMax =  -3.98880928287326E-12  5.87717088682517E-01
 cg2d: Sum(rhs),rhsMax =  -4.05586675356062E-12  5.88187303865211E-01
 cg2d: Sum(rhs),rhsMax =  -4.21518375759433E-12  5.88445713692663E-01
 cg2d: Sum(rhs),rhsMax =  -4.34607905219764E-12  5.88492700334528E-01
 cg2d: Sum(rhs),rhsMax =  -4.45921077840694E-12  5.88328725416149E-01
 cg2d: Sum(rhs),rhsMax =  -4.61397586803969E-12  5.87954334026595E-01
 cg2d: Sum(rhs),rhsMax =  -4.68858285529450E-12  5.87370160179917E-01
 cg2d: Sum(rhs),rhsMax =  -4.64062122063069E-12  5.86576933340172E-01
 cg2d: Sum(rhs),rhsMax =  -4.55713244917888E-12  5.85575485745452E-01
 cg2d: Sum(rhs),rhsMax =  -4.46653825036947E-12  5.84366760235895E-01
 cg2d: Sum(rhs),rhsMax =  -4.46442882662268E-12  5.82951817522867E-01
 cg2d: Sum(rhs),rhsMax =  -4.45821157768478E-12  5.81331842663863E-01
 cg2d: Sum(rhs),rhsMax =  -4.46764847339409E-12  5.79508149704549E-01
 cg2d: Sum(rhs),rhsMax =  -4.48829862165212E-12  5.77482182631693E-01
 cg2d: Sum(rhs),rhsMax =  -4.50040005262053E-12  5.75255512048352E-01
 cg2d: Sum(rhs),rhsMax =  -4.52227144620565E-12  5.72829824623901E-01
 cg2d: Sum(rhs),rhsMax =  -4.53681536782824E-12  5.70206906845521E-01
 cg2d: Sum(rhs),rhsMax =  -4.57722748592460E-12  5.67388623075640E-01
 cg2d: Sum(rhs),rhsMax =  -4.59499105431860E-12  5.64376887542007E-01
 cg2d: Sum(rhs),rhsMax =  -4.62496707598348E-12  5.61173631440306E-01
 cg2d: Sum(rhs),rhsMax =  -4.64306371128487E-12  5.57780767113051E-01
 cg2d: Sum(rhs),rhsMax =  -4.70923300355253E-12  5.54200151663127E-01
 cg2d: Sum(rhs),rhsMax =  -4.71778172084214E-12  5.50433550066493E-01
 cg2d: Sum(rhs),rhsMax =  -4.76008121808036E-12  5.46482602305922E-01
 cg2d: Sum(rhs),rhsMax =  -4.78961315053539E-12  5.42348796392912E-01
 cg2d: Sum(rhs),rhsMax =  -4.84734474781590E-12  5.38033450106542E-01
 cg2d: Sum(rhs),rhsMax =  -4.84956519386515E-12  5.33537703009176E-01
 cg2d: Sum(rhs),rhsMax =  -4.88087348315958E-12  5.28862519618979E-01
 cg2d: Sum(rhs),rhsMax =  -4.90896212568259E-12  5.24008703893585E-01
 cg2d: Sum(rhs),rhsMax =  -4.96958030282713E-12  5.18976924427463E-01
 cg2d: Sum(rhs),rhsMax =  -4.99256191943687E-12  5.13767749024876E-01
 cg2d: Sum(rhs),rhsMax =  -5.02187180728697E-12  5.08381686645704E-01
 cg2d: Sum(rhs),rhsMax =  -5.05229191816170E-12  5.02819233835435E-01
 cg2d: Sum(rhs),rhsMax =  -5.11046760465206E-12  4.97080923421531E-01
 cg2d: Sum(rhs),rhsMax =  -5.13478148889135E-12  4.91167373412873E-01
 cg2d: Sum(rhs),rhsMax =  -5.14210896085388E-12  4.85079331193212E-01
 cg2d: Sum(rhs),rhsMax =  -5.20938847614616E-12  4.78817711472203E-01
 cg2d: Sum(rhs),rhsMax =  -5.19462250991864E-12  4.72383626325173E-01
 cg2d: Sum(rhs),rhsMax =  -5.22437648697860E-12  4.65778406163300E-01
 cg2d: Sum(rhs),rhsMax =  -5.26823029645129E-12  4.59003611055009E-01
 cg2d: Sum(rhs),rhsMax =  -5.31863442176927E-12  4.52061032212585E-01
 cg2d: Sum(rhs),rhsMax =  -5.38857847232066E-12  4.44952684328535E-01
 cg2d: Sum(rhs),rhsMax =  -5.39568389967826E-12  4.37680791374793E-01
 cg2d: Sum(rhs),rhsMax =  -5.45008482788489E-12  4.30247765663087E-01
 cg2d: Sum(rhs),rhsMax =  -5.48994183446894E-12  4.22656182182542E-01
(PID.TID 0000.0001)      cg2d_init_res =   1.07562182072120E-01
(PID.TID 0000.0001)      cg2d_iters(min,last) =      -1      36
(PID.TID 0000.0001)      cg2d_last_res =   6.35654618287938E-14
(PID.TID 0000.0001) // =======================================================
(PID.TID 0000.0001) // Begin MONITOR dynamic field statistics
(PID.TID 0000.0001) // =======================================================
(PID.TID 0000.0001) %MON time_tsnumber                =                  2880
(PID.TID 0000.0001) %MON time_secondsf                =   4.3200000000000E+04
(PID.TID 0000.0001) %MON dynstat_eta_max              =   6.9309617613788E-02
(PID.TID 0000.0001) %MON dynstat_eta_min              =  -9.5789377523820E-02
(PID.TID 0000.0001) %MON dynstat_eta_mean             =   4.7582629184686E-15
(PID.TID 0000.0001) %MON dynstat_eta_sd               =   4.8844829248955E-02
(PID.TID 0000.0001) %MON dynstat_eta_del2             =   1.0992589252186E-04
(PID.TID 0000.0001) %MON dynstat_uvel_max             =   1.5722678078237E+00
(PID.TID 0000.0001) %MON dynstat_uvel_min             =  -1.2172942794340E+00
(PID.TID 0000.0001) %MON dynstat_uvel_mean            =   5.8545262901917E-01
(PID.TID 0000.0001) %MON dynstat_uvel_sd              =   1.3337061424546E-01
(PID.TID 0000.0001) %MON dynstat_uvel_del2            =   1.1653292743361E-03
(PID.TID 0000.0001) %MON dynstat_vvel_max             =   0.0000000000000E+00
(PID.TID 0000.0001) %MON dynstat_vvel_min             =   0.0000000000000E+00
(PID.TID 0000.0001) %MON dynstat_vvel_mean            =   0.0000000000000E+00
(PID.TID 0000.0001) %MON dynstat_vvel_sd              =   0.0000000000000E+00
(PID.TID 0000.0001) %MON dynstat_vvel_del2            =   0.0000000000000E+00
(PID.TID 0000.0001) %MON dynstat_wvel_max             =   5.8473343361093E-02
(PID.TID 0000.0001) %MON dynstat_wvel_min             =  -4.9754072441281E-02
(PID.TID 0000.0001) %MON dynstat_wvel_mean            =   6.8966186075728E-20
(PID.TID 0000.0001) %MON dynstat_wvel_sd              =   4.8412048400163E-03
(PID.TID 0000.0001) %MON dynstat_wvel_del2            =   1.2362895353717E-04
(PID.TID 0000.0001) %MON dynstat_theta_max            =   1.5000000000005E+01
(PID.TID 0000.0001) %MON dynstat_theta_min            =   9.9999999999960E+00
(PID.TID 0000.0001) %MON dynstat_theta_mean           =   1.2515364759163E+01
(PID.TID 0000.0001) %MON dynstat_theta_sd             =   2.4086008276510E+00
(PID.TID 0000.0001) %MON dynstat_theta_del2           =   1.2929805481613E-03
(PID.TID 0000.0001) %MON dynstat_salt_max             =   3.5000000000000E+01
(PID.TID 0000.0001) %MON dynstat_salt_min             =   3.5000000000000E+01
(PID.TID 0000.0001) %MON dynstat_salt_mean            =   3.5000000000000E+01
(PID.TID 0000.0001) %MON dynstat_salt_sd              =   3.9790393202566E-13
(PID.TID 0000.0001) %MON dynstat_salt_del2            =   0.0000000000000E+00
(PID.TID 0000.0001) %MON dynstat_sst_max              =   1.5000000000000E+01
(PID.TID 0000.0001) %MON dynstat_sst_min              =   1.4998655652498E+01
(PID.TID 0000.0001) %MON dynstat_sst_mean             =   1.4999954777040E+01
(PID.TID 0000.0001) %MON dynstat_sst_sd               =   1.9213293034075E-04
(PID.TID 0000.0001) %MON dynstat_sst_del2             =   6.2245226205339E-06
(PID.TID 0000.0001) %MON dynstat_sss_max              =   3.5000000000000E+01
(PID.TID 0000.0001) %MON dynstat_sss_min              =   3.5000000000000E+01
(PID.TID 0000.0001) %MON dynstat_sss_mean             =   3.5000000000000E+01
(PID.TID 0000.0001) %MON dynstat_sss_sd               =   5.6843418860808E-14
(PID.TID 0000.0001) %MON dynstat_sss_del2             =   0.0000000000000E+00
(PID.TID 0000.0001) %MON forcing_qnet_max             =   0.0000000000000E+00
(PID.TID 0000.0001) %MON forcing_qnet_min             =   0.0000000000000E+00
(PID.TID 0000.0001) %MON forcing_qnet_mean            =   0.0000000000000E+00
(PID.TID 0000.0001) %MON forcing_qnet_sd              =   0.0000000000000E+00
(PID.TID 0000.0001) %MON forcing_qnet_del2            =   0.0000000000000E+00
(PID.TID 0000.0001) %MON forcing_qsw_max              =   0.0000000000000E+00
(PID.TID 0000.0001) %MON forcing_qsw_min              =   0.0000000000000E+00
(PID.TID 0000.0001) %MON forcing_qsw_mean             =   0.0000000000000E+00
(PID.TID 0000.0001) %MON forcing_qsw_sd               =   0.0000000000000E+00
(PID.TID 0000.0001) %MON forcing_qsw_del2             =   0.0000000000000E+00
(PID.TID 0000.0001) %MON forcing_empmr_max            =   0.0000000000000E+00
(PID.TID 0000.0001) %MON forcing_empmr_min            =   0.0000000000000E+00
(PID.TID 0000.0001) %MON forcing_empmr_mean           =   0.0000000000000E+00
(PID.TID 0000.0001) %MON forcing_empmr_sd             =   0.0000000000000E+00
(PID.TID 0000.0001) %MON forcing_empmr_del2           =   0.0000000000000E+00
(PID.TID 0000.0001) %MON forcing_fu_max               =   0.0000000000000E+00
(PID.TID 0000.0001) %MON forcing_fu_min               =   0.0000000000000E+00
(PID.TID 0000.0001) %MON forcing_fu_mean              =   0.0000000000000E+00
(PID.TID 0000.0001) %MON forcing_fu_sd                =   0.0000000000000E+00
(PID.TID 0000.0001) %MON forcing_fu_del2              =   0.0000000000000E+00
(PID.TID 0000.0001) %MON forcing_fv_max               =   0.0000000000000E+00
(PID.TID 0000.0001) %MON forcing_fv_min               =   0.0000000000000E+00
(PID.TID 0000.0001) %MON forcing_fv_mean              =   0.0000000000000E+00
(PID.TID 0000.0001) %MON forcing_fv_sd                =   0.0000000000000E+00
(PID.TID 0000.0001) %MON forcing_fv_del2              =   0.0000000000000E+00
(PID.TID 0000.0001) %MON advcfl_uvel_max              =   1.1792008558678E-01
(PID.TID 0000.0001) %MON advcfl_vvel_max              =   0.0000000000000E+00
(PID.TID 0000.0001) %MON advcfl_wvel_max              =   7.4415307792435E-01
(PID.TID 0000.0001) %MON advcfl_W_hf_max              =   7.4415307792435E-01
(PID.TID 0000.0001) %MON pe_b_mean                    =   6.0086121718361E-05
(PID.TID 0000.0001) %MON ke_max                       =   1.1300812399468E+00
(PID.TID 0000.0001) %MON ke_mean                      =   1.8037482830800E-01
(PID.TID 0000.0001) %MON ke_vol                       =   9.5121673331316E+10
(PID.TID 0000.0001) %MON vort_r_min                   =   0.0000000000000E+00
(PID.TID 0000.0001) %MON vort_r_max                   =   0.0000000000000E+00
(PID.TID 0000.0001) %MON vort_a_mean                  =   0.0000000000000E+00
(PID.TID 0000.0001) %MON vort_a_sd                    =   0.0000000000000E+00
(PID.TID 0000.0001) %MON vort_p_mean                  =   0.0000000000000E+00
(PID.TID 0000.0001) %MON vort_p_sd                    =   0.0000000000000E+00
(PID.TID 0000.0001) %MON surfExpan_theta_mean         =  -2.3729048711825E-09
(PID.TID 0000.0001) %MON surfExpan_salt_mean          =   2.3389038096093E-18
(PID.TID 0000.0001) // =======================================================
(PID.TID 0000.0001) // End MONITOR dynamic field statistics
(PID.TID 0000.0001) // =======================================================
(PID.TID 0000.0001) // =======================================================
(PID.TID 0000.0001) // Begin OBCS MONITOR field statistics
(PID.TID 0000.0001) // =======================================================
(PID.TID 0000.0001) %MON obc_E_uVel_max               =   5.6028564143658E-01
(PID.TID 0000.0001) %MON obc_E_uVel_min               =   5.6028564143658E-01
(PID.TID 0000.0001) %MON obc_E_uVel_mean              =   5.6028564143658E-01
(PID.TID 0000.0001) %MON obc_E_uVel_sd                =   7.4505805969238E-09
(PID.TID 0000.0001) %MON obc_E_uVel_Int               =   5.6028564143658E+05
(PID.TID 0000.0001) %MON obc_W_uVel_max               =   5.6028564143658E-01
(PID.TID 0000.0001) %MON obc_W_uVel_min               =   5.6028564143658E-01
(PID.TID 0000.0001) %MON obc_W_uVel_mean              =   5.6028564143658E-01
(PID.TID 0000.0001) %MON obc_W_uVel_sd                =   7.4505805969238E-09
(PID.TID 0000.0001) %MON obc_W_uVel_Int               =   5.6028564143658E+05
(PID.TID 0000.0001) // =======================================================
(PID.TID 0000.0001) // End OBCS MONITOR field statistics
(PID.TID 0000.0001) // =======================================================
(PID.TID 0000.0001) %CHECKPOINT      2880 0000002880
 cg2d: Sum(rhs),rhsMax =  -5.54356560655833E-12  4.14908750347401E-01
 cg2d: Sum(rhs),rhsMax =  -5.60962387652353E-12  4.07008285190182E-01
 cg2d: Sum(rhs),rhsMax =  -5.65547608744055E-12  3.98957679783216E-01
 cg2d: Sum(rhs),rhsMax =  -5.70332669980189E-12  3.90759880457610E-01
 cg2d: Sum(rhs),rhsMax =  -5.74884584381152E-12  3.82417865843895E-01
 cg2d: Sum(rhs),rhsMax =  -5.81290571233239E-12  3.73934630139465E-01
 cg2d: Sum(rhs),rhsMax =  -5.87541126861879E-12  3.65313171764499E-01
 cg2d: Sum(rhs),rhsMax =  -5.90227866581472E-12  3.56556487530616E-01
 cg2d: Sum(rhs),rhsMax =  -5.97577543004491E-12  3.47667571777158E-01
 cg2d: Sum(rhs),rhsMax =  -6.04194472231256E-12  3.38649419835556E-01
 cg2d: Sum(rhs),rhsMax =  -6.20015150332165E-12  3.29505035864273E-01
 cg2d: Sum(rhs),rhsMax =  -6.34026164902934E-12  3.20237443616199E-01
 cg2d: Sum(rhs),rhsMax =  -6.46382947167012E-12  3.10849699254291E-01
 cg2d: Sum(rhs),rhsMax =  -6.62070398504966E-12  3.01344905598440E-01
 cg2d: Sum(rhs),rhsMax =  -6.77968792217598E-12  2.91726225908579E-01
 cg2d: Sum(rhs),rhsMax =  -6.96842583636226E-12  2.81996897262285E-01
 cg2d: Sum(rhs),rhsMax =  -7.15116854621556E-12  2.72160242695444E-01
 cg2d: Sum(rhs),rhsMax =  -7.38864525118288E-12  2.62219681370943E-01
 cg2d: Sum(rhs),rhsMax =  -7.59248219850406E-12  2.52178736198829E-01
 cg2d: Sum(rhs),rhsMax =  -7.83295650563787E-12  2.42041038648495E-01
 cg2d: Sum(rhs),rhsMax =  -8.14448508634769E-12  2.31810330799628E-01
 cg2d: Sum(rhs),rhsMax =  -8.44613268213834E-12  2.21490463913593E-01
 cg2d: Sum(rhs),rhsMax =  -8.75205463657380E-12  2.11085394751306E-01
 cg2d: Sum(rhs),rhsMax =  -9.11870579045626E-12  2.00599179524343E-01
 cg2d: Sum(rhs),rhsMax =  -9.53681578153009E-12  1.90035965837875E-01
 cg2d: Sum(rhs),rhsMax =  -9.99422766767566E-12  1.79399983028690E-01
 cg2d: Sum(rhs),rhsMax =  -1.05478958900562E-11  1.68695531369501E-01
 cg2d: Sum(rhs),rhsMax =  -1.06233355445795E-11  1.66457233743720E-01
 cg2d: Sum(rhs),rhsMax =  -1.05556396956530E-11  1.66784176879665E-01
 cg2d: Sum(rhs),rhsMax =  -1.05022657237441E-11  1.67143065304249E-01
 cg2d: Sum(rhs),rhsMax =  -1.04078967666510E-11  1.67535026722094E-01
 cg2d: Sum(rhs),rhsMax =  -1.03372865822848E-11  1.67912609476089E-01
 cg2d: Sum(rhs),rhsMax =  -1.02765053411336E-11  1.68261055723018E-01
 cg2d: Sum(rhs),rhsMax =  -1.01926037054945E-11  1.68560930045509E-01
 cg2d: Sum(rhs),rhsMax =  -1.01357394699519E-11  1.68812680954599E-01
 cg2d: Sum(rhs),rhsMax =  -1.00584818252258E-11  1.69021358853453E-01
 cg2d: Sum(rhs),rhsMax =  -9.98912064176238E-12  1.69198349423212E-01
 cg2d: Sum(rhs),rhsMax =  -9.93871651644440E-12  1.69346622560042E-01
 cg2d: Sum(rhs),rhsMax =  -9.86122294932557E-12  1.69467659800747E-01
 cg2d: Sum(rhs),rhsMax =  -9.79588632432637E-12  1.69537517259151E-01
 cg2d: Sum(rhs),rhsMax =  -9.72577574032130E-12  1.69541392946538E-01
 cg2d: Sum(rhs),rhsMax =  -9.65733049085316E-12  1.69481558310161E-01
 cg2d: Sum(rhs),rhsMax =  -9.59876622630418E-12  1.69375900315934E-01
 cg2d: Sum(rhs),rhsMax =  -9.54281098586307E-12  1.69224843452690E-01
 cg2d: Sum(rhs),rhsMax =  -9.48774392384166E-12  1.69020547000514E-01
 cg2d: Sum(rhs),rhsMax =  -9.43023437116608E-12  1.68747732619620E-01
 cg2d: Sum(rhs),rhsMax =  -9.44400113667143E-12  1.68410222606382E-01
 cg2d: Sum(rhs),rhsMax =  -9.39870403726673E-12  1.68012110896410E-01
 cg2d: Sum(rhs),rhsMax =  -9.40914013369820E-12  1.67558809576924E-01
 cg2d: Sum(rhs),rhsMax =  -9.36561939113290E-12  1.67025314569607E-01
 cg2d: Sum(rhs),rhsMax =  -9.32254273777744E-12  1.66394024874047E-01
 cg2d: Sum(rhs),rhsMax =  -9.03732644275124E-12  1.70611096929801E-01
 cg2d: Sum(rhs),rhsMax =  -8.56370530044614E-12  1.79156586789971E-01
 cg2d: Sum(rhs),rhsMax =  -8.07165445593228E-12  1.87618092306772E-01
 cg2d: Sum(rhs),rhsMax =  -7.63489271804474E-12  1.95992513777348E-01
 cg2d: Sum(rhs),rhsMax =  -7.25175475224660E-12  2.04276817014674E-01
 cg2d: Sum(rhs),rhsMax =  -6.88038515050948E-12  2.12468027879697E-01
 cg2d: Sum(rhs),rhsMax =  -6.54254428411605E-12  2.20563226050284E-01
 cg2d: Sum(rhs),rhsMax =  -6.21669382638856E-12  2.28559542002236E-01
 cg2d: Sum(rhs),rhsMax =  -5.96644955663805E-12  2.36454151020488E-01
 cg2d: Sum(rhs),rhsMax =  -5.67490499037149E-12  2.44244267382838E-01
 cg2d: Sum(rhs),rhsMax =  -5.45896661208189E-12  2.51927139725624E-01
 cg2d: Sum(rhs),rhsMax =  -5.20916643154123E-12  2.59500046999927E-01
 cg2d: Sum(rhs),rhsMax =  -4.97890617623398E-12  2.66960295121495E-01
 cg2d: Sum(rhs),rhsMax =  -4.79838391242993E-12  2.74305217199865E-01
 cg2d: Sum(rhs),rhsMax =  -4.58144633341817E-12  2.81532172558298E-01
 cg2d: Sum(rhs),rhsMax =  -4.41624514735395E-12  2.88638548198859E-01
 cg2d: Sum(rhs),rhsMax =  -4.28035384913983E-12  2.95621761597938E-01
 cg2d: Sum(rhs),rhsMax =  -4.11315426163128E-12  3.02479264017976E-01
 cg2d: Sum(rhs),rhsMax =  -3.96072064035025E-12  3.09208543587511E-01
 cg2d: Sum(rhs),rhsMax =  -3.82460729753120E-12  3.15807127804025E-01
 cg2d: Sum(rhs),rhsMax =  -3.70581343389631E-12  3.22272585647679E-01
 cg2d: Sum(rhs),rhsMax =  -3.57913698678658E-12  3.28602529639257E-01
 cg2d: Sum(rhs),rhsMax =  -3.47866180305800E-12  3.34794620242693E-01
 cg2d: Sum(rhs),rhsMax =  -3.34987593220148E-12  3.40846570102866E-01
 cg2d: Sum(rhs),rhsMax =  -3.19488879796381E-12  3.46756151028117E-01
 cg2d: Sum(rhs),rhsMax =  -3.05677705370044E-12  3.52521201869383E-01
 cg2d: Sum(rhs),rhsMax =  -2.87581070068654E-12  3.59454831221297E-01
 cg2d: Sum(rhs),rhsMax =  -2.73048250676311E-12  3.67232305399710E-01
 cg2d: Sum(rhs),rhsMax =  -2.61135557622083E-12  3.74825429315761E-01
 cg2d: Sum(rhs),rhsMax =  -2.44582132324922E-12  3.82229920285009E-01
 cg2d: Sum(rhs),rhsMax =  -2.32192043370105E-12  3.89441607892118E-01
 cg2d: Sum(rhs),rhsMax =  -2.21245244347301E-12  3.96456442685058E-01
 cg2d: Sum(rhs),rhsMax =  -2.10720330073855E-12  4.03270504684937E-01
 cg2d: Sum(rhs),rhsMax =  -2.01094696450355E-12  4.09880011691088E-01
 cg2d: Sum(rhs),rhsMax =  -1.92346139016308E-12  4.16281327287086E-01
 cg2d: Sum(rhs),rhsMax =  -1.80266912508387E-12  4.22470968577009E-01
 cg2d: Sum(rhs),rhsMax =  -1.73894232347038E-12  4.28445613451717E-01
 cg2d: Sum(rhs),rhsMax =  -1.64357416565508E-12  4.34202107167057E-01
 cg2d: Sum(rhs),rhsMax =  -1.58784096981890E-12  4.39737468126730E-01
 cg2d: Sum(rhs),rhsMax =  -1.51978429840938E-12  4.45048892577365E-01
 cg2d: Sum(rhs),rhsMax =  -1.46582745941259E-12  4.50133757865778E-01
 cg2d: Sum(rhs),rhsMax =  -1.34992017564173E-12  4.54989624173603E-01
 cg2d: Sum(rhs),rhsMax =  -1.27642341141154E-12  4.59614234544520E-01
 cg2d: Sum(rhs),rhsMax =  -1.16529008664656E-12  4.64005513088035E-01
 cg2d: Sum(rhs),rhsMax =  -1.09212638932377E-12  4.68161561553901E-01
 cg2d: Sum(rhs),rhsMax =  -1.02517994093887E-12  4.72080653647812E-01
 cg2d: Sum(rhs),rhsMax =  -9.55457934992410E-13  4.75761227854045E-01
 cg2d: Sum(rhs),rhsMax =  -8.91620111076463E-13  4.79201879020491E-01
 cg2d: Sum(rhs),rhsMax =  -8.52429238307195E-13  4.82401348685909E-01
 cg2d: Sum(rhs),rhsMax =  -7.73270336651422E-13  4.85358514894318E-01
 cg2d: Sum(rhs),rhsMax =  -7.49067474714593E-13  4.88072381940435E-01
 cg2d: Sum(rhs),rhsMax =  -7.02216063075412E-13  4.90542070539761E-01
 cg2d: Sum(rhs),rhsMax =  -6.86228851520809E-13  4.92766808848994E-01
 cg2d: Sum(rhs),rhsMax =  -6.45261621912141E-13  4.94745924709039E-01
 cg2d: Sum(rhs),rhsMax =  -5.95745675013859E-13  4.96478839258087E-01
 cg2d: Sum(rhs),rhsMax =  -5.82422998718357E-13  4.97965062713136E-01
 cg2d: Sum(rhs),rhsMax =  -5.68878277817930E-13  4.99204191924362E-01
 cg2d: Sum(rhs),rhsMax =  -5.25801624462474E-13  5.00195909711996E-01
 cg2d: Sum(rhs),rhsMax =  -5.37236921616113E-13  5.00939985895308E-01
 cg2d: Sum(rhs),rhsMax =  -5.56665824547053E-13  5.01436279826712E-01
 cg2d: Sum(rhs),rhsMax =  -5.28133092814187E-13  5.01684744153475E-01
 cg2d: Sum(rhs),rhsMax =  -5.37569988523501E-13  5.01685429645402E-01
 cg2d: Sum(rhs),rhsMax =  -6.12287998080774E-13  5.01438490306590E-01
 cg2d: Sum(rhs),rhsMax =  -6.82454093237084E-13  5.00944187869164E-01
 cg2d: Sum(rhs),rhsMax =  -6.79567513373058E-13  5.00202897248850E-01
 cg2d: Sum(rhs),rhsMax =  -6.99107438606461E-13  4.99215111699182E-01
 cg2d: Sum(rhs),rhsMax =  -7.44182493406242E-13  4.97981446986015E-01
 cg2d: Sum(rhs),rhsMax =  -8.60200799479571E-13  4.96502644561329E-01
 cg2d: Sum(rhs),rhsMax =  -9.05719943489203E-13  4.94779573367616E-01
 cg2d: Sum(rhs),rhsMax =  -9.68669588985449E-13  4.92813231030402E-01
 cg2d: Sum(rhs),rhsMax =  -8.42104164178181E-13  4.90604745053524E-01
 cg2d: Sum(rhs),rhsMax =  -8.77631300966186E-13  4.88155373129385E-01
 cg2d: Sum(rhs),rhsMax =  -9.41580147184595E-13  4.85466503869652E-01
 cg2d: Sum(rhs),rhsMax =  -1.01663122364926E-12  4.82539655028591E-01
 cg2d: Sum(rhs),rhsMax =  -1.07081010725096E-12  4.79376472285067E-01
 cg2d: Sum(rhs),rhsMax =  -1.15474296791263E-12  4.75978728721003E-01
 cg2d: Sum(rhs),rhsMax =  -1.24011911850630E-12  4.72348325180139E-01
 cg2d: Sum(rhs),rhsMax =  -1.33093536192064E-12  4.68487290980855E-01
 cg2d: Sum(rhs),rhsMax =  -1.42863498808765E-12  4.64397785753146E-01
 cg2d: Sum(rhs),rhsMax =  -1.52455825741526E-12  4.60082101060262E-01
 cg2d: Sum(rhs),rhsMax =  -1.65412128438902E-12  4.55542662803515E-01
 cg2d: Sum(rhs),rhsMax =  -1.70796710108334E-12  4.50782034504598E-01
 cg2d: Sum(rhs),rhsMax =  -1.76214598468505E-12  4.45802920824097E-01
 cg2d: Sum(rhs),rhsMax =  -1.81199499849072E-12  4.40608171055593E-01
 cg2d: Sum(rhs),rhsMax =  -1.89803728289917E-12  4.35200782572673E-01
 cg2d: Sum(rhs),rhsMax =  -1.96309635214220E-12  4.29583903776176E-01
 cg2d: Sum(rhs),rhsMax =  -2.06368255817324E-12  4.23760836118442E-01
 cg2d: Sum(rhs),rhsMax =  -2.11930473170696E-12  4.17735034825545E-01
 cg2d: Sum(rhs),rhsMax =  -2.20423679309079E-12  4.11510108001243E-01
 cg2d: Sum(rhs),rhsMax =  -2.30948593582525E-12  4.05089814061061E-01
 cg2d: Sum(rhs),rhsMax =  -2.38919994899334E-12  3.98478055920079E-01
 cg2d: Sum(rhs),rhsMax =  -2.50011122915339E-12  3.91678874722277E-01
 cg2d: Sum(rhs),rhsMax =  -2.63045141224438E-12  3.84696441349610E-01
 cg2d: Sum(rhs),rhsMax =  -2.77677880688998E-12  3.77535045603003E-01
 cg2d: Sum(rhs),rhsMax =  -2.87803114673579E-12  3.70199083177487E-01
 cg2d: Sum(rhs),rhsMax =  -3.01536573488193E-12  3.62693041214893E-01
 cg2d: Sum(rhs),rhsMax =  -3.16691117774326E-12  3.55021482927854E-01
 cg2d: Sum(rhs),rhsMax =  -3.31812355369721E-12  3.47189031044149E-01
 cg2d: Sum(rhs),rhsMax =  -3.46134232387385E-12  3.39200352204171E-01
 cg2d: Sum(rhs),rhsMax =  -3.60977914226623E-12  3.31060141989231E-01
 cg2d: Sum(rhs),rhsMax =  -3.74722475271483E-12  3.22773110097744E-01
 cg2d: Sum(rhs),rhsMax =  -3.85014242709758E-12  3.14343966306683E-01
 cg2d: Sum(rhs),rhsMax =  -4.00868227501405E-12  3.05777407796978E-01
 cg2d: Sum(rhs),rhsMax =  -4.15367740203010E-12  2.97078108241588E-01
 cg2d: Sum(rhs),rhsMax =  -4.29845048444122E-12  2.88347189764782E-01
 cg2d: Sum(rhs),rhsMax =  -4.45465886400598E-12  2.81344641806383E-01
 cg2d: Sum(rhs),rhsMax =  -4.61342075652738E-12  2.74226021755843E-01
 cg2d: Sum(rhs),rhsMax =  -4.77895500949899E-12  2.66993985800744E-01
 cg2d: Sum(rhs),rhsMax =  -4.96402918770400E-12  2.59651250982535E-01
 cg2d: Sum(rhs),rhsMax =  -5.16631182279070E-12  2.52200590366429E-01
 cg2d: Sum(rhs),rhsMax =  -5.34472466284797E-12  2.44644824629121E-01
 cg2d: Sum(rhs),rhsMax =  -5.56188428646465E-12  2.36986814480952E-01
 cg2d: Sum(rhs),rhsMax =  -5.82922599079438E-12  2.29229454409474E-01
 cg2d: Sum(rhs),rhsMax =  -6.06603656194693E-12  2.21375668238420E-01
 cg2d: Sum(rhs),rhsMax =  -6.34581276415247E-12  2.13428406354460E-01
 cg2d: Sum(rhs),rhsMax =  -6.70763444787781E-12  2.05390644480744E-01
 cg2d: Sum(rhs),rhsMax =  -7.04813984953034E-12  1.97265383779671E-01
 cg2d: Sum(rhs),rhsMax =  -7.46380734995000E-12  1.89055652040805E-01
 cg2d: Sum(rhs),rhsMax =  -7.87214737840713E-12  1.80764506137297E-01
 cg2d: Sum(rhs),rhsMax =  -8.34055047249649E-12  1.72395035294225E-01
 cg2d: Sum(rhs),rhsMax =  -8.86146711565061E-12  1.63950364985439E-01
 cg2d: Sum(rhs),rhsMax =  -9.38549238327369E-12  1.55433660848957E-01
 cg2d: Sum(rhs),rhsMax =  -9.95903359779504E-12  1.46848132959684E-01
 cg2d: Sum(rhs),rhsMax =  -1.06266107025021E-11  1.38197039461935E-01
 cg2d: Sum(rhs),rhsMax =  -1.13868914297655E-11  1.29483689904700E-01
 cg2d: Sum(rhs),rhsMax =  -1.22377663558382E-11  1.20711447908303E-01
 cg2d: Sum(rhs),rhsMax =  -1.32511779327160E-11  1.11883733387343E-01
 cg2d: Sum(rhs),rhsMax =  -1.42897915722529E-11  1.04021241679279E-01
 cg2d: Sum(rhs),rhsMax =  -1.44046996553016E-11  1.03691358445623E-01
 cg2d: Sum(rhs),rhsMax =  -1.45039535937030E-11  1.03342505877853E-01
 cg2d: Sum(rhs),rhsMax =  -1.45859990752228E-11  1.02982413550565E-01
 cg2d: Sum(rhs),rhsMax =  -1.46777034970569E-11  1.02606832331446E-01
 cg2d: Sum(rhs),rhsMax =  -1.47690748519835E-11  1.02200776920026E-01
 cg2d: Sum(rhs),rhsMax =  -1.48847045799982E-11  1.01763909492900E-01
 cg2d: Sum(rhs),rhsMax =  -1.49946166594361E-11  1.01301909745023E-01
 cg2d: Sum(rhs),rhsMax =  -1.51103018986021E-11  1.00823685358540E-01
 cg2d: Sum(rhs),rhsMax =  -1.52318713197985E-11  1.00338973107231E-01
 cg2d: Sum(rhs),rhsMax =  -1.53698859195472E-11  9.98447421690216E-02
 cg2d: Sum(rhs),rhsMax =  -1.54110231520566E-11  9.98051805468429E-02
 cg2d: Sum(rhs),rhsMax =  -1.54481288872077E-11  9.99288583498550E-02
 cg2d: Sum(rhs),rhsMax =  -1.54852242140180E-11  1.00053211298847E-01
 cg2d: Sum(rhs),rhsMax =  -1.55397639201027E-11  1.00179717199536E-01
 cg2d: Sum(rhs),rhsMax =  -1.52771684192032E-11  1.02062357737242E-01
 cg2d: Sum(rhs),rhsMax =  -1.40235045797965E-11  1.11688377835901E-01
 cg2d: Sum(rhs),rhsMax =  -1.29466992682126E-11  1.21356394790608E-01
 cg2d: Sum(rhs),rhsMax =  -1.19862453296093E-11  1.31158635843748E-01
 cg2d: Sum(rhs),rhsMax =  -1.12079234781959E-11  1.41006002466027E-01
 cg2d: Sum(rhs),rhsMax =  -1.04695141445177E-11  1.51018216245145E-01
 cg2d: Sum(rhs),rhsMax =  -9.86111192702310E-12  1.61179709101677E-01
 cg2d: Sum(rhs),rhsMax =  -9.31132948522873E-12  1.71309454197517E-01
 cg2d: Sum(rhs),rhsMax =  -8.83426665154730E-12  1.81372061037516E-01
 cg2d: Sum(rhs),rhsMax =  -8.47932835057463E-12  1.91363773711913E-01
 cg2d: Sum(rhs),rhsMax =  -8.12128142513302E-12  2.01280881388221E-01
 cg2d: Sum(rhs),rhsMax =  -7.81186226816999E-12  2.11119718237997E-01
 cg2d: Sum(rhs),rhsMax =  -7.53241913287184E-12  2.20876663232624E-01
 cg2d: Sum(rhs),rhsMax =  -7.25919324651159E-12  2.30548139858092E-01
 cg2d: Sum(rhs),rhsMax =  -7.01760871635315E-12  2.40130615838553E-01
 cg2d: Sum(rhs),rhsMax =  -6.78224143513262E-12  2.49620602984862E-01
 cg2d: Sum(rhs),rhsMax =  -6.56463772230609E-12  2.59014657291777E-01
 cg2d: Sum(rhs),rhsMax =  -6.41320330174722E-12  2.68309379403107E-01
 cg2d: Sum(rhs),rhsMax =  -6.22946139117175E-12  2.77501415532722E-01
 cg2d: Sum(rhs),rhsMax =  -6.07036643174297E-12  2.86587458898937E-01
 cg2d: Sum(rhs),rhsMax =  -5.92759175077617E-12  2.95564251702746E-01
 cg2d: Sum(rhs),rhsMax =  -5.76727554602030E-12  3.04428587627416E-01
 cg2d: Sum(rhs),rhsMax =  -5.61761748230083E-12  3.13177314800293E-01
 cg2d: Sum(rhs),rhsMax =  -5.51414469640576E-12  3.21807339102664E-01
 cg2d: Sum(rhs),rhsMax =  -5.45563594300802E-12  3.30315627670887E-01
 cg2d: Sum(rhs),rhsMax =  -5.44164713289774E-12  3.38699212409094E-01
 cg2d: Sum(rhs),rhsMax =  -5.38658007087633E-12  3.46955193309384E-01
 cg2d: Sum(rhs),rhsMax =  -5.35038680027355E-12  3.55080741365000E-01
 cg2d: Sum(rhs),rhsMax =  -5.31141797210921E-12  3.63073100908453E-01
 cg2d: Sum(rhs),rhsMax =  -5.28788124398716E-12  3.70929591239800E-01
 cg2d: Sum(rhs),rhsMax =  -5.25457455324840E-12  3.78647607470944E-01
 cg2d: Sum(rhs),rhsMax =  -5.18995957321522E-12  3.86224620532924E-01
 cg2d: Sum(rhs),rhsMax =  -5.19229104156693E-12  3.93658176408682E-01
 cg2d: Sum(rhs),rhsMax =  -5.14399633999574E-12  4.00945894605305E-01
 cg2d: Sum(rhs),rhsMax =  -5.11413134063332E-12  4.08085465963241E-01
 cg2d: Sum(rhs),rhsMax =  -5.08948438948664E-12  4.15074649955240E-01
 cg2d: Sum(rhs),rhsMax =  -5.05540054263065E-12  4.21911271642648E-01
 cg2d: Sum(rhs),rhsMax =  -5.04174479942776E-12  4.28593218464118E-01
 cg2d: Sum(rhs),rhsMax =  -5.03619368430464E-12  4.35118437014081E-01
 cg2d: Sum(rhs),rhsMax =  -5.01076957704072E-12  4.41484929923242E-01
 cg2d: Sum(rhs),rhsMax =  -4.98134866688815E-12  4.47690752994714E-01
 cg2d: Sum(rhs),rhsMax =  -4.96058749632766E-12  4.53734012728113E-01
 cg2d: Sum(rhs),rhsMax =  -4.94693175312477E-12  4.59612864105832E-01
 cg2d: Sum(rhs),rhsMax =  -5.00954833171363E-12  4.65325508849714E-01
 cg2d: Sum(rhs),rhsMax =  -5.04030150949575E-12  4.70870194015708E-01
 cg2d: Sum(rhs),rhsMax =  -5.07072162037048E-12  4.76245210855135E-01
 cg2d: Sum(rhs),rhsMax =  -5.11291009530623E-12  4.81448893939075E-01
 cg2d: Sum(rhs),rhsMax =  -5.14943643281640E-12  4.86479620528251E-01
 cg2d: Sum(rhs),rhsMax =  -5.18518561420933E-12  4.91335810127160E-01
 cg2d: Sum(rhs),rhsMax =  -5.22926146828695E-12  4.96015924164597E-01
 cg2d: Sum(rhs),rhsMax =  -5.25368637482870E-12  5.00518465758199E-01
 cg2d: Sum(rhs),rhsMax =  -5.28910248931425E-12  5.04841979576315E-01
 cg2d: Sum(rhs),rhsMax =  -5.30875343685011E-12  5.08985051833612E-01
 cg2d: Sum(rhs),rhsMax =  -5.34117194916917E-12  5.12946310113085E-01
 cg2d: Sum(rhs),rhsMax =  -5.35660404921146E-12  5.16724423408142E-01
 cg2d: Sum(rhs),rhsMax =  -5.40356648315310E-12  5.20318102489153E-01
 cg2d: Sum(rhs),rhsMax =  -5.43454170554014E-12  5.23726100460605E-01
 cg2d: Sum(rhs),rhsMax =  -5.46807044088382E-12  5.26947213452800E-01
 cg2d: Sum(rhs),rhsMax =  -5.59230439733938E-12  5.29980281752764E-01
 cg2d: Sum(rhs),rhsMax =  -5.61684032618359E-12  5.32824191346285E-01
 cg2d: Sum(rhs),rhsMax =  -5.60163027074623E-12  5.35477875911841E-01
 cg2d: Sum(rhs),rhsMax =  -5.69977398612309E-12  5.37940319310057E-01
 cg2d: Sum(rhs),rhsMax =  -5.74396086250317E-12  5.40210558433617E-01
 cg2d: Sum(rhs),rhsMax =  -5.78670444895124E-12  5.42287686825876E-01
 cg2d: Sum(rhs),rhsMax =  -5.84310377860220E-12  5.44170858654619E-01
 cg2d: Sum(rhs),rhsMax =  -5.79758463459257E-12  5.45859292984573E-01
 cg2d: Sum(rhs),rhsMax =  -5.80890890944374E-12  5.47352278274536E-01
 cg2d: Sum(rhs),rhsMax =  -5.83766368578154E-12  5.48649176998016E-01
 cg2d: Sum(rhs),rhsMax =  -5.83311177138057E-12  5.49749430249229E-01
 cg2d: Sum(rhs),rhsMax =  -5.82733861165252E-12  5.50652562164177E-01
 cg2d: Sum(rhs),rhsMax =  -5.85342885273121E-12  5.51358184177680E-01
 cg2d: Sum(rhs),rhsMax =  -5.81168446700531E-12  5.51865998313665E-01
 cg2d: Sum(rhs),rhsMax =  -5.81801273824567E-12  5.52175799799408E-01
 cg2d: Sum(rhs),rhsMax =  -5.85664849950263E-12  5.52287478844035E-01
 cg2d: Sum(rhs),rhsMax =  -5.92359494788752E-12  5.52201021069015E-01
 cg2d: Sum(rhs),rhsMax =  -5.90316684423442E-12  5.51916507181316E-01
 cg2d: Sum(rhs),rhsMax =  -5.92681459465894E-12  5.51434111802403E-01
 cg2d: Sum(rhs),rhsMax =  -5.97710769767446E-12  5.50754100739442E-01
 cg2d: Sum(rhs),rhsMax =  -6.03850303093623E-12  5.49876826939885E-01
 cg2d: Sum(rhs),rhsMax =  -6.09368111526010E-12  5.48802725341359E-01
 cg2d: Sum(rhs),rhsMax =  -6.11199979516641E-12  5.47532306855419E-01
 cg2d: Sum(rhs),rhsMax =  -6.07758288140303E-12  5.46066151262869E-01
 cg2d: Sum(rhs),rhsMax =  -6.02584648845550E-12  5.44404900552283E-01
 cg2d: Sum(rhs),rhsMax =  -6.02318195319640E-12  5.42549252454216E-01
 cg2d: Sum(rhs),rhsMax =  -6.01640959274619E-12  5.40499954300738E-01
 cg2d: Sum(rhs),rhsMax =  -6.01452221360432E-12  5.38257795897104E-01
 cg2d: Sum(rhs),rhsMax =  -6.04216676691749E-12  5.35823603537854E-01
 cg2d: Sum(rhs),rhsMax =  -6.08146866198922E-12  5.33198235454803E-01
 cg2d: Sum(rhs),rhsMax =  -6.10012040880292E-12  5.30382578341488E-01
 cg2d: Sum(rhs),rhsMax =  -6.11366512970335E-12  5.27377545559992E-01
 cg2d: Sum(rhs),rhsMax =  -6.12543349376438E-12  5.24184076686980E-01
 cg2d: Sum(rhs),rhsMax =  -6.18483042558182E-12  5.20803138700360E-01
 cg2d: Sum(rhs),rhsMax =  -6.14719386504703E-12  5.17235728074524E-01
 cg2d: Sum(rhs),rhsMax =  -6.17161877158878E-12  5.13482873057210E-01
 cg2d: Sum(rhs),rhsMax =  -6.22657481130773E-12  5.09545637330117E-01
 cg2d: Sum(rhs),rhsMax =  -6.22746298972743E-12  5.05425124416065E-01
 cg2d: Sum(rhs),rhsMax =  -6.23534557320227E-12  5.01122482707627E-01
 cg2d: Sum(rhs),rhsMax =  -6.23079365880130E-12  4.96638910673476E-01
 cg2d: Sum(rhs),rhsMax =  -6.24555962502882E-12  4.91975661863081E-01
 cg2d: Sum(rhs),rhsMax =  -6.26065865816372E-12  4.87134049430296E-01
 cg2d: Sum(rhs),rhsMax =  -6.25322016389873E-12  4.82115449992700E-01
 cg2d: Sum(rhs),rhsMax =  -6.24489349121404E-12  4.76921306717526E-01
 cg2d: Sum(rhs),rhsMax =  -6.26676488479916E-12  4.71553130899598E-01
 cg2d: Sum(rhs),rhsMax =  -6.26476648335483E-12  4.66012503933783E-01
 cg2d: Sum(rhs),rhsMax =  -6.22557561058557E-12  4.60301078552001E-01
 cg2d: Sum(rhs),rhsMax =  -6.23856521997368E-12  4.54420578890556E-01
 cg2d: Sum(rhs),rhsMax =  -6.27620178050847E-12  4.48372799494256E-01
 cg2d: Sum(rhs),rhsMax =  -6.30961949354969E-12  4.42159604073681E-01
 cg2d: Sum(rhs),rhsMax =  -6.35624886058395E-12  4.35782924299751E-01
 cg2d: Sum(rhs),rhsMax =  -6.37623287502720E-12  4.29244758832788E-01
 cg2d: Sum(rhs),rhsMax =  -6.38566977073651E-12  4.22547172516178E-01
 cg2d: Sum(rhs),rhsMax =  -6.45583586589282E-12  4.15692295914754E-01
 cg2d: Sum(rhs),rhsMax =  -6.49180709189068E-12  4.08682326711860E-01
 cg2d: Sum(rhs),rhsMax =  -6.54898357765887E-12  4.01519531383208E-01
 cg2d: Sum(rhs),rhsMax =  -6.59006182957000E-12  3.94206247395217E-01
 cg2d: Sum(rhs),rhsMax =  -6.62547794405555E-12  3.86744886131000E-01
 cg2d: Sum(rhs),rhsMax =  -6.68654021040993E-12  3.79137936585043E-01
 cg2d: Sum(rhs),rhsMax =  -6.72673028390136E-12  3.71387969768968E-01
 cg2d: Sum(rhs),rhsMax =  -6.80910883232855E-12  3.63497643718193E-01
 cg2d: Sum(rhs),rhsMax =  -6.85296264180124E-12  3.55469708059338E-01
 cg2d: Sum(rhs),rhsMax =  -6.91935397867383E-12  3.47307008768020E-01
 cg2d: Sum(rhs),rhsMax =  -6.98763269468827E-12  3.39012492629757E-01
 cg2d: Sum(rhs),rhsMax =  -7.09265979281781E-12  3.30589210765274E-01
 cg2d: Sum(rhs),rhsMax =  -7.22299997590881E-12  3.22040321094408E-01
 cg2d: Sum(rhs),rhsMax =  -7.37021554897410E-12  3.13369089466316E-01
 cg2d: Sum(rhs),rhsMax =  -7.49222905938041E-12  3.04578889474815E-01
 cg2d: Sum(rhs),rhsMax =  -7.70195018873210E-12  2.95673201146455E-01
 cg2d: Sum(rhs),rhsMax =  -7.88658027772726E-12  2.86655608238621E-01
 cg2d: Sum(rhs),rhsMax =  -8.07076627751258E-12  2.77529794217218E-01
 cg2d: Sum(rhs),rhsMax =  -8.28681567810463E-12  2.68299536708134E-01
 cg2d: Sum(rhs),rhsMax =  -8.54394333060782E-12  2.58968701361832E-01
 cg2d: Sum(rhs),rhsMax =  -8.77620198735940E-12  2.49541235296787E-01
 cg2d: Sum(rhs),rhsMax =  -9.04343266938668E-12  2.40021160302850E-01
 cg2d: Sum(rhs),rhsMax =  -9.37772082210131E-12  2.30412566056506E-01
 cg2d: Sum(rhs),rhsMax =  -9.69974101039384E-12  2.20719603726276E-01
 cg2d: Sum(rhs),rhsMax =  -1.00465746832867E-11  2.10946480021086E-01
 cg2d: Sum(rhs),rhsMax =  -1.04503627973429E-11  2.01097452036085E-01
 cg2d: Sum(rhs),rhsMax =  -1.09075526388835E-11  1.91176823132368E-01
 cg2d: Sum(rhs),rhsMax =  -1.14084297564432E-11  1.81188939926535E-01
 cg2d: Sum(rhs),rhsMax =  -1.15749076989857E-11  1.76891325795129E-01
 cg2d: Sum(rhs),rhsMax =  -1.14652731753040E-11  1.77310174864410E-01
 cg2d: Sum(rhs),rhsMax =  -1.13215548047663E-11  1.77721424176620E-01
 cg2d: Sum(rhs),rhsMax =  -1.11874953745428E-11  1.78123386735546E-01
 cg2d: Sum(rhs),rhsMax =  -1.10628728400286E-11  1.78534568278941E-01
 cg2d: Sum(rhs),rhsMax =  -1.09431630423984E-11  1.78957289039692E-01
 cg2d: Sum(rhs),rhsMax =  -1.08093672901433E-11  1.79394063559309E-01
 cg2d: Sum(rhs),rhsMax =  -1.06725808746155E-11  1.79814820820699E-01
 cg2d: Sum(rhs),rhsMax =  -1.05264928718096E-11  1.80234261116122E-01
 cg2d: Sum(rhs),rhsMax =  -1.03924785443965E-11  1.80669676711796E-01
 cg2d: Sum(rhs),rhsMax =  -1.02556158010358E-11  1.81103799143901E-01
 cg2d: Sum(rhs),rhsMax =  -1.01186281575849E-11  1.81544058730314E-01
 cg2d: Sum(rhs),rhsMax =  -9.98048865774592E-12  1.81998600410496E-01
 cg2d: Sum(rhs),rhsMax =  -9.85281300991403E-12  1.82467277623095E-01
 cg2d: Sum(rhs),rhsMax =  -9.68802815748404E-12  1.82937456318224E-01
 cg2d: Sum(rhs),rhsMax =  -9.52943279841634E-12  1.83411528631072E-01
 cg2d: Sum(rhs),rhsMax =  -9.47830702813235E-12  1.83893037908752E-01
 cg2d: Sum(rhs),rhsMax =  -9.37910860088209E-12  1.84368325893953E-01
 cg2d: Sum(rhs),rhsMax =  -9.26864140993189E-12  1.84830145186202E-01
 cg2d: Sum(rhs),rhsMax =  -9.15589826178120E-12  1.85279390967607E-01
 cg2d: Sum(rhs),rhsMax =  -9.03199737223304E-12  1.85706371317467E-01
 cg2d: Sum(rhs),rhsMax =  -8.91930973523358E-12  1.86115502803208E-01
 cg2d: Sum(rhs),rhsMax =  -8.80084893850608E-12  1.86506627805063E-01
 cg2d: Sum(rhs),rhsMax =  -8.66684501943382E-12  1.86867917239669E-01
 cg2d: Sum(rhs),rhsMax =  -8.54194492916349E-12  1.87181452084265E-01
 cg2d: Sum(rhs),rhsMax =  -8.46533954046436E-12  1.87437843523280E-01
 cg2d: Sum(rhs),rhsMax =  -8.38129565750023E-12  1.87646819297512E-01
 cg2d: Sum(rhs),rhsMax =  -8.23208168299061E-12  1.87816597806012E-01
 cg2d: Sum(rhs),rhsMax =  -8.13948908273687E-12  1.87923350432156E-01
 cg2d: Sum(rhs),rhsMax =  -8.06088529259341E-12  1.87990439691477E-01
 cg2d: Sum(rhs),rhsMax =  -7.96929189306184E-12  1.87993161862083E-01
 cg2d: Sum(rhs),rhsMax =  -7.87359066833915E-12  1.87960428155114E-01
 cg2d: Sum(rhs),rhsMax =  -7.49567075075674E-12  1.95054808904452E-01
 cg2d: Sum(rhs),rhsMax =  -7.14250880662348E-12  2.02305386372540E-01
 cg2d: Sum(rhs),rhsMax =  -6.82909284677180E-12  2.09471442412849E-01
 cg2d: Sum(rhs),rhsMax =  -6.52400355960481E-12  2.16551016143852E-01
 cg2d: Sum(rhs),rhsMax =  -6.26498852795976E-12  2.23542137440607E-01
 cg2d: Sum(rhs),rhsMax =  -5.96789284657007E-12  2.30442817253421E-01
 cg2d: Sum(rhs),rhsMax =  -5.74107428263915E-12  2.37251040005106E-01
 cg2d: Sum(rhs),rhsMax =  -5.49582601649945E-12  2.43964758148258E-01
 cg2d: Sum(rhs),rhsMax =  -5.29776222890632E-12  2.50581888560221E-01
 cg2d: Sum(rhs),rhsMax =  -5.10236297657229E-12  2.57100310525476E-01
 cg2d: Sum(rhs),rhsMax =  -4.89586149399202E-12  2.63517865157663E-01
 cg2d: Sum(rhs),rhsMax =  -4.70690153520081E-12  2.69832356065607E-01
 cg2d: Sum(rhs),rhsMax =  -4.56168436357984E-12  2.76041551253269E-01
 cg2d: Sum(rhs),rhsMax =  -4.40736336315695E-12  2.82143186277106E-01
 cg2d: Sum(rhs),rhsMax =  -4.28190816137430E-12  2.88134992649073E-01
 cg2d: Sum(rhs),rhsMax =  -4.11481959616822E-12  2.94014644819021E-01
 cg2d: Sum(rhs),rhsMax =  -3.98836519366341E-12  2.99779794237220E-01
 cg2d: Sum(rhs),rhsMax =  -3.88433729625604E-12  3.05428092074928E-01
 cg2d: Sum(rhs),rhsMax =  -3.72302189077800E-12  3.10957197833189E-01
 cg2d: Sum(rhs),rhsMax =  -3.57003315798465E-12  3.16364780453369E-01
 cg2d: Sum(rhs),rhsMax =  -3.42836870004248E-12  3.22326750343231E-01
 cg2d: Sum(rhs),rhsMax =  -3.27682325718115E-12  3.29175354907067E-01
 cg2d: Sum(rhs),rhsMax =  -3.11006775888245E-12  3.35858126246224E-01
 cg2d: Sum(rhs),rhsMax =  -2.98083779881608E-12  3.42371884608600E-01
 cg2d: Sum(rhs),rhsMax =  -2.83340018114586E-12  3.48713460354385E-01
 cg2d: Sum(rhs),rhsMax =  -2.74502642838570E-12  3.54879698551853E-01
 cg2d: Sum(rhs),rhsMax =  -2.61635157983164E-12  3.60867464913310E-01
 cg2d: Sum(rhs),rhsMax =  -2.53042031772566E-12  3.66673652963330E-01
 cg2d: Sum(rhs),rhsMax =  -2.42295072894194E-12  3.72295192344456E-01
 cg2d: Sum(rhs),rhsMax =  -2.32724950421925E-12  3.77729057888582E-01
 cg2d: Sum(rhs),rhsMax =  -2.23732143922462E-12  3.82972279512222E-01
 cg2d: Sum(rhs),rhsMax =  -2.17625917287023E-12  3.88021952481935E-01
 cg2d: Sum(rhs),rhsMax =  -2.07045491862345E-12  3.92875247921128E-01
 cg2d: Sum(rhs),rhsMax =  -1.99151806157261E-12  3.97529423443285E-01
 cg2d: Sum(rhs),rhsMax =  -1.92124094411383E-12  4.01981833689649E-01
 cg2d: Sum(rhs),rhsMax =  -1.80688797257744E-12  4.06229940581092E-01
 cg2d: Sum(rhs),rhsMax =  -1.71462843923109E-12  4.10271323208573E-01
 cg2d: Sum(rhs),rhsMax =  -1.61015645261386E-12  4.14103687006700E-01
 cg2d: Sum(rhs),rhsMax =  -1.56075152801805E-12  4.17724871975166E-01
 cg2d: Sum(rhs),rhsMax =  -1.45861100975253E-12  4.21132860151186E-01
 cg2d: Sum(rhs),rhsMax =  -1.43840495070435E-12  4.24325782147690E-01
 cg2d: Sum(rhs),rhsMax =  -1.35380595622792E-12  4.27301922337949E-01
 cg2d: Sum(rhs),rhsMax =  -1.30973010215030E-12  4.30059722971678E-01
 cg2d: Sum(rhs),rhsMax =  -1.29629640355233E-12  4.32597787078235E-01
 cg2d: Sum(rhs),rhsMax =  -1.23745458324720E-12  4.34914880138207E-01
 cg2d: Sum(rhs),rhsMax =  -1.22124532708767E-12  4.37009930544209E-01
 cg2d: Sum(rhs),rhsMax =  -1.09035003248437E-12  4.38882028844786E-01
 cg2d: Sum(rhs),rhsMax =  -1.04161124170332E-12  4.40530426252376E-01
 cg2d: Sum(rhs),rhsMax =  -1.00719432793994E-12  4.41954532158943E-01
 cg2d: Sum(rhs),rhsMax =  -9.70890035034699E-13  4.43153910846766E-01
 cg2d: Sum(rhs),rhsMax =  -9.20818976624105E-13  4.44128277617370E-01
 cg2d: Sum(rhs),rhsMax =  -7.86370968341998E-13  4.44877494576553E-01
 cg2d: Sum(rhs),rhsMax =  -7.50066675436756E-13  4.45401566308777E-01
 cg2d: Sum(rhs),rhsMax =  -8.13904499352702E-13  4.45700635862387E-01
 cg2d: Sum(rhs),rhsMax =  -8.58091375732783E-13  4.45774980700767E-01
 cg2d: Sum(rhs),rhsMax =  -8.71080985120898E-13  4.45625009097001E-01
 cg2d: Sum(rhs),rhsMax =  -8.92730334101088E-13  4.45251256678936E-01
 cg2d: Sum(rhs),rhsMax =  -9.22484311161043E-13  4.44654384642816E-01
 cg2d: Sum(rhs),rhsMax =  -9.19597731297017E-13  4.43835178787484E-01
 cg2d: Sum(rhs),rhsMax =  -9.76108083250438E-13  4.42794548974004E-01
 cg2d: Sum(rhs),rhsMax =  -1.04305453163533E-12  4.41533528953433E-01
 cg2d: Sum(rhs),rhsMax =  -1.13675735491370E-12  4.40053276589043E-01
 cg2d: Sum(rhs),rhsMax =  -1.16762155499828E-12  4.38355073836882E-01
 cg2d: Sum(rhs),rhsMax =  -1.21258558749560E-12  4.36440328097908E-01
 cg2d: Sum(rhs),rhsMax =  -1.28774768626272E-12  4.34310573436657E-01
 cg2d: Sum(rhs),rhsMax =  -1.35091937636389E-12  4.31967472284913E-01
 cg2d: Sum(rhs),rhsMax =  -1.41120448660104E-12  4.29412814495605E-01
 cg2d: Sum(rhs),rhsMax =  -1.49280587891099E-12  4.26648516224391E-01
 cg2d: Sum(rhs),rhsMax =  -1.58861812593614E-12  4.23676618443332E-01
 cg2d: Sum(rhs),rhsMax =  -1.70796710108334E-12  4.20499285028365E-01
 cg2d: Sum(rhs),rhsMax =  -1.81565873447198E-12  4.17118799528726E-01
 cg2d: Sum(rhs),rhsMax =  -1.93789428948321E-12  4.13537561159148E-01
 cg2d: Sum(rhs),rhsMax =  -2.03714822788470E-12  4.09758081023416E-01
 cg2d: Sum(rhs),rhsMax =  -2.09166017839379E-12  4.05782975237533E-01
 cg2d: Sum(rhs),rhsMax =  -2.12652118136702E-12  4.01614957971070E-01
 cg2d: Sum(rhs),rhsMax =  -2.20357065927601E-12  3.97256834219962E-01
 cg2d: Sum(rhs),rhsMax =  -2.27040608535845E-12  3.92711491685492E-01
 cg2d: Sum(rhs),rhsMax =  -2.36810571152546E-12  3.87981892479447E-01
 cg2d: Sum(rhs),rhsMax =  -2.44049225273102E-12  3.83071064714714E-01
 cg2d: Sum(rhs),rhsMax =  -2.51298981623904E-12  3.77982094073296E-01
 cg2d: Sum(rhs),rhsMax =  -2.59003929414803E-12  3.72718115490368E-01
 cg2d: Sum(rhs),rhsMax =  -2.68407518433378E-12  3.67282305138776E-01
 cg2d: Sum(rhs),rhsMax =  -2.79942735659233E-12  3.61677872920423E-01
 cg2d: Sum(rhs),rhsMax =  -2.90389934320956E-12  3.55908054899739E-01
 cg2d: Sum(rhs),rhsMax =  -3.00481861614799E-12  3.49976108140072E-01
 cg2d: Sum(rhs),rhsMax =  -3.13482573233159E-12  3.43885306418324E-01
 cg2d: Sum(rhs),rhsMax =  -3.26316751397826E-12  3.37638936298340E-01
 cg2d: Sum(rhs),rhsMax =  -3.38762351503874E-12  3.31240294296649E-01
 cg2d: Sum(rhs),rhsMax =  -3.51763063122235E-12  3.24692685313186E-01
 cg2d: Sum(rhs),rhsMax =  -3.70692365692094E-12  3.17999422359616E-01
 cg2d: Sum(rhs),rhsMax =  -3.85280696235668E-12  3.11318396903569E-01
 cg2d: Sum(rhs),rhsMax =  -4.00979249803868E-12  3.05756017389883E-01
 cg2d: Sum(rhs),rhsMax =  -4.11715106451993E-12  3.00065824874003E-01
 cg2d: Sum(rhs),rhsMax =  -4.22761825547013E-12  2.94249829905883E-01
 cg2d: Sum(rhs),rhsMax =  -4.32209823486573E-12  2.88310123516515E-01
 cg2d: Sum(rhs),rhsMax =  -4.60098625865157E-12  2.82248875634206E-01
 cg2d: Sum(rhs),rhsMax =  -4.75097738927843E-12  2.76068333121429E-01
 cg2d: Sum(rhs),rhsMax =  -4.91484630771311E-12  2.69770816988310E-01
 cg2d: Sum(rhs),rhsMax =  -5.08637576501769E-12  2.63358720080604E-01
 cg2d: Sum(rhs),rhsMax =  -5.23436849420023E-12  2.56834504819931E-01
 cg2d: Sum(rhs),rhsMax =  -5.43132205876873E-12  2.50200701881249E-01
 cg2d: Sum(rhs),rhsMax =  -5.63804558595393E-12  2.43459909702766E-01
 cg2d: Sum(rhs),rhsMax =  -5.84399195702190E-12  2.36614794446982E-01
 cg2d: Sum(rhs),rhsMax =  -6.00086647040143E-12  2.29668089741765E-01
 cg2d: Sum(rhs),rhsMax =  -5.95856697316322E-12  2.32176735298386E-01
 cg2d: Sum(rhs),rhsMax =  -4.02688993261791E-12  3.42856368438758E-01
 cg2d: Sum(rhs),rhsMax =  -2.53341791989214E-12  5.50390613342427E-01
 cg2d: Sum(rhs),rhsMax =  -1.62680979798324E-12  8.71155695686523E-01
 cg2d: Sum(rhs),rhsMax =  -6.97816804340334E-13  1.99297147750374E+00
 cg2d: Sum(rhs),rhsMax =  -1.61055196956639E-13  8.00625730428199E+00
 cg2d: Sum(rhs),rhsMax =  -1.51571463713474E-14  5.18110446657222E+01
 cg2d: Sum(rhs),rhsMax =   1.97124217990452E-15  7.06750893613984E+02
 cg2d: Sum(rhs),rhsMax =  -5.70711741618634E-16  5.74443467414587E+04
 cg2d: Sum(rhs),rhsMax =  -5.33753672678692E-16  1.17733342189071E+15
 cg2d: Sum(rhs),rhsMax =  -5.58564261960832E-17  5.09157283445714E+62
 cg2d: Sum(rhs),rhsMax =   3.50362149520865E-16  2.43813261767182+298
(PID.TID 0000.0001)      cg2d_init_res =   1.24348582540896E+00
(PID.TID 0000.0001)      cg2d_iters(min,last) =      -1      37
(PID.TID 0000.0001)      cg2d_last_res =   9.76809069275272E-14
(PID.TID 0000.0001) // =======================================================
(PID.TID 0000.0001) // Begin MONITOR dynamic field statistics
(PID.TID 0000.0001) // =======================================================
(PID.TID 0000.0001) %MON time_tsnumber                =                  3360
(PID.TID 0000.0001) %MON time_secondsf                =   5.0400000000000E+04
(PID.TID 0000.0001) %MON dynstat_eta_max              =   2.5809991966266+296
(PID.TID 0000.0001) %MON dynstat_eta_min              =  -1.2408141334135+297
(PID.TID 0000.0001) %MON dynstat_eta_mean             =   6.1625420447205+280
(PID.TID 0000.0001) %MON dynstat_eta_sd               =              Infinity
(PID.TID 0000.0001) %MON dynstat_eta_del2             =              Infinity
(PID.TID 0000.0001) %MON dynstat_uvel_max             =   2.9480815699765+296
(PID.TID 0000.0001) %MON dynstat_uvel_min             =  -2.4460521115115+296
(PID.TID 0000.0001) %MON dynstat_uvel_mean            =  -4.9166518268519+291
(PID.TID 0000.0001) %MON dynstat_uvel_sd              =              Infinity
(PID.TID 0000.0001) %MON dynstat_uvel_del2            =              Infinity
(PID.TID 0000.0001) %MON dynstat_vvel_max             =   0.0000000000000E+00
(PID.TID 0000.0001) %MON dynstat_vvel_min             =   0.0000000000000E+00
(PID.TID 0000.0001) %MON dynstat_vvel_mean            =   0.0000000000000E+00
(PID.TID 0000.0001) %MON dynstat_vvel_sd              =   0.0000000000000E+00
(PID.TID 0000.0001) %MON dynstat_vvel_del2            =   0.0000000000000E+00
(PID.TID 0000.0001) %MON dynstat_wvel_max             =   8.1100071815626+295
(PID.TID 0000.0001) %MON dynstat_wvel_min             =  -8.2720942227564+295
(PID.TID 0000.0001) %MON dynstat_wvel_mean            =   2.2301187110788+277
(PID.TID 0000.0001) %MON dynstat_wvel_sd              =              Infinity
(PID.TID 0000.0001) %MON dynstat_wvel_del2            =              Infinity
(PID.TID 0000.0001) %MON dynstat_theta_max            =                   NaN
(PID.TID 0000.0001) %MON dynstat_theta_min            =                   NaN
(PID.TID 0000.0001) %MON dynstat_theta_mean           =                   NaN
(PID.TID 0000.0001) %MON dynstat_theta_sd             =                   NaN
(PID.TID 0000.0001) %MON dynstat_theta_del2           =                   NaN
(PID.TID 0000.0001) %MON dynstat_salt_max             =   3.5000000000000E+01
(PID.TID 0000.0001) %MON dynstat_salt_min             =   3.5000000000000E+01
(PID.TID 0000.0001) %MON dynstat_salt_mean            =   3.5000000000000E+01
(PID.TID 0000.0001) %MON dynstat_salt_sd              =   3.9790393202566E-13
(PID.TID 0000.0001) %MON dynstat_salt_del2            =   0.0000000000000E+00
(PID.TID 0000.0001) %MON dynstat_sst_max              =                   NaN
(PID.TID 0000.0001) %MON dynstat_sst_min              =                   NaN
(PID.TID 0000.0001) %MON dynstat_sst_mean             =                   NaN
(PID.TID 0000.0001) %MON dynstat_sst_sd               =                   NaN
(PID.TID 0000.0001) %MON dynstat_sst_del2             =                   NaN
(PID.TID 0000.0001) %MON dynstat_sss_max              =   3.5000000000000E+01
(PID.TID 0000.0001) %MON dynstat_sss_min              =   3.5000000000000E+01
(PID.TID 0000.0001) %MON dynstat_sss_mean             =   3.5000000000000E+01
(PID.TID 0000.0001) %MON dynstat_sss_sd               =   5.6843418860808E-14
(PID.TID 0000.0001) %MON dynstat_sss_del2             =   0.0000000000000E+00
(PID.TID 0000.0001) %MON forcing_qnet_max             =   0.0000000000000E+00
(PID.TID 0000.0001) %MON forcing_qnet_min             =   0.0000000000000E+00
(PID.TID 0000.0001) %MON forcing_qnet_mean            =   0.0000000000000E+00
(PID.TID 0000.0001) %MON forcing_qnet_sd              =   0.0000000000000E+00
(PID.TID 0000.0001) %MON forcing_qnet_del2            =   0.0000000000000E+00
(PID.TID 0000.0001) %MON forcing_qsw_max              =   0.0000000000000E+00
(PID.TID 0000.0001) %MON forcing_qsw_min              =   0.0000000000000E+00
(PID.TID 0000.0001) %MON forcing_qsw_mean             =   0.0000000000000E+00
(PID.TID 0000.0001) %MON forcing_qsw_sd               =   0.0000000000000E+00
(PID.TID 0000.0001) %MON forcing_qsw_del2             =   0.0000000000000E+00
(PID.TID 0000.0001) %MON forcing_empmr_max            =   0.0000000000000E+00
(PID.TID 0000.0001) %MON forcing_empmr_min            =   0.0000000000000E+00
(PID.TID 0000.0001) %MON forcing_empmr_mean           =   0.0000000000000E+00
(PID.TID 0000.0001) %MON forcing_empmr_sd             =   0.0000000000000E+00
(PID.TID 0000.0001) %MON forcing_empmr_del2           =   0.0000000000000E+00
(PID.TID 0000.0001) %MON forcing_fu_max               =   0.0000000000000E+00
(PID.TID 0000.0001) %MON forcing_fu_min               =   0.0000000000000E+00
(PID.TID 0000.0001) %MON forcing_fu_mean              =   0.0000000000000E+00
(PID.TID 0000.0001) %MON forcing_fu_sd                =   0.0000000000000E+00
(PID.TID 0000.0001) %MON forcing_fu_del2              =   0.0000000000000E+00
(PID.TID 0000.0001) %MON forcing_fv_max               =   0.0000000000000E+00
(PID.TID 0000.0001) %MON forcing_fv_min               =   0.0000000000000E+00
(PID.TID 0000.0001) %MON forcing_fv_mean              =   0.0000000000000E+00
(PID.TID 0000.0001) %MON forcing_fv_sd                =   0.0000000000000E+00
(PID.TID 0000.0001) %MON forcing_fv_del2              =   0.0000000000000E+00
(PID.TID 0000.0001) %MON advcfl_uvel_max              =   2.2110611774824+295
(PID.TID 0000.0001) %MON advcfl_vvel_max              =   0.0000000000000E+00
(PID.TID 0000.0001) %MON advcfl_wvel_max              =   1.1554265022300+297
(PID.TID 0000.0001) %MON advcfl_W_hf_max              =   1.1652487958227+297
(PID.TID 0000.0001) %MON pe_b_mean                    =              Infinity
(PID.TID 0000.0001) %MON ke_max                       =              Infinity
(PID.TID 0000.0001) %MON ke_mean                      =              Infinity
(PID.TID 0000.0001) %MON ke_vol                       =   9.5121673331316E+10
(PID.TID 0000.0001) %MON vort_r_min                   =   0.0000000000000E+00
(PID.TID 0000.0001) %MON vort_r_max                   =   0.0000000000000E+00
(PID.TID 0000.0001) %MON vort_a_mean                  =   0.0000000000000E+00
(PID.TID 0000.0001) %MON vort_a_sd                    =   0.0000000000000E+00
(PID.TID 0000.0001) %MON vort_p_mean                  =   0.0000000000000E+00
(PID.TID 0000.0001) %MON vort_p_sd                    =   0.0000000000000E+00
(PID.TID 0000.0001) %MON surfExpan_theta_mean         =                   NaN
(PID.TID 0000.0001) %MON surfExpan_salt_mean          =   1.7435944035580+279
(PID.TID 0000.0001) // =======================================================
(PID.TID 0000.0001) // End MONITOR dynamic field statistics
(PID.TID 0000.0001) // =======================================================
(PID.TID 0000.0001) // =======================================================
(PID.TID 0000.0001) // Begin OBCS MONITOR field statistics
(PID.TID 0000.0001) // =======================================================
(PID.TID 0000.0001) %MON obc_E_uVel_max               =   5.6028564143658E-01
(PID.TID 0000.0001) %MON obc_E_uVel_min               =   5.6028564143658E-01
(PID.TID 0000.0001) %MON obc_E_uVel_mean              =   5.6028564143658E-01
(PID.TID 0000.0001) %MON obc_E_uVel_sd                =   7.4505805969238E-09
(PID.TID 0000.0001) %MON obc_E_uVel_Int               =   5.6028564143658E+05
(PID.TID 0000.0001) %MON obc_W_uVel_max               =   5.6028564143658E-01
(PID.TID 0000.0001) %MON obc_W_uVel_min               =   5.6028564143658E-01
(PID.TID 0000.0001) %MON obc_W_uVel_mean              =   5.6028564143658E-01
(PID.TID 0000.0001) %MON obc_W_uVel_sd                =   7.4505805969238E-09
(PID.TID 0000.0001) %MON obc_W_uVel_Int               =   5.6028564143658E+05
(PID.TID 0000.0001) // =======================================================
(PID.TID 0000.0001) // End OBCS MONITOR field statistics
(PID.TID 0000.0001) // =======================================================
 cg2d: Sum(rhs),rhsMax =                    NaN  0.00000000000000E+00
 cg2d: Sum(rhs),rhsMax =                    NaN  0.00000000000000E+00
 cg2d: Sum(rhs),rhsMax =                    NaN  0.00000000000000E+00
 cg2d: Sum(rhs),rhsMax =                    NaN  0.00000000000000E+00
 cg2d: Sum(rhs),rhsMax =                    NaN  0.00000000000000E+00
 cg2d: Sum(rhs),rhsMax =                    NaN  0.00000000000000E+00
 cg2d: Sum(rhs),rhsMax =                    NaN  0.00000000000000E+00
 cg2d: Sum(rhs),rhsMax =                    NaN  0.00000000000000E+00
 cg2d: Sum(rhs),rhsMax =                    NaN  0.00000000000000E+00
 cg2d: Sum(rhs),rhsMax =                    NaN  0.00000000000000E+00
 cg2d: Sum(rhs),rhsMax =                    NaN  0.00000000000000E+00
 cg2d: Sum(rhs),rhsMax =                    NaN  0.00000000000000E+00
 cg2d: Sum(rhs),rhsMax =                    NaN  0.00000000000000E+00
 cg2d: Sum(rhs),rhsMax =                    NaN  0.00000000000000E+00
 cg2d: Sum(rhs),rhsMax =                    NaN  0.00000000000000E+00
 cg2d: Sum(rhs),rhsMax =                    NaN  0.00000000000000E+00
 cg2d: Sum(rhs),rhsMax =                    NaN  0.00000000000000E+00
 cg2d: Sum(rhs),rhsMax =                    NaN  0.00000000000000E+00
 cg2d: Sum(rhs),rhsMax =                    NaN  0.00000000000000E+00
 cg2d: Sum(rhs),rhsMax =                    NaN  0.00000000000000E+00
 cg2d: Sum(rhs),rhsMax =                    NaN  0.00000000000000E+00
 cg2d: Sum(rhs),rhsMax =                    NaN  0.00000000000000E+00
 cg2d: Sum(rhs),rhsMax =                    NaN  0.00000000000000E+00
 cg2d: Sum(rhs),rhsMax =                    NaN  0.00000000000000E+00
 cg2d: Sum(rhs),rhsMax =                    NaN  0.00000000000000E+00
 cg2d: Sum(rhs),rhsMax =                    NaN  0.00000000000000E+00
 cg2d: Sum(rhs),rhsMax =                    NaN  0.00000000000000E+00
 cg2d: Sum(rhs),rhsMax =                    NaN  0.00000000000000E+00
 cg2d: Sum(rhs),rhsMax =                    NaN  0.00000000000000E+00
 cg2d: Sum(rhs),rhsMax =                    NaN  0.00000000000000E+00
 cg2d: Sum(rhs),rhsMax =                    NaN  0.00000000000000E+00
 cg2d: Sum(rhs),rhsMax =                    NaN  0.00000000000000E+00
 cg2d: Sum(rhs),rhsMax =                    NaN  0.00000000000000E+00
 cg2d: Sum(rhs),rhsMax =                    NaN  0.00000000000000E+00
 cg2d: Sum(rhs),rhsMax =                    NaN  0.00000000000000E+00
 cg2d: Sum(rhs),rhsMax =                    NaN  0.00000000000000E+00
 cg2d: Sum(rhs),rhsMax =                    NaN  0.00000000000000E+00
 cg2d: Sum(rhs),rhsMax =                    NaN  0.00000000000000E+00
 cg2d: Sum(rhs),rhsMax =                    NaN  0.00000000000000E+00
 cg2d: Sum(rhs),rhsMax =                    NaN  0.00000000000000E+00
 cg2d: Sum(rhs),rhsMax =                    NaN  0.00000000000000E+00
 cg2d: Sum(rhs),rhsMax =                    NaN  0.00000000000000E+00
 cg2d: Sum(rhs),rhsMax =                    NaN  0.00000000000000E+00
 cg2d: Sum(rhs),rhsMax =                    NaN  0.00000000000000E+00
 cg2d: Sum(rhs),rhsMax =                    NaN  0.00000000000000E+00
 cg2d: Sum(rhs),rhsMax =                    NaN  0.00000000000000E+00
 cg2d: Sum(rhs),rhsMax =                    NaN  0.00000000000000E+00
 cg2d: Sum(rhs),rhsMax =                    NaN  0.00000000000000E+00
 cg2d: Sum(rhs),rhsMax =                    NaN  0.00000000000000E+00
 cg2d: Sum(rhs),rhsMax =                    NaN  0.00000000000000E+00
 cg2d: Sum(rhs),rhsMax =                    NaN  0.00000000000000E+00
 cg2d: Sum(rhs),rhsMax =                    NaN  0.00000000000000E+00
 cg2d: Sum(rhs),rhsMax =                    NaN  0.00000000000000E+00
 cg2d: Sum(rhs),rhsMax =                    NaN  0.00000000000000E+00
 cg2d: Sum(rhs),rhsMax =                    NaN  0.00000000000000E+00
 cg2d: Sum(rhs),rhsMax =                    NaN  0.00000000000000E+00
 cg2d: Sum(rhs),rhsMax =                    NaN  0.00000000000000E+00
 cg2d: Sum(rhs),rhsMax =                    NaN  0.00000000000000E+00
 cg2d: Sum(rhs),rhsMax =                    NaN  0.00000000000000E+00
 cg2d: Sum(rhs),rhsMax =                    NaN  0.00000000000000E+00
 cg2d: Sum(rhs),rhsMax =                    NaN  0.00000000000000E+00
 cg2d: Sum(rhs),rhsMax =                    NaN  0.00000000000000E+00
 cg2d: Sum(rhs),rhsMax =                    NaN  0.00000000000000E+00
 cg2d: Sum(rhs),rhsMax =                    NaN  0.00000000000000E+00
 cg2d: Sum(rhs),rhsMax =                    NaN  0.00000000000000E+00
 cg2d: Sum(rhs),rhsMax =                    NaN  0.00000000000000E+00
 cg2d: Sum(rhs),rhsMax =                    NaN  0.00000000000000E+00
 cg2d: Sum(rhs),rhsMax =                    NaN  0.00000000000000E+00
 cg2d: Sum(rhs),rhsMax =                    NaN  0.00000000000000E+00
 cg2d: Sum(rhs),rhsMax =                    NaN  0.00000000000000E+00
 cg2d: Sum(rhs),rhsMax =                    NaN  0.00000000000000E+00
 cg2d: Sum(rhs),rhsMax =                    NaN  0.00000000000000E+00
 cg2d: Sum(rhs),rhsMax =                    NaN  0.00000000000000E+00
 cg2d: Sum(rhs),rhsMax =                    NaN  0.00000000000000E+00
 cg2d: Sum(rhs),rhsMax =                    NaN  0.00000000000000E+00
 cg2d: Sum(rhs),rhsMax =                    NaN  0.00000000000000E+00
 cg2d: Sum(rhs),rhsMax =                    NaN  0.00000000000000E+00
 cg2d: Sum(rhs),rhsMax =                    NaN  0.00000000000000E+00
 cg2d: Sum(rhs),rhsMax =                    NaN  0.00000000000000E+00
 cg2d: Sum(rhs),rhsMax =                    NaN  0.00000000000000E+00
 cg2d: Sum(rhs),rhsMax =                    NaN  0.00000000000000E+00
 cg2d: Sum(rhs),rhsMax =                    NaN  0.00000000000000E+00
 cg2d: Sum(rhs),rhsMax =                    NaN  0.00000000000000E+00
 cg2d: Sum(rhs),rhsMax =                    NaN  0.00000000000000E+00
 cg2d: Sum(rhs),rhsMax =                    NaN  0.00000000000000E+00
 cg2d: Sum(rhs),rhsMax =                    NaN  0.00000000000000E+00
 cg2d: Sum(rhs),rhsMax =                    NaN  0.00000000000000E+00
 cg2d: Sum(rhs),rhsMax =                    NaN  0.00000000000000E+00
 cg2d: Sum(rhs),rhsMax =                    NaN  0.00000000000000E+00
 cg2d: Sum(rhs),rhsMax =                    NaN  0.00000000000000E+00
 cg2d: Sum(rhs),rhsMax =                    NaN  0.00000000000000E+00
 cg2d: Sum(rhs),rhsMax =                    NaN  0.00000000000000E+00
 cg2d: Sum(rhs),rhsMax =                    NaN  0.00000000000000E+00
 cg2d: Sum(rhs),rhsMax =                    NaN  0.00000000000000E+00
 cg2d: Sum(rhs),rhsMax =                    NaN  0.00000000000000E+00
 cg2d: Sum(rhs),rhsMax =                    NaN  0.00000000000000E+00
 cg2d: Sum(rhs),rhsMax =                    NaN  0.00000000000000E+00
 cg2d: Sum(rhs),rhsMax =                    NaN  0.00000000000000E+00
 cg2d: Sum(rhs),rhsMax =                    NaN  0.00000000000000E+00
 cg2d: Sum(rhs),rhsMax =                    NaN  0.00000000000000E+00
 cg2d: Sum(rhs),rhsMax =                    NaN  0.00000000000000E+00
 cg2d: Sum(rhs),rhsMax =                    NaN  0.00000000000000E+00
 cg2d: Sum(rhs),rhsMax =                    NaN  0.00000000000000E+00
 cg2d: Sum(rhs),rhsMax =                    NaN  0.00000000000000E+00
 cg2d: Sum(rhs),rhsMax =                    NaN  0.00000000000000E+00
 cg2d: Sum(rhs),rhsMax =                    NaN  0.00000000000000E+00
 cg2d: Sum(rhs),rhsMax =                    NaN  0.00000000000000E+00
 cg2d: Sum(rhs),rhsMax =                    NaN  0.00000000000000E+00
 cg2d: Sum(rhs),rhsMax =                    NaN  0.00000000000000E+00
 cg2d: Sum(rhs),rhsMax =                    NaN  0.00000000000000E+00
 cg2d: Sum(rhs),rhsMax =                    NaN  0.00000000000000E+00
 cg2d: Sum(rhs),rhsMax =                    NaN  0.00000000000000E+00
 cg2d: Sum(rhs),rhsMax =                    NaN  0.00000000000000E+00
 cg2d: Sum(rhs),rhsMax =                    NaN  0.00000000000000E+00
 cg2d: Sum(rhs),rhsMax =                    NaN  0.00000000000000E+00
 cg2d: Sum(rhs),rhsMax =                    NaN  0.00000000000000E+00
 cg2d: Sum(rhs),rhsMax =                    NaN  0.00000000000000E+00
 cg2d: Sum(rhs),rhsMax =                    NaN  0.00000000000000E+00
 cg2d: Sum(rhs),rhsMax =                    NaN  0.00000000000000E+00
 cg2d: Sum(rhs),rhsMax =                    NaN  0.00000000000000E+00
 cg2d: Sum(rhs),rhsMax =                    NaN  0.00000000000000E+00
 cg2d: Sum(rhs),rhsMax =                    NaN  0.00000000000000E+00
 cg2d: Sum(rhs),rhsMax =                    NaN  0.00000000000000E+00
 cg2d: Sum(rhs),rhsMax =                    NaN  0.00000000000000E+00
 cg2d: Sum(rhs),rhsMax =                    NaN  0.00000000000000E+00
 cg2d: Sum(rhs),rhsMax =                    NaN  0.00000000000000E+00
 cg2d: Sum(rhs),rhsMax =                    NaN  0.00000000000000E+00
 cg2d: Sum(rhs),rhsMax =                    NaN  0.00000000000000E+00
 cg2d: Sum(rhs),rhsMax =                    NaN  0.00000000000000E+00
 cg2d: Sum(rhs),rhsMax =                    NaN  0.00000000000000E+00
 cg2d: Sum(rhs),rhsMax =                    NaN  0.00000000000000E+00
 cg2d: Sum(rhs),rhsMax =                    NaN  0.00000000000000E+00
 cg2d: Sum(rhs),rhsMax =                    NaN  0.00000000000000E+00
 cg2d: Sum(rhs),rhsMax =                    NaN  0.00000000000000E+00
 cg2d: Sum(rhs),rhsMax =                    NaN  0.00000000000000E+00
 cg2d: Sum(rhs),rhsMax =                    NaN  0.00000000000000E+00
 cg2d: Sum(rhs),rhsMax =                    NaN  0.00000000000000E+00
 cg2d: Sum(rhs),rhsMax =                    NaN  0.00000000000000E+00
 cg2d: Sum(rhs),rhsMax =                    NaN  0.00000000000000E+00
 cg2d: Sum(rhs),rhsMax =                    NaN  0.00000000000000E+00
 cg2d: Sum(rhs),rhsMax =                    NaN  0.00000000000000E+00
 cg2d: Sum(rhs),rhsMax =                    NaN  0.00000000000000E+00
 cg2d: Sum(rhs),rhsMax =                    NaN  0.00000000000000E+00
 cg2d: Sum(rhs),rhsMax =                    NaN  0.00000000000000E+00
 cg2d: Sum(rhs),rhsMax =                    NaN  0.00000000000000E+00
 cg2d: Sum(rhs),rhsMax =                    NaN  0.00000000000000E+00
 cg2d: Sum(rhs),rhsMax =                    NaN  0.00000000000000E+00
 cg2d: Sum(rhs),rhsMax =                    NaN  0.00000000000000E+00
 cg2d: Sum(rhs),rhsMax =                    NaN  0.00000000000000E+00
 cg2d: Sum(rhs),rhsMax =                    NaN  0.00000000000000E+00
 cg2d: Sum(rhs),rhsMax =                    NaN  0.00000000000000E+00
 cg2d: Sum(rhs),rhsMax =                    NaN  0.00000000000000E+00
 cg2d: Sum(rhs),rhsMax =                    NaN  0.00000000000000E+00
 cg2d: Sum(rhs),rhsMax =                    NaN  0.00000000000000E+00
 cg2d: Sum(rhs),rhsMax =                    NaN  0.00000000000000E+00
 cg2d: Sum(rhs),rhsMax =                    NaN  0.00000000000000E+00
 cg2d: Sum(rhs),rhsMax =                    NaN  0.00000000000000E+00
 cg2d: Sum(rhs),rhsMax =                    NaN  0.00000000000000E+00
 cg2d: Sum(rhs),rhsMax =                    NaN  0.00000000000000E+00
 cg2d: Sum(rhs),rhsMax =                    NaN  0.00000000000000E+00
 cg2d: Sum(rhs),rhsMax =                    NaN  0.00000000000000E+00
 cg2d: Sum(rhs),rhsMax =                    NaN  0.00000000000000E+00
 cg2d: Sum(rhs),rhsMax =                    NaN  0.00000000000000E+00
 cg2d: Sum(rhs),rhsMax =                    NaN  0.00000000000000E+00
 cg2d: Sum(rhs),rhsMax =                    NaN  0.00000000000000E+00
 cg2d: Sum(rhs),rhsMax =                    NaN  0.00000000000000E+00
 cg2d: Sum(rhs),rhsMax =                    NaN  0.00000000000000E+00
 cg2d: Sum(rhs),rhsMax =                    NaN  0.00000000000000E+00
 cg2d: Sum(rhs),rhsMax =                    NaN  0.00000000000000E+00
 cg2d: Sum(rhs),rhsMax =                    NaN  0.00000000000000E+00
 cg2d: Sum(rhs),rhsMax =                    NaN  0.00000000000000E+00
 cg2d: Sum(rhs),rhsMax =                    NaN  0.00000000000000E+00
 cg2d: Sum(rhs),rhsMax =                    NaN  0.00000000000000E+00
 cg2d: Sum(rhs),rhsMax =                    NaN  0.00000000000000E+00
 cg2d: Sum(rhs),rhsMax =                    NaN  0.00000000000000E+00
 cg2d: Sum(rhs),rhsMax =                    NaN  0.00000000000000E+00
 cg2d: Sum(rhs),rhsMax =                    NaN  0.00000000000000E+00
 cg2d: Sum(rhs),rhsMax =                    NaN  0.00000000000000E+00
 cg2d: Sum(rhs),rhsMax =                    NaN  0.00000000000000E+00
 cg2d: Sum(rhs),rhsMax =                    NaN  0.00000000000000E+00
 cg2d: Sum(rhs),rhsMax =                    NaN  0.00000000000000E+00
 cg2d: Sum(rhs),rhsMax =                    NaN  0.00000000000000E+00
 cg2d: Sum(rhs),rhsMax =                    NaN  0.00000000000000E+00
 cg2d: Sum(rhs),rhsMax =                    NaN  0.00000000000000E+00
 cg2d: Sum(rhs),rhsMax =                    NaN  0.00000000000000E+00
 cg2d: Sum(rhs),rhsMax =                    NaN  0.00000000000000E+00
 cg2d: Sum(rhs),rhsMax =                    NaN  0.00000000000000E+00
 cg2d: Sum(rhs),rhsMax =                    NaN  0.00000000000000E+00
 cg2d: Sum(rhs),rhsMax =                    NaN  0.00000000000000E+00
 cg2d: Sum(rhs),rhsMax =                    NaN  0.00000000000000E+00
 cg2d: Sum(rhs),rhsMax =                    NaN  0.00000000000000E+00
 cg2d: Sum(rhs),rhsMax =                    NaN  0.00000000000000E+00
 cg2d: Sum(rhs),rhsMax =                    NaN  0.00000000000000E+00
 cg2d: Sum(rhs),rhsMax =                    NaN  0.00000000000000E+00
 cg2d: Sum(rhs),rhsMax =                    NaN  0.00000000000000E+00
 cg2d: Sum(rhs),rhsMax =                    NaN  0.00000000000000E+00
 cg2d: Sum(rhs),rhsMax =                    NaN  0.00000000000000E+00
 cg2d: Sum(rhs),rhsMax =                    NaN  0.00000000000000E+00
 cg2d: Sum(rhs),rhsMax =                    NaN  0.00000000000000E+00
 cg2d: Sum(rhs),rhsMax =                    NaN  0.00000000000000E+00
 cg2d: Sum(rhs),rhsMax =                    NaN  0.00000000000000E+00
 cg2d: Sum(rhs),rhsMax =                    NaN  0.00000000000000E+00
 cg2d: Sum(rhs),rhsMax =                    NaN  0.00000000000000E+00
 cg2d: Sum(rhs),rhsMax =                    NaN  0.00000000000000E+00
 cg2d: Sum(rhs),rhsMax =                    NaN  0.00000000000000E+00
 cg2d: Sum(rhs),rhsMax =                    NaN  0.00000000000000E+00
 cg2d: Sum(rhs),rhsMax =                    NaN  0.00000000000000E+00
 cg2d: Sum(rhs),rhsMax =                    NaN  0.00000000000000E+00
 cg2d: Sum(rhs),rhsMax =                    NaN  0.00000000000000E+00
 cg2d: Sum(rhs),rhsMax =                    NaN  0.00000000000000E+00
 cg2d: Sum(rhs),rhsMax =                    NaN  0.00000000000000E+00
 cg2d: Sum(rhs),rhsMax =                    NaN  0.00000000000000E+00
 cg2d: Sum(rhs),rhsMax =                    NaN  0.00000000000000E+00
 cg2d: Sum(rhs),rhsMax =                    NaN  0.00000000000000E+00
 cg2d: Sum(rhs),rhsMax =                    NaN  0.00000000000000E+00
 cg2d: Sum(rhs),rhsMax =                    NaN  0.00000000000000E+00
 cg2d: Sum(rhs),rhsMax =                    NaN  0.00000000000000E+00
 cg2d: Sum(rhs),rhsMax =                    NaN  0.00000000000000E+00
 cg2d: Sum(rhs),rhsMax =                    NaN  0.00000000000000E+00
 cg2d: Sum(rhs),rhsMax =                    NaN  0.00000000000000E+00
 cg2d: Sum(rhs),rhsMax =                    NaN  0.00000000000000E+00
 cg2d: Sum(rhs),rhsMax =                    NaN  0.00000000000000E+00
 cg2d: Sum(rhs),rhsMax =                    NaN  0.00000000000000E+00
 cg2d: Sum(rhs),rhsMax =                    NaN  0.00000000000000E+00
 cg2d: Sum(rhs),rhsMax =                    NaN  0.00000000000000E+00
 cg2d: Sum(rhs),rhsMax =                    NaN  0.00000000000000E+00
 cg2d: Sum(rhs),rhsMax =                    NaN  0.00000000000000E+00
 cg2d: Sum(rhs),rhsMax =                    NaN  0.00000000000000E+00
 cg2d: Sum(rhs),rhsMax =                    NaN  0.00000000000000E+00
 cg2d: Sum(rhs),rhsMax =                    NaN  0.00000000000000E+00
 cg2d: Sum(rhs),rhsMax =                    NaN  0.00000000000000E+00
 cg2d: Sum(rhs),rhsMax =                    NaN  0.00000000000000E+00
 cg2d: Sum(rhs),rhsMax =                    NaN  0.00000000000000E+00
 cg2d: Sum(rhs),rhsMax =                    NaN  0.00000000000000E+00
 cg2d: Sum(rhs),rhsMax =                    NaN  0.00000000000000E+00
 cg2d: Sum(rhs),rhsMax =                    NaN  0.00000000000000E+00
 cg2d: Sum(rhs),rhsMax =                    NaN  0.00000000000000E+00
 cg2d: Sum(rhs),rhsMax =                    NaN  0.00000000000000E+00
 cg2d: Sum(rhs),rhsMax =                    NaN  0.00000000000000E+00
 cg2d: Sum(rhs),rhsMax =                    NaN  0.00000000000000E+00
 cg2d: Sum(rhs),rhsMax =                    NaN  0.00000000000000E+00
 cg2d: Sum(rhs),rhsMax =                    NaN  0.00000000000000E+00
 cg2d: Sum(rhs),rhsMax =                    NaN  0.00000000000000E+00
 cg2d: Sum(rhs),rhsMax =                    NaN  0.00000000000000E+00
 cg2d: Sum(rhs),rhsMax =                    NaN  0.00000000000000E+00
 cg2d: Sum(rhs),rhsMax =                    NaN  0.00000000000000E+00
 cg2d: Sum(rhs),rhsMax =                    NaN  0.00000000000000E+00
 cg2d: Sum(rhs),rhsMax =                    NaN  0.00000000000000E+00
 cg2d: Sum(rhs),rhsMax =                    NaN  0.00000000000000E+00
 cg2d: Sum(rhs),rhsMax =                    NaN  0.00000000000000E+00
 cg2d: Sum(rhs),rhsMax =                    NaN  0.00000000000000E+00
 cg2d: Sum(rhs),rhsMax =                    NaN  0.00000000000000E+00
 cg2d: Sum(rhs),rhsMax =                    NaN  0.00000000000000E+00
 cg2d: Sum(rhs),rhsMax =                    NaN  0.00000000000000E+00
 cg2d: Sum(rhs),rhsMax =                    NaN  0.00000000000000E+00
 cg2d: Sum(rhs),rhsMax =                    NaN  0.00000000000000E+00
 cg2d: Sum(rhs),rhsMax =                    NaN  0.00000000000000E+00
 cg2d: Sum(rhs),rhsMax =                    NaN  0.00000000000000E+00
 cg2d: Sum(rhs),rhsMax =                    NaN  0.00000000000000E+00
 cg2d: Sum(rhs),rhsMax =                    NaN  0.00000000000000E+00
 cg2d: Sum(rhs),rhsMax =                    NaN  0.00000000000000E+00
 cg2d: Sum(rhs),rhsMax =                    NaN  0.00000000000000E+00
 cg2d: Sum(rhs),rhsMax =                    NaN  0.00000000000000E+00
 cg2d: Sum(rhs),rhsMax =                    NaN  0.00000000000000E+00
 cg2d: Sum(rhs),rhsMax =                    NaN  0.00000000000000E+00
 cg2d: Sum(rhs),rhsMax =                    NaN  0.00000000000000E+00
 cg2d: Sum(rhs),rhsMax =                    NaN  0.00000000000000E+00
 cg2d: Sum(rhs),rhsMax =                    NaN  0.00000000000000E+00
 cg2d: Sum(rhs),rhsMax =                    NaN  0.00000000000000E+00
 cg2d: Sum(rhs),rhsMax =                    NaN  0.00000000000000E+00
 cg2d: Sum(rhs),rhsMax =                    NaN  0.00000000000000E+00
 cg2d: Sum(rhs),rhsMax =                    NaN  0.00000000000000E+00
 cg2d: Sum(rhs),rhsMax =                    NaN  0.00000000000000E+00
 cg2d: Sum(rhs),rhsMax =                    NaN  0.00000000000000E+00
 cg2d: Sum(rhs),rhsMax =                    NaN  0.00000000000000E+00
 cg2d: Sum(rhs),rhsMax =                    NaN  0.00000000000000E+00
 cg2d: Sum(rhs),rhsMax =                    NaN  0.00000000000000E+00
 cg2d: Sum(rhs),rhsMax =                    NaN  0.00000000000000E+00
 cg2d: Sum(rhs),rhsMax =                    NaN  0.00000000000000E+00
 cg2d: Sum(rhs),rhsMax =                    NaN  0.00000000000000E+00
 cg2d: Sum(rhs),rhsMax =                    NaN  0.00000000000000E+00
 cg2d: Sum(rhs),rhsMax =                    NaN  0.00000000000000E+00
 cg2d: Sum(rhs),rhsMax =                    NaN  0.00000000000000E+00
 cg2d: Sum(rhs),rhsMax =                    NaN  0.00000000000000E+00
 cg2d: Sum(rhs),rhsMax =                    NaN  0.00000000000000E+00
 cg2d: Sum(rhs),rhsMax =                    NaN  0.00000000000000E+00
 cg2d: Sum(rhs),rhsMax =                    NaN  0.00000000000000E+00
 cg2d: Sum(rhs),rhsMax =                    NaN  0.00000000000000E+00
 cg2d: Sum(rhs),rhsMax =                    NaN  0.00000000000000E+00
 cg2d: Sum(rhs),rhsMax =                    NaN  0.00000000000000E+00
 cg2d: Sum(rhs),rhsMax =                    NaN  0.00000000000000E+00
 cg2d: Sum(rhs),rhsMax =                    NaN  0.00000000000000E+00
 cg2d: Sum(rhs),rhsMax =                    NaN  0.00000000000000E+00
 cg2d: Sum(rhs),rhsMax =                    NaN  0.00000000000000E+00
 cg2d: Sum(rhs),rhsMax =                    NaN  0.00000000000000E+00
 cg2d: Sum(rhs),rhsMax =                    NaN  0.00000000000000E+00
 cg2d: Sum(rhs),rhsMax =                    NaN  0.00000000000000E+00
 cg2d: Sum(rhs),rhsMax =                    NaN  0.00000000000000E+00
 cg2d: Sum(rhs),rhsMax =                    NaN  0.00000000000000E+00
 cg2d: Sum(rhs),rhsMax =                    NaN  0.00000000000000E+00
 cg2d: Sum(rhs),rhsMax =                    NaN  0.00000000000000E+00
 cg2d: Sum(rhs),rhsMax =                    NaN  0.00000000000000E+00
 cg2d: Sum(rhs),rhsMax =                    NaN  0.00000000000000E+00
 cg2d: Sum(rhs),rhsMax =                    NaN  0.00000000000000E+00
 cg2d: Sum(rhs),rhsMax =                    NaN  0.00000000000000E+00
 cg2d: Sum(rhs),rhsMax =                    NaN  0.00000000000000E+00
 cg2d: Sum(rhs),rhsMax =                    NaN  0.00000000000000E+00
 cg2d: Sum(rhs),rhsMax =                    NaN  0.00000000000000E+00
 cg2d: Sum(rhs),rhsMax =                    NaN  0.00000000000000E+00
 cg2d: Sum(rhs),rhsMax =                    NaN  0.00000000000000E+00
 cg2d: Sum(rhs),rhsMax =                    NaN  0.00000000000000E+00
 cg2d: Sum(rhs),rhsMax =                    NaN  0.00000000000000E+00
 cg2d: Sum(rhs),rhsMax =                    NaN  0.00000000000000E+00
 cg2d: Sum(rhs),rhsMax =                    NaN  0.00000000000000E+00
 cg2d: Sum(rhs),rhsMax =                    NaN  0.00000000000000E+00
 cg2d: Sum(rhs),rhsMax =                    NaN  0.00000000000000E+00
 cg2d: Sum(rhs),rhsMax =                    NaN  0.00000000000000E+00
 cg2d: Sum(rhs),rhsMax =                    NaN  0.00000000000000E+00
 cg2d: Sum(rhs),rhsMax =                    NaN  0.00000000000000E+00
 cg2d: Sum(rhs),rhsMax =                    NaN  0.00000000000000E+00
 cg2d: Sum(rhs),rhsMax =                    NaN  0.00000000000000E+00
 cg2d: Sum(rhs),rhsMax =                    NaN  0.00000000000000E+00
 cg2d: Sum(rhs),rhsMax =                    NaN  0.00000000000000E+00
 cg2d: Sum(rhs),rhsMax =                    NaN  0.00000000000000E+00
 cg2d: Sum(rhs),rhsMax =                    NaN  0.00000000000000E+00
 cg2d: Sum(rhs),rhsMax =                    NaN  0.00000000000000E+00
 cg2d: Sum(rhs),rhsMax =                    NaN  0.00000000000000E+00
 cg2d: Sum(rhs),rhsMax =                    NaN  0.00000000000000E+00
 cg2d: Sum(rhs),rhsMax =                    NaN  0.00000000000000E+00
 cg2d: Sum(rhs),rhsMax =                    NaN  0.00000000000000E+00
 cg2d: Sum(rhs),rhsMax =                    NaN  0.00000000000000E+00
 cg2d: Sum(rhs),rhsMax =                    NaN  0.00000000000000E+00
 cg2d: Sum(rhs),rhsMax =                    NaN  0.00000000000000E+00
 cg2d: Sum(rhs),rhsMax =                    NaN  0.00000000000000E+00
 cg2d: Sum(rhs),rhsMax =                    NaN  0.00000000000000E+00
 cg2d: Sum(rhs),rhsMax =                    NaN  0.00000000000000E+00
 cg2d: Sum(rhs),rhsMax =                    NaN  0.00000000000000E+00
 cg2d: Sum(rhs),rhsMax =                    NaN  0.00000000000000E+00
 cg2d: Sum(rhs),rhsMax =                    NaN  0.00000000000000E+00
 cg2d: Sum(rhs),rhsMax =                    NaN  0.00000000000000E+00
 cg2d: Sum(rhs),rhsMax =                    NaN  0.00000000000000E+00
 cg2d: Sum(rhs),rhsMax =                    NaN  0.00000000000000E+00
 cg2d: Sum(rhs),rhsMax =                    NaN  0.00000000000000E+00
 cg2d: Sum(rhs),rhsMax =                    NaN  0.00000000000000E+00
 cg2d: Sum(rhs),rhsMax =                    NaN  0.00000000000000E+00
 cg2d: Sum(rhs),rhsMax =                    NaN  0.00000000000000E+00
 cg2d: Sum(rhs),rhsMax =                    NaN  0.00000000000000E+00
 cg2d: Sum(rhs),rhsMax =                    NaN  0.00000000000000E+00
 cg2d: Sum(rhs),rhsMax =                    NaN  0.00000000000000E+00
 cg2d: Sum(rhs),rhsMax =                    NaN  0.00000000000000E+00
 cg2d: Sum(rhs),rhsMax =                    NaN  0.00000000000000E+00
 cg2d: Sum(rhs),rhsMax =                    NaN  0.00000000000000E+00
 cg2d: Sum(rhs),rhsMax =                    NaN  0.00000000000000E+00
 cg2d: Sum(rhs),rhsMax =                    NaN  0.00000000000000E+00
 cg2d: Sum(rhs),rhsMax =                    NaN  0.00000000000000E+00
 cg2d: Sum(rhs),rhsMax =                    NaN  0.00000000000000E+00
 cg2d: Sum(rhs),rhsMax =                    NaN  0.00000000000000E+00
 cg2d: Sum(rhs),rhsMax =                    NaN  0.00000000000000E+00
 cg2d: Sum(rhs),rhsMax =                    NaN  0.00000000000000E+00
 cg2d: Sum(rhs),rhsMax =                    NaN  0.00000000000000E+00
 cg2d: Sum(rhs),rhsMax =                    NaN  0.00000000000000E+00
 cg2d: Sum(rhs),rhsMax =                    NaN  0.00000000000000E+00
 cg2d: Sum(rhs),rhsMax =                    NaN  0.00000000000000E+00
 cg2d: Sum(rhs),rhsMax =                    NaN  0.00000000000000E+00
 cg2d: Sum(rhs),rhsMax =                    NaN  0.00000000000000E+00
 cg2d: Sum(rhs),rhsMax =                    NaN  0.00000000000000E+00
 cg2d: Sum(rhs),rhsMax =                    NaN  0.00000000000000E+00
 cg2d: Sum(rhs),rhsMax =                    NaN  0.00000000000000E+00
 cg2d: Sum(rhs),rhsMax =                    NaN  0.00000000000000E+00
 cg2d: Sum(rhs),rhsMax =                    NaN  0.00000000000000E+00
 cg2d: Sum(rhs),rhsMax =                    NaN  0.00000000000000E+00
 cg2d: Sum(rhs),rhsMax =                    NaN  0.00000000000000E+00
 cg2d: Sum(rhs),rhsMax =                    NaN  0.00000000000000E+00
 cg2d: Sum(rhs),rhsMax =                    NaN  0.00000000000000E+00
 cg2d: Sum(rhs),rhsMax =                    NaN  0.00000000000000E+00
 cg2d: Sum(rhs),rhsMax =                    NaN  0.00000000000000E+00
 cg2d: Sum(rhs),rhsMax =                    NaN  0.00000000000000E+00
 cg2d: Sum(rhs),rhsMax =                    NaN  0.00000000000000E+00
 cg2d: Sum(rhs),rhsMax =                    NaN  0.00000000000000E+00
 cg2d: Sum(rhs),rhsMax =                    NaN  0.00000000000000E+00
 cg2d: Sum(rhs),rhsMax =                    NaN  0.00000000000000E+00
 cg2d: Sum(rhs),rhsMax =                    NaN  0.00000000000000E+00
 cg2d: Sum(rhs),rhsMax =                    NaN  0.00000000000000E+00
 cg2d: Sum(rhs),rhsMax =                    NaN  0.00000000000000E+00
 cg2d: Sum(rhs),rhsMax =                    NaN  0.00000000000000E+00
 cg2d: Sum(rhs),rhsMax =                    NaN  0.00000000000000E+00
 cg2d: Sum(rhs),rhsMax =                    NaN  0.00000000000000E+00
 cg2d: Sum(rhs),rhsMax =                    NaN  0.00000000000000E+00
 cg2d: Sum(rhs),rhsMax =                    NaN  0.00000000000000E+00
 cg2d: Sum(rhs),rhsMax =                    NaN  0.00000000000000E+00
 cg2d: Sum(rhs),rhsMax =                    NaN  0.00000000000000E+00
 cg2d: Sum(rhs),rhsMax =                    NaN  0.00000000000000E+00
 cg2d: Sum(rhs),rhsMax =                    NaN  0.00000000000000E+00
 cg2d: Sum(rhs),rhsMax =                    NaN  0.00000000000000E+00
 cg2d: Sum(rhs),rhsMax =                    NaN  0.00000000000000E+00
 cg2d: Sum(rhs),rhsMax =                    NaN  0.00000000000000E+00
 cg2d: Sum(rhs),rhsMax =                    NaN  0.00000000000000E+00
 cg2d: Sum(rhs),rhsMax =                    NaN  0.00000000000000E+00
 cg2d: Sum(rhs),rhsMax =                    NaN  0.00000000000000E+00
 cg2d: Sum(rhs),rhsMax =                    NaN  0.00000000000000E+00
 cg2d: Sum(rhs),rhsMax =                    NaN  0.00000000000000E+00
 cg2d: Sum(rhs),rhsMax =                    NaN  0.00000000000000E+00
 cg2d: Sum(rhs),rhsMax =                    NaN  0.00000000000000E+00
 cg2d: Sum(rhs),rhsMax =                    NaN  0.00000000000000E+00
 cg2d: Sum(rhs),rhsMax =                    NaN  0.00000000000000E+00
 cg2d: Sum(rhs),rhsMax =                    NaN  0.00000000000000E+00
 cg2d: Sum(rhs),rhsMax =                    NaN  0.00000000000000E+00
 cg2d: Sum(rhs),rhsMax =                    NaN  0.00000000000000E+00
 cg2d: Sum(rhs),rhsMax =                    NaN  0.00000000000000E+00
 cg2d: Sum(rhs),rhsMax =                    NaN  0.00000000000000E+00
 cg2d: Sum(rhs),rhsMax =                    NaN  0.00000000000000E+00
 cg2d: Sum(rhs),rhsMax =                    NaN  0.00000000000000E+00
 cg2d: Sum(rhs),rhsMax =                    NaN  0.00000000000000E+00
 cg2d: Sum(rhs),rhsMax =                    NaN  0.00000000000000E+00
 cg2d: Sum(rhs),rhsMax =                    NaN  0.00000000000000E+00
 cg2d: Sum(rhs),rhsMax =                    NaN  0.00000000000000E+00
 cg2d: Sum(rhs),rhsMax =                    NaN  0.00000000000000E+00
 cg2d: Sum(rhs),rhsMax =                    NaN  0.00000000000000E+00
 cg2d: Sum(rhs),rhsMax =                    NaN  0.00000000000000E+00
 cg2d: Sum(rhs),rhsMax =                    NaN  0.00000000000000E+00
 cg2d: Sum(rhs),rhsMax =                    NaN  0.00000000000000E+00
 cg2d: Sum(rhs),rhsMax =                    NaN  0.00000000000000E+00
 cg2d: Sum(rhs),rhsMax =                    NaN  0.00000000000000E+00
 cg2d: Sum(rhs),rhsMax =                    NaN  0.00000000000000E+00
 cg2d: Sum(rhs),rhsMax =                    NaN  0.00000000000000E+00
 cg2d: Sum(rhs),rhsMax =                    NaN  0.00000000000000E+00
 cg2d: Sum(rhs),rhsMax =                    NaN  0.00000000000000E+00
 cg2d: Sum(rhs),rhsMax =                    NaN  0.00000000000000E+00
 cg2d: Sum(rhs),rhsMax =                    NaN  0.00000000000000E+00
 cg2d: Sum(rhs),rhsMax =                    NaN  0.00000000000000E+00
 cg2d: Sum(rhs),rhsMax =                    NaN  0.00000000000000E+00
 cg2d: Sum(rhs),rhsMax =                    NaN  0.00000000000000E+00
 cg2d: Sum(rhs),rhsMax =                    NaN  0.00000000000000E+00
 cg2d: Sum(rhs),rhsMax =                    NaN  0.00000000000000E+00
 cg2d: Sum(rhs),rhsMax =                    NaN  0.00000000000000E+00
 cg2d: Sum(rhs),rhsMax =                    NaN  0.00000000000000E+00
 cg2d: Sum(rhs),rhsMax =                    NaN  0.00000000000000E+00
 cg2d: Sum(rhs),rhsMax =                    NaN  0.00000000000000E+00
 cg2d: Sum(rhs),rhsMax =                    NaN  0.00000000000000E+00
 cg2d: Sum(rhs),rhsMax =                    NaN  0.00000000000000E+00
 cg2d: Sum(rhs),rhsMax =                    NaN  0.00000000000000E+00
 cg2d: Sum(rhs),rhsMax =                    NaN  0.00000000000000E+00
 cg2d: Sum(rhs),rhsMax =                    NaN  0.00000000000000E+00
 cg2d: Sum(rhs),rhsMax =                    NaN  0.00000000000000E+00
 cg2d: Sum(rhs),rhsMax =                    NaN  0.00000000000000E+00
 cg2d: Sum(rhs),rhsMax =                    NaN  0.00000000000000E+00
 cg2d: Sum(rhs),rhsMax =                    NaN  0.00000000000000E+00
 cg2d: Sum(rhs),rhsMax =                    NaN  0.00000000000000E+00
 cg2d: Sum(rhs),rhsMax =                    NaN  0.00000000000000E+00
 cg2d: Sum(rhs),rhsMax =                    NaN  0.00000000000000E+00
 cg2d: Sum(rhs),rhsMax =                    NaN  0.00000000000000E+00
 cg2d: Sum(rhs),rhsMax =                    NaN  0.00000000000000E+00
 cg2d: Sum(rhs),rhsMax =                    NaN  0.00000000000000E+00
 cg2d: Sum(rhs),rhsMax =                    NaN  0.00000000000000E+00
 cg2d: Sum(rhs),rhsMax =                    NaN  0.00000000000000E+00
 cg2d: Sum(rhs),rhsMax =                    NaN  0.00000000000000E+00
 cg2d: Sum(rhs),rhsMax =                    NaN  0.00000000000000E+00
 cg2d: Sum(rhs),rhsMax =                    NaN  0.00000000000000E+00
 cg2d: Sum(rhs),rhsMax =                    NaN  0.00000000000000E+00
 cg2d: Sum(rhs),rhsMax =                    NaN  0.00000000000000E+00
 cg2d: Sum(rhs),rhsMax =                    NaN  0.00000000000000E+00
 cg2d: Sum(rhs),rhsMax =                    NaN  0.00000000000000E+00
 cg2d: Sum(rhs),rhsMax =                    NaN  0.00000000000000E+00
 cg2d: Sum(rhs),rhsMax =                    NaN  0.00000000000000E+00
 cg2d: Sum(rhs),rhsMax =                    NaN  0.00000000000000E+00
 cg2d: Sum(rhs),rhsMax =                    NaN  0.00000000000000E+00
 cg2d: Sum(rhs),rhsMax =                    NaN  0.00000000000000E+00
 cg2d: Sum(rhs),rhsMax =                    NaN  0.00000000000000E+00
 cg2d: Sum(rhs),rhsMax =                    NaN  0.00000000000000E+00
 cg2d: Sum(rhs),rhsMax =                    NaN  0.00000000000000E+00
 cg2d: Sum(rhs),rhsMax =                    NaN  0.00000000000000E+00
 cg2d: Sum(rhs),rhsMax =                    NaN  0.00000000000000E+00
 cg2d: Sum(rhs),rhsMax =                    NaN  0.00000000000000E+00
 cg2d: Sum(rhs),rhsMax =                    NaN  0.00000000000000E+00
 cg2d: Sum(rhs),rhsMax =                    NaN  0.00000000000000E+00
 cg2d: Sum(rhs),rhsMax =                    NaN  0.00000000000000E+00
 cg2d: Sum(rhs),rhsMax =                    NaN  0.00000000000000E+00
 cg2d: Sum(rhs),rhsMax =                    NaN  0.00000000000000E+00
 cg2d: Sum(rhs),rhsMax =                    NaN  0.00000000000000E+00
 cg2d: Sum(rhs),rhsMax =                    NaN  0.00000000000000E+00
(PID.TID 0000.0001)      cg2d_init_res =                    NaN
(PID.TID 0000.0001)      cg2d_iters(min,last) =      -1    1000
(PID.TID 0000.0001)      cg2d_last_res =                    NaN
(PID.TID 0000.0001) // =======================================================
(PID.TID 0000.0001) // Begin MONITOR dynamic field statistics
(PID.TID 0000.0001) // =======================================================
(PID.TID 0000.0001) %MON time_tsnumber                =                  3840
(PID.TID 0000.0001) %MON time_secondsf                =   5.7600000000000E+04
(PID.TID 0000.0001) %MON dynstat_eta_max              =                   NaN
(PID.TID 0000.0001) %MON dynstat_eta_min              =                   NaN
(PID.TID 0000.0001) %MON dynstat_eta_mean             =                   NaN
(PID.TID 0000.0001) %MON dynstat_eta_sd               =                   NaN
(PID.TID 0000.0001) %MON dynstat_eta_del2             =                   NaN
(PID.TID 0000.0001) %MON dynstat_uvel_max             =   5.6028564143658E-01
(PID.TID 0000.0001) %MON dynstat_uvel_min             =   5.6028564143658E-01
(PID.TID 0000.0001) %MON dynstat_uvel_mean            =                   NaN
(PID.TID 0000.0001) %MON dynstat_uvel_sd              =                   NaN
(PID.TID 0000.0001) %MON dynstat_uvel_del2            =                   NaN
(PID.TID 0000.0001) %MON dynstat_vvel_max             =                   NaN
(PID.TID 0000.0001) %MON dynstat_vvel_min             =                   NaN
(PID.TID 0000.0001) %MON dynstat_vvel_mean            =                   NaN
(PID.TID 0000.0001) %MON dynstat_vvel_sd              =                   NaN
(PID.TID 0000.0001) %MON dynstat_vvel_del2            =                   NaN
(PID.TID 0000.0001) %MON dynstat_wvel_max             =                   NaN
(PID.TID 0000.0001) %MON dynstat_wvel_min             =                   NaN
(PID.TID 0000.0001) %MON dynstat_wvel_mean            =                   NaN
(PID.TID 0000.0001) %MON dynstat_wvel_sd              =                   NaN
(PID.TID 0000.0001) %MON dynstat_wvel_del2            =                   NaN
(PID.TID 0000.0001) %MON dynstat_theta_max            =                   NaN
(PID.TID 0000.0001) %MON dynstat_theta_min            =                   NaN
(PID.TID 0000.0001) %MON dynstat_theta_mean           =                   NaN
(PID.TID 0000.0001) %MON dynstat_theta_sd             =                   NaN
(PID.TID 0000.0001) %MON dynstat_theta_del2           =                   NaN
(PID.TID 0000.0001) %MON dynstat_salt_max             =   3.5000000000000E+01
(PID.TID 0000.0001) %MON dynstat_salt_min             =   3.5000000000000E+01
(PID.TID 0000.0001) %MON dynstat_salt_mean            =   3.5000000000000E+01
(PID.TID 0000.0001) %MON dynstat_salt_sd              =   3.9790393202566E-13
(PID.TID 0000.0001) %MON dynstat_salt_del2            =   0.0000000000000E+00
(PID.TID 0000.0001) %MON dynstat_sst_max              =                   NaN
(PID.TID 0000.0001) %MON dynstat_sst_min              =                   NaN
(PID.TID 0000.0001) %MON dynstat_sst_mean             =                   NaN
(PID.TID 0000.0001) %MON dynstat_sst_sd               =                   NaN
(PID.TID 0000.0001) %MON dynstat_sst_del2             =                   NaN
(PID.TID 0000.0001) %MON dynstat_sss_max              =   3.5000000000000E+01
(PID.TID 0000.0001) %MON dynstat_sss_min              =   3.5000000000000E+01
(PID.TID 0000.0001) %MON dynstat_sss_mean             =   3.5000000000000E+01
(PID.TID 0000.0001) %MON dynstat_sss_sd               =   5.6843418860808E-14
(PID.TID 0000.0001) %MON dynstat_sss_del2             =   0.0000000000000E+00
(PID.TID 0000.0001) %MON forcing_qnet_max             =   0.0000000000000E+00
(PID.TID 0000.0001) %MON forcing_qnet_min             =   0.0000000000000E+00
(PID.TID 0000.0001) %MON forcing_qnet_mean            =   0.0000000000000E+00
(PID.TID 0000.0001) %MON forcing_qnet_sd              =   0.0000000000000E+00
(PID.TID 0000.0001) %MON forcing_qnet_del2            =   0.0000000000000E+00
(PID.TID 0000.0001) %MON forcing_qsw_max              =   0.0000000000000E+00
(PID.TID 0000.0001) %MON forcing_qsw_min              =   0.0000000000000E+00
(PID.TID 0000.0001) %MON forcing_qsw_mean             =   0.0000000000000E+00
(PID.TID 0000.0001) %MON forcing_qsw_sd               =   0.0000000000000E+00
(PID.TID 0000.0001) %MON forcing_qsw_del2             =   0.0000000000000E+00
(PID.TID 0000.0001) %MON forcing_empmr_max            =   0.0000000000000E+00
(PID.TID 0000.0001) %MON forcing_empmr_min            =   0.0000000000000E+00
(PID.TID 0000.0001) %MON forcing_empmr_mean           =   0.0000000000000E+00
(PID.TID 0000.0001) %MON forcing_empmr_sd             =   0.0000000000000E+00
(PID.TID 0000.0001) %MON forcing_empmr_del2           =   0.0000000000000E+00
(PID.TID 0000.0001) %MON forcing_fu_max               =   0.0000000000000E+00
(PID.TID 0000.0001) %MON forcing_fu_min               =   0.0000000000000E+00
(PID.TID 0000.0001) %MON forcing_fu_mean              =   0.0000000000000E+00
(PID.TID 0000.0001) %MON forcing_fu_sd                =   0.0000000000000E+00
(PID.TID 0000.0001) %MON forcing_fu_del2              =   0.0000000000000E+00
(PID.TID 0000.0001) %MON forcing_fv_max               =   0.0000000000000E+00
(PID.TID 0000.0001) %MON forcing_fv_min               =   0.0000000000000E+00
(PID.TID 0000.0001) %MON forcing_fv_mean              =   0.0000000000000E+00
(PID.TID 0000.0001) %MON forcing_fv_sd                =   0.0000000000000E+00
(PID.TID 0000.0001) %MON forcing_fv_del2              =   0.0000000000000E+00
(PID.TID 0000.0001) %MON advcfl_uvel_max              =   8.0384112777411E-03
(PID.TID 0000.0001) %MON advcfl_vvel_max              =   0.0000000000000E+00
(PID.TID 0000.0001) %MON advcfl_wvel_max              =   0.0000000000000E+00
(PID.TID 0000.0001) %MON advcfl_W_hf_max              =   0.0000000000000E+00
(PID.TID 0000.0001) %MON pe_b_mean                    =                   NaN
(PID.TID 0000.0001) %MON ke_max                       =   0.0000000000000E+00
(PID.TID 0000.0001) %MON ke_mean                      =                   NaN
(PID.TID 0000.0001) %MON ke_vol                       =   9.5121673331316E+10
(PID.TID 0000.0001) %MON vort_r_min                   =   0.0000000000000E+00
(PID.TID 0000.0001) %MON vort_r_max                   =   0.0000000000000E+00
(PID.TID 0000.0001) %MON vort_a_mean                  =                   NaN
(PID.TID 0000.0001) %MON vort_a_sd                    =                   NaN
(PID.TID 0000.0001) %MON vort_p_mean                  =                   NaN
(PID.TID 0000.0001) %MON vort_p_sd                    =   0.0000000000000E+00
(PID.TID 0000.0001) %MON surfExpan_theta_mean         =                   NaN
(PID.TID 0000.0001) %MON surfExpan_salt_mean          =                   NaN
(PID.TID 0000.0001) // =======================================================
(PID.TID 0000.0001) // End MONITOR dynamic field statistics
(PID.TID 0000.0001) // =======================================================
(PID.TID 0000.0001) // =======================================================
(PID.TID 0000.0001) // Begin OBCS MONITOR field statistics
(PID.TID 0000.0001) // =======================================================
(PID.TID 0000.0001) %MON obc_E_uVel_max               =   5.6028564143658E-01
(PID.TID 0000.0001) %MON obc_E_uVel_min               =   5.6028564143658E-01
(PID.TID 0000.0001) %MON obc_E_uVel_mean              =   5.6028564143658E-01
(PID.TID 0000.0001) %MON obc_E_uVel_sd                =   7.4505805969238E-09
(PID.TID 0000.0001) %MON obc_E_uVel_Int               =   5.6028564143658E+05
(PID.TID 0000.0001) %MON obc_W_uVel_max               =   5.6028564143658E-01
(PID.TID 0000.0001) %MON obc_W_uVel_min               =   5.6028564143658E-01
(PID.TID 0000.0001) %MON obc_W_uVel_mean              =   5.6028564143658E-01
(PID.TID 0000.0001) %MON obc_W_uVel_sd                =   7.4505805969238E-09
(PID.TID 0000.0001) %MON obc_W_uVel_Int               =   5.6028564143658E+05
(PID.TID 0000.0001) // =======================================================
(PID.TID 0000.0001) // End OBCS MONITOR field statistics
(PID.TID 0000.0001) // =======================================================
 cg2d: Sum(rhs),rhsMax =                    NaN  0.00000000000000E+00
 cg2d: Sum(rhs),rhsMax =                    NaN  0.00000000000000E+00
 cg2d: Sum(rhs),rhsMax =                    NaN  0.00000000000000E+00
 cg2d: Sum(rhs),rhsMax =                    NaN  0.00000000000000E+00
 cg2d: Sum(rhs),rhsMax =                    NaN  0.00000000000000E+00
 cg2d: Sum(rhs),rhsMax =                    NaN  0.00000000000000E+00
 cg2d: Sum(rhs),rhsMax =                    NaN  0.00000000000000E+00
 cg2d: Sum(rhs),rhsMax =                    NaN  0.00000000000000E+00
 cg2d: Sum(rhs),rhsMax =                    NaN  0.00000000000000E+00
 cg2d: Sum(rhs),rhsMax =                    NaN  0.00000000000000E+00
 cg2d: Sum(rhs),rhsMax =                    NaN  0.00000000000000E+00
 cg2d: Sum(rhs),rhsMax =                    NaN  0.00000000000000E+00
 cg2d: Sum(rhs),rhsMax =                    NaN  0.00000000000000E+00
 cg2d: Sum(rhs),rhsMax =                    NaN  0.00000000000000E+00
 cg2d: Sum(rhs),rhsMax =                    NaN  0.00000000000000E+00
 cg2d: Sum(rhs),rhsMax =                    NaN  0.00000000000000E+00
 cg2d: Sum(rhs),rhsMax =                    NaN  0.00000000000000E+00
 cg2d: Sum(rhs),rhsMax =                    NaN  0.00000000000000E+00
 cg2d: Sum(rhs),rhsMax =                    NaN  0.00000000000000E+00
 cg2d: Sum(rhs),rhsMax =                    NaN  0.00000000000000E+00
 cg2d: Sum(rhs),rhsMax =                    NaN  0.00000000000000E+00
 cg2d: Sum(rhs),rhsMax =                    NaN  0.00000000000000E+00
 cg2d: Sum(rhs),rhsMax =                    NaN  0.00000000000000E+00
 cg2d: Sum(rhs),rhsMax =                    NaN  0.00000000000000E+00
 cg2d: Sum(rhs),rhsMax =                    NaN  0.00000000000000E+00
 cg2d: Sum(rhs),rhsMax =                    NaN  0.00000000000000E+00
 cg2d: Sum(rhs),rhsMax =                    NaN  0.00000000000000E+00
 cg2d: Sum(rhs),rhsMax =                    NaN  0.00000000000000E+00
 cg2d: Sum(rhs),rhsMax =                    NaN  0.00000000000000E+00
 cg2d: Sum(rhs),rhsMax =                    NaN  0.00000000000000E+00
 cg2d: Sum(rhs),rhsMax =                    NaN  0.00000000000000E+00
 cg2d: Sum(rhs),rhsMax =                    NaN  0.00000000000000E+00
 cg2d: Sum(rhs),rhsMax =                    NaN  0.00000000000000E+00
 cg2d: Sum(rhs),rhsMax =                    NaN  0.00000000000000E+00
 cg2d: Sum(rhs),rhsMax =                    NaN  0.00000000000000E+00
 cg2d: Sum(rhs),rhsMax =                    NaN  0.00000000000000E+00
 cg2d: Sum(rhs),rhsMax =                    NaN  0.00000000000000E+00
 cg2d: Sum(rhs),rhsMax =                    NaN  0.00000000000000E+00
 cg2d: Sum(rhs),rhsMax =                    NaN  0.00000000000000E+00
 cg2d: Sum(rhs),rhsMax =                    NaN  0.00000000000000E+00
 cg2d: Sum(rhs),rhsMax =                    NaN  0.00000000000000E+00
 cg2d: Sum(rhs),rhsMax =                    NaN  0.00000000000000E+00
 cg2d: Sum(rhs),rhsMax =                    NaN  0.00000000000000E+00
 cg2d: Sum(rhs),rhsMax =                    NaN  0.00000000000000E+00
 cg2d: Sum(rhs),rhsMax =                    NaN  0.00000000000000E+00
 cg2d: Sum(rhs),rhsMax =                    NaN  0.00000000000000E+00
 cg2d: Sum(rhs),rhsMax =                    NaN  0.00000000000000E+00
 cg2d: Sum(rhs),rhsMax =                    NaN  0.00000000000000E+00
 cg2d: Sum(rhs),rhsMax =                    NaN  0.00000000000000E+00
 cg2d: Sum(rhs),rhsMax =                    NaN  0.00000000000000E+00
 cg2d: Sum(rhs),rhsMax =                    NaN  0.00000000000000E+00
 cg2d: Sum(rhs),rhsMax =                    NaN  0.00000000000000E+00
 cg2d: Sum(rhs),rhsMax =                    NaN  0.00000000000000E+00
 cg2d: Sum(rhs),rhsMax =                    NaN  0.00000000000000E+00
 cg2d: Sum(rhs),rhsMax =                    NaN  0.00000000000000E+00
 cg2d: Sum(rhs),rhsMax =                    NaN  0.00000000000000E+00
 cg2d: Sum(rhs),rhsMax =                    NaN  0.00000000000000E+00
 cg2d: Sum(rhs),rhsMax =                    NaN  0.00000000000000E+00
 cg2d: Sum(rhs),rhsMax =                    NaN  0.00000000000000E+00
 cg2d: Sum(rhs),rhsMax =                    NaN  0.00000000000000E+00
 cg2d: Sum(rhs),rhsMax =                    NaN  0.00000000000000E+00
 cg2d: Sum(rhs),rhsMax =                    NaN  0.00000000000000E+00
 cg2d: Sum(rhs),rhsMax =                    NaN  0.00000000000000E+00
 cg2d: Sum(rhs),rhsMax =                    NaN  0.00000000000000E+00
 cg2d: Sum(rhs),rhsMax =                    NaN  0.00000000000000E+00
 cg2d: Sum(rhs),rhsMax =                    NaN  0.00000000000000E+00
 cg2d: Sum(rhs),rhsMax =                    NaN  0.00000000000000E+00
 cg2d: Sum(rhs),rhsMax =                    NaN  0.00000000000000E+00
 cg2d: Sum(rhs),rhsMax =                    NaN  0.00000000000000E+00
 cg2d: Sum(rhs),rhsMax =                    NaN  0.00000000000000E+00
 cg2d: Sum(rhs),rhsMax =                    NaN  0.00000000000000E+00
 cg2d: Sum(rhs),rhsMax =                    NaN  0.00000000000000E+00
 cg2d: Sum(rhs),rhsMax =                    NaN  0.00000000000000E+00
 cg2d: Sum(rhs),rhsMax =                    NaN  0.00000000000000E+00
 cg2d: Sum(rhs),rhsMax =                    NaN  0.00000000000000E+00
 cg2d: Sum(rhs),rhsMax =                    NaN  0.00000000000000E+00
 cg2d: Sum(rhs),rhsMax =                    NaN  0.00000000000000E+00
 cg2d: Sum(rhs),rhsMax =                    NaN  0.00000000000000E+00
 cg2d: Sum(rhs),rhsMax =                    NaN  0.00000000000000E+00
 cg2d: Sum(rhs),rhsMax =                    NaN  0.00000000000000E+00
 cg2d: Sum(rhs),rhsMax =                    NaN  0.00000000000000E+00
 cg2d: Sum(rhs),rhsMax =                    NaN  0.00000000000000E+00
 cg2d: Sum(rhs),rhsMax =                    NaN  0.00000000000000E+00
 cg2d: Sum(rhs),rhsMax =                    NaN  0.00000000000000E+00
 cg2d: Sum(rhs),rhsMax =                    NaN  0.00000000000000E+00
 cg2d: Sum(rhs),rhsMax =                    NaN  0.00000000000000E+00
 cg2d: Sum(rhs),rhsMax =                    NaN  0.00000000000000E+00
 cg2d: Sum(rhs),rhsMax =                    NaN  0.00000000000000E+00
 cg2d: Sum(rhs),rhsMax =                    NaN  0.00000000000000E+00
 cg2d: Sum(rhs),rhsMax =                    NaN  0.00000000000000E+00
 cg2d: Sum(rhs),rhsMax =                    NaN  0.00000000000000E+00
 cg2d: Sum(rhs),rhsMax =                    NaN  0.00000000000000E+00
 cg2d: Sum(rhs),rhsMax =                    NaN  0.00000000000000E+00
 cg2d: Sum(rhs),rhsMax =                    NaN  0.00000000000000E+00
 cg2d: Sum(rhs),rhsMax =                    NaN  0.00000000000000E+00
 cg2d: Sum(rhs),rhsMax =                    NaN  0.00000000000000E+00
 cg2d: Sum(rhs),rhsMax =                    NaN  0.00000000000000E+00
 cg2d: Sum(rhs),rhsMax =                    NaN  0.00000000000000E+00
 cg2d: Sum(rhs),rhsMax =                    NaN  0.00000000000000E+00
 cg2d: Sum(rhs),rhsMax =                    NaN  0.00000000000000E+00
 cg2d: Sum(rhs),rhsMax =                    NaN  0.00000000000000E+00
 cg2d: Sum(rhs),rhsMax =                    NaN  0.00000000000000E+00
 cg2d: Sum(rhs),rhsMax =                    NaN  0.00000000000000E+00
 cg2d: Sum(rhs),rhsMax =                    NaN  0.00000000000000E+00
 cg2d: Sum(rhs),rhsMax =                    NaN  0.00000000000000E+00
 cg2d: Sum(rhs),rhsMax =                    NaN  0.00000000000000E+00
 cg2d: Sum(rhs),rhsMax =                    NaN  0.00000000000000E+00
 cg2d: Sum(rhs),rhsMax =                    NaN  0.00000000000000E+00
 cg2d: Sum(rhs),rhsMax =                    NaN  0.00000000000000E+00
 cg2d: Sum(rhs),rhsMax =                    NaN  0.00000000000000E+00
 cg2d: Sum(rhs),rhsMax =                    NaN  0.00000000000000E+00
 cg2d: Sum(rhs),rhsMax =                    NaN  0.00000000000000E+00
 cg2d: Sum(rhs),rhsMax =                    NaN  0.00000000000000E+00
 cg2d: Sum(rhs),rhsMax =                    NaN  0.00000000000000E+00
 cg2d: Sum(rhs),rhsMax =                    NaN  0.00000000000000E+00
 cg2d: Sum(rhs),rhsMax =                    NaN  0.00000000000000E+00
 cg2d: Sum(rhs),rhsMax =                    NaN  0.00000000000000E+00
 cg2d: Sum(rhs),rhsMax =                    NaN  0.00000000000000E+00
 cg2d: Sum(rhs),rhsMax =                    NaN  0.00000000000000E+00
 cg2d: Sum(rhs),rhsMax =                    NaN  0.00000000000000E+00
 cg2d: Sum(rhs),rhsMax =                    NaN  0.00000000000000E+00
 cg2d: Sum(rhs),rhsMax =                    NaN  0.00000000000000E+00
 cg2d: Sum(rhs),rhsMax =                    NaN  0.00000000000000E+00
 cg2d: Sum(rhs),rhsMax =                    NaN  0.00000000000000E+00
 cg2d: Sum(rhs),rhsMax =                    NaN  0.00000000000000E+00
 cg2d: Sum(rhs),rhsMax =                    NaN  0.00000000000000E+00
 cg2d: Sum(rhs),rhsMax =                    NaN  0.00000000000000E+00
 cg2d: Sum(rhs),rhsMax =                    NaN  0.00000000000000E+00
 cg2d: Sum(rhs),rhsMax =                    NaN  0.00000000000000E+00
 cg2d: Sum(rhs),rhsMax =                    NaN  0.00000000000000E+00
 cg2d: Sum(rhs),rhsMax =                    NaN  0.00000000000000E+00
 cg2d: Sum(rhs),rhsMax =                    NaN  0.00000000000000E+00
 cg2d: Sum(rhs),rhsMax =                    NaN  0.00000000000000E+00
 cg2d: Sum(rhs),rhsMax =                    NaN  0.00000000000000E+00
 cg2d: Sum(rhs),rhsMax =                    NaN  0.00000000000000E+00
 cg2d: Sum(rhs),rhsMax =                    NaN  0.00000000000000E+00
 cg2d: Sum(rhs),rhsMax =                    NaN  0.00000000000000E+00
 cg2d: Sum(rhs),rhsMax =                    NaN  0.00000000000000E+00
 cg2d: Sum(rhs),rhsMax =                    NaN  0.00000000000000E+00
 cg2d: Sum(rhs),rhsMax =                    NaN  0.00000000000000E+00
 cg2d: Sum(rhs),rhsMax =                    NaN  0.00000000000000E+00
 cg2d: Sum(rhs),rhsMax =                    NaN  0.00000000000000E+00
 cg2d: Sum(rhs),rhsMax =                    NaN  0.00000000000000E+00
 cg2d: Sum(rhs),rhsMax =                    NaN  0.00000000000000E+00
 cg2d: Sum(rhs),rhsMax =                    NaN  0.00000000000000E+00
 cg2d: Sum(rhs),rhsMax =                    NaN  0.00000000000000E+00
 cg2d: Sum(rhs),rhsMax =                    NaN  0.00000000000000E+00
 cg2d: Sum(rhs),rhsMax =                    NaN  0.00000000000000E+00
 cg2d: Sum(rhs),rhsMax =                    NaN  0.00000000000000E+00
 cg2d: Sum(rhs),rhsMax =                    NaN  0.00000000000000E+00
 cg2d: Sum(rhs),rhsMax =                    NaN  0.00000000000000E+00
 cg2d: Sum(rhs),rhsMax =                    NaN  0.00000000000000E+00
 cg2d: Sum(rhs),rhsMax =                    NaN  0.00000000000000E+00
 cg2d: Sum(rhs),rhsMax =                    NaN  0.00000000000000E+00
 cg2d: Sum(rhs),rhsMax =                    NaN  0.00000000000000E+00
 cg2d: Sum(rhs),rhsMax =                    NaN  0.00000000000000E+00
 cg2d: Sum(rhs),rhsMax =                    NaN  0.00000000000000E+00
 cg2d: Sum(rhs),rhsMax =                    NaN  0.00000000000000E+00
 cg2d: Sum(rhs),rhsMax =                    NaN  0.00000000000000E+00
 cg2d: Sum(rhs),rhsMax =                    NaN  0.00000000000000E+00
 cg2d: Sum(rhs),rhsMax =                    NaN  0.00000000000000E+00
 cg2d: Sum(rhs),rhsMax =                    NaN  0.00000000000000E+00
 cg2d: Sum(rhs),rhsMax =                    NaN  0.00000000000000E+00
 cg2d: Sum(rhs),rhsMax =                    NaN  0.00000000000000E+00
 cg2d: Sum(rhs),rhsMax =                    NaN  0.00000000000000E+00
 cg2d: Sum(rhs),rhsMax =                    NaN  0.00000000000000E+00
 cg2d: Sum(rhs),rhsMax =                    NaN  0.00000000000000E+00
 cg2d: Sum(rhs),rhsMax =                    NaN  0.00000000000000E+00
 cg2d: Sum(rhs),rhsMax =                    NaN  0.00000000000000E+00
 cg2d: Sum(rhs),rhsMax =                    NaN  0.00000000000000E+00
 cg2d: Sum(rhs),rhsMax =                    NaN  0.00000000000000E+00
 cg2d: Sum(rhs),rhsMax =                    NaN  0.00000000000000E+00
 cg2d: Sum(rhs),rhsMax =                    NaN  0.00000000000000E+00
 cg2d: Sum(rhs),rhsMax =                    NaN  0.00000000000000E+00
 cg2d: Sum(rhs),rhsMax =                    NaN  0.00000000000000E+00
 cg2d: Sum(rhs),rhsMax =                    NaN  0.00000000000000E+00
 cg2d: Sum(rhs),rhsMax =                    NaN  0.00000000000000E+00
 cg2d: Sum(rhs),rhsMax =                    NaN  0.00000000000000E+00
 cg2d: Sum(rhs),rhsMax =                    NaN  0.00000000000000E+00
 cg2d: Sum(rhs),rhsMax =                    NaN  0.00000000000000E+00
 cg2d: Sum(rhs),rhsMax =                    NaN  0.00000000000000E+00
 cg2d: Sum(rhs),rhsMax =                    NaN  0.00000000000000E+00
 cg2d: Sum(rhs),rhsMax =                    NaN  0.00000000000000E+00
 cg2d: Sum(rhs),rhsMax =                    NaN  0.00000000000000E+00
 cg2d: Sum(rhs),rhsMax =                    NaN  0.00000000000000E+00
 cg2d: Sum(rhs),rhsMax =                    NaN  0.00000000000000E+00
 cg2d: Sum(rhs),rhsMax =                    NaN  0.00000000000000E+00
 cg2d: Sum(rhs),rhsMax =                    NaN  0.00000000000000E+00
 cg2d: Sum(rhs),rhsMax =                    NaN  0.00000000000000E+00
 cg2d: Sum(rhs),rhsMax =                    NaN  0.00000000000000E+00
 cg2d: Sum(rhs),rhsMax =                    NaN  0.00000000000000E+00
 cg2d: Sum(rhs),rhsMax =                    NaN  0.00000000000000E+00
 cg2d: Sum(rhs),rhsMax =                    NaN  0.00000000000000E+00
 cg2d: Sum(rhs),rhsMax =                    NaN  0.00000000000000E+00
 cg2d: Sum(rhs),rhsMax =                    NaN  0.00000000000000E+00
 cg2d: Sum(rhs),rhsMax =                    NaN  0.00000000000000E+00
 cg2d: Sum(rhs),rhsMax =                    NaN  0.00000000000000E+00
 cg2d: Sum(rhs),rhsMax =                    NaN  0.00000000000000E+00
 cg2d: Sum(rhs),rhsMax =                    NaN  0.00000000000000E+00
 cg2d: Sum(rhs),rhsMax =                    NaN  0.00000000000000E+00
 cg2d: Sum(rhs),rhsMax =                    NaN  0.00000000000000E+00
 cg2d: Sum(rhs),rhsMax =                    NaN  0.00000000000000E+00
 cg2d: Sum(rhs),rhsMax =                    NaN  0.00000000000000E+00
 cg2d: Sum(rhs),rhsMax =                    NaN  0.00000000000000E+00
 cg2d: Sum(rhs),rhsMax =                    NaN  0.00000000000000E+00
 cg2d: Sum(rhs),rhsMax =                    NaN  0.00000000000000E+00
 cg2d: Sum(rhs),rhsMax =                    NaN  0.00000000000000E+00
 cg2d: Sum(rhs),rhsMax =                    NaN  0.00000000000000E+00
 cg2d: Sum(rhs),rhsMax =                    NaN  0.00000000000000E+00
 cg2d: Sum(rhs),rhsMax =                    NaN  0.00000000000000E+00
 cg2d: Sum(rhs),rhsMax =                    NaN  0.00000000000000E+00
 cg2d: Sum(rhs),rhsMax =                    NaN  0.00000000000000E+00
 cg2d: Sum(rhs),rhsMax =                    NaN  0.00000000000000E+00
 cg2d: Sum(rhs),rhsMax =                    NaN  0.00000000000000E+00
 cg2d: Sum(rhs),rhsMax =                    NaN  0.00000000000000E+00
 cg2d: Sum(rhs),rhsMax =                    NaN  0.00000000000000E+00
 cg2d: Sum(rhs),rhsMax =                    NaN  0.00000000000000E+00
 cg2d: Sum(rhs),rhsMax =                    NaN  0.00000000000000E+00
 cg2d: Sum(rhs),rhsMax =                    NaN  0.00000000000000E+00
 cg2d: Sum(rhs),rhsMax =                    NaN  0.00000000000000E+00
 cg2d: Sum(rhs),rhsMax =                    NaN  0.00000000000000E+00
 cg2d: Sum(rhs),rhsMax =                    NaN  0.00000000000000E+00
 cg2d: Sum(rhs),rhsMax =                    NaN  0.00000000000000E+00
 cg2d: Sum(rhs),rhsMax =                    NaN  0.00000000000000E+00
 cg2d: Sum(rhs),rhsMax =                    NaN  0.00000000000000E+00
 cg2d: Sum(rhs),rhsMax =                    NaN  0.00000000000000E+00
 cg2d: Sum(rhs),rhsMax =                    NaN  0.00000000000000E+00
 cg2d: Sum(rhs),rhsMax =                    NaN  0.00000000000000E+00
 cg2d: Sum(rhs),rhsMax =                    NaN  0.00000000000000E+00
 cg2d: Sum(rhs),rhsMax =                    NaN  0.00000000000000E+00
 cg2d: Sum(rhs),rhsMax =                    NaN  0.00000000000000E+00
 cg2d: Sum(rhs),rhsMax =                    NaN  0.00000000000000E+00
 cg2d: Sum(rhs),rhsMax =                    NaN  0.00000000000000E+00
 cg2d: Sum(rhs),rhsMax =                    NaN  0.00000000000000E+00
 cg2d: Sum(rhs),rhsMax =                    NaN  0.00000000000000E+00
 cg2d: Sum(rhs),rhsMax =                    NaN  0.00000000000000E+00
 cg2d: Sum(rhs),rhsMax =                    NaN  0.00000000000000E+00
 cg2d: Sum(rhs),rhsMax =                    NaN  0.00000000000000E+00
 cg2d: Sum(rhs),rhsMax =                    NaN  0.00000000000000E+00
 cg2d: Sum(rhs),rhsMax =                    NaN  0.00000000000000E+00
 cg2d: Sum(rhs),rhsMax =                    NaN  0.00000000000000E+00
 cg2d: Sum(rhs),rhsMax =                    NaN  0.00000000000000E+00
 cg2d: Sum(rhs),rhsMax =                    NaN  0.00000000000000E+00
 cg2d: Sum(rhs),rhsMax =                    NaN  0.00000000000000E+00
 cg2d: Sum(rhs),rhsMax =                    NaN  0.00000000000000E+00
 cg2d: Sum(rhs),rhsMax =                    NaN  0.00000000000000E+00
 cg2d: Sum(rhs),rhsMax =                    NaN  0.00000000000000E+00
 cg2d: Sum(rhs),rhsMax =                    NaN  0.00000000000000E+00
 cg2d: Sum(rhs),rhsMax =                    NaN  0.00000000000000E+00
 cg2d: Sum(rhs),rhsMax =                    NaN  0.00000000000000E+00
 cg2d: Sum(rhs),rhsMax =                    NaN  0.00000000000000E+00
 cg2d: Sum(rhs),rhsMax =                    NaN  0.00000000000000E+00
 cg2d: Sum(rhs),rhsMax =                    NaN  0.00000000000000E+00
 cg2d: Sum(rhs),rhsMax =                    NaN  0.00000000000000E+00
 cg2d: Sum(rhs),rhsMax =                    NaN  0.00000000000000E+00
 cg2d: Sum(rhs),rhsMax =                    NaN  0.00000000000000E+00
 cg2d: Sum(rhs),rhsMax =                    NaN  0.00000000000000E+00
 cg2d: Sum(rhs),rhsMax =                    NaN  0.00000000000000E+00
 cg2d: Sum(rhs),rhsMax =                    NaN  0.00000000000000E+00
 cg2d: Sum(rhs),rhsMax =                    NaN  0.00000000000000E+00
 cg2d: Sum(rhs),rhsMax =                    NaN  0.00000000000000E+00
 cg2d: Sum(rhs),rhsMax =                    NaN  0.00000000000000E+00
 cg2d: Sum(rhs),rhsMax =                    NaN  0.00000000000000E+00
 cg2d: Sum(rhs),rhsMax =                    NaN  0.00000000000000E+00
 cg2d: Sum(rhs),rhsMax =                    NaN  0.00000000000000E+00
 cg2d: Sum(rhs),rhsMax =                    NaN  0.00000000000000E+00
 cg2d: Sum(rhs),rhsMax =                    NaN  0.00000000000000E+00
 cg2d: Sum(rhs),rhsMax =                    NaN  0.00000000000000E+00
 cg2d: Sum(rhs),rhsMax =                    NaN  0.00000000000000E+00
 cg2d: Sum(rhs),rhsMax =                    NaN  0.00000000000000E+00
 cg2d: Sum(rhs),rhsMax =                    NaN  0.00000000000000E+00
 cg2d: Sum(rhs),rhsMax =                    NaN  0.00000000000000E+00
 cg2d: Sum(rhs),rhsMax =                    NaN  0.00000000000000E+00
 cg2d: Sum(rhs),rhsMax =                    NaN  0.00000000000000E+00
 cg2d: Sum(rhs),rhsMax =                    NaN  0.00000000000000E+00
 cg2d: Sum(rhs),rhsMax =                    NaN  0.00000000000000E+00
 cg2d: Sum(rhs),rhsMax =                    NaN  0.00000000000000E+00
 cg2d: Sum(rhs),rhsMax =                    NaN  0.00000000000000E+00
 cg2d: Sum(rhs),rhsMax =                    NaN  0.00000000000000E+00
 cg2d: Sum(rhs),rhsMax =                    NaN  0.00000000000000E+00
 cg2d: Sum(rhs),rhsMax =                    NaN  0.00000000000000E+00
 cg2d: Sum(rhs),rhsMax =                    NaN  0.00000000000000E+00
 cg2d: Sum(rhs),rhsMax =                    NaN  0.00000000000000E+00
 cg2d: Sum(rhs),rhsMax =                    NaN  0.00000000000000E+00
 cg2d: Sum(rhs),rhsMax =                    NaN  0.00000000000000E+00
 cg2d: Sum(rhs),rhsMax =                    NaN  0.00000000000000E+00
 cg2d: Sum(rhs),rhsMax =                    NaN  0.00000000000000E+00
 cg2d: Sum(rhs),rhsMax =                    NaN  0.00000000000000E+00
 cg2d: Sum(rhs),rhsMax =                    NaN  0.00000000000000E+00
 cg2d: Sum(rhs),rhsMax =                    NaN  0.00000000000000E+00
 cg2d: Sum(rhs),rhsMax =                    NaN  0.00000000000000E+00
 cg2d: Sum(rhs),rhsMax =                    NaN  0.00000000000000E+00
 cg2d: Sum(rhs),rhsMax =                    NaN  0.00000000000000E+00
 cg2d: Sum(rhs),rhsMax =                    NaN  0.00000000000000E+00
 cg2d: Sum(rhs),rhsMax =                    NaN  0.00000000000000E+00
 cg2d: Sum(rhs),rhsMax =                    NaN  0.00000000000000E+00
 cg2d: Sum(rhs),rhsMax =                    NaN  0.00000000000000E+00
 cg2d: Sum(rhs),rhsMax =                    NaN  0.00000000000000E+00
 cg2d: Sum(rhs),rhsMax =                    NaN  0.00000000000000E+00
 cg2d: Sum(rhs),rhsMax =                    NaN  0.00000000000000E+00
 cg2d: Sum(rhs),rhsMax =                    NaN  0.00000000000000E+00
 cg2d: Sum(rhs),rhsMax =                    NaN  0.00000000000000E+00
 cg2d: Sum(rhs),rhsMax =                    NaN  0.00000000000000E+00
 cg2d: Sum(rhs),rhsMax =                    NaN  0.00000000000000E+00
 cg2d: Sum(rhs),rhsMax =                    NaN  0.00000000000000E+00
 cg2d: Sum(rhs),rhsMax =                    NaN  0.00000000000000E+00
 cg2d: Sum(rhs),rhsMax =                    NaN  0.00000000000000E+00
 cg2d: Sum(rhs),rhsMax =                    NaN  0.00000000000000E+00
 cg2d: Sum(rhs),rhsMax =                    NaN  0.00000000000000E+00
 cg2d: Sum(rhs),rhsMax =                    NaN  0.00000000000000E+00
 cg2d: Sum(rhs),rhsMax =                    NaN  0.00000000000000E+00
 cg2d: Sum(rhs),rhsMax =                    NaN  0.00000000000000E+00
 cg2d: Sum(rhs),rhsMax =                    NaN  0.00000000000000E+00
 cg2d: Sum(rhs),rhsMax =                    NaN  0.00000000000000E+00
 cg2d: Sum(rhs),rhsMax =                    NaN  0.00000000000000E+00
 cg2d: Sum(rhs),rhsMax =                    NaN  0.00000000000000E+00
 cg2d: Sum(rhs),rhsMax =                    NaN  0.00000000000000E+00
 cg2d: Sum(rhs),rhsMax =                    NaN  0.00000000000000E+00
 cg2d: Sum(rhs),rhsMax =                    NaN  0.00000000000000E+00
 cg2d: Sum(rhs),rhsMax =                    NaN  0.00000000000000E+00
 cg2d: Sum(rhs),rhsMax =                    NaN  0.00000000000000E+00
 cg2d: Sum(rhs),rhsMax =                    NaN  0.00000000000000E+00
 cg2d: Sum(rhs),rhsMax =                    NaN  0.00000000000000E+00
 cg2d: Sum(rhs),rhsMax =                    NaN  0.00000000000000E+00
 cg2d: Sum(rhs),rhsMax =                    NaN  0.00000000000000E+00
 cg2d: Sum(rhs),rhsMax =                    NaN  0.00000000000000E+00
 cg2d: Sum(rhs),rhsMax =                    NaN  0.00000000000000E+00
 cg2d: Sum(rhs),rhsMax =                    NaN  0.00000000000000E+00
 cg2d: Sum(rhs),rhsMax =                    NaN  0.00000000000000E+00
 cg2d: Sum(rhs),rhsMax =                    NaN  0.00000000000000E+00
 cg2d: Sum(rhs),rhsMax =                    NaN  0.00000000000000E+00
 cg2d: Sum(rhs),rhsMax =                    NaN  0.00000000000000E+00
 cg2d: Sum(rhs),rhsMax =                    NaN  0.00000000000000E+00
 cg2d: Sum(rhs),rhsMax =                    NaN  0.00000000000000E+00
 cg2d: Sum(rhs),rhsMax =                    NaN  0.00000000000000E+00
 cg2d: Sum(rhs),rhsMax =                    NaN  0.00000000000000E+00
 cg2d: Sum(rhs),rhsMax =                    NaN  0.00000000000000E+00
 cg2d: Sum(rhs),rhsMax =                    NaN  0.00000000000000E+00
 cg2d: Sum(rhs),rhsMax =                    NaN  0.00000000000000E+00
 cg2d: Sum(rhs),rhsMax =                    NaN  0.00000000000000E+00
 cg2d: Sum(rhs),rhsMax =                    NaN  0.00000000000000E+00
 cg2d: Sum(rhs),rhsMax =                    NaN  0.00000000000000E+00
 cg2d: Sum(rhs),rhsMax =                    NaN  0.00000000000000E+00
 cg2d: Sum(rhs),rhsMax =                    NaN  0.00000000000000E+00
 cg2d: Sum(rhs),rhsMax =                    NaN  0.00000000000000E+00
 cg2d: Sum(rhs),rhsMax =                    NaN  0.00000000000000E+00
 cg2d: Sum(rhs),rhsMax =                    NaN  0.00000000000000E+00
 cg2d: Sum(rhs),rhsMax =                    NaN  0.00000000000000E+00
 cg2d: Sum(rhs),rhsMax =                    NaN  0.00000000000000E+00
 cg2d: Sum(rhs),rhsMax =                    NaN  0.00000000000000E+00
 cg2d: Sum(rhs),rhsMax =                    NaN  0.00000000000000E+00
 cg2d: Sum(rhs),rhsMax =                    NaN  0.00000000000000E+00
 cg2d: Sum(rhs),rhsMax =                    NaN  0.00000000000000E+00
 cg2d: Sum(rhs),rhsMax =                    NaN  0.00000000000000E+00
 cg2d: Sum(rhs),rhsMax =                    NaN  0.00000000000000E+00
 cg2d: Sum(rhs),rhsMax =                    NaN  0.00000000000000E+00
 cg2d: Sum(rhs),rhsMax =                    NaN  0.00000000000000E+00
 cg2d: Sum(rhs),rhsMax =                    NaN  0.00000000000000E+00
 cg2d: Sum(rhs),rhsMax =                    NaN  0.00000000000000E+00
 cg2d: Sum(rhs),rhsMax =                    NaN  0.00000000000000E+00
 cg2d: Sum(rhs),rhsMax =                    NaN  0.00000000000000E+00
 cg2d: Sum(rhs),rhsMax =                    NaN  0.00000000000000E+00
 cg2d: Sum(rhs),rhsMax =                    NaN  0.00000000000000E+00
 cg2d: Sum(rhs),rhsMax =                    NaN  0.00000000000000E+00
 cg2d: Sum(rhs),rhsMax =                    NaN  0.00000000000000E+00
 cg2d: Sum(rhs),rhsMax =                    NaN  0.00000000000000E+00
 cg2d: Sum(rhs),rhsMax =                    NaN  0.00000000000000E+00
 cg2d: Sum(rhs),rhsMax =                    NaN  0.00000000000000E+00
 cg2d: Sum(rhs),rhsMax =                    NaN  0.00000000000000E+00
 cg2d: Sum(rhs),rhsMax =                    NaN  0.00000000000000E+00
 cg2d: Sum(rhs),rhsMax =                    NaN  0.00000000000000E+00
 cg2d: Sum(rhs),rhsMax =                    NaN  0.00000000000000E+00
 cg2d: Sum(rhs),rhsMax =                    NaN  0.00000000000000E+00
 cg2d: Sum(rhs),rhsMax =                    NaN  0.00000000000000E+00
 cg2d: Sum(rhs),rhsMax =                    NaN  0.00000000000000E+00
 cg2d: Sum(rhs),rhsMax =                    NaN  0.00000000000000E+00
 cg2d: Sum(rhs),rhsMax =                    NaN  0.00000000000000E+00
 cg2d: Sum(rhs),rhsMax =                    NaN  0.00000000000000E+00
 cg2d: Sum(rhs),rhsMax =                    NaN  0.00000000000000E+00
 cg2d: Sum(rhs),rhsMax =                    NaN  0.00000000000000E+00
 cg2d: Sum(rhs),rhsMax =                    NaN  0.00000000000000E+00
 cg2d: Sum(rhs),rhsMax =                    NaN  0.00000000000000E+00
 cg2d: Sum(rhs),rhsMax =                    NaN  0.00000000000000E+00
 cg2d: Sum(rhs),rhsMax =                    NaN  0.00000000000000E+00
 cg2d: Sum(rhs),rhsMax =                    NaN  0.00000000000000E+00
 cg2d: Sum(rhs),rhsMax =                    NaN  0.00000000000000E+00
 cg2d: Sum(rhs),rhsMax =                    NaN  0.00000000000000E+00
 cg2d: Sum(rhs),rhsMax =                    NaN  0.00000000000000E+00
 cg2d: Sum(rhs),rhsMax =                    NaN  0.00000000000000E+00
 cg2d: Sum(rhs),rhsMax =                    NaN  0.00000000000000E+00
 cg2d: Sum(rhs),rhsMax =                    NaN  0.00000000000000E+00
 cg2d: Sum(rhs),rhsMax =                    NaN  0.00000000000000E+00
 cg2d: Sum(rhs),rhsMax =                    NaN  0.00000000000000E+00
 cg2d: Sum(rhs),rhsMax =                    NaN  0.00000000000000E+00
 cg2d: Sum(rhs),rhsMax =                    NaN  0.00000000000000E+00
 cg2d: Sum(rhs),rhsMax =                    NaN  0.00000000000000E+00
 cg2d: Sum(rhs),rhsMax =                    NaN  0.00000000000000E+00
 cg2d: Sum(rhs),rhsMax =                    NaN  0.00000000000000E+00
 cg2d: Sum(rhs),rhsMax =                    NaN  0.00000000000000E+00
 cg2d: Sum(rhs),rhsMax =                    NaN  0.00000000000000E+00
 cg2d: Sum(rhs),rhsMax =                    NaN  0.00000000000000E+00
 cg2d: Sum(rhs),rhsMax =                    NaN  0.00000000000000E+00
 cg2d: Sum(rhs),rhsMax =                    NaN  0.00000000000000E+00
 cg2d: Sum(rhs),rhsMax =                    NaN  0.00000000000000E+00
 cg2d: Sum(rhs),rhsMax =                    NaN  0.00000000000000E+00
 cg2d: Sum(rhs),rhsMax =                    NaN  0.00000000000000E+00
 cg2d: Sum(rhs),rhsMax =                    NaN  0.00000000000000E+00
 cg2d: Sum(rhs),rhsMax =                    NaN  0.00000000000000E+00
 cg2d: Sum(rhs),rhsMax =                    NaN  0.00000000000000E+00
 cg2d: Sum(rhs),rhsMax =                    NaN  0.00000000000000E+00
 cg2d: Sum(rhs),rhsMax =                    NaN  0.00000000000000E+00
 cg2d: Sum(rhs),rhsMax =                    NaN  0.00000000000000E+00
 cg2d: Sum(rhs),rhsMax =                    NaN  0.00000000000000E+00
 cg2d: Sum(rhs),rhsMax =                    NaN  0.00000000000000E+00
 cg2d: Sum(rhs),rhsMax =                    NaN  0.00000000000000E+00
 cg2d: Sum(rhs),rhsMax =                    NaN  0.00000000000000E+00
 cg2d: Sum(rhs),rhsMax =                    NaN  0.00000000000000E+00
 cg2d: Sum(rhs),rhsMax =                    NaN  0.00000000000000E+00
 cg2d: Sum(rhs),rhsMax =                    NaN  0.00000000000000E+00
 cg2d: Sum(rhs),rhsMax =                    NaN  0.00000000000000E+00
 cg2d: Sum(rhs),rhsMax =                    NaN  0.00000000000000E+00
 cg2d: Sum(rhs),rhsMax =                    NaN  0.00000000000000E+00
 cg2d: Sum(rhs),rhsMax =                    NaN  0.00000000000000E+00
 cg2d: Sum(rhs),rhsMax =                    NaN  0.00000000000000E+00
 cg2d: Sum(rhs),rhsMax =                    NaN  0.00000000000000E+00
 cg2d: Sum(rhs),rhsMax =                    NaN  0.00000000000000E+00
 cg2d: Sum(rhs),rhsMax =                    NaN  0.00000000000000E+00
 cg2d: Sum(rhs),rhsMax =                    NaN  0.00000000000000E+00
 cg2d: Sum(rhs),rhsMax =                    NaN  0.00000000000000E+00
 cg2d: Sum(rhs),rhsMax =                    NaN  0.00000000000000E+00
 cg2d: Sum(rhs),rhsMax =                    NaN  0.00000000000000E+00
 cg2d: Sum(rhs),rhsMax =                    NaN  0.00000000000000E+00
 cg2d: Sum(rhs),rhsMax =                    NaN  0.00000000000000E+00
 cg2d: Sum(rhs),rhsMax =                    NaN  0.00000000000000E+00
 cg2d: Sum(rhs),rhsMax =                    NaN  0.00000000000000E+00
 cg2d: Sum(rhs),rhsMax =                    NaN  0.00000000000000E+00
 cg2d: Sum(rhs),rhsMax =                    NaN  0.00000000000000E+00
 cg2d: Sum(rhs),rhsMax =                    NaN  0.00000000000000E+00
 cg2d: Sum(rhs),rhsMax =                    NaN  0.00000000000000E+00
 cg2d: Sum(rhs),rhsMax =                    NaN  0.00000000000000E+00
 cg2d: Sum(rhs),rhsMax =                    NaN  0.00000000000000E+00
 cg2d: Sum(rhs),rhsMax =                    NaN  0.00000000000000E+00
 cg2d: Sum(rhs),rhsMax =                    NaN  0.00000000000000E+00
 cg2d: Sum(rhs),rhsMax =                    NaN  0.00000000000000E+00
 cg2d: Sum(rhs),rhsMax =                    NaN  0.00000000000000E+00
 cg2d: Sum(rhs),rhsMax =                    NaN  0.00000000000000E+00
 cg2d: Sum(rhs),rhsMax =                    NaN  0.00000000000000E+00
 cg2d: Sum(rhs),rhsMax =                    NaN  0.00000000000000E+00
 cg2d: Sum(rhs),rhsMax =                    NaN  0.00000000000000E+00
 cg2d: Sum(rhs),rhsMax =                    NaN  0.00000000000000E+00
 cg2d: Sum(rhs),rhsMax =                    NaN  0.00000000000000E+00
 cg2d: Sum(rhs),rhsMax =                    NaN  0.00000000000000E+00
 cg2d: Sum(rhs),rhsMax =                    NaN  0.00000000000000E+00
 cg2d: Sum(rhs),rhsMax =                    NaN  0.00000000000000E+00
 cg2d: Sum(rhs),rhsMax =                    NaN  0.00000000000000E+00
 cg2d: Sum(rhs),rhsMax =                    NaN  0.00000000000000E+00
 cg2d: Sum(rhs),rhsMax =                    NaN  0.00000000000000E+00
 cg2d: Sum(rhs),rhsMax =                    NaN  0.00000000000000E+00
 cg2d: Sum(rhs),rhsMax =                    NaN  0.00000000000000E+00
 cg2d: Sum(rhs),rhsMax =                    NaN  0.00000000000000E+00
 cg2d: Sum(rhs),rhsMax =                    NaN  0.00000000000000E+00
 cg2d: Sum(rhs),rhsMax =                    NaN  0.00000000000000E+00
 cg2d: Sum(rhs),rhsMax =                    NaN  0.00000000000000E+00
 cg2d: Sum(rhs),rhsMax =                    NaN  0.00000000000000E+00
 cg2d: Sum(rhs),rhsMax =                    NaN  0.00000000000000E+00
 cg2d: Sum(rhs),rhsMax =                    NaN  0.00000000000000E+00
 cg2d: Sum(rhs),rhsMax =                    NaN  0.00000000000000E+00
 cg2d: Sum(rhs),rhsMax =                    NaN  0.00000000000000E+00
 cg2d: Sum(rhs),rhsMax =                    NaN  0.00000000000000E+00
 cg2d: Sum(rhs),rhsMax =                    NaN  0.00000000000000E+00
 cg2d: Sum(rhs),rhsMax =                    NaN  0.00000000000000E+00
 cg2d: Sum(rhs),rhsMax =                    NaN  0.00000000000000E+00
 cg2d: Sum(rhs),rhsMax =                    NaN  0.00000000000000E+00
 cg2d: Sum(rhs),rhsMax =                    NaN  0.00000000000000E+00
 cg2d: Sum(rhs),rhsMax =                    NaN  0.00000000000000E+00
 cg2d: Sum(rhs),rhsMax =                    NaN  0.00000000000000E+00
 cg2d: Sum(rhs),rhsMax =                    NaN  0.00000000000000E+00
 cg2d: Sum(rhs),rhsMax =                    NaN  0.00000000000000E+00
 cg2d: Sum(rhs),rhsMax =                    NaN  0.00000000000000E+00
 cg2d: Sum(rhs),rhsMax =                    NaN  0.00000000000000E+00
(PID.TID 0000.0001)      cg2d_init_res =                    NaN
(PID.TID 0000.0001)      cg2d_iters(min,last) =      -1    1000
(PID.TID 0000.0001)      cg2d_last_res =                    NaN
(PID.TID 0000.0001) // =======================================================
(PID.TID 0000.0001) // Begin MONITOR dynamic field statistics
(PID.TID 0000.0001) // =======================================================
(PID.TID 0000.0001) %MON time_tsnumber                =                  4320
(PID.TID 0000.0001) %MON time_secondsf                =   6.4800000000000E+04
(PID.TID 0000.0001) %MON dynstat_eta_max              =                   NaN
(PID.TID 0000.0001) %MON dynstat_eta_min              =                   NaN
(PID.TID 0000.0001) %MON dynstat_eta_mean             =                   NaN
(PID.TID 0000.0001) %MON dynstat_eta_sd               =                   NaN
(PID.TID 0000.0001) %MON dynstat_eta_del2             =                   NaN
(PID.TID 0000.0001) %MON dynstat_uvel_max             =   5.6028564143658E-01
(PID.TID 0000.0001) %MON dynstat_uvel_min             =   5.6028564143658E-01
(PID.TID 0000.0001) %MON dynstat_uvel_mean            =                   NaN
(PID.TID 0000.0001) %MON dynstat_uvel_sd              =                   NaN
(PID.TID 0000.0001) %MON dynstat_uvel_del2            =                   NaN
(PID.TID 0000.0001) %MON dynstat_vvel_max             =                   NaN
(PID.TID 0000.0001) %MON dynstat_vvel_min             =                   NaN
(PID.TID 0000.0001) %MON dynstat_vvel_mean            =                   NaN
(PID.TID 0000.0001) %MON dynstat_vvel_sd              =                   NaN
(PID.TID 0000.0001) %MON dynstat_vvel_del2            =                   NaN
(PID.TID 0000.0001) %MON dynstat_wvel_max             =                   NaN
(PID.TID 0000.0001) %MON dynstat_wvel_min             =                   NaN
(PID.TID 0000.0001) %MON dynstat_wvel_mean            =                   NaN
(PID.TID 0000.0001) %MON dynstat_wvel_sd              =                   NaN
(PID.TID 0000.0001) %MON dynstat_wvel_del2            =                   NaN
(PID.TID 0000.0001) %MON dynstat_theta_max            =                   NaN
(PID.TID 0000.0001) %MON dynstat_theta_min            =                   NaN
(PID.TID 0000.0001) %MON dynstat_theta_mean           =                   NaN
(PID.TID 0000.0001) %MON dynstat_theta_sd             =                   NaN
(PID.TID 0000.0001) %MON dynstat_theta_del2           =                   NaN
(PID.TID 0000.0001) %MON dynstat_salt_max             =   3.5000000000000E+01
(PID.TID 0000.0001) %MON dynstat_salt_min             =   3.5000000000000E+01
(PID.TID 0000.0001) %MON dynstat_salt_mean            =   3.5000000000000E+01
(PID.TID 0000.0001) %MON dynstat_salt_sd              =   3.9790393202566E-13
(PID.TID 0000.0001) %MON dynstat_salt_del2            =   0.0000000000000E+00
(PID.TID 0000.0001) %MON dynstat_sst_max              =                   NaN
(PID.TID 0000.0001) %MON dynstat_sst_min              =                   NaN
(PID.TID 0000.0001) %MON dynstat_sst_mean             =                   NaN
(PID.TID 0000.0001) %MON dynstat_sst_sd               =                   NaN
(PID.TID 0000.0001) %MON dynstat_sst_del2             =                   NaN
(PID.TID 0000.0001) %MON dynstat_sss_max              =   3.5000000000000E+01
(PID.TID 0000.0001) %MON dynstat_sss_min              =   3.5000000000000E+01
(PID.TID 0000.0001) %MON dynstat_sss_mean             =   3.5000000000000E+01
(PID.TID 0000.0001) %MON dynstat_sss_sd               =   5.6843418860808E-14
(PID.TID 0000.0001) %MON dynstat_sss_del2             =   0.0000000000000E+00
(PID.TID 0000.0001) %MON forcing_qnet_max             =   0.0000000000000E+00
(PID.TID 0000.0001) %MON forcing_qnet_min             =   0.0000000000000E+00
(PID.TID 0000.0001) %MON forcing_qnet_mean            =   0.0000000000000E+00
(PID.TID 0000.0001) %MON forcing_qnet_sd              =   0.0000000000000E+00
(PID.TID 0000.0001) %MON forcing_qnet_del2            =   0.0000000000000E+00
(PID.TID 0000.0001) %MON forcing_qsw_max              =   0.0000000000000E+00
(PID.TID 0000.0001) %MON forcing_qsw_min              =   0.0000000000000E+00
(PID.TID 0000.0001) %MON forcing_qsw_mean             =   0.0000000000000E+00
(PID.TID 0000.0001) %MON forcing_qsw_sd               =   0.0000000000000E+00
(PID.TID 0000.0001) %MON forcing_qsw_del2             =   0.0000000000000E+00
(PID.TID 0000.0001) %MON forcing_empmr_max            =   0.0000000000000E+00
(PID.TID 0000.0001) %MON forcing_empmr_min            =   0.0000000000000E+00
(PID.TID 0000.0001) %MON forcing_empmr_mean           =   0.0000000000000E+00
(PID.TID 0000.0001) %MON forcing_empmr_sd             =   0.0000000000000E+00
(PID.TID 0000.0001) %MON forcing_empmr_del2           =   0.0000000000000E+00
(PID.TID 0000.0001) %MON forcing_fu_max               =   0.0000000000000E+00
(PID.TID 0000.0001) %MON forcing_fu_min               =   0.0000000000000E+00
(PID.TID 0000.0001) %MON forcing_fu_mean              =   0.0000000000000E+00
(PID.TID 0000.0001) %MON forcing_fu_sd                =   0.0000000000000E+00
(PID.TID 0000.0001) %MON forcing_fu_del2              =   0.0000000000000E+00
(PID.TID 0000.0001) %MON forcing_fv_max               =   0.0000000000000E+00
(PID.TID 0000.0001) %MON forcing_fv_min               =   0.0000000000000E+00
(PID.TID 0000.0001) %MON forcing_fv_mean              =   0.0000000000000E+00
(PID.TID 0000.0001) %MON forcing_fv_sd                =   0.0000000000000E+00
(PID.TID 0000.0001) %MON forcing_fv_del2              =   0.0000000000000E+00
(PID.TID 0000.0001) %MON advcfl_uvel_max              =   8.0384112777411E-03
(PID.TID 0000.0001) %MON advcfl_vvel_max              =   0.0000000000000E+00
(PID.TID 0000.0001) %MON advcfl_wvel_max              =   0.0000000000000E+00
(PID.TID 0000.0001) %MON advcfl_W_hf_max              =   0.0000000000000E+00
(PID.TID 0000.0001) %MON pe_b_mean                    =                   NaN
(PID.TID 0000.0001) %MON ke_max                       =   0.0000000000000E+00
(PID.TID 0000.0001) %MON ke_mean                      =                   NaN
(PID.TID 0000.0001) %MON ke_vol                       =   9.5121673331316E+10
(PID.TID 0000.0001) %MON vort_r_min                   =   0.0000000000000E+00
(PID.TID 0000.0001) %MON vort_r_max                   =   0.0000000000000E+00
(PID.TID 0000.0001) %MON vort_a_mean                  =                   NaN
(PID.TID 0000.0001) %MON vort_a_sd                    =                   NaN
(PID.TID 0000.0001) %MON vort_p_mean                  =                   NaN
(PID.TID 0000.0001) %MON vort_p_sd                    =   0.0000000000000E+00
(PID.TID 0000.0001) %MON surfExpan_theta_mean         =                   NaN
(PID.TID 0000.0001) %MON surfExpan_salt_mean          =                   NaN
(PID.TID 0000.0001) // =======================================================
(PID.TID 0000.0001) // End MONITOR dynamic field statistics
(PID.TID 0000.0001) // =======================================================
(PID.TID 0000.0001) // =======================================================
(PID.TID 0000.0001) // Begin OBCS MONITOR field statistics
(PID.TID 0000.0001) // =======================================================
(PID.TID 0000.0001) %MON obc_E_uVel_max               =   5.6028564143658E-01
(PID.TID 0000.0001) %MON obc_E_uVel_min               =   5.6028564143658E-01
(PID.TID 0000.0001) %MON obc_E_uVel_mean              =   5.6028564143658E-01
(PID.TID 0000.0001) %MON obc_E_uVel_sd                =   7.4505805969238E-09
(PID.TID 0000.0001) %MON obc_E_uVel_Int               =   5.6028564143658E+05
(PID.TID 0000.0001) %MON obc_W_uVel_max               =   5.6028564143658E-01
(PID.TID 0000.0001) %MON obc_W_uVel_min               =   5.6028564143658E-01
(PID.TID 0000.0001) %MON obc_W_uVel_mean              =   5.6028564143658E-01
(PID.TID 0000.0001) %MON obc_W_uVel_sd                =   7.4505805969238E-09
(PID.TID 0000.0001) %MON obc_W_uVel_Int               =   5.6028564143658E+05
(PID.TID 0000.0001) // =======================================================
(PID.TID 0000.0001) // End OBCS MONITOR field statistics
(PID.TID 0000.0001) // =======================================================
(PID.TID 0000.0001) %CHECKPOINT      4320 0000004320
 cg2d: Sum(rhs),rhsMax =                    NaN  0.00000000000000E+00
 cg2d: Sum(rhs),rhsMax =                    NaN  0.00000000000000E+00
 cg2d: Sum(rhs),rhsMax =                    NaN  0.00000000000000E+00
 cg2d: Sum(rhs),rhsMax =                    NaN  0.00000000000000E+00
 cg2d: Sum(rhs),rhsMax =                    NaN  0.00000000000000E+00
 cg2d: Sum(rhs),rhsMax =                    NaN  0.00000000000000E+00
 cg2d: Sum(rhs),rhsMax =                    NaN  0.00000000000000E+00
 cg2d: Sum(rhs),rhsMax =                    NaN  0.00000000000000E+00
 cg2d: Sum(rhs),rhsMax =                    NaN  0.00000000000000E+00
 cg2d: Sum(rhs),rhsMax =                    NaN  0.00000000000000E+00
 cg2d: Sum(rhs),rhsMax =                    NaN  0.00000000000000E+00
 cg2d: Sum(rhs),rhsMax =                    NaN  0.00000000000000E+00
 cg2d: Sum(rhs),rhsMax =                    NaN  0.00000000000000E+00
 cg2d: Sum(rhs),rhsMax =                    NaN  0.00000000000000E+00
 cg2d: Sum(rhs),rhsMax =                    NaN  0.00000000000000E+00
 cg2d: Sum(rhs),rhsMax =                    NaN  0.00000000000000E+00
 cg2d: Sum(rhs),rhsMax =                    NaN  0.00000000000000E+00
 cg2d: Sum(rhs),rhsMax =                    NaN  0.00000000000000E+00
 cg2d: Sum(rhs),rhsMax =                    NaN  0.00000000000000E+00
 cg2d: Sum(rhs),rhsMax =                    NaN  0.00000000000000E+00
 cg2d: Sum(rhs),rhsMax =                    NaN  0.00000000000000E+00
 cg2d: Sum(rhs),rhsMax =                    NaN  0.00000000000000E+00
 cg2d: Sum(rhs),rhsMax =                    NaN  0.00000000000000E+00
 cg2d: Sum(rhs),rhsMax =                    NaN  0.00000000000000E+00
 cg2d: Sum(rhs),rhsMax =                    NaN  0.00000000000000E+00
 cg2d: Sum(rhs),rhsMax =                    NaN  0.00000000000000E+00
 cg2d: Sum(rhs),rhsMax =                    NaN  0.00000000000000E+00
 cg2d: Sum(rhs),rhsMax =                    NaN  0.00000000000000E+00
 cg2d: Sum(rhs),rhsMax =                    NaN  0.00000000000000E+00
 cg2d: Sum(rhs),rhsMax =                    NaN  0.00000000000000E+00
 cg2d: Sum(rhs),rhsMax =                    NaN  0.00000000000000E+00
 cg2d: Sum(rhs),rhsMax =                    NaN  0.00000000000000E+00
 cg2d: Sum(rhs),rhsMax =                    NaN  0.00000000000000E+00
 cg2d: Sum(rhs),rhsMax =                    NaN  0.00000000000000E+00
 cg2d: Sum(rhs),rhsMax =                    NaN  0.00000000000000E+00
 cg2d: Sum(rhs),rhsMax =                    NaN  0.00000000000000E+00
 cg2d: Sum(rhs),rhsMax =                    NaN  0.00000000000000E+00
 cg2d: Sum(rhs),rhsMax =                    NaN  0.00000000000000E+00
 cg2d: Sum(rhs),rhsMax =                    NaN  0.00000000000000E+00
 cg2d: Sum(rhs),rhsMax =                    NaN  0.00000000000000E+00
 cg2d: Sum(rhs),rhsMax =                    NaN  0.00000000000000E+00
 cg2d: Sum(rhs),rhsMax =                    NaN  0.00000000000000E+00
 cg2d: Sum(rhs),rhsMax =                    NaN  0.00000000000000E+00
 cg2d: Sum(rhs),rhsMax =                    NaN  0.00000000000000E+00
 cg2d: Sum(rhs),rhsMax =                    NaN  0.00000000000000E+00
 cg2d: Sum(rhs),rhsMax =                    NaN  0.00000000000000E+00
 cg2d: Sum(rhs),rhsMax =                    NaN  0.00000000000000E+00
 cg2d: Sum(rhs),rhsMax =                    NaN  0.00000000000000E+00
 cg2d: Sum(rhs),rhsMax =                    NaN  0.00000000000000E+00
 cg2d: Sum(rhs),rhsMax =                    NaN  0.00000000000000E+00
 cg2d: Sum(rhs),rhsMax =                    NaN  0.00000000000000E+00
 cg2d: Sum(rhs),rhsMax =                    NaN  0.00000000000000E+00
 cg2d: Sum(rhs),rhsMax =                    NaN  0.00000000000000E+00
 cg2d: Sum(rhs),rhsMax =                    NaN  0.00000000000000E+00
 cg2d: Sum(rhs),rhsMax =                    NaN  0.00000000000000E+00
 cg2d: Sum(rhs),rhsMax =                    NaN  0.00000000000000E+00
 cg2d: Sum(rhs),rhsMax =                    NaN  0.00000000000000E+00
 cg2d: Sum(rhs),rhsMax =                    NaN  0.00000000000000E+00
 cg2d: Sum(rhs),rhsMax =                    NaN  0.00000000000000E+00
 cg2d: Sum(rhs),rhsMax =                    NaN  0.00000000000000E+00
 cg2d: Sum(rhs),rhsMax =                    NaN  0.00000000000000E+00
 cg2d: Sum(rhs),rhsMax =                    NaN  0.00000000000000E+00
 cg2d: Sum(rhs),rhsMax =                    NaN  0.00000000000000E+00
 cg2d: Sum(rhs),rhsMax =                    NaN  0.00000000000000E+00
 cg2d: Sum(rhs),rhsMax =                    NaN  0.00000000000000E+00
 cg2d: Sum(rhs),rhsMax =                    NaN  0.00000000000000E+00
 cg2d: Sum(rhs),rhsMax =                    NaN  0.00000000000000E+00
 cg2d: Sum(rhs),rhsMax =                    NaN  0.00000000000000E+00
 cg2d: Sum(rhs),rhsMax =                    NaN  0.00000000000000E+00
 cg2d: Sum(rhs),rhsMax =                    NaN  0.00000000000000E+00
 cg2d: Sum(rhs),rhsMax =                    NaN  0.00000000000000E+00
 cg2d: Sum(rhs),rhsMax =                    NaN  0.00000000000000E+00
 cg2d: Sum(rhs),rhsMax =                    NaN  0.00000000000000E+00
 cg2d: Sum(rhs),rhsMax =                    NaN  0.00000000000000E+00
 cg2d: Sum(rhs),rhsMax =                    NaN  0.00000000000000E+00
 cg2d: Sum(rhs),rhsMax =                    NaN  0.00000000000000E+00
 cg2d: Sum(rhs),rhsMax =                    NaN  0.00000000000000E+00
 cg2d: Sum(rhs),rhsMax =                    NaN  0.00000000000000E+00
 cg2d: Sum(rhs),rhsMax =                    NaN  0.00000000000000E+00
 cg2d: Sum(rhs),rhsMax =                    NaN  0.00000000000000E+00
 cg2d: Sum(rhs),rhsMax =                    NaN  0.00000000000000E+00
 cg2d: Sum(rhs),rhsMax =                    NaN  0.00000000000000E+00
 cg2d: Sum(rhs),rhsMax =                    NaN  0.00000000000000E+00
 cg2d: Sum(rhs),rhsMax =                    NaN  0.00000000000000E+00
 cg2d: Sum(rhs),rhsMax =                    NaN  0.00000000000000E+00
 cg2d: Sum(rhs),rhsMax =                    NaN  0.00000000000000E+00
 cg2d: Sum(rhs),rhsMax =                    NaN  0.00000000000000E+00
 cg2d: Sum(rhs),rhsMax =                    NaN  0.00000000000000E+00
 cg2d: Sum(rhs),rhsMax =                    NaN  0.00000000000000E+00
 cg2d: Sum(rhs),rhsMax =                    NaN  0.00000000000000E+00
 cg2d: Sum(rhs),rhsMax =                    NaN  0.00000000000000E+00
 cg2d: Sum(rhs),rhsMax =                    NaN  0.00000000000000E+00
 cg2d: Sum(rhs),rhsMax =                    NaN  0.00000000000000E+00
 cg2d: Sum(rhs),rhsMax =                    NaN  0.00000000000000E+00
 cg2d: Sum(rhs),rhsMax =                    NaN  0.00000000000000E+00
 cg2d: Sum(rhs),rhsMax =                    NaN  0.00000000000000E+00
 cg2d: Sum(rhs),rhsMax =                    NaN  0.00000000000000E+00
 cg2d: Sum(rhs),rhsMax =                    NaN  0.00000000000000E+00
 cg2d: Sum(rhs),rhsMax =                    NaN  0.00000000000000E+00
 cg2d: Sum(rhs),rhsMax =                    NaN  0.00000000000000E+00
 cg2d: Sum(rhs),rhsMax =                    NaN  0.00000000000000E+00
 cg2d: Sum(rhs),rhsMax =                    NaN  0.00000000000000E+00
 cg2d: Sum(rhs),rhsMax =                    NaN  0.00000000000000E+00
 cg2d: Sum(rhs),rhsMax =                    NaN  0.00000000000000E+00
 cg2d: Sum(rhs),rhsMax =                    NaN  0.00000000000000E+00
 cg2d: Sum(rhs),rhsMax =                    NaN  0.00000000000000E+00
 cg2d: Sum(rhs),rhsMax =                    NaN  0.00000000000000E+00
 cg2d: Sum(rhs),rhsMax =                    NaN  0.00000000000000E+00
 cg2d: Sum(rhs),rhsMax =                    NaN  0.00000000000000E+00
 cg2d: Sum(rhs),rhsMax =                    NaN  0.00000000000000E+00
 cg2d: Sum(rhs),rhsMax =                    NaN  0.00000000000000E+00
 cg2d: Sum(rhs),rhsMax =                    NaN  0.00000000000000E+00
 cg2d: Sum(rhs),rhsMax =                    NaN  0.00000000000000E+00
 cg2d: Sum(rhs),rhsMax =                    NaN  0.00000000000000E+00
 cg2d: Sum(rhs),rhsMax =                    NaN  0.00000000000000E+00
 cg2d: Sum(rhs),rhsMax =                    NaN  0.00000000000000E+00
 cg2d: Sum(rhs),rhsMax =                    NaN  0.00000000000000E+00
 cg2d: Sum(rhs),rhsMax =                    NaN  0.00000000000000E+00
 cg2d: Sum(rhs),rhsMax =                    NaN  0.00000000000000E+00
 cg2d: Sum(rhs),rhsMax =                    NaN  0.00000000000000E+00
 cg2d: Sum(rhs),rhsMax =                    NaN  0.00000000000000E+00
 cg2d: Sum(rhs),rhsMax =                    NaN  0.00000000000000E+00
 cg2d: Sum(rhs),rhsMax =                    NaN  0.00000000000000E+00
 cg2d: Sum(rhs),rhsMax =                    NaN  0.00000000000000E+00
 cg2d: Sum(rhs),rhsMax =                    NaN  0.00000000000000E+00
 cg2d: Sum(rhs),rhsMax =                    NaN  0.00000000000000E+00
 cg2d: Sum(rhs),rhsMax =                    NaN  0.00000000000000E+00
 cg2d: Sum(rhs),rhsMax =                    NaN  0.00000000000000E+00
 cg2d: Sum(rhs),rhsMax =                    NaN  0.00000000000000E+00
 cg2d: Sum(rhs),rhsMax =                    NaN  0.00000000000000E+00
 cg2d: Sum(rhs),rhsMax =                    NaN  0.00000000000000E+00
 cg2d: Sum(rhs),rhsMax =                    NaN  0.00000000000000E+00
 cg2d: Sum(rhs),rhsMax =                    NaN  0.00000000000000E+00
 cg2d: Sum(rhs),rhsMax =                    NaN  0.00000000000000E+00
 cg2d: Sum(rhs),rhsMax =                    NaN  0.00000000000000E+00
 cg2d: Sum(rhs),rhsMax =                    NaN  0.00000000000000E+00
 cg2d: Sum(rhs),rhsMax =                    NaN  0.00000000000000E+00
 cg2d: Sum(rhs),rhsMax =                    NaN  0.00000000000000E+00
 cg2d: Sum(rhs),rhsMax =                    NaN  0.00000000000000E+00
 cg2d: Sum(rhs),rhsMax =                    NaN  0.00000000000000E+00
 cg2d: Sum(rhs),rhsMax =                    NaN  0.00000000000000E+00
 cg2d: Sum(rhs),rhsMax =                    NaN  0.00000000000000E+00
 cg2d: Sum(rhs),rhsMax =                    NaN  0.00000000000000E+00
 cg2d: Sum(rhs),rhsMax =                    NaN  0.00000000000000E+00
 cg2d: Sum(rhs),rhsMax =                    NaN  0.00000000000000E+00
 cg2d: Sum(rhs),rhsMax =                    NaN  0.00000000000000E+00
 cg2d: Sum(rhs),rhsMax =                    NaN  0.00000000000000E+00
 cg2d: Sum(rhs),rhsMax =                    NaN  0.00000000000000E+00
 cg2d: Sum(rhs),rhsMax =                    NaN  0.00000000000000E+00
 cg2d: Sum(rhs),rhsMax =                    NaN  0.00000000000000E+00
 cg2d: Sum(rhs),rhsMax =                    NaN  0.00000000000000E+00
 cg2d: Sum(rhs),rhsMax =                    NaN  0.00000000000000E+00
 cg2d: Sum(rhs),rhsMax =                    NaN  0.00000000000000E+00
 cg2d: Sum(rhs),rhsMax =                    NaN  0.00000000000000E+00
 cg2d: Sum(rhs),rhsMax =                    NaN  0.00000000000000E+00
 cg2d: Sum(rhs),rhsMax =                    NaN  0.00000000000000E+00
 cg2d: Sum(rhs),rhsMax =                    NaN  0.00000000000000E+00
 cg2d: Sum(rhs),rhsMax =                    NaN  0.00000000000000E+00
 cg2d: Sum(rhs),rhsMax =                    NaN  0.00000000000000E+00
 cg2d: Sum(rhs),rhsMax =                    NaN  0.00000000000000E+00
 cg2d: Sum(rhs),rhsMax =                    NaN  0.00000000000000E+00
 cg2d: Sum(rhs),rhsMax =                    NaN  0.00000000000000E+00
 cg2d: Sum(rhs),rhsMax =                    NaN  0.00000000000000E+00
 cg2d: Sum(rhs),rhsMax =                    NaN  0.00000000000000E+00
 cg2d: Sum(rhs),rhsMax =                    NaN  0.00000000000000E+00
 cg2d: Sum(rhs),rhsMax =                    NaN  0.00000000000000E+00
 cg2d: Sum(rhs),rhsMax =                    NaN  0.00000000000000E+00
 cg2d: Sum(rhs),rhsMax =                    NaN  0.00000000000000E+00
 cg2d: Sum(rhs),rhsMax =                    NaN  0.00000000000000E+00
 cg2d: Sum(rhs),rhsMax =                    NaN  0.00000000000000E+00
 cg2d: Sum(rhs),rhsMax =                    NaN  0.00000000000000E+00
 cg2d: Sum(rhs),rhsMax =                    NaN  0.00000000000000E+00
 cg2d: Sum(rhs),rhsMax =                    NaN  0.00000000000000E+00
 cg2d: Sum(rhs),rhsMax =                    NaN  0.00000000000000E+00
 cg2d: Sum(rhs),rhsMax =                    NaN  0.00000000000000E+00
 cg2d: Sum(rhs),rhsMax =                    NaN  0.00000000000000E+00
 cg2d: Sum(rhs),rhsMax =                    NaN  0.00000000000000E+00
 cg2d: Sum(rhs),rhsMax =                    NaN  0.00000000000000E+00
 cg2d: Sum(rhs),rhsMax =                    NaN  0.00000000000000E+00
 cg2d: Sum(rhs),rhsMax =                    NaN  0.00000000000000E+00
 cg2d: Sum(rhs),rhsMax =                    NaN  0.00000000000000E+00
 cg2d: Sum(rhs),rhsMax =                    NaN  0.00000000000000E+00
 cg2d: Sum(rhs),rhsMax =                    NaN  0.00000000000000E+00
 cg2d: Sum(rhs),rhsMax =                    NaN  0.00000000000000E+00
 cg2d: Sum(rhs),rhsMax =                    NaN  0.00000000000000E+00
 cg2d: Sum(rhs),rhsMax =                    NaN  0.00000000000000E+00
 cg2d: Sum(rhs),rhsMax =                    NaN  0.00000000000000E+00
 cg2d: Sum(rhs),rhsMax =                    NaN  0.00000000000000E+00
 cg2d: Sum(rhs),rhsMax =                    NaN  0.00000000000000E+00
 cg2d: Sum(rhs),rhsMax =                    NaN  0.00000000000000E+00
 cg2d: Sum(rhs),rhsMax =                    NaN  0.00000000000000E+00
 cg2d: Sum(rhs),rhsMax =                    NaN  0.00000000000000E+00
 cg2d: Sum(rhs),rhsMax =                    NaN  0.00000000000000E+00
 cg2d: Sum(rhs),rhsMax =                    NaN  0.00000000000000E+00
 cg2d: Sum(rhs),rhsMax =                    NaN  0.00000000000000E+00
 cg2d: Sum(rhs),rhsMax =                    NaN  0.00000000000000E+00
 cg2d: Sum(rhs),rhsMax =                    NaN  0.00000000000000E+00
 cg2d: Sum(rhs),rhsMax =                    NaN  0.00000000000000E+00
 cg2d: Sum(rhs),rhsMax =                    NaN  0.00000000000000E+00
 cg2d: Sum(rhs),rhsMax =                    NaN  0.00000000000000E+00
 cg2d: Sum(rhs),rhsMax =                    NaN  0.00000000000000E+00
 cg2d: Sum(rhs),rhsMax =                    NaN  0.00000000000000E+00
 cg2d: Sum(rhs),rhsMax =                    NaN  0.00000000000000E+00
 cg2d: Sum(rhs),rhsMax =                    NaN  0.00000000000000E+00
 cg2d: Sum(rhs),rhsMax =                    NaN  0.00000000000000E+00
 cg2d: Sum(rhs),rhsMax =                    NaN  0.00000000000000E+00
 cg2d: Sum(rhs),rhsMax =                    NaN  0.00000000000000E+00
 cg2d: Sum(rhs),rhsMax =                    NaN  0.00000000000000E+00
 cg2d: Sum(rhs),rhsMax =                    NaN  0.00000000000000E+00
 cg2d: Sum(rhs),rhsMax =                    NaN  0.00000000000000E+00
 cg2d: Sum(rhs),rhsMax =                    NaN  0.00000000000000E+00
 cg2d: Sum(rhs),rhsMax =                    NaN  0.00000000000000E+00
 cg2d: Sum(rhs),rhsMax =                    NaN  0.00000000000000E+00
 cg2d: Sum(rhs),rhsMax =                    NaN  0.00000000000000E+00
 cg2d: Sum(rhs),rhsMax =                    NaN  0.00000000000000E+00
 cg2d: Sum(rhs),rhsMax =                    NaN  0.00000000000000E+00
 cg2d: Sum(rhs),rhsMax =                    NaN  0.00000000000000E+00
 cg2d: Sum(rhs),rhsMax =                    NaN  0.00000000000000E+00
 cg2d: Sum(rhs),rhsMax =                    NaN  0.00000000000000E+00
 cg2d: Sum(rhs),rhsMax =                    NaN  0.00000000000000E+00
 cg2d: Sum(rhs),rhsMax =                    NaN  0.00000000000000E+00
 cg2d: Sum(rhs),rhsMax =                    NaN  0.00000000000000E+00
 cg2d: Sum(rhs),rhsMax =                    NaN  0.00000000000000E+00
 cg2d: Sum(rhs),rhsMax =                    NaN  0.00000000000000E+00
 cg2d: Sum(rhs),rhsMax =                    NaN  0.00000000000000E+00
 cg2d: Sum(rhs),rhsMax =                    NaN  0.00000000000000E+00
 cg2d: Sum(rhs),rhsMax =                    NaN  0.00000000000000E+00
 cg2d: Sum(rhs),rhsMax =                    NaN  0.00000000000000E+00
 cg2d: Sum(rhs),rhsMax =                    NaN  0.00000000000000E+00
 cg2d: Sum(rhs),rhsMax =                    NaN  0.00000000000000E+00
 cg2d: Sum(rhs),rhsMax =                    NaN  0.00000000000000E+00
 cg2d: Sum(rhs),rhsMax =                    NaN  0.00000000000000E+00
 cg2d: Sum(rhs),rhsMax =                    NaN  0.00000000000000E+00
 cg2d: Sum(rhs),rhsMax =                    NaN  0.00000000000000E+00
 cg2d: Sum(rhs),rhsMax =                    NaN  0.00000000000000E+00
 cg2d: Sum(rhs),rhsMax =                    NaN  0.00000000000000E+00
 cg2d: Sum(rhs),rhsMax =                    NaN  0.00000000000000E+00
 cg2d: Sum(rhs),rhsMax =                    NaN  0.00000000000000E+00
 cg2d: Sum(rhs),rhsMax =                    NaN  0.00000000000000E+00
 cg2d: Sum(rhs),rhsMax =                    NaN  0.00000000000000E+00
 cg2d: Sum(rhs),rhsMax =                    NaN  0.00000000000000E+00
 cg2d: Sum(rhs),rhsMax =                    NaN  0.00000000000000E+00
 cg2d: Sum(rhs),rhsMax =                    NaN  0.00000000000000E+00
 cg2d: Sum(rhs),rhsMax =                    NaN  0.00000000000000E+00
 cg2d: Sum(rhs),rhsMax =                    NaN  0.00000000000000E+00
 cg2d: Sum(rhs),rhsMax =                    NaN  0.00000000000000E+00
 cg2d: Sum(rhs),rhsMax =                    NaN  0.00000000000000E+00
 cg2d: Sum(rhs),rhsMax =                    NaN  0.00000000000000E+00
 cg2d: Sum(rhs),rhsMax =                    NaN  0.00000000000000E+00
 cg2d: Sum(rhs),rhsMax =                    NaN  0.00000000000000E+00
 cg2d: Sum(rhs),rhsMax =                    NaN  0.00000000000000E+00
 cg2d: Sum(rhs),rhsMax =                    NaN  0.00000000000000E+00
 cg2d: Sum(rhs),rhsMax =                    NaN  0.00000000000000E+00
 cg2d: Sum(rhs),rhsMax =                    NaN  0.00000000000000E+00
 cg2d: Sum(rhs),rhsMax =                    NaN  0.00000000000000E+00
 cg2d: Sum(rhs),rhsMax =                    NaN  0.00000000000000E+00
 cg2d: Sum(rhs),rhsMax =                    NaN  0.00000000000000E+00
 cg2d: Sum(rhs),rhsMax =                    NaN  0.00000000000000E+00
 cg2d: Sum(rhs),rhsMax =                    NaN  0.00000000000000E+00
 cg2d: Sum(rhs),rhsMax =                    NaN  0.00000000000000E+00
 cg2d: Sum(rhs),rhsMax =                    NaN  0.00000000000000E+00
 cg2d: Sum(rhs),rhsMax =                    NaN  0.00000000000000E+00
 cg2d: Sum(rhs),rhsMax =                    NaN  0.00000000000000E+00
 cg2d: Sum(rhs),rhsMax =                    NaN  0.00000000000000E+00
 cg2d: Sum(rhs),rhsMax =                    NaN  0.00000000000000E+00
 cg2d: Sum(rhs),rhsMax =                    NaN  0.00000000000000E+00
 cg2d: Sum(rhs),rhsMax =                    NaN  0.00000000000000E+00
 cg2d: Sum(rhs),rhsMax =                    NaN  0.00000000000000E+00
 cg2d: Sum(rhs),rhsMax =                    NaN  0.00000000000000E+00
 cg2d: Sum(rhs),rhsMax =                    NaN  0.00000000000000E+00
 cg2d: Sum(rhs),rhsMax =                    NaN  0.00000000000000E+00
 cg2d: Sum(rhs),rhsMax =                    NaN  0.00000000000000E+00
 cg2d: Sum(rhs),rhsMax =                    NaN  0.00000000000000E+00
 cg2d: Sum(rhs),rhsMax =                    NaN  0.00000000000000E+00
 cg2d: Sum(rhs),rhsMax =                    NaN  0.00000000000000E+00
 cg2d: Sum(rhs),rhsMax =                    NaN  0.00000000000000E+00
 cg2d: Sum(rhs),rhsMax =                    NaN  0.00000000000000E+00
 cg2d: Sum(rhs),rhsMax =                    NaN  0.00000000000000E+00
 cg2d: Sum(rhs),rhsMax =                    NaN  0.00000000000000E+00
 cg2d: Sum(rhs),rhsMax =                    NaN  0.00000000000000E+00
 cg2d: Sum(rhs),rhsMax =                    NaN  0.00000000000000E+00
 cg2d: Sum(rhs),rhsMax =                    NaN  0.00000000000000E+00
 cg2d: Sum(rhs),rhsMax =                    NaN  0.00000000000000E+00
 cg2d: Sum(rhs),rhsMax =                    NaN  0.00000000000000E+00
 cg2d: Sum(rhs),rhsMax =                    NaN  0.00000000000000E+00
 cg2d: Sum(rhs),rhsMax =                    NaN  0.00000000000000E+00
 cg2d: Sum(rhs),rhsMax =                    NaN  0.00000000000000E+00
 cg2d: Sum(rhs),rhsMax =                    NaN  0.00000000000000E+00
 cg2d: Sum(rhs),rhsMax =                    NaN  0.00000000000000E+00
 cg2d: Sum(rhs),rhsMax =                    NaN  0.00000000000000E+00
 cg2d: Sum(rhs),rhsMax =                    NaN  0.00000000000000E+00
 cg2d: Sum(rhs),rhsMax =                    NaN  0.00000000000000E+00
 cg2d: Sum(rhs),rhsMax =                    NaN  0.00000000000000E+00
 cg2d: Sum(rhs),rhsMax =                    NaN  0.00000000000000E+00
 cg2d: Sum(rhs),rhsMax =                    NaN  0.00000000000000E+00
 cg2d: Sum(rhs),rhsMax =                    NaN  0.00000000000000E+00
 cg2d: Sum(rhs),rhsMax =                    NaN  0.00000000000000E+00
 cg2d: Sum(rhs),rhsMax =                    NaN  0.00000000000000E+00
 cg2d: Sum(rhs),rhsMax =                    NaN  0.00000000000000E+00
 cg2d: Sum(rhs),rhsMax =                    NaN  0.00000000000000E+00
 cg2d: Sum(rhs),rhsMax =                    NaN  0.00000000000000E+00
 cg2d: Sum(rhs),rhsMax =                    NaN  0.00000000000000E+00
 cg2d: Sum(rhs),rhsMax =                    NaN  0.00000000000000E+00
 cg2d: Sum(rhs),rhsMax =                    NaN  0.00000000000000E+00
 cg2d: Sum(rhs),rhsMax =                    NaN  0.00000000000000E+00
 cg2d: Sum(rhs),rhsMax =                    NaN  0.00000000000000E+00
 cg2d: Sum(rhs),rhsMax =                    NaN  0.00000000000000E+00
 cg2d: Sum(rhs),rhsMax =                    NaN  0.00000000000000E+00
 cg2d: Sum(rhs),rhsMax =                    NaN  0.00000000000000E+00
 cg2d: Sum(rhs),rhsMax =                    NaN  0.00000000000000E+00
 cg2d: Sum(rhs),rhsMax =                    NaN  0.00000000000000E+00
 cg2d: Sum(rhs),rhsMax =                    NaN  0.00000000000000E+00
 cg2d: Sum(rhs),rhsMax =                    NaN  0.00000000000000E+00
 cg2d: Sum(rhs),rhsMax =                    NaN  0.00000000000000E+00
 cg2d: Sum(rhs),rhsMax =                    NaN  0.00000000000000E+00
 cg2d: Sum(rhs),rhsMax =                    NaN  0.00000000000000E+00
 cg2d: Sum(rhs),rhsMax =                    NaN  0.00000000000000E+00
 cg2d: Sum(rhs),rhsMax =                    NaN  0.00000000000000E+00
 cg2d: Sum(rhs),rhsMax =                    NaN  0.00000000000000E+00
 cg2d: Sum(rhs),rhsMax =                    NaN  0.00000000000000E+00
 cg2d: Sum(rhs),rhsMax =                    NaN  0.00000000000000E+00
 cg2d: Sum(rhs),rhsMax =                    NaN  0.00000000000000E+00
 cg2d: Sum(rhs),rhsMax =                    NaN  0.00000000000000E+00
 cg2d: Sum(rhs),rhsMax =                    NaN  0.00000000000000E+00
 cg2d: Sum(rhs),rhsMax =                    NaN  0.00000000000000E+00
 cg2d: Sum(rhs),rhsMax =                    NaN  0.00000000000000E+00
 cg2d: Sum(rhs),rhsMax =                    NaN  0.00000000000000E+00
 cg2d: Sum(rhs),rhsMax =                    NaN  0.00000000000000E+00
 cg2d: Sum(rhs),rhsMax =                    NaN  0.00000000000000E+00
 cg2d: Sum(rhs),rhsMax =                    NaN  0.00000000000000E+00
 cg2d: Sum(rhs),rhsMax =                    NaN  0.00000000000000E+00
 cg2d: Sum(rhs),rhsMax =                    NaN  0.00000000000000E+00
 cg2d: Sum(rhs),rhsMax =                    NaN  0.00000000000000E+00
 cg2d: Sum(rhs),rhsMax =                    NaN  0.00000000000000E+00
 cg2d: Sum(rhs),rhsMax =                    NaN  0.00000000000000E+00
 cg2d: Sum(rhs),rhsMax =                    NaN  0.00000000000000E+00
 cg2d: Sum(rhs),rhsMax =                    NaN  0.00000000000000E+00
 cg2d: Sum(rhs),rhsMax =                    NaN  0.00000000000000E+00
 cg2d: Sum(rhs),rhsMax =                    NaN  0.00000000000000E+00
 cg2d: Sum(rhs),rhsMax =                    NaN  0.00000000000000E+00
 cg2d: Sum(rhs),rhsMax =                    NaN  0.00000000000000E+00
 cg2d: Sum(rhs),rhsMax =                    NaN  0.00000000000000E+00
 cg2d: Sum(rhs),rhsMax =                    NaN  0.00000000000000E+00
 cg2d: Sum(rhs),rhsMax =                    NaN  0.00000000000000E+00
 cg2d: Sum(rhs),rhsMax =                    NaN  0.00000000000000E+00
 cg2d: Sum(rhs),rhsMax =                    NaN  0.00000000000000E+00
 cg2d: Sum(rhs),rhsMax =                    NaN  0.00000000000000E+00
 cg2d: Sum(rhs),rhsMax =                    NaN  0.00000000000000E+00
 cg2d: Sum(rhs),rhsMax =                    NaN  0.00000000000000E+00
 cg2d: Sum(rhs),rhsMax =                    NaN  0.00000000000000E+00
 cg2d: Sum(rhs),rhsMax =                    NaN  0.00000000000000E+00
 cg2d: Sum(rhs),rhsMax =                    NaN  0.00000000000000E+00
 cg2d: Sum(rhs),rhsMax =                    NaN  0.00000000000000E+00
 cg2d: Sum(rhs),rhsMax =                    NaN  0.00000000000000E+00
 cg2d: Sum(rhs),rhsMax =                    NaN  0.00000000000000E+00
 cg2d: Sum(rhs),rhsMax =                    NaN  0.00000000000000E+00
 cg2d: Sum(rhs),rhsMax =                    NaN  0.00000000000000E+00
 cg2d: Sum(rhs),rhsMax =                    NaN  0.00000000000000E+00
 cg2d: Sum(rhs),rhsMax =                    NaN  0.00000000000000E+00
 cg2d: Sum(rhs),rhsMax =                    NaN  0.00000000000000E+00
 cg2d: Sum(rhs),rhsMax =                    NaN  0.00000000000000E+00
 cg2d: Sum(rhs),rhsMax =                    NaN  0.00000000000000E+00
 cg2d: Sum(rhs),rhsMax =                    NaN  0.00000000000000E+00
 cg2d: Sum(rhs),rhsMax =                    NaN  0.00000000000000E+00
 cg2d: Sum(rhs),rhsMax =                    NaN  0.00000000000000E+00
 cg2d: Sum(rhs),rhsMax =                    NaN  0.00000000000000E+00
 cg2d: Sum(rhs),rhsMax =                    NaN  0.00000000000000E+00
 cg2d: Sum(rhs),rhsMax =                    NaN  0.00000000000000E+00
 cg2d: Sum(rhs),rhsMax =                    NaN  0.00000000000000E+00
 cg2d: Sum(rhs),rhsMax =                    NaN  0.00000000000000E+00
 cg2d: Sum(rhs),rhsMax =                    NaN  0.00000000000000E+00
 cg2d: Sum(rhs),rhsMax =                    NaN  0.00000000000000E+00
 cg2d: Sum(rhs),rhsMax =                    NaN  0.00000000000000E+00
 cg2d: Sum(rhs),rhsMax =                    NaN  0.00000000000000E+00
 cg2d: Sum(rhs),rhsMax =                    NaN  0.00000000000000E+00
 cg2d: Sum(rhs),rhsMax =                    NaN  0.00000000000000E+00
 cg2d: Sum(rhs),rhsMax =                    NaN  0.00000000000000E+00
 cg2d: Sum(rhs),rhsMax =                    NaN  0.00000000000000E+00
 cg2d: Sum(rhs),rhsMax =                    NaN  0.00000000000000E+00
 cg2d: Sum(rhs),rhsMax =                    NaN  0.00000000000000E+00
 cg2d: Sum(rhs),rhsMax =                    NaN  0.00000000000000E+00
 cg2d: Sum(rhs),rhsMax =                    NaN  0.00000000000000E+00
 cg2d: Sum(rhs),rhsMax =                    NaN  0.00000000000000E+00
 cg2d: Sum(rhs),rhsMax =                    NaN  0.00000000000000E+00
 cg2d: Sum(rhs),rhsMax =                    NaN  0.00000000000000E+00
 cg2d: Sum(rhs),rhsMax =                    NaN  0.00000000000000E+00
 cg2d: Sum(rhs),rhsMax =                    NaN  0.00000000000000E+00
 cg2d: Sum(rhs),rhsMax =                    NaN  0.00000000000000E+00
 cg2d: Sum(rhs),rhsMax =                    NaN  0.00000000000000E+00
 cg2d: Sum(rhs),rhsMax =                    NaN  0.00000000000000E+00
 cg2d: Sum(rhs),rhsMax =                    NaN  0.00000000000000E+00
 cg2d: Sum(rhs),rhsMax =                    NaN  0.00000000000000E+00
 cg2d: Sum(rhs),rhsMax =                    NaN  0.00000000000000E+00
 cg2d: Sum(rhs),rhsMax =                    NaN  0.00000000000000E+00
 cg2d: Sum(rhs),rhsMax =                    NaN  0.00000000000000E+00
 cg2d: Sum(rhs),rhsMax =                    NaN  0.00000000000000E+00
 cg2d: Sum(rhs),rhsMax =                    NaN  0.00000000000000E+00
 cg2d: Sum(rhs),rhsMax =                    NaN  0.00000000000000E+00
 cg2d: Sum(rhs),rhsMax =                    NaN  0.00000000000000E+00
 cg2d: Sum(rhs),rhsMax =                    NaN  0.00000000000000E+00
 cg2d: Sum(rhs),rhsMax =                    NaN  0.00000000000000E+00
 cg2d: Sum(rhs),rhsMax =                    NaN  0.00000000000000E+00
 cg2d: Sum(rhs),rhsMax =                    NaN  0.00000000000000E+00
 cg2d: Sum(rhs),rhsMax =                    NaN  0.00000000000000E+00
 cg2d: Sum(rhs),rhsMax =                    NaN  0.00000000000000E+00
 cg2d: Sum(rhs),rhsMax =                    NaN  0.00000000000000E+00
 cg2d: Sum(rhs),rhsMax =                    NaN  0.00000000000000E+00
 cg2d: Sum(rhs),rhsMax =                    NaN  0.00000000000000E+00
 cg2d: Sum(rhs),rhsMax =                    NaN  0.00000000000000E+00
 cg2d: Sum(rhs),rhsMax =                    NaN  0.00000000000000E+00
 cg2d: Sum(rhs),rhsMax =                    NaN  0.00000000000000E+00
 cg2d: Sum(rhs),rhsMax =                    NaN  0.00000000000000E+00
 cg2d: Sum(rhs),rhsMax =                    NaN  0.00000000000000E+00
 cg2d: Sum(rhs),rhsMax =                    NaN  0.00000000000000E+00
 cg2d: Sum(rhs),rhsMax =                    NaN  0.00000000000000E+00
 cg2d: Sum(rhs),rhsMax =                    NaN  0.00000000000000E+00
 cg2d: Sum(rhs),rhsMax =                    NaN  0.00000000000000E+00
 cg2d: Sum(rhs),rhsMax =                    NaN  0.00000000000000E+00
 cg2d: Sum(rhs),rhsMax =                    NaN  0.00000000000000E+00
 cg2d: Sum(rhs),rhsMax =                    NaN  0.00000000000000E+00
 cg2d: Sum(rhs),rhsMax =                    NaN  0.00000000000000E+00
 cg2d: Sum(rhs),rhsMax =                    NaN  0.00000000000000E+00
 cg2d: Sum(rhs),rhsMax =                    NaN  0.00000000000000E+00
 cg2d: Sum(rhs),rhsMax =                    NaN  0.00000000000000E+00
 cg2d: Sum(rhs),rhsMax =                    NaN  0.00000000000000E+00
 cg2d: Sum(rhs),rhsMax =                    NaN  0.00000000000000E+00
 cg2d: Sum(rhs),rhsMax =                    NaN  0.00000000000000E+00
 cg2d: Sum(rhs),rhsMax =                    NaN  0.00000000000000E+00
 cg2d: Sum(rhs),rhsMax =                    NaN  0.00000000000000E+00
 cg2d: Sum(rhs),rhsMax =                    NaN  0.00000000000000E+00
 cg2d: Sum(rhs),rhsMax =                    NaN  0.00000000000000E+00
 cg2d: Sum(rhs),rhsMax =                    NaN  0.00000000000000E+00
 cg2d: Sum(rhs),rhsMax =                    NaN  0.00000000000000E+00
 cg2d: Sum(rhs),rhsMax =                    NaN  0.00000000000000E+00
 cg2d: Sum(rhs),rhsMax =                    NaN  0.00000000000000E+00
 cg2d: Sum(rhs),rhsMax =                    NaN  0.00000000000000E+00
 cg2d: Sum(rhs),rhsMax =                    NaN  0.00000000000000E+00
 cg2d: Sum(rhs),rhsMax =                    NaN  0.00000000000000E+00
 cg2d: Sum(rhs),rhsMax =                    NaN  0.00000000000000E+00
 cg2d: Sum(rhs),rhsMax =                    NaN  0.00000000000000E+00
 cg2d: Sum(rhs),rhsMax =                    NaN  0.00000000000000E+00
 cg2d: Sum(rhs),rhsMax =                    NaN  0.00000000000000E+00
 cg2d: Sum(rhs),rhsMax =                    NaN  0.00000000000000E+00
 cg2d: Sum(rhs),rhsMax =                    NaN  0.00000000000000E+00
 cg2d: Sum(rhs),rhsMax =                    NaN  0.00000000000000E+00
 cg2d: Sum(rhs),rhsMax =                    NaN  0.00000000000000E+00
 cg2d: Sum(rhs),rhsMax =                    NaN  0.00000000000000E+00
 cg2d: Sum(rhs),rhsMax =                    NaN  0.00000000000000E+00
 cg2d: Sum(rhs),rhsMax =                    NaN  0.00000000000000E+00
 cg2d: Sum(rhs),rhsMax =                    NaN  0.00000000000000E+00
 cg2d: Sum(rhs),rhsMax =                    NaN  0.00000000000000E+00
 cg2d: Sum(rhs),rhsMax =                    NaN  0.00000000000000E+00
 cg2d: Sum(rhs),rhsMax =                    NaN  0.00000000000000E+00
 cg2d: Sum(rhs),rhsMax =                    NaN  0.00000000000000E+00
 cg2d: Sum(rhs),rhsMax =                    NaN  0.00000000000000E+00
 cg2d: Sum(rhs),rhsMax =                    NaN  0.00000000000000E+00
 cg2d: Sum(rhs),rhsMax =                    NaN  0.00000000000000E+00
 cg2d: Sum(rhs),rhsMax =                    NaN  0.00000000000000E+00
 cg2d: Sum(rhs),rhsMax =                    NaN  0.00000000000000E+00
 cg2d: Sum(rhs),rhsMax =                    NaN  0.00000000000000E+00
 cg2d: Sum(rhs),rhsMax =                    NaN  0.00000000000000E+00
 cg2d: Sum(rhs),rhsMax =                    NaN  0.00000000000000E+00
 cg2d: Sum(rhs),rhsMax =                    NaN  0.00000000000000E+00
 cg2d: Sum(rhs),rhsMax =                    NaN  0.00000000000000E+00
 cg2d: Sum(rhs),rhsMax =                    NaN  0.00000000000000E+00
 cg2d: Sum(rhs),rhsMax =                    NaN  0.00000000000000E+00
 cg2d: Sum(rhs),rhsMax =                    NaN  0.00000000000000E+00
 cg2d: Sum(rhs),rhsMax =                    NaN  0.00000000000000E+00
 cg2d: Sum(rhs),rhsMax =                    NaN  0.00000000000000E+00
 cg2d: Sum(rhs),rhsMax =                    NaN  0.00000000000000E+00
 cg2d: Sum(rhs),rhsMax =                    NaN  0.00000000000000E+00
 cg2d: Sum(rhs),rhsMax =                    NaN  0.00000000000000E+00
 cg2d: Sum(rhs),rhsMax =                    NaN  0.00000000000000E+00
 cg2d: Sum(rhs),rhsMax =                    NaN  0.00000000000000E+00
 cg2d: Sum(rhs),rhsMax =                    NaN  0.00000000000000E+00
 cg2d: Sum(rhs),rhsMax =                    NaN  0.00000000000000E+00
 cg2d: Sum(rhs),rhsMax =                    NaN  0.00000000000000E+00
 cg2d: Sum(rhs),rhsMax =                    NaN  0.00000000000000E+00
 cg2d: Sum(rhs),rhsMax =                    NaN  0.00000000000000E+00
 cg2d: Sum(rhs),rhsMax =                    NaN  0.00000000000000E+00
(PID.TID 0000.0001)      cg2d_init_res =                    NaN
(PID.TID 0000.0001)      cg2d_iters(min,last) =      -1    1000
(PID.TID 0000.0001)      cg2d_last_res =                    NaN
(PID.TID 0000.0001) // =======================================================
(PID.TID 0000.0001) // Begin MONITOR dynamic field statistics
(PID.TID 0000.0001) // =======================================================
(PID.TID 0000.0001) %MON time_tsnumber                =                  4800
(PID.TID 0000.0001) %MON time_secondsf                =   7.2000000000000E+04
(PID.TID 0000.0001) %MON dynstat_eta_max              =                   NaN
(PID.TID 0000.0001) %MON dynstat_eta_min              =                   NaN
(PID.TID 0000.0001) %MON dynstat_eta_mean             =                   NaN
(PID.TID 0000.0001) %MON dynstat_eta_sd               =                   NaN
(PID.TID 0000.0001) %MON dynstat_eta_del2             =                   NaN
(PID.TID 0000.0001) %MON dynstat_uvel_max             =   5.6028564143658E-01
(PID.TID 0000.0001) %MON dynstat_uvel_min             =   5.6028564143658E-01
(PID.TID 0000.0001) %MON dynstat_uvel_mean            =                   NaN
(PID.TID 0000.0001) %MON dynstat_uvel_sd              =                   NaN
(PID.TID 0000.0001) %MON dynstat_uvel_del2            =                   NaN
(PID.TID 0000.0001) %MON dynstat_vvel_max             =                   NaN
(PID.TID 0000.0001) %MON dynstat_vvel_min             =                   NaN
(PID.TID 0000.0001) %MON dynstat_vvel_mean            =                   NaN
(PID.TID 0000.0001) %MON dynstat_vvel_sd              =                   NaN
(PID.TID 0000.0001) %MON dynstat_vvel_del2            =                   NaN
(PID.TID 0000.0001) %MON dynstat_wvel_max             =                   NaN
(PID.TID 0000.0001) %MON dynstat_wvel_min             =                   NaN
(PID.TID 0000.0001) %MON dynstat_wvel_mean            =                   NaN
(PID.TID 0000.0001) %MON dynstat_wvel_sd              =                   NaN
(PID.TID 0000.0001) %MON dynstat_wvel_del2            =                   NaN
(PID.TID 0000.0001) %MON dynstat_theta_max            =                   NaN
(PID.TID 0000.0001) %MON dynstat_theta_min            =                   NaN
(PID.TID 0000.0001) %MON dynstat_theta_mean           =                   NaN
(PID.TID 0000.0001) %MON dynstat_theta_sd             =                   NaN
(PID.TID 0000.0001) %MON dynstat_theta_del2           =                   NaN
(PID.TID 0000.0001) %MON dynstat_salt_max             =   3.5000000000000E+01
(PID.TID 0000.0001) %MON dynstat_salt_min             =   3.5000000000000E+01
(PID.TID 0000.0001) %MON dynstat_salt_mean            =   3.5000000000000E+01
(PID.TID 0000.0001) %MON dynstat_salt_sd              =   3.9790393202566E-13
(PID.TID 0000.0001) %MON dynstat_salt_del2            =   0.0000000000000E+00
(PID.TID 0000.0001) %MON dynstat_sst_max              =                   NaN
(PID.TID 0000.0001) %MON dynstat_sst_min              =                   NaN
(PID.TID 0000.0001) %MON dynstat_sst_mean             =                   NaN
(PID.TID 0000.0001) %MON dynstat_sst_sd               =                   NaN
(PID.TID 0000.0001) %MON dynstat_sst_del2             =                   NaN
(PID.TID 0000.0001) %MON dynstat_sss_max              =   3.5000000000000E+01
(PID.TID 0000.0001) %MON dynstat_sss_min              =   3.5000000000000E+01
(PID.TID 0000.0001) %MON dynstat_sss_mean             =   3.5000000000000E+01
(PID.TID 0000.0001) %MON dynstat_sss_sd               =   5.6843418860808E-14
(PID.TID 0000.0001) %MON dynstat_sss_del2             =   0.0000000000000E+00
(PID.TID 0000.0001) %MON forcing_qnet_max             =   0.0000000000000E+00
(PID.TID 0000.0001) %MON forcing_qnet_min             =   0.0000000000000E+00
(PID.TID 0000.0001) %MON forcing_qnet_mean            =   0.0000000000000E+00
(PID.TID 0000.0001) %MON forcing_qnet_sd              =   0.0000000000000E+00
(PID.TID 0000.0001) %MON forcing_qnet_del2            =   0.0000000000000E+00
(PID.TID 0000.0001) %MON forcing_qsw_max              =   0.0000000000000E+00
(PID.TID 0000.0001) %MON forcing_qsw_min              =   0.0000000000000E+00
(PID.TID 0000.0001) %MON forcing_qsw_mean             =   0.0000000000000E+00
(PID.TID 0000.0001) %MON forcing_qsw_sd               =   0.0000000000000E+00
(PID.TID 0000.0001) %MON forcing_qsw_del2             =   0.0000000000000E+00
(PID.TID 0000.0001) %MON forcing_empmr_max            =   0.0000000000000E+00
(PID.TID 0000.0001) %MON forcing_empmr_min            =   0.0000000000000E+00
(PID.TID 0000.0001) %MON forcing_empmr_mean           =   0.0000000000000E+00
(PID.TID 0000.0001) %MON forcing_empmr_sd             =   0.0000000000000E+00
(PID.TID 0000.0001) %MON forcing_empmr_del2           =   0.0000000000000E+00
(PID.TID 0000.0001) %MON forcing_fu_max               =   0.0000000000000E+00
(PID.TID 0000.0001) %MON forcing_fu_min               =   0.0000000000000E+00
(PID.TID 0000.0001) %MON forcing_fu_mean              =   0.0000000000000E+00
(PID.TID 0000.0001) %MON forcing_fu_sd                =   0.0000000000000E+00
(PID.TID 0000.0001) %MON forcing_fu_del2              =   0.0000000000000E+00
(PID.TID 0000.0001) %MON forcing_fv_max               =   0.0000000000000E+00
(PID.TID 0000.0001) %MON forcing_fv_min               =   0.0000000000000E+00
(PID.TID 0000.0001) %MON forcing_fv_mean              =   0.0000000000000E+00
(PID.TID 0000.0001) %MON forcing_fv_sd                =   0.0000000000000E+00
(PID.TID 0000.0001) %MON forcing_fv_del2              =   0.0000000000000E+00
(PID.TID 0000.0001) %MON advcfl_uvel_max              =   8.0384112777411E-03
(PID.TID 0000.0001) %MON advcfl_vvel_max              =   0.0000000000000E+00
(PID.TID 0000.0001) %MON advcfl_wvel_max              =   0.0000000000000E+00
(PID.TID 0000.0001) %MON advcfl_W_hf_max              =   0.0000000000000E+00
(PID.TID 0000.0001) %MON pe_b_mean                    =                   NaN
(PID.TID 0000.0001) %MON ke_max                       =   0.0000000000000E+00
(PID.TID 0000.0001) %MON ke_mean                      =                   NaN
(PID.TID 0000.0001) %MON ke_vol                       =   9.5121673331316E+10
(PID.TID 0000.0001) %MON vort_r_min                   =   0.0000000000000E+00
(PID.TID 0000.0001) %MON vort_r_max                   =   0.0000000000000E+00
(PID.TID 0000.0001) %MON vort_a_mean                  =                   NaN
(PID.TID 0000.0001) %MON vort_a_sd                    =                   NaN
(PID.TID 0000.0001) %MON vort_p_mean                  =                   NaN
(PID.TID 0000.0001) %MON vort_p_sd                    =   0.0000000000000E+00
(PID.TID 0000.0001) %MON surfExpan_theta_mean         =                   NaN
(PID.TID 0000.0001) %MON surfExpan_salt_mean          =                   NaN
(PID.TID 0000.0001) // =======================================================
(PID.TID 0000.0001) // End MONITOR dynamic field statistics
(PID.TID 0000.0001) // =======================================================
(PID.TID 0000.0001) // =======================================================
(PID.TID 0000.0001) // Begin OBCS MONITOR field statistics
(PID.TID 0000.0001) // =======================================================
(PID.TID 0000.0001) %MON obc_E_uVel_max               =   5.6028564143658E-01
(PID.TID 0000.0001) %MON obc_E_uVel_min               =   5.6028564143658E-01
(PID.TID 0000.0001) %MON obc_E_uVel_mean              =   5.6028564143658E-01
(PID.TID 0000.0001) %MON obc_E_uVel_sd                =   7.4505805969238E-09
(PID.TID 0000.0001) %MON obc_E_uVel_Int               =   5.6028564143658E+05
(PID.TID 0000.0001) %MON obc_W_uVel_max               =   5.6028564143658E-01
(PID.TID 0000.0001) %MON obc_W_uVel_min               =   5.6028564143658E-01
(PID.TID 0000.0001) %MON obc_W_uVel_mean              =   5.6028564143658E-01
(PID.TID 0000.0001) %MON obc_W_uVel_sd                =   7.4505805969238E-09
(PID.TID 0000.0001) %MON obc_W_uVel_Int               =   5.6028564143658E+05
(PID.TID 0000.0001) // =======================================================
(PID.TID 0000.0001) // End OBCS MONITOR field statistics
(PID.TID 0000.0001) // =======================================================
 cg2d: Sum(rhs),rhsMax =                    NaN  0.00000000000000E+00
 cg2d: Sum(rhs),rhsMax =                    NaN  0.00000000000000E+00
 cg2d: Sum(rhs),rhsMax =                    NaN  0.00000000000000E+00
 cg2d: Sum(rhs),rhsMax =                    NaN  0.00000000000000E+00
 cg2d: Sum(rhs),rhsMax =                    NaN  0.00000000000000E+00
 cg2d: Sum(rhs),rhsMax =                    NaN  0.00000000000000E+00
 cg2d: Sum(rhs),rhsMax =                    NaN  0.00000000000000E+00
 cg2d: Sum(rhs),rhsMax =                    NaN  0.00000000000000E+00
 cg2d: Sum(rhs),rhsMax =                    NaN  0.00000000000000E+00
 cg2d: Sum(rhs),rhsMax =                    NaN  0.00000000000000E+00
 cg2d: Sum(rhs),rhsMax =                    NaN  0.00000000000000E+00
 cg2d: Sum(rhs),rhsMax =                    NaN  0.00000000000000E+00
 cg2d: Sum(rhs),rhsMax =                    NaN  0.00000000000000E+00
 cg2d: Sum(rhs),rhsMax =                    NaN  0.00000000000000E+00
 cg2d: Sum(rhs),rhsMax =                    NaN  0.00000000000000E+00
 cg2d: Sum(rhs),rhsMax =                    NaN  0.00000000000000E+00
 cg2d: Sum(rhs),rhsMax =                    NaN  0.00000000000000E+00
 cg2d: Sum(rhs),rhsMax =                    NaN  0.00000000000000E+00
 cg2d: Sum(rhs),rhsMax =                    NaN  0.00000000000000E+00
 cg2d: Sum(rhs),rhsMax =                    NaN  0.00000000000000E+00
 cg2d: Sum(rhs),rhsMax =                    NaN  0.00000000000000E+00
 cg2d: Sum(rhs),rhsMax =                    NaN  0.00000000000000E+00
 cg2d: Sum(rhs),rhsMax =                    NaN  0.00000000000000E+00
 cg2d: Sum(rhs),rhsMax =                    NaN  0.00000000000000E+00
 cg2d: Sum(rhs),rhsMax =                    NaN  0.00000000000000E+00
 cg2d: Sum(rhs),rhsMax =                    NaN  0.00000000000000E+00
 cg2d: Sum(rhs),rhsMax =                    NaN  0.00000000000000E+00
 cg2d: Sum(rhs),rhsMax =                    NaN  0.00000000000000E+00
 cg2d: Sum(rhs),rhsMax =                    NaN  0.00000000000000E+00
 cg2d: Sum(rhs),rhsMax =                    NaN  0.00000000000000E+00
 cg2d: Sum(rhs),rhsMax =                    NaN  0.00000000000000E+00
 cg2d: Sum(rhs),rhsMax =                    NaN  0.00000000000000E+00
 cg2d: Sum(rhs),rhsMax =                    NaN  0.00000000000000E+00
 cg2d: Sum(rhs),rhsMax =                    NaN  0.00000000000000E+00
 cg2d: Sum(rhs),rhsMax =                    NaN  0.00000000000000E+00
 cg2d: Sum(rhs),rhsMax =                    NaN  0.00000000000000E+00
 cg2d: Sum(rhs),rhsMax =                    NaN  0.00000000000000E+00
 cg2d: Sum(rhs),rhsMax =                    NaN  0.00000000000000E+00
 cg2d: Sum(rhs),rhsMax =                    NaN  0.00000000000000E+00
 cg2d: Sum(rhs),rhsMax =                    NaN  0.00000000000000E+00
 cg2d: Sum(rhs),rhsMax =                    NaN  0.00000000000000E+00
 cg2d: Sum(rhs),rhsMax =                    NaN  0.00000000000000E+00
 cg2d: Sum(rhs),rhsMax =                    NaN  0.00000000000000E+00
 cg2d: Sum(rhs),rhsMax =                    NaN  0.00000000000000E+00
 cg2d: Sum(rhs),rhsMax =                    NaN  0.00000000000000E+00
 cg2d: Sum(rhs),rhsMax =                    NaN  0.00000000000000E+00
 cg2d: Sum(rhs),rhsMax =                    NaN  0.00000000000000E+00
 cg2d: Sum(rhs),rhsMax =                    NaN  0.00000000000000E+00
 cg2d: Sum(rhs),rhsMax =                    NaN  0.00000000000000E+00
 cg2d: Sum(rhs),rhsMax =                    NaN  0.00000000000000E+00
 cg2d: Sum(rhs),rhsMax =                    NaN  0.00000000000000E+00
 cg2d: Sum(rhs),rhsMax =                    NaN  0.00000000000000E+00
 cg2d: Sum(rhs),rhsMax =                    NaN  0.00000000000000E+00
 cg2d: Sum(rhs),rhsMax =                    NaN  0.00000000000000E+00
 cg2d: Sum(rhs),rhsMax =                    NaN  0.00000000000000E+00
 cg2d: Sum(rhs),rhsMax =                    NaN  0.00000000000000E+00
 cg2d: Sum(rhs),rhsMax =                    NaN  0.00000000000000E+00
 cg2d: Sum(rhs),rhsMax =                    NaN  0.00000000000000E+00
 cg2d: Sum(rhs),rhsMax =                    NaN  0.00000000000000E+00
 cg2d: Sum(rhs),rhsMax =                    NaN  0.00000000000000E+00
 cg2d: Sum(rhs),rhsMax =                    NaN  0.00000000000000E+00
 cg2d: Sum(rhs),rhsMax =                    NaN  0.00000000000000E+00
 cg2d: Sum(rhs),rhsMax =                    NaN  0.00000000000000E+00
 cg2d: Sum(rhs),rhsMax =                    NaN  0.00000000000000E+00
 cg2d: Sum(rhs),rhsMax =                    NaN  0.00000000000000E+00
 cg2d: Sum(rhs),rhsMax =                    NaN  0.00000000000000E+00
 cg2d: Sum(rhs),rhsMax =                    NaN  0.00000000000000E+00
 cg2d: Sum(rhs),rhsMax =                    NaN  0.00000000000000E+00
 cg2d: Sum(rhs),rhsMax =                    NaN  0.00000000000000E+00
 cg2d: Sum(rhs),rhsMax =                    NaN  0.00000000000000E+00
 cg2d: Sum(rhs),rhsMax =                    NaN  0.00000000000000E+00
 cg2d: Sum(rhs),rhsMax =                    NaN  0.00000000000000E+00
 cg2d: Sum(rhs),rhsMax =                    NaN  0.00000000000000E+00
 cg2d: Sum(rhs),rhsMax =                    NaN  0.00000000000000E+00
 cg2d: Sum(rhs),rhsMax =                    NaN  0.00000000000000E+00
 cg2d: Sum(rhs),rhsMax =                    NaN  0.00000000000000E+00
 cg2d: Sum(rhs),rhsMax =                    NaN  0.00000000000000E+00
 cg2d: Sum(rhs),rhsMax =                    NaN  0.00000000000000E+00
 cg2d: Sum(rhs),rhsMax =                    NaN  0.00000000000000E+00
 cg2d: Sum(rhs),rhsMax =                    NaN  0.00000000000000E+00
 cg2d: Sum(rhs),rhsMax =                    NaN  0.00000000000000E+00
 cg2d: Sum(rhs),rhsMax =                    NaN  0.00000000000000E+00
 cg2d: Sum(rhs),rhsMax =                    NaN  0.00000000000000E+00
 cg2d: Sum(rhs),rhsMax =                    NaN  0.00000000000000E+00
 cg2d: Sum(rhs),rhsMax =                    NaN  0.00000000000000E+00
 cg2d: Sum(rhs),rhsMax =                    NaN  0.00000000000000E+00
 cg2d: Sum(rhs),rhsMax =                    NaN  0.00000000000000E+00
 cg2d: Sum(rhs),rhsMax =                    NaN  0.00000000000000E+00
 cg2d: Sum(rhs),rhsMax =                    NaN  0.00000000000000E+00
 cg2d: Sum(rhs),rhsMax =                    NaN  0.00000000000000E+00
 cg2d: Sum(rhs),rhsMax =                    NaN  0.00000000000000E+00
 cg2d: Sum(rhs),rhsMax =                    NaN  0.00000000000000E+00
 cg2d: Sum(rhs),rhsMax =                    NaN  0.00000000000000E+00
 cg2d: Sum(rhs),rhsMax =                    NaN  0.00000000000000E+00
 cg2d: Sum(rhs),rhsMax =                    NaN  0.00000000000000E+00
 cg2d: Sum(rhs),rhsMax =                    NaN  0.00000000000000E+00
 cg2d: Sum(rhs),rhsMax =                    NaN  0.00000000000000E+00
 cg2d: Sum(rhs),rhsMax =                    NaN  0.00000000000000E+00
 cg2d: Sum(rhs),rhsMax =                    NaN  0.00000000000000E+00
 cg2d: Sum(rhs),rhsMax =                    NaN  0.00000000000000E+00
 cg2d: Sum(rhs),rhsMax =                    NaN  0.00000000000000E+00
 cg2d: Sum(rhs),rhsMax =                    NaN  0.00000000000000E+00
 cg2d: Sum(rhs),rhsMax =                    NaN  0.00000000000000E+00
 cg2d: Sum(rhs),rhsMax =                    NaN  0.00000000000000E+00
 cg2d: Sum(rhs),rhsMax =                    NaN  0.00000000000000E+00
 cg2d: Sum(rhs),rhsMax =                    NaN  0.00000000000000E+00
 cg2d: Sum(rhs),rhsMax =                    NaN  0.00000000000000E+00
 cg2d: Sum(rhs),rhsMax =                    NaN  0.00000000000000E+00
 cg2d: Sum(rhs),rhsMax =                    NaN  0.00000000000000E+00
 cg2d: Sum(rhs),rhsMax =                    NaN  0.00000000000000E+00
 cg2d: Sum(rhs),rhsMax =                    NaN  0.00000000000000E+00
 cg2d: Sum(rhs),rhsMax =                    NaN  0.00000000000000E+00
 cg2d: Sum(rhs),rhsMax =                    NaN  0.00000000000000E+00
 cg2d: Sum(rhs),rhsMax =                    NaN  0.00000000000000E+00
 cg2d: Sum(rhs),rhsMax =                    NaN  0.00000000000000E+00
 cg2d: Sum(rhs),rhsMax =                    NaN  0.00000000000000E+00
 cg2d: Sum(rhs),rhsMax =                    NaN  0.00000000000000E+00
 cg2d: Sum(rhs),rhsMax =                    NaN  0.00000000000000E+00
 cg2d: Sum(rhs),rhsMax =                    NaN  0.00000000000000E+00
 cg2d: Sum(rhs),rhsMax =                    NaN  0.00000000000000E+00
 cg2d: Sum(rhs),rhsMax =                    NaN  0.00000000000000E+00
 cg2d: Sum(rhs),rhsMax =                    NaN  0.00000000000000E+00
 cg2d: Sum(rhs),rhsMax =                    NaN  0.00000000000000E+00
 cg2d: Sum(rhs),rhsMax =                    NaN  0.00000000000000E+00
 cg2d: Sum(rhs),rhsMax =                    NaN  0.00000000000000E+00
 cg2d: Sum(rhs),rhsMax =                    NaN  0.00000000000000E+00
 cg2d: Sum(rhs),rhsMax =                    NaN  0.00000000000000E+00
 cg2d: Sum(rhs),rhsMax =                    NaN  0.00000000000000E+00
 cg2d: Sum(rhs),rhsMax =                    NaN  0.00000000000000E+00
 cg2d: Sum(rhs),rhsMax =                    NaN  0.00000000000000E+00
 cg2d: Sum(rhs),rhsMax =                    NaN  0.00000000000000E+00
 cg2d: Sum(rhs),rhsMax =                    NaN  0.00000000000000E+00
 cg2d: Sum(rhs),rhsMax =                    NaN  0.00000000000000E+00
 cg2d: Sum(rhs),rhsMax =                    NaN  0.00000000000000E+00
 cg2d: Sum(rhs),rhsMax =                    NaN  0.00000000000000E+00
 cg2d: Sum(rhs),rhsMax =                    NaN  0.00000000000000E+00
 cg2d: Sum(rhs),rhsMax =                    NaN  0.00000000000000E+00
 cg2d: Sum(rhs),rhsMax =                    NaN  0.00000000000000E+00
 cg2d: Sum(rhs),rhsMax =                    NaN  0.00000000000000E+00
 cg2d: Sum(rhs),rhsMax =                    NaN  0.00000000000000E+00
 cg2d: Sum(rhs),rhsMax =                    NaN  0.00000000000000E+00
 cg2d: Sum(rhs),rhsMax =                    NaN  0.00000000000000E+00
 cg2d: Sum(rhs),rhsMax =                    NaN  0.00000000000000E+00
 cg2d: Sum(rhs),rhsMax =                    NaN  0.00000000000000E+00
 cg2d: Sum(rhs),rhsMax =                    NaN  0.00000000000000E+00
 cg2d: Sum(rhs),rhsMax =                    NaN  0.00000000000000E+00
 cg2d: Sum(rhs),rhsMax =                    NaN  0.00000000000000E+00
 cg2d: Sum(rhs),rhsMax =                    NaN  0.00000000000000E+00
 cg2d: Sum(rhs),rhsMax =                    NaN  0.00000000000000E+00
 cg2d: Sum(rhs),rhsMax =                    NaN  0.00000000000000E+00
 cg2d: Sum(rhs),rhsMax =                    NaN  0.00000000000000E+00
 cg2d: Sum(rhs),rhsMax =                    NaN  0.00000000000000E+00
 cg2d: Sum(rhs),rhsMax =                    NaN  0.00000000000000E+00
 cg2d: Sum(rhs),rhsMax =                    NaN  0.00000000000000E+00
 cg2d: Sum(rhs),rhsMax =                    NaN  0.00000000000000E+00
 cg2d: Sum(rhs),rhsMax =                    NaN  0.00000000000000E+00
 cg2d: Sum(rhs),rhsMax =                    NaN  0.00000000000000E+00
 cg2d: Sum(rhs),rhsMax =                    NaN  0.00000000000000E+00
 cg2d: Sum(rhs),rhsMax =                    NaN  0.00000000000000E+00
 cg2d: Sum(rhs),rhsMax =                    NaN  0.00000000000000E+00
 cg2d: Sum(rhs),rhsMax =                    NaN  0.00000000000000E+00
 cg2d: Sum(rhs),rhsMax =                    NaN  0.00000000000000E+00
 cg2d: Sum(rhs),rhsMax =                    NaN  0.00000000000000E+00
 cg2d: Sum(rhs),rhsMax =                    NaN  0.00000000000000E+00
 cg2d: Sum(rhs),rhsMax =                    NaN  0.00000000000000E+00
 cg2d: Sum(rhs),rhsMax =                    NaN  0.00000000000000E+00
 cg2d: Sum(rhs),rhsMax =                    NaN  0.00000000000000E+00
 cg2d: Sum(rhs),rhsMax =                    NaN  0.00000000000000E+00
 cg2d: Sum(rhs),rhsMax =                    NaN  0.00000000000000E+00
 cg2d: Sum(rhs),rhsMax =                    NaN  0.00000000000000E+00
 cg2d: Sum(rhs),rhsMax =                    NaN  0.00000000000000E+00
 cg2d: Sum(rhs),rhsMax =                    NaN  0.00000000000000E+00
 cg2d: Sum(rhs),rhsMax =                    NaN  0.00000000000000E+00
 cg2d: Sum(rhs),rhsMax =                    NaN  0.00000000000000E+00
 cg2d: Sum(rhs),rhsMax =                    NaN  0.00000000000000E+00
 cg2d: Sum(rhs),rhsMax =                    NaN  0.00000000000000E+00
 cg2d: Sum(rhs),rhsMax =                    NaN  0.00000000000000E+00
 cg2d: Sum(rhs),rhsMax =                    NaN  0.00000000000000E+00
 cg2d: Sum(rhs),rhsMax =                    NaN  0.00000000000000E+00
 cg2d: Sum(rhs),rhsMax =                    NaN  0.00000000000000E+00
 cg2d: Sum(rhs),rhsMax =                    NaN  0.00000000000000E+00
 cg2d: Sum(rhs),rhsMax =                    NaN  0.00000000000000E+00
 cg2d: Sum(rhs),rhsMax =                    NaN  0.00000000000000E+00
 cg2d: Sum(rhs),rhsMax =                    NaN  0.00000000000000E+00
 cg2d: Sum(rhs),rhsMax =                    NaN  0.00000000000000E+00
 cg2d: Sum(rhs),rhsMax =                    NaN  0.00000000000000E+00
 cg2d: Sum(rhs),rhsMax =                    NaN  0.00000000000000E+00
 cg2d: Sum(rhs),rhsMax =                    NaN  0.00000000000000E+00
 cg2d: Sum(rhs),rhsMax =                    NaN  0.00000000000000E+00
 cg2d: Sum(rhs),rhsMax =                    NaN  0.00000000000000E+00
 cg2d: Sum(rhs),rhsMax =                    NaN  0.00000000000000E+00
 cg2d: Sum(rhs),rhsMax =                    NaN  0.00000000000000E+00
 cg2d: Sum(rhs),rhsMax =                    NaN  0.00000000000000E+00
 cg2d: Sum(rhs),rhsMax =                    NaN  0.00000000000000E+00
 cg2d: Sum(rhs),rhsMax =                    NaN  0.00000000000000E+00
 cg2d: Sum(rhs),rhsMax =                    NaN  0.00000000000000E+00
 cg2d: Sum(rhs),rhsMax =                    NaN  0.00000000000000E+00
 cg2d: Sum(rhs),rhsMax =                    NaN  0.00000000000000E+00
 cg2d: Sum(rhs),rhsMax =                    NaN  0.00000000000000E+00
 cg2d: Sum(rhs),rhsMax =                    NaN  0.00000000000000E+00
 cg2d: Sum(rhs),rhsMax =                    NaN  0.00000000000000E+00
 cg2d: Sum(rhs),rhsMax =                    NaN  0.00000000000000E+00
 cg2d: Sum(rhs),rhsMax =                    NaN  0.00000000000000E+00
 cg2d: Sum(rhs),rhsMax =                    NaN  0.00000000000000E+00
 cg2d: Sum(rhs),rhsMax =                    NaN  0.00000000000000E+00
 cg2d: Sum(rhs),rhsMax =                    NaN  0.00000000000000E+00
 cg2d: Sum(rhs),rhsMax =                    NaN  0.00000000000000E+00
 cg2d: Sum(rhs),rhsMax =                    NaN  0.00000000000000E+00
 cg2d: Sum(rhs),rhsMax =                    NaN  0.00000000000000E+00
 cg2d: Sum(rhs),rhsMax =                    NaN  0.00000000000000E+00
 cg2d: Sum(rhs),rhsMax =                    NaN  0.00000000000000E+00
 cg2d: Sum(rhs),rhsMax =                    NaN  0.00000000000000E+00
 cg2d: Sum(rhs),rhsMax =                    NaN  0.00000000000000E+00
 cg2d: Sum(rhs),rhsMax =                    NaN  0.00000000000000E+00
 cg2d: Sum(rhs),rhsMax =                    NaN  0.00000000000000E+00
 cg2d: Sum(rhs),rhsMax =                    NaN  0.00000000000000E+00
 cg2d: Sum(rhs),rhsMax =                    NaN  0.00000000000000E+00
 cg2d: Sum(rhs),rhsMax =                    NaN  0.00000000000000E+00
 cg2d: Sum(rhs),rhsMax =                    NaN  0.00000000000000E+00
 cg2d: Sum(rhs),rhsMax =                    NaN  0.00000000000000E+00
 cg2d: Sum(rhs),rhsMax =                    NaN  0.00000000000000E+00
 cg2d: Sum(rhs),rhsMax =                    NaN  0.00000000000000E+00
 cg2d: Sum(rhs),rhsMax =                    NaN  0.00000000000000E+00
 cg2d: Sum(rhs),rhsMax =                    NaN  0.00000000000000E+00
 cg2d: Sum(rhs),rhsMax =                    NaN  0.00000000000000E+00
 cg2d: Sum(rhs),rhsMax =                    NaN  0.00000000000000E+00
 cg2d: Sum(rhs),rhsMax =                    NaN  0.00000000000000E+00
 cg2d: Sum(rhs),rhsMax =                    NaN  0.00000000000000E+00
 cg2d: Sum(rhs),rhsMax =                    NaN  0.00000000000000E+00
 cg2d: Sum(rhs),rhsMax =                    NaN  0.00000000000000E+00
 cg2d: Sum(rhs),rhsMax =                    NaN  0.00000000000000E+00
 cg2d: Sum(rhs),rhsMax =                    NaN  0.00000000000000E+00
 cg2d: Sum(rhs),rhsMax =                    NaN  0.00000000000000E+00
 cg2d: Sum(rhs),rhsMax =                    NaN  0.00000000000000E+00
 cg2d: Sum(rhs),rhsMax =                    NaN  0.00000000000000E+00
 cg2d: Sum(rhs),rhsMax =                    NaN  0.00000000000000E+00
 cg2d: Sum(rhs),rhsMax =                    NaN  0.00000000000000E+00
 cg2d: Sum(rhs),rhsMax =                    NaN  0.00000000000000E+00
 cg2d: Sum(rhs),rhsMax =                    NaN  0.00000000000000E+00
 cg2d: Sum(rhs),rhsMax =                    NaN  0.00000000000000E+00
 cg2d: Sum(rhs),rhsMax =                    NaN  0.00000000000000E+00
 cg2d: Sum(rhs),rhsMax =                    NaN  0.00000000000000E+00
 cg2d: Sum(rhs),rhsMax =                    NaN  0.00000000000000E+00
 cg2d: Sum(rhs),rhsMax =                    NaN  0.00000000000000E+00
 cg2d: Sum(rhs),rhsMax =                    NaN  0.00000000000000E+00
 cg2d: Sum(rhs),rhsMax =                    NaN  0.00000000000000E+00
 cg2d: Sum(rhs),rhsMax =                    NaN  0.00000000000000E+00
 cg2d: Sum(rhs),rhsMax =                    NaN  0.00000000000000E+00
 cg2d: Sum(rhs),rhsMax =                    NaN  0.00000000000000E+00
 cg2d: Sum(rhs),rhsMax =                    NaN  0.00000000000000E+00
 cg2d: Sum(rhs),rhsMax =                    NaN  0.00000000000000E+00
 cg2d: Sum(rhs),rhsMax =                    NaN  0.00000000000000E+00
 cg2d: Sum(rhs),rhsMax =                    NaN  0.00000000000000E+00
 cg2d: Sum(rhs),rhsMax =                    NaN  0.00000000000000E+00
 cg2d: Sum(rhs),rhsMax =                    NaN  0.00000000000000E+00
 cg2d: Sum(rhs),rhsMax =                    NaN  0.00000000000000E+00
 cg2d: Sum(rhs),rhsMax =                    NaN  0.00000000000000E+00
 cg2d: Sum(rhs),rhsMax =                    NaN  0.00000000000000E+00
 cg2d: Sum(rhs),rhsMax =                    NaN  0.00000000000000E+00
 cg2d: Sum(rhs),rhsMax =                    NaN  0.00000000000000E+00
 cg2d: Sum(rhs),rhsMax =                    NaN  0.00000000000000E+00
 cg2d: Sum(rhs),rhsMax =                    NaN  0.00000000000000E+00
 cg2d: Sum(rhs),rhsMax =                    NaN  0.00000000000000E+00
 cg2d: Sum(rhs),rhsMax =                    NaN  0.00000000000000E+00
 cg2d: Sum(rhs),rhsMax =                    NaN  0.00000000000000E+00
 cg2d: Sum(rhs),rhsMax =                    NaN  0.00000000000000E+00
 cg2d: Sum(rhs),rhsMax =                    NaN  0.00000000000000E+00
 cg2d: Sum(rhs),rhsMax =                    NaN  0.00000000000000E+00
 cg2d: Sum(rhs),rhsMax =                    NaN  0.00000000000000E+00
 cg2d: Sum(rhs),rhsMax =                    NaN  0.00000000000000E+00
 cg2d: Sum(rhs),rhsMax =                    NaN  0.00000000000000E+00
 cg2d: Sum(rhs),rhsMax =                    NaN  0.00000000000000E+00
 cg2d: Sum(rhs),rhsMax =                    NaN  0.00000000000000E+00
 cg2d: Sum(rhs),rhsMax =                    NaN  0.00000000000000E+00
 cg2d: Sum(rhs),rhsMax =                    NaN  0.00000000000000E+00
 cg2d: Sum(rhs),rhsMax =                    NaN  0.00000000000000E+00
 cg2d: Sum(rhs),rhsMax =                    NaN  0.00000000000000E+00
 cg2d: Sum(rhs),rhsMax =                    NaN  0.00000000000000E+00
 cg2d: Sum(rhs),rhsMax =                    NaN  0.00000000000000E+00
 cg2d: Sum(rhs),rhsMax =                    NaN  0.00000000000000E+00
 cg2d: Sum(rhs),rhsMax =                    NaN  0.00000000000000E+00
 cg2d: Sum(rhs),rhsMax =                    NaN  0.00000000000000E+00
 cg2d: Sum(rhs),rhsMax =                    NaN  0.00000000000000E+00
 cg2d: Sum(rhs),rhsMax =                    NaN  0.00000000000000E+00
 cg2d: Sum(rhs),rhsMax =                    NaN  0.00000000000000E+00
 cg2d: Sum(rhs),rhsMax =                    NaN  0.00000000000000E+00
 cg2d: Sum(rhs),rhsMax =                    NaN  0.00000000000000E+00
 cg2d: Sum(rhs),rhsMax =                    NaN  0.00000000000000E+00
 cg2d: Sum(rhs),rhsMax =                    NaN  0.00000000000000E+00
 cg2d: Sum(rhs),rhsMax =                    NaN  0.00000000000000E+00
 cg2d: Sum(rhs),rhsMax =                    NaN  0.00000000000000E+00
 cg2d: Sum(rhs),rhsMax =                    NaN  0.00000000000000E+00
 cg2d: Sum(rhs),rhsMax =                    NaN  0.00000000000000E+00
 cg2d: Sum(rhs),rhsMax =                    NaN  0.00000000000000E+00
 cg2d: Sum(rhs),rhsMax =                    NaN  0.00000000000000E+00
 cg2d: Sum(rhs),rhsMax =                    NaN  0.00000000000000E+00
 cg2d: Sum(rhs),rhsMax =                    NaN  0.00000000000000E+00
 cg2d: Sum(rhs),rhsMax =                    NaN  0.00000000000000E+00
 cg2d: Sum(rhs),rhsMax =                    NaN  0.00000000000000E+00
 cg2d: Sum(rhs),rhsMax =                    NaN  0.00000000000000E+00
 cg2d: Sum(rhs),rhsMax =                    NaN  0.00000000000000E+00
 cg2d: Sum(rhs),rhsMax =                    NaN  0.00000000000000E+00
 cg2d: Sum(rhs),rhsMax =                    NaN  0.00000000000000E+00
 cg2d: Sum(rhs),rhsMax =                    NaN  0.00000000000000E+00
 cg2d: Sum(rhs),rhsMax =                    NaN  0.00000000000000E+00
 cg2d: Sum(rhs),rhsMax =                    NaN  0.00000000000000E+00
 cg2d: Sum(rhs),rhsMax =                    NaN  0.00000000000000E+00
 cg2d: Sum(rhs),rhsMax =                    NaN  0.00000000000000E+00
 cg2d: Sum(rhs),rhsMax =                    NaN  0.00000000000000E+00
 cg2d: Sum(rhs),rhsMax =                    NaN  0.00000000000000E+00
 cg2d: Sum(rhs),rhsMax =                    NaN  0.00000000000000E+00
 cg2d: Sum(rhs),rhsMax =                    NaN  0.00000000000000E+00
 cg2d: Sum(rhs),rhsMax =                    NaN  0.00000000000000E+00
 cg2d: Sum(rhs),rhsMax =                    NaN  0.00000000000000E+00
 cg2d: Sum(rhs),rhsMax =                    NaN  0.00000000000000E+00
 cg2d: Sum(rhs),rhsMax =                    NaN  0.00000000000000E+00
 cg2d: Sum(rhs),rhsMax =                    NaN  0.00000000000000E+00
 cg2d: Sum(rhs),rhsMax =                    NaN  0.00000000000000E+00
 cg2d: Sum(rhs),rhsMax =                    NaN  0.00000000000000E+00
 cg2d: Sum(rhs),rhsMax =                    NaN  0.00000000000000E+00
 cg2d: Sum(rhs),rhsMax =                    NaN  0.00000000000000E+00
 cg2d: Sum(rhs),rhsMax =                    NaN  0.00000000000000E+00
 cg2d: Sum(rhs),rhsMax =                    NaN  0.00000000000000E+00
 cg2d: Sum(rhs),rhsMax =                    NaN  0.00000000000000E+00
 cg2d: Sum(rhs),rhsMax =                    NaN  0.00000000000000E+00
 cg2d: Sum(rhs),rhsMax =                    NaN  0.00000000000000E+00
 cg2d: Sum(rhs),rhsMax =                    NaN  0.00000000000000E+00
 cg2d: Sum(rhs),rhsMax =                    NaN  0.00000000000000E+00
 cg2d: Sum(rhs),rhsMax =                    NaN  0.00000000000000E+00
 cg2d: Sum(rhs),rhsMax =                    NaN  0.00000000000000E+00
 cg2d: Sum(rhs),rhsMax =                    NaN  0.00000000000000E+00
 cg2d: Sum(rhs),rhsMax =                    NaN  0.00000000000000E+00
 cg2d: Sum(rhs),rhsMax =                    NaN  0.00000000000000E+00
 cg2d: Sum(rhs),rhsMax =                    NaN  0.00000000000000E+00
 cg2d: Sum(rhs),rhsMax =                    NaN  0.00000000000000E+00
 cg2d: Sum(rhs),rhsMax =                    NaN  0.00000000000000E+00
 cg2d: Sum(rhs),rhsMax =                    NaN  0.00000000000000E+00
 cg2d: Sum(rhs),rhsMax =                    NaN  0.00000000000000E+00
 cg2d: Sum(rhs),rhsMax =                    NaN  0.00000000000000E+00
 cg2d: Sum(rhs),rhsMax =                    NaN  0.00000000000000E+00
 cg2d: Sum(rhs),rhsMax =                    NaN  0.00000000000000E+00
 cg2d: Sum(rhs),rhsMax =                    NaN  0.00000000000000E+00
 cg2d: Sum(rhs),rhsMax =                    NaN  0.00000000000000E+00
 cg2d: Sum(rhs),rhsMax =                    NaN  0.00000000000000E+00
 cg2d: Sum(rhs),rhsMax =                    NaN  0.00000000000000E+00
 cg2d: Sum(rhs),rhsMax =                    NaN  0.00000000000000E+00
 cg2d: Sum(rhs),rhsMax =                    NaN  0.00000000000000E+00
 cg2d: Sum(rhs),rhsMax =                    NaN  0.00000000000000E+00
 cg2d: Sum(rhs),rhsMax =                    NaN  0.00000000000000E+00
 cg2d: Sum(rhs),rhsMax =                    NaN  0.00000000000000E+00
 cg2d: Sum(rhs),rhsMax =                    NaN  0.00000000000000E+00
 cg2d: Sum(rhs),rhsMax =                    NaN  0.00000000000000E+00
 cg2d: Sum(rhs),rhsMax =                    NaN  0.00000000000000E+00
 cg2d: Sum(rhs),rhsMax =                    NaN  0.00000000000000E+00
 cg2d: Sum(rhs),rhsMax =                    NaN  0.00000000000000E+00
 cg2d: Sum(rhs),rhsMax =                    NaN  0.00000000000000E+00
 cg2d: Sum(rhs),rhsMax =                    NaN  0.00000000000000E+00
 cg2d: Sum(rhs),rhsMax =                    NaN  0.00000000000000E+00
 cg2d: Sum(rhs),rhsMax =                    NaN  0.00000000000000E+00
 cg2d: Sum(rhs),rhsMax =                    NaN  0.00000000000000E+00
 cg2d: Sum(rhs),rhsMax =                    NaN  0.00000000000000E+00
 cg2d: Sum(rhs),rhsMax =                    NaN  0.00000000000000E+00
 cg2d: Sum(rhs),rhsMax =                    NaN  0.00000000000000E+00
 cg2d: Sum(rhs),rhsMax =                    NaN  0.00000000000000E+00
 cg2d: Sum(rhs),rhsMax =                    NaN  0.00000000000000E+00
 cg2d: Sum(rhs),rhsMax =                    NaN  0.00000000000000E+00
 cg2d: Sum(rhs),rhsMax =                    NaN  0.00000000000000E+00
 cg2d: Sum(rhs),rhsMax =                    NaN  0.00000000000000E+00
 cg2d: Sum(rhs),rhsMax =                    NaN  0.00000000000000E+00
 cg2d: Sum(rhs),rhsMax =                    NaN  0.00000000000000E+00
 cg2d: Sum(rhs),rhsMax =                    NaN  0.00000000000000E+00
 cg2d: Sum(rhs),rhsMax =                    NaN  0.00000000000000E+00
 cg2d: Sum(rhs),rhsMax =                    NaN  0.00000000000000E+00
 cg2d: Sum(rhs),rhsMax =                    NaN  0.00000000000000E+00
 cg2d: Sum(rhs),rhsMax =                    NaN  0.00000000000000E+00
 cg2d: Sum(rhs),rhsMax =                    NaN  0.00000000000000E+00
 cg2d: Sum(rhs),rhsMax =                    NaN  0.00000000000000E+00
 cg2d: Sum(rhs),rhsMax =                    NaN  0.00000000000000E+00
 cg2d: Sum(rhs),rhsMax =                    NaN  0.00000000000000E+00
 cg2d: Sum(rhs),rhsMax =                    NaN  0.00000000000000E+00
 cg2d: Sum(rhs),rhsMax =                    NaN  0.00000000000000E+00
 cg2d: Sum(rhs),rhsMax =                    NaN  0.00000000000000E+00
 cg2d: Sum(rhs),rhsMax =                    NaN  0.00000000000000E+00
 cg2d: Sum(rhs),rhsMax =                    NaN  0.00000000000000E+00
 cg2d: Sum(rhs),rhsMax =                    NaN  0.00000000000000E+00
 cg2d: Sum(rhs),rhsMax =                    NaN  0.00000000000000E+00
 cg2d: Sum(rhs),rhsMax =                    NaN  0.00000000000000E+00
 cg2d: Sum(rhs),rhsMax =                    NaN  0.00000000000000E+00
 cg2d: Sum(rhs),rhsMax =                    NaN  0.00000000000000E+00
 cg2d: Sum(rhs),rhsMax =                    NaN  0.00000000000000E+00
 cg2d: Sum(rhs),rhsMax =                    NaN  0.00000000000000E+00
 cg2d: Sum(rhs),rhsMax =                    NaN  0.00000000000000E+00
 cg2d: Sum(rhs),rhsMax =                    NaN  0.00000000000000E+00
 cg2d: Sum(rhs),rhsMax =                    NaN  0.00000000000000E+00
 cg2d: Sum(rhs),rhsMax =                    NaN  0.00000000000000E+00
 cg2d: Sum(rhs),rhsMax =                    NaN  0.00000000000000E+00
 cg2d: Sum(rhs),rhsMax =                    NaN  0.00000000000000E+00
 cg2d: Sum(rhs),rhsMax =                    NaN  0.00000000000000E+00
 cg2d: Sum(rhs),rhsMax =                    NaN  0.00000000000000E+00
 cg2d: Sum(rhs),rhsMax =                    NaN  0.00000000000000E+00
 cg2d: Sum(rhs),rhsMax =                    NaN  0.00000000000000E+00
 cg2d: Sum(rhs),rhsMax =                    NaN  0.00000000000000E+00
 cg2d: Sum(rhs),rhsMax =                    NaN  0.00000000000000E+00
 cg2d: Sum(rhs),rhsMax =                    NaN  0.00000000000000E+00
 cg2d: Sum(rhs),rhsMax =                    NaN  0.00000000000000E+00
 cg2d: Sum(rhs),rhsMax =                    NaN  0.00000000000000E+00
 cg2d: Sum(rhs),rhsMax =                    NaN  0.00000000000000E+00
 cg2d: Sum(rhs),rhsMax =                    NaN  0.00000000000000E+00
 cg2d: Sum(rhs),rhsMax =                    NaN  0.00000000000000E+00
 cg2d: Sum(rhs),rhsMax =                    NaN  0.00000000000000E+00
 cg2d: Sum(rhs),rhsMax =                    NaN  0.00000000000000E+00
 cg2d: Sum(rhs),rhsMax =                    NaN  0.00000000000000E+00
 cg2d: Sum(rhs),rhsMax =                    NaN  0.00000000000000E+00
 cg2d: Sum(rhs),rhsMax =                    NaN  0.00000000000000E+00
 cg2d: Sum(rhs),rhsMax =                    NaN  0.00000000000000E+00
 cg2d: Sum(rhs),rhsMax =                    NaN  0.00000000000000E+00
 cg2d: Sum(rhs),rhsMax =                    NaN  0.00000000000000E+00
 cg2d: Sum(rhs),rhsMax =                    NaN  0.00000000000000E+00
 cg2d: Sum(rhs),rhsMax =                    NaN  0.00000000000000E+00
 cg2d: Sum(rhs),rhsMax =                    NaN  0.00000000000000E+00
 cg2d: Sum(rhs),rhsMax =                    NaN  0.00000000000000E+00
 cg2d: Sum(rhs),rhsMax =                    NaN  0.00000000000000E+00
 cg2d: Sum(rhs),rhsMax =                    NaN  0.00000000000000E+00
 cg2d: Sum(rhs),rhsMax =                    NaN  0.00000000000000E+00
 cg2d: Sum(rhs),rhsMax =                    NaN  0.00000000000000E+00
 cg2d: Sum(rhs),rhsMax =                    NaN  0.00000000000000E+00
 cg2d: Sum(rhs),rhsMax =                    NaN  0.00000000000000E+00
 cg2d: Sum(rhs),rhsMax =                    NaN  0.00000000000000E+00
 cg2d: Sum(rhs),rhsMax =                    NaN  0.00000000000000E+00
 cg2d: Sum(rhs),rhsMax =                    NaN  0.00000000000000E+00
 cg2d: Sum(rhs),rhsMax =                    NaN  0.00000000000000E+00
 cg2d: Sum(rhs),rhsMax =                    NaN  0.00000000000000E+00
 cg2d: Sum(rhs),rhsMax =                    NaN  0.00000000000000E+00
 cg2d: Sum(rhs),rhsMax =                    NaN  0.00000000000000E+00
 cg2d: Sum(rhs),rhsMax =                    NaN  0.00000000000000E+00
 cg2d: Sum(rhs),rhsMax =                    NaN  0.00000000000000E+00
 cg2d: Sum(rhs),rhsMax =                    NaN  0.00000000000000E+00
 cg2d: Sum(rhs),rhsMax =                    NaN  0.00000000000000E+00
 cg2d: Sum(rhs),rhsMax =                    NaN  0.00000000000000E+00
 cg2d: Sum(rhs),rhsMax =                    NaN  0.00000000000000E+00
 cg2d: Sum(rhs),rhsMax =                    NaN  0.00000000000000E+00
 cg2d: Sum(rhs),rhsMax =                    NaN  0.00000000000000E+00
 cg2d: Sum(rhs),rhsMax =                    NaN  0.00000000000000E+00
 cg2d: Sum(rhs),rhsMax =                    NaN  0.00000000000000E+00
 cg2d: Sum(rhs),rhsMax =                    NaN  0.00000000000000E+00
 cg2d: Sum(rhs),rhsMax =                    NaN  0.00000000000000E+00
 cg2d: Sum(rhs),rhsMax =                    NaN  0.00000000000000E+00
 cg2d: Sum(rhs),rhsMax =                    NaN  0.00000000000000E+00
 cg2d: Sum(rhs),rhsMax =                    NaN  0.00000000000000E+00
 cg2d: Sum(rhs),rhsMax =                    NaN  0.00000000000000E+00
 cg2d: Sum(rhs),rhsMax =                    NaN  0.00000000000000E+00
 cg2d: Sum(rhs),rhsMax =                    NaN  0.00000000000000E+00
 cg2d: Sum(rhs),rhsMax =                    NaN  0.00000000000000E+00
 cg2d: Sum(rhs),rhsMax =                    NaN  0.00000000000000E+00
 cg2d: Sum(rhs),rhsMax =                    NaN  0.00000000000000E+00
 cg2d: Sum(rhs),rhsMax =                    NaN  0.00000000000000E+00
 cg2d: Sum(rhs),rhsMax =                    NaN  0.00000000000000E+00
 cg2d: Sum(rhs),rhsMax =                    NaN  0.00000000000000E+00
 cg2d: Sum(rhs),rhsMax =                    NaN  0.00000000000000E+00
 cg2d: Sum(rhs),rhsMax =                    NaN  0.00000000000000E+00
 cg2d: Sum(rhs),rhsMax =                    NaN  0.00000000000000E+00
 cg2d: Sum(rhs),rhsMax =                    NaN  0.00000000000000E+00
 cg2d: Sum(rhs),rhsMax =                    NaN  0.00000000000000E+00
 cg2d: Sum(rhs),rhsMax =                    NaN  0.00000000000000E+00
 cg2d: Sum(rhs),rhsMax =                    NaN  0.00000000000000E+00
 cg2d: Sum(rhs),rhsMax =                    NaN  0.00000000000000E+00
 cg2d: Sum(rhs),rhsMax =                    NaN  0.00000000000000E+00
 cg2d: Sum(rhs),rhsMax =                    NaN  0.00000000000000E+00
 cg2d: Sum(rhs),rhsMax =                    NaN  0.00000000000000E+00
 cg2d: Sum(rhs),rhsMax =                    NaN  0.00000000000000E+00
 cg2d: Sum(rhs),rhsMax =                    NaN  0.00000000000000E+00
 cg2d: Sum(rhs),rhsMax =                    NaN  0.00000000000000E+00
 cg2d: Sum(rhs),rhsMax =                    NaN  0.00000000000000E+00
 cg2d: Sum(rhs),rhsMax =                    NaN  0.00000000000000E+00
 cg2d: Sum(rhs),rhsMax =                    NaN  0.00000000000000E+00
 cg2d: Sum(rhs),rhsMax =                    NaN  0.00000000000000E+00
 cg2d: Sum(rhs),rhsMax =                    NaN  0.00000000000000E+00
 cg2d: Sum(rhs),rhsMax =                    NaN  0.00000000000000E+00
 cg2d: Sum(rhs),rhsMax =                    NaN  0.00000000000000E+00
 cg2d: Sum(rhs),rhsMax =                    NaN  0.00000000000000E+00
(PID.TID 0000.0001)      cg2d_init_res =                    NaN
(PID.TID 0000.0001)      cg2d_iters(min,last) =      -1    1000
(PID.TID 0000.0001)      cg2d_last_res =                    NaN
(PID.TID 0000.0001) // =======================================================
(PID.TID 0000.0001) // Begin MONITOR dynamic field statistics
(PID.TID 0000.0001) // =======================================================
(PID.TID 0000.0001) %MON time_tsnumber                =                  5280
(PID.TID 0000.0001) %MON time_secondsf                =   7.9200000000000E+04
(PID.TID 0000.0001) %MON dynstat_eta_max              =                   NaN
(PID.TID 0000.0001) %MON dynstat_eta_min              =                   NaN
(PID.TID 0000.0001) %MON dynstat_eta_mean             =                   NaN
(PID.TID 0000.0001) %MON dynstat_eta_sd               =                   NaN
(PID.TID 0000.0001) %MON dynstat_eta_del2             =                   NaN
(PID.TID 0000.0001) %MON dynstat_uvel_max             =   5.6028564143658E-01
(PID.TID 0000.0001) %MON dynstat_uvel_min             =   5.6028564143658E-01
(PID.TID 0000.0001) %MON dynstat_uvel_mean            =                   NaN
(PID.TID 0000.0001) %MON dynstat_uvel_sd              =                   NaN
(PID.TID 0000.0001) %MON dynstat_uvel_del2            =                   NaN
(PID.TID 0000.0001) %MON dynstat_vvel_max             =                   NaN
(PID.TID 0000.0001) %MON dynstat_vvel_min             =                   NaN
(PID.TID 0000.0001) %MON dynstat_vvel_mean            =                   NaN
(PID.TID 0000.0001) %MON dynstat_vvel_sd              =                   NaN
(PID.TID 0000.0001) %MON dynstat_vvel_del2            =                   NaN
(PID.TID 0000.0001) %MON dynstat_wvel_max             =                   NaN
(PID.TID 0000.0001) %MON dynstat_wvel_min             =                   NaN
(PID.TID 0000.0001) %MON dynstat_wvel_mean            =                   NaN
(PID.TID 0000.0001) %MON dynstat_wvel_sd              =                   NaN
(PID.TID 0000.0001) %MON dynstat_wvel_del2            =                   NaN
(PID.TID 0000.0001) %MON dynstat_theta_max            =                   NaN
(PID.TID 0000.0001) %MON dynstat_theta_min            =                   NaN
(PID.TID 0000.0001) %MON dynstat_theta_mean           =                   NaN
(PID.TID 0000.0001) %MON dynstat_theta_sd             =                   NaN
(PID.TID 0000.0001) %MON dynstat_theta_del2           =                   NaN
(PID.TID 0000.0001) %MON dynstat_salt_max             =   3.5000000000000E+01
(PID.TID 0000.0001) %MON dynstat_salt_min             =   3.5000000000000E+01
(PID.TID 0000.0001) %MON dynstat_salt_mean            =   3.5000000000000E+01
(PID.TID 0000.0001) %MON dynstat_salt_sd              =   3.9790393202566E-13
(PID.TID 0000.0001) %MON dynstat_salt_del2            =   0.0000000000000E+00
(PID.TID 0000.0001) %MON dynstat_sst_max              =                   NaN
(PID.TID 0000.0001) %MON dynstat_sst_min              =                   NaN
(PID.TID 0000.0001) %MON dynstat_sst_mean             =                   NaN
(PID.TID 0000.0001) %MON dynstat_sst_sd               =                   NaN
(PID.TID 0000.0001) %MON dynstat_sst_del2             =                   NaN
(PID.TID 0000.0001) %MON dynstat_sss_max              =   3.5000000000000E+01
(PID.TID 0000.0001) %MON dynstat_sss_min              =   3.5000000000000E+01
(PID.TID 0000.0001) %MON dynstat_sss_mean             =   3.5000000000000E+01
(PID.TID 0000.0001) %MON dynstat_sss_sd               =   5.6843418860808E-14
(PID.TID 0000.0001) %MON dynstat_sss_del2             =   0.0000000000000E+00
(PID.TID 0000.0001) %MON forcing_qnet_max             =   0.0000000000000E+00
(PID.TID 0000.0001) %MON forcing_qnet_min             =   0.0000000000000E+00
(PID.TID 0000.0001) %MON forcing_qnet_mean            =   0.0000000000000E+00
(PID.TID 0000.0001) %MON forcing_qnet_sd              =   0.0000000000000E+00
(PID.TID 0000.0001) %MON forcing_qnet_del2            =   0.0000000000000E+00
(PID.TID 0000.0001) %MON forcing_qsw_max              =   0.0000000000000E+00
(PID.TID 0000.0001) %MON forcing_qsw_min              =   0.0000000000000E+00
(PID.TID 0000.0001) %MON forcing_qsw_mean             =   0.0000000000000E+00
(PID.TID 0000.0001) %MON forcing_qsw_sd               =   0.0000000000000E+00
(PID.TID 0000.0001) %MON forcing_qsw_del2             =   0.0000000000000E+00
(PID.TID 0000.0001) %MON forcing_empmr_max            =   0.0000000000000E+00
(PID.TID 0000.0001) %MON forcing_empmr_min            =   0.0000000000000E+00
(PID.TID 0000.0001) %MON forcing_empmr_mean           =   0.0000000000000E+00
(PID.TID 0000.0001) %MON forcing_empmr_sd             =   0.0000000000000E+00
(PID.TID 0000.0001) %MON forcing_empmr_del2           =   0.0000000000000E+00
(PID.TID 0000.0001) %MON forcing_fu_max               =   0.0000000000000E+00
(PID.TID 0000.0001) %MON forcing_fu_min               =   0.0000000000000E+00
(PID.TID 0000.0001) %MON forcing_fu_mean              =   0.0000000000000E+00
(PID.TID 0000.0001) %MON forcing_fu_sd                =   0.0000000000000E+00
(PID.TID 0000.0001) %MON forcing_fu_del2              =   0.0000000000000E+00
(PID.TID 0000.0001) %MON forcing_fv_max               =   0.0000000000000E+00
(PID.TID 0000.0001) %MON forcing_fv_min               =   0.0000000000000E+00
(PID.TID 0000.0001) %MON forcing_fv_mean              =   0.0000000000000E+00
(PID.TID 0000.0001) %MON forcing_fv_sd                =   0.0000000000000E+00
(PID.TID 0000.0001) %MON forcing_fv_del2              =   0.0000000000000E+00
(PID.TID 0000.0001) %MON advcfl_uvel_max              =   8.0384112777411E-03
(PID.TID 0000.0001) %MON advcfl_vvel_max              =   0.0000000000000E+00
(PID.TID 0000.0001) %MON advcfl_wvel_max              =   0.0000000000000E+00
(PID.TID 0000.0001) %MON advcfl_W_hf_max              =   0.0000000000000E+00
(PID.TID 0000.0001) %MON pe_b_mean                    =                   NaN
(PID.TID 0000.0001) %MON ke_max                       =   0.0000000000000E+00
(PID.TID 0000.0001) %MON ke_mean                      =                   NaN
(PID.TID 0000.0001) %MON ke_vol                       =   9.5121673331316E+10
(PID.TID 0000.0001) %MON vort_r_min                   =   0.0000000000000E+00
(PID.TID 0000.0001) %MON vort_r_max                   =   0.0000000000000E+00
(PID.TID 0000.0001) %MON vort_a_mean                  =                   NaN
(PID.TID 0000.0001) %MON vort_a_sd                    =                   NaN
(PID.TID 0000.0001) %MON vort_p_mean                  =                   NaN
(PID.TID 0000.0001) %MON vort_p_sd                    =   0.0000000000000E+00
(PID.TID 0000.0001) %MON surfExpan_theta_mean         =                   NaN
(PID.TID 0000.0001) %MON surfExpan_salt_mean          =                   NaN
(PID.TID 0000.0001) // =======================================================
(PID.TID 0000.0001) // End MONITOR dynamic field statistics
(PID.TID 0000.0001) // =======================================================
(PID.TID 0000.0001) // =======================================================
(PID.TID 0000.0001) // Begin OBCS MONITOR field statistics
(PID.TID 0000.0001) // =======================================================
(PID.TID 0000.0001) %MON obc_E_uVel_max               =   5.6028564143658E-01
(PID.TID 0000.0001) %MON obc_E_uVel_min               =   5.6028564143658E-01
(PID.TID 0000.0001) %MON obc_E_uVel_mean              =   5.6028564143658E-01
(PID.TID 0000.0001) %MON obc_E_uVel_sd                =   7.4505805969238E-09
(PID.TID 0000.0001) %MON obc_E_uVel_Int               =   5.6028564143658E+05
(PID.TID 0000.0001) %MON obc_W_uVel_max               =   5.6028564143658E-01
(PID.TID 0000.0001) %MON obc_W_uVel_min               =   5.6028564143658E-01
(PID.TID 0000.0001) %MON obc_W_uVel_mean              =   5.6028564143658E-01
(PID.TID 0000.0001) %MON obc_W_uVel_sd                =   7.4505805969238E-09
(PID.TID 0000.0001) %MON obc_W_uVel_Int               =   5.6028564143658E+05
(PID.TID 0000.0001) // =======================================================
(PID.TID 0000.0001) // End OBCS MONITOR field statistics
(PID.TID 0000.0001) // =======================================================
 cg2d: Sum(rhs),rhsMax =                    NaN  0.00000000000000E+00
 cg2d: Sum(rhs),rhsMax =                    NaN  0.00000000000000E+00
 cg2d: Sum(rhs),rhsMax =                    NaN  0.00000000000000E+00
 cg2d: Sum(rhs),rhsMax =                    NaN  0.00000000000000E+00
 cg2d: Sum(rhs),rhsMax =                    NaN  0.00000000000000E+00
 cg2d: Sum(rhs),rhsMax =                    NaN  0.00000000000000E+00
 cg2d: Sum(rhs),rhsMax =                    NaN  0.00000000000000E+00
 cg2d: Sum(rhs),rhsMax =                    NaN  0.00000000000000E+00
 cg2d: Sum(rhs),rhsMax =                    NaN  0.00000000000000E+00
 cg2d: Sum(rhs),rhsMax =                    NaN  0.00000000000000E+00
 cg2d: Sum(rhs),rhsMax =                    NaN  0.00000000000000E+00
 cg2d: Sum(rhs),rhsMax =                    NaN  0.00000000000000E+00
 cg2d: Sum(rhs),rhsMax =                    NaN  0.00000000000000E+00
 cg2d: Sum(rhs),rhsMax =                    NaN  0.00000000000000E+00
 cg2d: Sum(rhs),rhsMax =                    NaN  0.00000000000000E+00
 cg2d: Sum(rhs),rhsMax =                    NaN  0.00000000000000E+00
 cg2d: Sum(rhs),rhsMax =                    NaN  0.00000000000000E+00
 cg2d: Sum(rhs),rhsMax =                    NaN  0.00000000000000E+00
 cg2d: Sum(rhs),rhsMax =                    NaN  0.00000000000000E+00
 cg2d: Sum(rhs),rhsMax =                    NaN  0.00000000000000E+00
 cg2d: Sum(rhs),rhsMax =                    NaN  0.00000000000000E+00
 cg2d: Sum(rhs),rhsMax =                    NaN  0.00000000000000E+00
 cg2d: Sum(rhs),rhsMax =                    NaN  0.00000000000000E+00
 cg2d: Sum(rhs),rhsMax =                    NaN  0.00000000000000E+00
 cg2d: Sum(rhs),rhsMax =                    NaN  0.00000000000000E+00
 cg2d: Sum(rhs),rhsMax =                    NaN  0.00000000000000E+00
 cg2d: Sum(rhs),rhsMax =                    NaN  0.00000000000000E+00
 cg2d: Sum(rhs),rhsMax =                    NaN  0.00000000000000E+00
 cg2d: Sum(rhs),rhsMax =                    NaN  0.00000000000000E+00
 cg2d: Sum(rhs),rhsMax =                    NaN  0.00000000000000E+00
 cg2d: Sum(rhs),rhsMax =                    NaN  0.00000000000000E+00
 cg2d: Sum(rhs),rhsMax =                    NaN  0.00000000000000E+00
 cg2d: Sum(rhs),rhsMax =                    NaN  0.00000000000000E+00
 cg2d: Sum(rhs),rhsMax =                    NaN  0.00000000000000E+00
 cg2d: Sum(rhs),rhsMax =                    NaN  0.00000000000000E+00
 cg2d: Sum(rhs),rhsMax =                    NaN  0.00000000000000E+00
 cg2d: Sum(rhs),rhsMax =                    NaN  0.00000000000000E+00
 cg2d: Sum(rhs),rhsMax =                    NaN  0.00000000000000E+00
 cg2d: Sum(rhs),rhsMax =                    NaN  0.00000000000000E+00
 cg2d: Sum(rhs),rhsMax =                    NaN  0.00000000000000E+00
 cg2d: Sum(rhs),rhsMax =                    NaN  0.00000000000000E+00
 cg2d: Sum(rhs),rhsMax =                    NaN  0.00000000000000E+00
 cg2d: Sum(rhs),rhsMax =                    NaN  0.00000000000000E+00
 cg2d: Sum(rhs),rhsMax =                    NaN  0.00000000000000E+00
 cg2d: Sum(rhs),rhsMax =                    NaN  0.00000000000000E+00
 cg2d: Sum(rhs),rhsMax =                    NaN  0.00000000000000E+00
 cg2d: Sum(rhs),rhsMax =                    NaN  0.00000000000000E+00
 cg2d: Sum(rhs),rhsMax =                    NaN  0.00000000000000E+00
 cg2d: Sum(rhs),rhsMax =                    NaN  0.00000000000000E+00
 cg2d: Sum(rhs),rhsMax =                    NaN  0.00000000000000E+00
 cg2d: Sum(rhs),rhsMax =                    NaN  0.00000000000000E+00
 cg2d: Sum(rhs),rhsMax =                    NaN  0.00000000000000E+00
 cg2d: Sum(rhs),rhsMax =                    NaN  0.00000000000000E+00
 cg2d: Sum(rhs),rhsMax =                    NaN  0.00000000000000E+00
 cg2d: Sum(rhs),rhsMax =                    NaN  0.00000000000000E+00
 cg2d: Sum(rhs),rhsMax =                    NaN  0.00000000000000E+00
 cg2d: Sum(rhs),rhsMax =                    NaN  0.00000000000000E+00
 cg2d: Sum(rhs),rhsMax =                    NaN  0.00000000000000E+00
 cg2d: Sum(rhs),rhsMax =                    NaN  0.00000000000000E+00
 cg2d: Sum(rhs),rhsMax =                    NaN  0.00000000000000E+00
 cg2d: Sum(rhs),rhsMax =                    NaN  0.00000000000000E+00
 cg2d: Sum(rhs),rhsMax =                    NaN  0.00000000000000E+00
 cg2d: Sum(rhs),rhsMax =                    NaN  0.00000000000000E+00
 cg2d: Sum(rhs),rhsMax =                    NaN  0.00000000000000E+00
 cg2d: Sum(rhs),rhsMax =                    NaN  0.00000000000000E+00
 cg2d: Sum(rhs),rhsMax =                    NaN  0.00000000000000E+00
 cg2d: Sum(rhs),rhsMax =                    NaN  0.00000000000000E+00
 cg2d: Sum(rhs),rhsMax =                    NaN  0.00000000000000E+00
 cg2d: Sum(rhs),rhsMax =                    NaN  0.00000000000000E+00
 cg2d: Sum(rhs),rhsMax =                    NaN  0.00000000000000E+00
 cg2d: Sum(rhs),rhsMax =                    NaN  0.00000000000000E+00
 cg2d: Sum(rhs),rhsMax =                    NaN  0.00000000000000E+00
 cg2d: Sum(rhs),rhsMax =                    NaN  0.00000000000000E+00
 cg2d: Sum(rhs),rhsMax =                    NaN  0.00000000000000E+00
 cg2d: Sum(rhs),rhsMax =                    NaN  0.00000000000000E+00
 cg2d: Sum(rhs),rhsMax =                    NaN  0.00000000000000E+00
 cg2d: Sum(rhs),rhsMax =                    NaN  0.00000000000000E+00
 cg2d: Sum(rhs),rhsMax =                    NaN  0.00000000000000E+00
 cg2d: Sum(rhs),rhsMax =                    NaN  0.00000000000000E+00
 cg2d: Sum(rhs),rhsMax =                    NaN  0.00000000000000E+00
 cg2d: Sum(rhs),rhsMax =                    NaN  0.00000000000000E+00
 cg2d: Sum(rhs),rhsMax =                    NaN  0.00000000000000E+00
 cg2d: Sum(rhs),rhsMax =                    NaN  0.00000000000000E+00
 cg2d: Sum(rhs),rhsMax =                    NaN  0.00000000000000E+00
 cg2d: Sum(rhs),rhsMax =                    NaN  0.00000000000000E+00
 cg2d: Sum(rhs),rhsMax =                    NaN  0.00000000000000E+00
 cg2d: Sum(rhs),rhsMax =                    NaN  0.00000000000000E+00
 cg2d: Sum(rhs),rhsMax =                    NaN  0.00000000000000E+00
 cg2d: Sum(rhs),rhsMax =                    NaN  0.00000000000000E+00
 cg2d: Sum(rhs),rhsMax =                    NaN  0.00000000000000E+00
 cg2d: Sum(rhs),rhsMax =                    NaN  0.00000000000000E+00
 cg2d: Sum(rhs),rhsMax =                    NaN  0.00000000000000E+00
 cg2d: Sum(rhs),rhsMax =                    NaN  0.00000000000000E+00
 cg2d: Sum(rhs),rhsMax =                    NaN  0.00000000000000E+00
 cg2d: Sum(rhs),rhsMax =                    NaN  0.00000000000000E+00
 cg2d: Sum(rhs),rhsMax =                    NaN  0.00000000000000E+00
 cg2d: Sum(rhs),rhsMax =                    NaN  0.00000000000000E+00
 cg2d: Sum(rhs),rhsMax =                    NaN  0.00000000000000E+00
 cg2d: Sum(rhs),rhsMax =                    NaN  0.00000000000000E+00
 cg2d: Sum(rhs),rhsMax =                    NaN  0.00000000000000E+00
 cg2d: Sum(rhs),rhsMax =                    NaN  0.00000000000000E+00
 cg2d: Sum(rhs),rhsMax =                    NaN  0.00000000000000E+00
 cg2d: Sum(rhs),rhsMax =                    NaN  0.00000000000000E+00
 cg2d: Sum(rhs),rhsMax =                    NaN  0.00000000000000E+00
 cg2d: Sum(rhs),rhsMax =                    NaN  0.00000000000000E+00
 cg2d: Sum(rhs),rhsMax =                    NaN  0.00000000000000E+00
 cg2d: Sum(rhs),rhsMax =                    NaN  0.00000000000000E+00
 cg2d: Sum(rhs),rhsMax =                    NaN  0.00000000000000E+00
 cg2d: Sum(rhs),rhsMax =                    NaN  0.00000000000000E+00
 cg2d: Sum(rhs),rhsMax =                    NaN  0.00000000000000E+00
 cg2d: Sum(rhs),rhsMax =                    NaN  0.00000000000000E+00
 cg2d: Sum(rhs),rhsMax =                    NaN  0.00000000000000E+00
 cg2d: Sum(rhs),rhsMax =                    NaN  0.00000000000000E+00
 cg2d: Sum(rhs),rhsMax =                    NaN  0.00000000000000E+00
 cg2d: Sum(rhs),rhsMax =                    NaN  0.00000000000000E+00
 cg2d: Sum(rhs),rhsMax =                    NaN  0.00000000000000E+00
 cg2d: Sum(rhs),rhsMax =                    NaN  0.00000000000000E+00
 cg2d: Sum(rhs),rhsMax =                    NaN  0.00000000000000E+00
 cg2d: Sum(rhs),rhsMax =                    NaN  0.00000000000000E+00
 cg2d: Sum(rhs),rhsMax =                    NaN  0.00000000000000E+00
 cg2d: Sum(rhs),rhsMax =                    NaN  0.00000000000000E+00
 cg2d: Sum(rhs),rhsMax =                    NaN  0.00000000000000E+00
 cg2d: Sum(rhs),rhsMax =                    NaN  0.00000000000000E+00
 cg2d: Sum(rhs),rhsMax =                    NaN  0.00000000000000E+00
 cg2d: Sum(rhs),rhsMax =                    NaN  0.00000000000000E+00
 cg2d: Sum(rhs),rhsMax =                    NaN  0.00000000000000E+00
 cg2d: Sum(rhs),rhsMax =                    NaN  0.00000000000000E+00
 cg2d: Sum(rhs),rhsMax =                    NaN  0.00000000000000E+00
 cg2d: Sum(rhs),rhsMax =                    NaN  0.00000000000000E+00
 cg2d: Sum(rhs),rhsMax =                    NaN  0.00000000000000E+00
 cg2d: Sum(rhs),rhsMax =                    NaN  0.00000000000000E+00
 cg2d: Sum(rhs),rhsMax =                    NaN  0.00000000000000E+00
 cg2d: Sum(rhs),rhsMax =                    NaN  0.00000000000000E+00
 cg2d: Sum(rhs),rhsMax =                    NaN  0.00000000000000E+00
 cg2d: Sum(rhs),rhsMax =                    NaN  0.00000000000000E+00
 cg2d: Sum(rhs),rhsMax =                    NaN  0.00000000000000E+00
 cg2d: Sum(rhs),rhsMax =                    NaN  0.00000000000000E+00
 cg2d: Sum(rhs),rhsMax =                    NaN  0.00000000000000E+00
 cg2d: Sum(rhs),rhsMax =                    NaN  0.00000000000000E+00
 cg2d: Sum(rhs),rhsMax =                    NaN  0.00000000000000E+00
 cg2d: Sum(rhs),rhsMax =                    NaN  0.00000000000000E+00
 cg2d: Sum(rhs),rhsMax =                    NaN  0.00000000000000E+00
 cg2d: Sum(rhs),rhsMax =                    NaN  0.00000000000000E+00
 cg2d: Sum(rhs),rhsMax =                    NaN  0.00000000000000E+00
 cg2d: Sum(rhs),rhsMax =                    NaN  0.00000000000000E+00
 cg2d: Sum(rhs),rhsMax =                    NaN  0.00000000000000E+00
 cg2d: Sum(rhs),rhsMax =                    NaN  0.00000000000000E+00
 cg2d: Sum(rhs),rhsMax =                    NaN  0.00000000000000E+00
 cg2d: Sum(rhs),rhsMax =                    NaN  0.00000000000000E+00
 cg2d: Sum(rhs),rhsMax =                    NaN  0.00000000000000E+00
 cg2d: Sum(rhs),rhsMax =                    NaN  0.00000000000000E+00
 cg2d: Sum(rhs),rhsMax =                    NaN  0.00000000000000E+00
 cg2d: Sum(rhs),rhsMax =                    NaN  0.00000000000000E+00
 cg2d: Sum(rhs),rhsMax =                    NaN  0.00000000000000E+00
 cg2d: Sum(rhs),rhsMax =                    NaN  0.00000000000000E+00
 cg2d: Sum(rhs),rhsMax =                    NaN  0.00000000000000E+00
 cg2d: Sum(rhs),rhsMax =                    NaN  0.00000000000000E+00
 cg2d: Sum(rhs),rhsMax =                    NaN  0.00000000000000E+00
 cg2d: Sum(rhs),rhsMax =                    NaN  0.00000000000000E+00
 cg2d: Sum(rhs),rhsMax =                    NaN  0.00000000000000E+00
 cg2d: Sum(rhs),rhsMax =                    NaN  0.00000000000000E+00
 cg2d: Sum(rhs),rhsMax =                    NaN  0.00000000000000E+00
 cg2d: Sum(rhs),rhsMax =                    NaN  0.00000000000000E+00
 cg2d: Sum(rhs),rhsMax =                    NaN  0.00000000000000E+00
 cg2d: Sum(rhs),rhsMax =                    NaN  0.00000000000000E+00
 cg2d: Sum(rhs),rhsMax =                    NaN  0.00000000000000E+00
 cg2d: Sum(rhs),rhsMax =                    NaN  0.00000000000000E+00
 cg2d: Sum(rhs),rhsMax =                    NaN  0.00000000000000E+00
 cg2d: Sum(rhs),rhsMax =                    NaN  0.00000000000000E+00
 cg2d: Sum(rhs),rhsMax =                    NaN  0.00000000000000E+00
 cg2d: Sum(rhs),rhsMax =                    NaN  0.00000000000000E+00
 cg2d: Sum(rhs),rhsMax =                    NaN  0.00000000000000E+00
 cg2d: Sum(rhs),rhsMax =                    NaN  0.00000000000000E+00
 cg2d: Sum(rhs),rhsMax =                    NaN  0.00000000000000E+00
 cg2d: Sum(rhs),rhsMax =                    NaN  0.00000000000000E+00
 cg2d: Sum(rhs),rhsMax =                    NaN  0.00000000000000E+00
 cg2d: Sum(rhs),rhsMax =                    NaN  0.00000000000000E+00
 cg2d: Sum(rhs),rhsMax =                    NaN  0.00000000000000E+00
 cg2d: Sum(rhs),rhsMax =                    NaN  0.00000000000000E+00
 cg2d: Sum(rhs),rhsMax =                    NaN  0.00000000000000E+00
 cg2d: Sum(rhs),rhsMax =                    NaN  0.00000000000000E+00
 cg2d: Sum(rhs),rhsMax =                    NaN  0.00000000000000E+00
 cg2d: Sum(rhs),rhsMax =                    NaN  0.00000000000000E+00
 cg2d: Sum(rhs),rhsMax =                    NaN  0.00000000000000E+00
 cg2d: Sum(rhs),rhsMax =                    NaN  0.00000000000000E+00
 cg2d: Sum(rhs),rhsMax =                    NaN  0.00000000000000E+00
 cg2d: Sum(rhs),rhsMax =                    NaN  0.00000000000000E+00
 cg2d: Sum(rhs),rhsMax =                    NaN  0.00000000000000E+00
 cg2d: Sum(rhs),rhsMax =                    NaN  0.00000000000000E+00
 cg2d: Sum(rhs),rhsMax =                    NaN  0.00000000000000E+00
 cg2d: Sum(rhs),rhsMax =                    NaN  0.00000000000000E+00
 cg2d: Sum(rhs),rhsMax =                    NaN  0.00000000000000E+00
 cg2d: Sum(rhs),rhsMax =                    NaN  0.00000000000000E+00
 cg2d: Sum(rhs),rhsMax =                    NaN  0.00000000000000E+00
 cg2d: Sum(rhs),rhsMax =                    NaN  0.00000000000000E+00
 cg2d: Sum(rhs),rhsMax =                    NaN  0.00000000000000E+00
 cg2d: Sum(rhs),rhsMax =                    NaN  0.00000000000000E+00
 cg2d: Sum(rhs),rhsMax =                    NaN  0.00000000000000E+00
 cg2d: Sum(rhs),rhsMax =                    NaN  0.00000000000000E+00
 cg2d: Sum(rhs),rhsMax =                    NaN  0.00000000000000E+00
 cg2d: Sum(rhs),rhsMax =                    NaN  0.00000000000000E+00
 cg2d: Sum(rhs),rhsMax =                    NaN  0.00000000000000E+00
 cg2d: Sum(rhs),rhsMax =                    NaN  0.00000000000000E+00
 cg2d: Sum(rhs),rhsMax =                    NaN  0.00000000000000E+00
 cg2d: Sum(rhs),rhsMax =                    NaN  0.00000000000000E+00
 cg2d: Sum(rhs),rhsMax =                    NaN  0.00000000000000E+00
 cg2d: Sum(rhs),rhsMax =                    NaN  0.00000000000000E+00
 cg2d: Sum(rhs),rhsMax =                    NaN  0.00000000000000E+00
 cg2d: Sum(rhs),rhsMax =                    NaN  0.00000000000000E+00
 cg2d: Sum(rhs),rhsMax =                    NaN  0.00000000000000E+00
 cg2d: Sum(rhs),rhsMax =                    NaN  0.00000000000000E+00
 cg2d: Sum(rhs),rhsMax =                    NaN  0.00000000000000E+00
 cg2d: Sum(rhs),rhsMax =                    NaN  0.00000000000000E+00
 cg2d: Sum(rhs),rhsMax =                    NaN  0.00000000000000E+00
 cg2d: Sum(rhs),rhsMax =                    NaN  0.00000000000000E+00
 cg2d: Sum(rhs),rhsMax =                    NaN  0.00000000000000E+00
 cg2d: Sum(rhs),rhsMax =                    NaN  0.00000000000000E+00
 cg2d: Sum(rhs),rhsMax =                    NaN  0.00000000000000E+00
 cg2d: Sum(rhs),rhsMax =                    NaN  0.00000000000000E+00
 cg2d: Sum(rhs),rhsMax =                    NaN  0.00000000000000E+00
 cg2d: Sum(rhs),rhsMax =                    NaN  0.00000000000000E+00
 cg2d: Sum(rhs),rhsMax =                    NaN  0.00000000000000E+00
 cg2d: Sum(rhs),rhsMax =                    NaN  0.00000000000000E+00
 cg2d: Sum(rhs),rhsMax =                    NaN  0.00000000000000E+00
 cg2d: Sum(rhs),rhsMax =                    NaN  0.00000000000000E+00
 cg2d: Sum(rhs),rhsMax =                    NaN  0.00000000000000E+00
 cg2d: Sum(rhs),rhsMax =                    NaN  0.00000000000000E+00
 cg2d: Sum(rhs),rhsMax =                    NaN  0.00000000000000E+00
 cg2d: Sum(rhs),rhsMax =                    NaN  0.00000000000000E+00
 cg2d: Sum(rhs),rhsMax =                    NaN  0.00000000000000E+00
 cg2d: Sum(rhs),rhsMax =                    NaN  0.00000000000000E+00
 cg2d: Sum(rhs),rhsMax =                    NaN  0.00000000000000E+00
 cg2d: Sum(rhs),rhsMax =                    NaN  0.00000000000000E+00
 cg2d: Sum(rhs),rhsMax =                    NaN  0.00000000000000E+00
 cg2d: Sum(rhs),rhsMax =                    NaN  0.00000000000000E+00
 cg2d: Sum(rhs),rhsMax =                    NaN  0.00000000000000E+00
 cg2d: Sum(rhs),rhsMax =                    NaN  0.00000000000000E+00
 cg2d: Sum(rhs),rhsMax =                    NaN  0.00000000000000E+00
 cg2d: Sum(rhs),rhsMax =                    NaN  0.00000000000000E+00
 cg2d: Sum(rhs),rhsMax =                    NaN  0.00000000000000E+00
 cg2d: Sum(rhs),rhsMax =                    NaN  0.00000000000000E+00
 cg2d: Sum(rhs),rhsMax =                    NaN  0.00000000000000E+00
 cg2d: Sum(rhs),rhsMax =                    NaN  0.00000000000000E+00
 cg2d: Sum(rhs),rhsMax =                    NaN  0.00000000000000E+00
 cg2d: Sum(rhs),rhsMax =                    NaN  0.00000000000000E+00
 cg2d: Sum(rhs),rhsMax =                    NaN  0.00000000000000E+00
 cg2d: Sum(rhs),rhsMax =                    NaN  0.00000000000000E+00
 cg2d: Sum(rhs),rhsMax =                    NaN  0.00000000000000E+00
 cg2d: Sum(rhs),rhsMax =                    NaN  0.00000000000000E+00
 cg2d: Sum(rhs),rhsMax =                    NaN  0.00000000000000E+00
 cg2d: Sum(rhs),rhsMax =                    NaN  0.00000000000000E+00
 cg2d: Sum(rhs),rhsMax =                    NaN  0.00000000000000E+00
 cg2d: Sum(rhs),rhsMax =                    NaN  0.00000000000000E+00
 cg2d: Sum(rhs),rhsMax =                    NaN  0.00000000000000E+00
 cg2d: Sum(rhs),rhsMax =                    NaN  0.00000000000000E+00
 cg2d: Sum(rhs),rhsMax =                    NaN  0.00000000000000E+00
 cg2d: Sum(rhs),rhsMax =                    NaN  0.00000000000000E+00
 cg2d: Sum(rhs),rhsMax =                    NaN  0.00000000000000E+00
 cg2d: Sum(rhs),rhsMax =                    NaN  0.00000000000000E+00
 cg2d: Sum(rhs),rhsMax =                    NaN  0.00000000000000E+00
 cg2d: Sum(rhs),rhsMax =                    NaN  0.00000000000000E+00
 cg2d: Sum(rhs),rhsMax =                    NaN  0.00000000000000E+00
 cg2d: Sum(rhs),rhsMax =                    NaN  0.00000000000000E+00
 cg2d: Sum(rhs),rhsMax =                    NaN  0.00000000000000E+00
 cg2d: Sum(rhs),rhsMax =                    NaN  0.00000000000000E+00
 cg2d: Sum(rhs),rhsMax =                    NaN  0.00000000000000E+00
 cg2d: Sum(rhs),rhsMax =                    NaN  0.00000000000000E+00
 cg2d: Sum(rhs),rhsMax =                    NaN  0.00000000000000E+00
 cg2d: Sum(rhs),rhsMax =                    NaN  0.00000000000000E+00
 cg2d: Sum(rhs),rhsMax =                    NaN  0.00000000000000E+00
 cg2d: Sum(rhs),rhsMax =                    NaN  0.00000000000000E+00
 cg2d: Sum(rhs),rhsMax =                    NaN  0.00000000000000E+00
 cg2d: Sum(rhs),rhsMax =                    NaN  0.00000000000000E+00
 cg2d: Sum(rhs),rhsMax =                    NaN  0.00000000000000E+00
 cg2d: Sum(rhs),rhsMax =                    NaN  0.00000000000000E+00
 cg2d: Sum(rhs),rhsMax =                    NaN  0.00000000000000E+00
 cg2d: Sum(rhs),rhsMax =                    NaN  0.00000000000000E+00
 cg2d: Sum(rhs),rhsMax =                    NaN  0.00000000000000E+00
 cg2d: Sum(rhs),rhsMax =                    NaN  0.00000000000000E+00
 cg2d: Sum(rhs),rhsMax =                    NaN  0.00000000000000E+00
 cg2d: Sum(rhs),rhsMax =                    NaN  0.00000000000000E+00
 cg2d: Sum(rhs),rhsMax =                    NaN  0.00000000000000E+00
 cg2d: Sum(rhs),rhsMax =                    NaN  0.00000000000000E+00
 cg2d: Sum(rhs),rhsMax =                    NaN  0.00000000000000E+00
 cg2d: Sum(rhs),rhsMax =                    NaN  0.00000000000000E+00
 cg2d: Sum(rhs),rhsMax =                    NaN  0.00000000000000E+00
 cg2d: Sum(rhs),rhsMax =                    NaN  0.00000000000000E+00
 cg2d: Sum(rhs),rhsMax =                    NaN  0.00000000000000E+00
 cg2d: Sum(rhs),rhsMax =                    NaN  0.00000000000000E+00
 cg2d: Sum(rhs),rhsMax =                    NaN  0.00000000000000E+00
 cg2d: Sum(rhs),rhsMax =                    NaN  0.00000000000000E+00
 cg2d: Sum(rhs),rhsMax =                    NaN  0.00000000000000E+00
 cg2d: Sum(rhs),rhsMax =                    NaN  0.00000000000000E+00
 cg2d: Sum(rhs),rhsMax =                    NaN  0.00000000000000E+00
 cg2d: Sum(rhs),rhsMax =                    NaN  0.00000000000000E+00
 cg2d: Sum(rhs),rhsMax =                    NaN  0.00000000000000E+00
 cg2d: Sum(rhs),rhsMax =                    NaN  0.00000000000000E+00
 cg2d: Sum(rhs),rhsMax =                    NaN  0.00000000000000E+00
 cg2d: Sum(rhs),rhsMax =                    NaN  0.00000000000000E+00
 cg2d: Sum(rhs),rhsMax =                    NaN  0.00000000000000E+00
 cg2d: Sum(rhs),rhsMax =                    NaN  0.00000000000000E+00
 cg2d: Sum(rhs),rhsMax =                    NaN  0.00000000000000E+00
 cg2d: Sum(rhs),rhsMax =                    NaN  0.00000000000000E+00
 cg2d: Sum(rhs),rhsMax =                    NaN  0.00000000000000E+00
 cg2d: Sum(rhs),rhsMax =                    NaN  0.00000000000000E+00
 cg2d: Sum(rhs),rhsMax =                    NaN  0.00000000000000E+00
 cg2d: Sum(rhs),rhsMax =                    NaN  0.00000000000000E+00
 cg2d: Sum(rhs),rhsMax =                    NaN  0.00000000000000E+00
 cg2d: Sum(rhs),rhsMax =                    NaN  0.00000000000000E+00
 cg2d: Sum(rhs),rhsMax =                    NaN  0.00000000000000E+00
 cg2d: Sum(rhs),rhsMax =                    NaN  0.00000000000000E+00
 cg2d: Sum(rhs),rhsMax =                    NaN  0.00000000000000E+00
 cg2d: Sum(rhs),rhsMax =                    NaN  0.00000000000000E+00
 cg2d: Sum(rhs),rhsMax =                    NaN  0.00000000000000E+00
 cg2d: Sum(rhs),rhsMax =                    NaN  0.00000000000000E+00
 cg2d: Sum(rhs),rhsMax =                    NaN  0.00000000000000E+00
 cg2d: Sum(rhs),rhsMax =                    NaN  0.00000000000000E+00
 cg2d: Sum(rhs),rhsMax =                    NaN  0.00000000000000E+00
 cg2d: Sum(rhs),rhsMax =                    NaN  0.00000000000000E+00
 cg2d: Sum(rhs),rhsMax =                    NaN  0.00000000000000E+00
 cg2d: Sum(rhs),rhsMax =                    NaN  0.00000000000000E+00
 cg2d: Sum(rhs),rhsMax =                    NaN  0.00000000000000E+00
 cg2d: Sum(rhs),rhsMax =                    NaN  0.00000000000000E+00
 cg2d: Sum(rhs),rhsMax =                    NaN  0.00000000000000E+00
 cg2d: Sum(rhs),rhsMax =                    NaN  0.00000000000000E+00
 cg2d: Sum(rhs),rhsMax =                    NaN  0.00000000000000E+00
 cg2d: Sum(rhs),rhsMax =                    NaN  0.00000000000000E+00
 cg2d: Sum(rhs),rhsMax =                    NaN  0.00000000000000E+00
 cg2d: Sum(rhs),rhsMax =                    NaN  0.00000000000000E+00
 cg2d: Sum(rhs),rhsMax =                    NaN  0.00000000000000E+00
 cg2d: Sum(rhs),rhsMax =                    NaN  0.00000000000000E+00
 cg2d: Sum(rhs),rhsMax =                    NaN  0.00000000000000E+00
 cg2d: Sum(rhs),rhsMax =                    NaN  0.00000000000000E+00
 cg2d: Sum(rhs),rhsMax =                    NaN  0.00000000000000E+00
 cg2d: Sum(rhs),rhsMax =                    NaN  0.00000000000000E+00
 cg2d: Sum(rhs),rhsMax =                    NaN  0.00000000000000E+00
 cg2d: Sum(rhs),rhsMax =                    NaN  0.00000000000000E+00
 cg2d: Sum(rhs),rhsMax =                    NaN  0.00000000000000E+00
 cg2d: Sum(rhs),rhsMax =                    NaN  0.00000000000000E+00
 cg2d: Sum(rhs),rhsMax =                    NaN  0.00000000000000E+00
 cg2d: Sum(rhs),rhsMax =                    NaN  0.00000000000000E+00
 cg2d: Sum(rhs),rhsMax =                    NaN  0.00000000000000E+00
 cg2d: Sum(rhs),rhsMax =                    NaN  0.00000000000000E+00
 cg2d: Sum(rhs),rhsMax =                    NaN  0.00000000000000E+00
 cg2d: Sum(rhs),rhsMax =                    NaN  0.00000000000000E+00
 cg2d: Sum(rhs),rhsMax =                    NaN  0.00000000000000E+00
 cg2d: Sum(rhs),rhsMax =                    NaN  0.00000000000000E+00
 cg2d: Sum(rhs),rhsMax =                    NaN  0.00000000000000E+00
 cg2d: Sum(rhs),rhsMax =                    NaN  0.00000000000000E+00
 cg2d: Sum(rhs),rhsMax =                    NaN  0.00000000000000E+00
 cg2d: Sum(rhs),rhsMax =                    NaN  0.00000000000000E+00
 cg2d: Sum(rhs),rhsMax =                    NaN  0.00000000000000E+00
 cg2d: Sum(rhs),rhsMax =                    NaN  0.00000000000000E+00
 cg2d: Sum(rhs),rhsMax =                    NaN  0.00000000000000E+00
 cg2d: Sum(rhs),rhsMax =                    NaN  0.00000000000000E+00
 cg2d: Sum(rhs),rhsMax =                    NaN  0.00000000000000E+00
 cg2d: Sum(rhs),rhsMax =                    NaN  0.00000000000000E+00
 cg2d: Sum(rhs),rhsMax =                    NaN  0.00000000000000E+00
 cg2d: Sum(rhs),rhsMax =                    NaN  0.00000000000000E+00
 cg2d: Sum(rhs),rhsMax =                    NaN  0.00000000000000E+00
 cg2d: Sum(rhs),rhsMax =                    NaN  0.00000000000000E+00
 cg2d: Sum(rhs),rhsMax =                    NaN  0.00000000000000E+00
 cg2d: Sum(rhs),rhsMax =                    NaN  0.00000000000000E+00
 cg2d: Sum(rhs),rhsMax =                    NaN  0.00000000000000E+00
 cg2d: Sum(rhs),rhsMax =                    NaN  0.00000000000000E+00
 cg2d: Sum(rhs),rhsMax =                    NaN  0.00000000000000E+00
 cg2d: Sum(rhs),rhsMax =                    NaN  0.00000000000000E+00
 cg2d: Sum(rhs),rhsMax =                    NaN  0.00000000000000E+00
 cg2d: Sum(rhs),rhsMax =                    NaN  0.00000000000000E+00
 cg2d: Sum(rhs),rhsMax =                    NaN  0.00000000000000E+00
 cg2d: Sum(rhs),rhsMax =                    NaN  0.00000000000000E+00
 cg2d: Sum(rhs),rhsMax =                    NaN  0.00000000000000E+00
 cg2d: Sum(rhs),rhsMax =                    NaN  0.00000000000000E+00
 cg2d: Sum(rhs),rhsMax =                    NaN  0.00000000000000E+00
 cg2d: Sum(rhs),rhsMax =                    NaN  0.00000000000000E+00
 cg2d: Sum(rhs),rhsMax =                    NaN  0.00000000000000E+00
 cg2d: Sum(rhs),rhsMax =                    NaN  0.00000000000000E+00
 cg2d: Sum(rhs),rhsMax =                    NaN  0.00000000000000E+00
 cg2d: Sum(rhs),rhsMax =                    NaN  0.00000000000000E+00
 cg2d: Sum(rhs),rhsMax =                    NaN  0.00000000000000E+00
 cg2d: Sum(rhs),rhsMax =                    NaN  0.00000000000000E+00
 cg2d: Sum(rhs),rhsMax =                    NaN  0.00000000000000E+00
 cg2d: Sum(rhs),rhsMax =                    NaN  0.00000000000000E+00
 cg2d: Sum(rhs),rhsMax =                    NaN  0.00000000000000E+00
 cg2d: Sum(rhs),rhsMax =                    NaN  0.00000000000000E+00
 cg2d: Sum(rhs),rhsMax =                    NaN  0.00000000000000E+00
 cg2d: Sum(rhs),rhsMax =                    NaN  0.00000000000000E+00
 cg2d: Sum(rhs),rhsMax =                    NaN  0.00000000000000E+00
 cg2d: Sum(rhs),rhsMax =                    NaN  0.00000000000000E+00
 cg2d: Sum(rhs),rhsMax =                    NaN  0.00000000000000E+00
 cg2d: Sum(rhs),rhsMax =                    NaN  0.00000000000000E+00
 cg2d: Sum(rhs),rhsMax =                    NaN  0.00000000000000E+00
 cg2d: Sum(rhs),rhsMax =                    NaN  0.00000000000000E+00
 cg2d: Sum(rhs),rhsMax =                    NaN  0.00000000000000E+00
 cg2d: Sum(rhs),rhsMax =                    NaN  0.00000000000000E+00
 cg2d: Sum(rhs),rhsMax =                    NaN  0.00000000000000E+00
 cg2d: Sum(rhs),rhsMax =                    NaN  0.00000000000000E+00
 cg2d: Sum(rhs),rhsMax =                    NaN  0.00000000000000E+00
 cg2d: Sum(rhs),rhsMax =                    NaN  0.00000000000000E+00
 cg2d: Sum(rhs),rhsMax =                    NaN  0.00000000000000E+00
 cg2d: Sum(rhs),rhsMax =                    NaN  0.00000000000000E+00
 cg2d: Sum(rhs),rhsMax =                    NaN  0.00000000000000E+00
 cg2d: Sum(rhs),rhsMax =                    NaN  0.00000000000000E+00
 cg2d: Sum(rhs),rhsMax =                    NaN  0.00000000000000E+00
 cg2d: Sum(rhs),rhsMax =                    NaN  0.00000000000000E+00
 cg2d: Sum(rhs),rhsMax =                    NaN  0.00000000000000E+00
 cg2d: Sum(rhs),rhsMax =                    NaN  0.00000000000000E+00
 cg2d: Sum(rhs),rhsMax =                    NaN  0.00000000000000E+00
 cg2d: Sum(rhs),rhsMax =                    NaN  0.00000000000000E+00
 cg2d: Sum(rhs),rhsMax =                    NaN  0.00000000000000E+00
 cg2d: Sum(rhs),rhsMax =                    NaN  0.00000000000000E+00
 cg2d: Sum(rhs),rhsMax =                    NaN  0.00000000000000E+00
 cg2d: Sum(rhs),rhsMax =                    NaN  0.00000000000000E+00
 cg2d: Sum(rhs),rhsMax =                    NaN  0.00000000000000E+00
 cg2d: Sum(rhs),rhsMax =                    NaN  0.00000000000000E+00
 cg2d: Sum(rhs),rhsMax =                    NaN  0.00000000000000E+00
 cg2d: Sum(rhs),rhsMax =                    NaN  0.00000000000000E+00
 cg2d: Sum(rhs),rhsMax =                    NaN  0.00000000000000E+00
 cg2d: Sum(rhs),rhsMax =                    NaN  0.00000000000000E+00
 cg2d: Sum(rhs),rhsMax =                    NaN  0.00000000000000E+00
 cg2d: Sum(rhs),rhsMax =                    NaN  0.00000000000000E+00
 cg2d: Sum(rhs),rhsMax =                    NaN  0.00000000000000E+00
 cg2d: Sum(rhs),rhsMax =                    NaN  0.00000000000000E+00
 cg2d: Sum(rhs),rhsMax =                    NaN  0.00000000000000E+00
 cg2d: Sum(rhs),rhsMax =                    NaN  0.00000000000000E+00
 cg2d: Sum(rhs),rhsMax =                    NaN  0.00000000000000E+00
 cg2d: Sum(rhs),rhsMax =                    NaN  0.00000000000000E+00
 cg2d: Sum(rhs),rhsMax =                    NaN  0.00000000000000E+00
 cg2d: Sum(rhs),rhsMax =                    NaN  0.00000000000000E+00
 cg2d: Sum(rhs),rhsMax =                    NaN  0.00000000000000E+00
 cg2d: Sum(rhs),rhsMax =                    NaN  0.00000000000000E+00
 cg2d: Sum(rhs),rhsMax =                    NaN  0.00000000000000E+00
 cg2d: Sum(rhs),rhsMax =                    NaN  0.00000000000000E+00
 cg2d: Sum(rhs),rhsMax =                    NaN  0.00000000000000E+00
 cg2d: Sum(rhs),rhsMax =                    NaN  0.00000000000000E+00
 cg2d: Sum(rhs),rhsMax =                    NaN  0.00000000000000E+00
 cg2d: Sum(rhs),rhsMax =                    NaN  0.00000000000000E+00
 cg2d: Sum(rhs),rhsMax =                    NaN  0.00000000000000E+00
 cg2d: Sum(rhs),rhsMax =                    NaN  0.00000000000000E+00
 cg2d: Sum(rhs),rhsMax =                    NaN  0.00000000000000E+00
 cg2d: Sum(rhs),rhsMax =                    NaN  0.00000000000000E+00
 cg2d: Sum(rhs),rhsMax =                    NaN  0.00000000000000E+00
 cg2d: Sum(rhs),rhsMax =                    NaN  0.00000000000000E+00
 cg2d: Sum(rhs),rhsMax =                    NaN  0.00000000000000E+00
 cg2d: Sum(rhs),rhsMax =                    NaN  0.00000000000000E+00
 cg2d: Sum(rhs),rhsMax =                    NaN  0.00000000000000E+00
 cg2d: Sum(rhs),rhsMax =                    NaN  0.00000000000000E+00
 cg2d: Sum(rhs),rhsMax =                    NaN  0.00000000000000E+00
 cg2d: Sum(rhs),rhsMax =                    NaN  0.00000000000000E+00
 cg2d: Sum(rhs),rhsMax =                    NaN  0.00000000000000E+00
 cg2d: Sum(rhs),rhsMax =                    NaN  0.00000000000000E+00
 cg2d: Sum(rhs),rhsMax =                    NaN  0.00000000000000E+00
 cg2d: Sum(rhs),rhsMax =                    NaN  0.00000000000000E+00
 cg2d: Sum(rhs),rhsMax =                    NaN  0.00000000000000E+00
 cg2d: Sum(rhs),rhsMax =                    NaN  0.00000000000000E+00
 cg2d: Sum(rhs),rhsMax =                    NaN  0.00000000000000E+00
 cg2d: Sum(rhs),rhsMax =                    NaN  0.00000000000000E+00
 cg2d: Sum(rhs),rhsMax =                    NaN  0.00000000000000E+00
 cg2d: Sum(rhs),rhsMax =                    NaN  0.00000000000000E+00
 cg2d: Sum(rhs),rhsMax =                    NaN  0.00000000000000E+00
 cg2d: Sum(rhs),rhsMax =                    NaN  0.00000000000000E+00
 cg2d: Sum(rhs),rhsMax =                    NaN  0.00000000000000E+00
 cg2d: Sum(rhs),rhsMax =                    NaN  0.00000000000000E+00
 cg2d: Sum(rhs),rhsMax =                    NaN  0.00000000000000E+00
 cg2d: Sum(rhs),rhsMax =                    NaN  0.00000000000000E+00
 cg2d: Sum(rhs),rhsMax =                    NaN  0.00000000000000E+00
 cg2d: Sum(rhs),rhsMax =                    NaN  0.00000000000000E+00
 cg2d: Sum(rhs),rhsMax =                    NaN  0.00000000000000E+00
 cg2d: Sum(rhs),rhsMax =                    NaN  0.00000000000000E+00
 cg2d: Sum(rhs),rhsMax =                    NaN  0.00000000000000E+00
 cg2d: Sum(rhs),rhsMax =                    NaN  0.00000000000000E+00
 cg2d: Sum(rhs),rhsMax =                    NaN  0.00000000000000E+00
 cg2d: Sum(rhs),rhsMax =                    NaN  0.00000000000000E+00
 cg2d: Sum(rhs),rhsMax =                    NaN  0.00000000000000E+00
 cg2d: Sum(rhs),rhsMax =                    NaN  0.00000000000000E+00
 cg2d: Sum(rhs),rhsMax =                    NaN  0.00000000000000E+00
 cg2d: Sum(rhs),rhsMax =                    NaN  0.00000000000000E+00
 cg2d: Sum(rhs),rhsMax =                    NaN  0.00000000000000E+00
 cg2d: Sum(rhs),rhsMax =                    NaN  0.00000000000000E+00
 cg2d: Sum(rhs),rhsMax =                    NaN  0.00000000000000E+00
(PID.TID 0000.0001)      cg2d_init_res =                    NaN
(PID.TID 0000.0001)      cg2d_iters(min,last) =      -1    1000
(PID.TID 0000.0001)      cg2d_last_res =                    NaN
(PID.TID 0000.0001) // =======================================================
(PID.TID 0000.0001) // Begin MONITOR dynamic field statistics
(PID.TID 0000.0001) // =======================================================
(PID.TID 0000.0001) %MON time_tsnumber                =                  5760
(PID.TID 0000.0001) %MON time_secondsf                =   8.6400000000000E+04
(PID.TID 0000.0001) %MON dynstat_eta_max              =                   NaN
(PID.TID 0000.0001) %MON dynstat_eta_min              =                   NaN
(PID.TID 0000.0001) %MON dynstat_eta_mean             =                   NaN
(PID.TID 0000.0001) %MON dynstat_eta_sd               =                   NaN
(PID.TID 0000.0001) %MON dynstat_eta_del2             =                   NaN
(PID.TID 0000.0001) %MON dynstat_uvel_max             =   5.6028564143658E-01
(PID.TID 0000.0001) %MON dynstat_uvel_min             =   5.6028564143658E-01
(PID.TID 0000.0001) %MON dynstat_uvel_mean            =                   NaN
(PID.TID 0000.0001) %MON dynstat_uvel_sd              =                   NaN
(PID.TID 0000.0001) %MON dynstat_uvel_del2            =                   NaN
(PID.TID 0000.0001) %MON dynstat_vvel_max             =                   NaN
(PID.TID 0000.0001) %MON dynstat_vvel_min             =                   NaN
(PID.TID 0000.0001) %MON dynstat_vvel_mean            =                   NaN
(PID.TID 0000.0001) %MON dynstat_vvel_sd              =                   NaN
(PID.TID 0000.0001) %MON dynstat_vvel_del2            =                   NaN
(PID.TID 0000.0001) %MON dynstat_wvel_max             =                   NaN
(PID.TID 0000.0001) %MON dynstat_wvel_min             =                   NaN
(PID.TID 0000.0001) %MON dynstat_wvel_mean            =                   NaN
(PID.TID 0000.0001) %MON dynstat_wvel_sd              =                   NaN
(PID.TID 0000.0001) %MON dynstat_wvel_del2            =                   NaN
(PID.TID 0000.0001) %MON dynstat_theta_max            =                   NaN
(PID.TID 0000.0001) %MON dynstat_theta_min            =                   NaN
(PID.TID 0000.0001) %MON dynstat_theta_mean           =                   NaN
(PID.TID 0000.0001) %MON dynstat_theta_sd             =                   NaN
(PID.TID 0000.0001) %MON dynstat_theta_del2           =                   NaN
(PID.TID 0000.0001) %MON dynstat_salt_max             =   3.5000000000000E+01
(PID.TID 0000.0001) %MON dynstat_salt_min             =   3.5000000000000E+01
(PID.TID 0000.0001) %MON dynstat_salt_mean            =   3.5000000000000E+01
(PID.TID 0000.0001) %MON dynstat_salt_sd              =   3.9790393202566E-13
(PID.TID 0000.0001) %MON dynstat_salt_del2            =   0.0000000000000E+00
(PID.TID 0000.0001) %MON dynstat_sst_max              =                   NaN
(PID.TID 0000.0001) %MON dynstat_sst_min              =                   NaN
(PID.TID 0000.0001) %MON dynstat_sst_mean             =                   NaN
(PID.TID 0000.0001) %MON dynstat_sst_sd               =                   NaN
(PID.TID 0000.0001) %MON dynstat_sst_del2             =                   NaN
(PID.TID 0000.0001) %MON dynstat_sss_max              =   3.5000000000000E+01
(PID.TID 0000.0001) %MON dynstat_sss_min              =   3.5000000000000E+01
(PID.TID 0000.0001) %MON dynstat_sss_mean             =   3.5000000000000E+01
(PID.TID 0000.0001) %MON dynstat_sss_sd               =   5.6843418860808E-14
(PID.TID 0000.0001) %MON dynstat_sss_del2             =   0.0000000000000E+00
(PID.TID 0000.0001) %MON forcing_qnet_max             =   0.0000000000000E+00
(PID.TID 0000.0001) %MON forcing_qnet_min             =   0.0000000000000E+00
(PID.TID 0000.0001) %MON forcing_qnet_mean            =   0.0000000000000E+00
(PID.TID 0000.0001) %MON forcing_qnet_sd              =   0.0000000000000E+00
(PID.TID 0000.0001) %MON forcing_qnet_del2            =   0.0000000000000E+00
(PID.TID 0000.0001) %MON forcing_qsw_max              =   0.0000000000000E+00
(PID.TID 0000.0001) %MON forcing_qsw_min              =   0.0000000000000E+00
(PID.TID 0000.0001) %MON forcing_qsw_mean             =   0.0000000000000E+00
(PID.TID 0000.0001) %MON forcing_qsw_sd               =   0.0000000000000E+00
(PID.TID 0000.0001) %MON forcing_qsw_del2             =   0.0000000000000E+00
(PID.TID 0000.0001) %MON forcing_empmr_max            =   0.0000000000000E+00
(PID.TID 0000.0001) %MON forcing_empmr_min            =   0.0000000000000E+00
(PID.TID 0000.0001) %MON forcing_empmr_mean           =   0.0000000000000E+00
(PID.TID 0000.0001) %MON forcing_empmr_sd             =   0.0000000000000E+00
(PID.TID 0000.0001) %MON forcing_empmr_del2           =   0.0000000000000E+00
(PID.TID 0000.0001) %MON forcing_fu_max               =   0.0000000000000E+00
(PID.TID 0000.0001) %MON forcing_fu_min               =   0.0000000000000E+00
(PID.TID 0000.0001) %MON forcing_fu_mean              =   0.0000000000000E+00
(PID.TID 0000.0001) %MON forcing_fu_sd                =   0.0000000000000E+00
(PID.TID 0000.0001) %MON forcing_fu_del2              =   0.0000000000000E+00
(PID.TID 0000.0001) %MON forcing_fv_max               =   0.0000000000000E+00
(PID.TID 0000.0001) %MON forcing_fv_min               =   0.0000000000000E+00
(PID.TID 0000.0001) %MON forcing_fv_mean              =   0.0000000000000E+00
(PID.TID 0000.0001) %MON forcing_fv_sd                =   0.0000000000000E+00
(PID.TID 0000.0001) %MON forcing_fv_del2              =   0.0000000000000E+00
(PID.TID 0000.0001) %MON advcfl_uvel_max              =   8.0384112777411E-03
(PID.TID 0000.0001) %MON advcfl_vvel_max              =   0.0000000000000E+00
(PID.TID 0000.0001) %MON advcfl_wvel_max              =   0.0000000000000E+00
(PID.TID 0000.0001) %MON advcfl_W_hf_max              =   0.0000000000000E+00
(PID.TID 0000.0001) %MON pe_b_mean                    =                   NaN
(PID.TID 0000.0001) %MON ke_max                       =   0.0000000000000E+00
(PID.TID 0000.0001) %MON ke_mean                      =                   NaN
(PID.TID 0000.0001) %MON ke_vol                       =   9.5121673331316E+10
(PID.TID 0000.0001) %MON vort_r_min                   =   0.0000000000000E+00
(PID.TID 0000.0001) %MON vort_r_max                   =   0.0000000000000E+00
(PID.TID 0000.0001) %MON vort_a_mean                  =                   NaN
(PID.TID 0000.0001) %MON vort_a_sd                    =                   NaN
(PID.TID 0000.0001) %MON vort_p_mean                  =                   NaN
(PID.TID 0000.0001) %MON vort_p_sd                    =   0.0000000000000E+00
(PID.TID 0000.0001) %MON surfExpan_theta_mean         =                   NaN
(PID.TID 0000.0001) %MON surfExpan_salt_mean          =                   NaN
(PID.TID 0000.0001) // =======================================================
(PID.TID 0000.0001) // End MONITOR dynamic field statistics
(PID.TID 0000.0001) // =======================================================
(PID.TID 0000.0001) // =======================================================
(PID.TID 0000.0001) // Begin OBCS MONITOR field statistics
(PID.TID 0000.0001) // =======================================================
(PID.TID 0000.0001) %MON obc_E_uVel_max               =   5.6028564143658E-01
(PID.TID 0000.0001) %MON obc_E_uVel_min               =   5.6028564143658E-01
(PID.TID 0000.0001) %MON obc_E_uVel_mean              =   5.6028564143658E-01
(PID.TID 0000.0001) %MON obc_E_uVel_sd                =   7.4505805969238E-09
(PID.TID 0000.0001) %MON obc_E_uVel_Int               =   5.6028564143658E+05
(PID.TID 0000.0001) %MON obc_W_uVel_max               =   5.6028564143658E-01
(PID.TID 0000.0001) %MON obc_W_uVel_min               =   5.6028564143658E-01
(PID.TID 0000.0001) %MON obc_W_uVel_mean              =   5.6028564143658E-01
(PID.TID 0000.0001) %MON obc_W_uVel_sd                =   7.4505805969238E-09
(PID.TID 0000.0001) %MON obc_W_uVel_Int               =   5.6028564143658E+05
(PID.TID 0000.0001) // =======================================================
(PID.TID 0000.0001) // End OBCS MONITOR field statistics
(PID.TID 0000.0001) // =======================================================
(PID.TID 0000.0001) %CHECKPOINT      5760 0000005760
 cg2d: Sum(rhs),rhsMax =                    NaN  0.00000000000000E+00
 cg2d: Sum(rhs),rhsMax =                    NaN  0.00000000000000E+00
 cg2d: Sum(rhs),rhsMax =                    NaN  0.00000000000000E+00
 cg2d: Sum(rhs),rhsMax =                    NaN  0.00000000000000E+00
 cg2d: Sum(rhs),rhsMax =                    NaN  0.00000000000000E+00
 cg2d: Sum(rhs),rhsMax =                    NaN  0.00000000000000E+00
 cg2d: Sum(rhs),rhsMax =                    NaN  0.00000000000000E+00
 cg2d: Sum(rhs),rhsMax =                    NaN  0.00000000000000E+00
 cg2d: Sum(rhs),rhsMax =                    NaN  0.00000000000000E+00
 cg2d: Sum(rhs),rhsMax =                    NaN  0.00000000000000E+00
 cg2d: Sum(rhs),rhsMax =                    NaN  0.00000000000000E+00
 cg2d: Sum(rhs),rhsMax =                    NaN  0.00000000000000E+00
 cg2d: Sum(rhs),rhsMax =                    NaN  0.00000000000000E+00
 cg2d: Sum(rhs),rhsMax =                    NaN  0.00000000000000E+00
 cg2d: Sum(rhs),rhsMax =                    NaN  0.00000000000000E+00
 cg2d: Sum(rhs),rhsMax =                    NaN  0.00000000000000E+00
 cg2d: Sum(rhs),rhsMax =                    NaN  0.00000000000000E+00
 cg2d: Sum(rhs),rhsMax =                    NaN  0.00000000000000E+00
 cg2d: Sum(rhs),rhsMax =                    NaN  0.00000000000000E+00
 cg2d: Sum(rhs),rhsMax =                    NaN  0.00000000000000E+00
 cg2d: Sum(rhs),rhsMax =                    NaN  0.00000000000000E+00
 cg2d: Sum(rhs),rhsMax =                    NaN  0.00000000000000E+00
 cg2d: Sum(rhs),rhsMax =                    NaN  0.00000000000000E+00
 cg2d: Sum(rhs),rhsMax =                    NaN  0.00000000000000E+00
 cg2d: Sum(rhs),rhsMax =                    NaN  0.00000000000000E+00
 cg2d: Sum(rhs),rhsMax =                    NaN  0.00000000000000E+00
 cg2d: Sum(rhs),rhsMax =                    NaN  0.00000000000000E+00
 cg2d: Sum(rhs),rhsMax =                    NaN  0.00000000000000E+00
 cg2d: Sum(rhs),rhsMax =                    NaN  0.00000000000000E+00
 cg2d: Sum(rhs),rhsMax =                    NaN  0.00000000000000E+00
 cg2d: Sum(rhs),rhsMax =                    NaN  0.00000000000000E+00
 cg2d: Sum(rhs),rhsMax =                    NaN  0.00000000000000E+00
 cg2d: Sum(rhs),rhsMax =                    NaN  0.00000000000000E+00
 cg2d: Sum(rhs),rhsMax =                    NaN  0.00000000000000E+00
 cg2d: Sum(rhs),rhsMax =                    NaN  0.00000000000000E+00
 cg2d: Sum(rhs),rhsMax =                    NaN  0.00000000000000E+00
 cg2d: Sum(rhs),rhsMax =                    NaN  0.00000000000000E+00
 cg2d: Sum(rhs),rhsMax =                    NaN  0.00000000000000E+00
 cg2d: Sum(rhs),rhsMax =                    NaN  0.00000000000000E+00
 cg2d: Sum(rhs),rhsMax =                    NaN  0.00000000000000E+00
 cg2d: Sum(rhs),rhsMax =                    NaN  0.00000000000000E+00
 cg2d: Sum(rhs),rhsMax =                    NaN  0.00000000000000E+00
 cg2d: Sum(rhs),rhsMax =                    NaN  0.00000000000000E+00
 cg2d: Sum(rhs),rhsMax =                    NaN  0.00000000000000E+00
 cg2d: Sum(rhs),rhsMax =                    NaN  0.00000000000000E+00
 cg2d: Sum(rhs),rhsMax =                    NaN  0.00000000000000E+00
 cg2d: Sum(rhs),rhsMax =                    NaN  0.00000000000000E+00
 cg2d: Sum(rhs),rhsMax =                    NaN  0.00000000000000E+00
 cg2d: Sum(rhs),rhsMax =                    NaN  0.00000000000000E+00
 cg2d: Sum(rhs),rhsMax =                    NaN  0.00000000000000E+00
 cg2d: Sum(rhs),rhsMax =                    NaN  0.00000000000000E+00
 cg2d: Sum(rhs),rhsMax =                    NaN  0.00000000000000E+00
 cg2d: Sum(rhs),rhsMax =                    NaN  0.00000000000000E+00
 cg2d: Sum(rhs),rhsMax =                    NaN  0.00000000000000E+00
 cg2d: Sum(rhs),rhsMax =                    NaN  0.00000000000000E+00
 cg2d: Sum(rhs),rhsMax =                    NaN  0.00000000000000E+00
 cg2d: Sum(rhs),rhsMax =                    NaN  0.00000000000000E+00
 cg2d: Sum(rhs),rhsMax =                    NaN  0.00000000000000E+00
 cg2d: Sum(rhs),rhsMax =                    NaN  0.00000000000000E+00
 cg2d: Sum(rhs),rhsMax =                    NaN  0.00000000000000E+00
 cg2d: Sum(rhs),rhsMax =                    NaN  0.00000000000000E+00
 cg2d: Sum(rhs),rhsMax =                    NaN  0.00000000000000E+00
 cg2d: Sum(rhs),rhsMax =                    NaN  0.00000000000000E+00
 cg2d: Sum(rhs),rhsMax =                    NaN  0.00000000000000E+00
 cg2d: Sum(rhs),rhsMax =                    NaN  0.00000000000000E+00
 cg2d: Sum(rhs),rhsMax =                    NaN  0.00000000000000E+00
 cg2d: Sum(rhs),rhsMax =                    NaN  0.00000000000000E+00
 cg2d: Sum(rhs),rhsMax =                    NaN  0.00000000000000E+00
 cg2d: Sum(rhs),rhsMax =                    NaN  0.00000000000000E+00
 cg2d: Sum(rhs),rhsMax =                    NaN  0.00000000000000E+00
 cg2d: Sum(rhs),rhsMax =                    NaN  0.00000000000000E+00
 cg2d: Sum(rhs),rhsMax =                    NaN  0.00000000000000E+00
 cg2d: Sum(rhs),rhsMax =                    NaN  0.00000000000000E+00
 cg2d: Sum(rhs),rhsMax =                    NaN  0.00000000000000E+00
 cg2d: Sum(rhs),rhsMax =                    NaN  0.00000000000000E+00
 cg2d: Sum(rhs),rhsMax =                    NaN  0.00000000000000E+00
 cg2d: Sum(rhs),rhsMax =                    NaN  0.00000000000000E+00
 cg2d: Sum(rhs),rhsMax =                    NaN  0.00000000000000E+00
 cg2d: Sum(rhs),rhsMax =                    NaN  0.00000000000000E+00
 cg2d: Sum(rhs),rhsMax =                    NaN  0.00000000000000E+00
 cg2d: Sum(rhs),rhsMax =                    NaN  0.00000000000000E+00
 cg2d: Sum(rhs),rhsMax =                    NaN  0.00000000000000E+00
 cg2d: Sum(rhs),rhsMax =                    NaN  0.00000000000000E+00
 cg2d: Sum(rhs),rhsMax =                    NaN  0.00000000000000E+00
 cg2d: Sum(rhs),rhsMax =                    NaN  0.00000000000000E+00
 cg2d: Sum(rhs),rhsMax =                    NaN  0.00000000000000E+00
 cg2d: Sum(rhs),rhsMax =                    NaN  0.00000000000000E+00
 cg2d: Sum(rhs),rhsMax =                    NaN  0.00000000000000E+00
 cg2d: Sum(rhs),rhsMax =                    NaN  0.00000000000000E+00
 cg2d: Sum(rhs),rhsMax =                    NaN  0.00000000000000E+00
 cg2d: Sum(rhs),rhsMax =                    NaN  0.00000000000000E+00
 cg2d: Sum(rhs),rhsMax =                    NaN  0.00000000000000E+00
 cg2d: Sum(rhs),rhsMax =                    NaN  0.00000000000000E+00
 cg2d: Sum(rhs),rhsMax =                    NaN  0.00000000000000E+00
 cg2d: Sum(rhs),rhsMax =                    NaN  0.00000000000000E+00
 cg2d: Sum(rhs),rhsMax =                    NaN  0.00000000000000E+00
 cg2d: Sum(rhs),rhsMax =                    NaN  0.00000000000000E+00
 cg2d: Sum(rhs),rhsMax =                    NaN  0.00000000000000E+00
 cg2d: Sum(rhs),rhsMax =                    NaN  0.00000000000000E+00
 cg2d: Sum(rhs),rhsMax =                    NaN  0.00000000000000E+00
 cg2d: Sum(rhs),rhsMax =                    NaN  0.00000000000000E+00
 cg2d: Sum(rhs),rhsMax =                    NaN  0.00000000000000E+00
 cg2d: Sum(rhs),rhsMax =                    NaN  0.00000000000000E+00
 cg2d: Sum(rhs),rhsMax =                    NaN  0.00000000000000E+00
 cg2d: Sum(rhs),rhsMax =                    NaN  0.00000000000000E+00
 cg2d: Sum(rhs),rhsMax =                    NaN  0.00000000000000E+00
 cg2d: Sum(rhs),rhsMax =                    NaN  0.00000000000000E+00
 cg2d: Sum(rhs),rhsMax =                    NaN  0.00000000000000E+00
 cg2d: Sum(rhs),rhsMax =                    NaN  0.00000000000000E+00
 cg2d: Sum(rhs),rhsMax =                    NaN  0.00000000000000E+00
 cg2d: Sum(rhs),rhsMax =                    NaN  0.00000000000000E+00
 cg2d: Sum(rhs),rhsMax =                    NaN  0.00000000000000E+00
 cg2d: Sum(rhs),rhsMax =                    NaN  0.00000000000000E+00
 cg2d: Sum(rhs),rhsMax =                    NaN  0.00000000000000E+00
 cg2d: Sum(rhs),rhsMax =                    NaN  0.00000000000000E+00
 cg2d: Sum(rhs),rhsMax =                    NaN  0.00000000000000E+00
 cg2d: Sum(rhs),rhsMax =                    NaN  0.00000000000000E+00
 cg2d: Sum(rhs),rhsMax =                    NaN  0.00000000000000E+00
 cg2d: Sum(rhs),rhsMax =                    NaN  0.00000000000000E+00
 cg2d: Sum(rhs),rhsMax =                    NaN  0.00000000000000E+00
 cg2d: Sum(rhs),rhsMax =                    NaN  0.00000000000000E+00
 cg2d: Sum(rhs),rhsMax =                    NaN  0.00000000000000E+00
 cg2d: Sum(rhs),rhsMax =                    NaN  0.00000000000000E+00
 cg2d: Sum(rhs),rhsMax =                    NaN  0.00000000000000E+00
 cg2d: Sum(rhs),rhsMax =                    NaN  0.00000000000000E+00
 cg2d: Sum(rhs),rhsMax =                    NaN  0.00000000000000E+00
 cg2d: Sum(rhs),rhsMax =                    NaN  0.00000000000000E+00
 cg2d: Sum(rhs),rhsMax =                    NaN  0.00000000000000E+00
 cg2d: Sum(rhs),rhsMax =                    NaN  0.00000000000000E+00
 cg2d: Sum(rhs),rhsMax =                    NaN  0.00000000000000E+00
 cg2d: Sum(rhs),rhsMax =                    NaN  0.00000000000000E+00
 cg2d: Sum(rhs),rhsMax =                    NaN  0.00000000000000E+00
 cg2d: Sum(rhs),rhsMax =                    NaN  0.00000000000000E+00
 cg2d: Sum(rhs),rhsMax =                    NaN  0.00000000000000E+00
 cg2d: Sum(rhs),rhsMax =                    NaN  0.00000000000000E+00
 cg2d: Sum(rhs),rhsMax =                    NaN  0.00000000000000E+00
 cg2d: Sum(rhs),rhsMax =                    NaN  0.00000000000000E+00
 cg2d: Sum(rhs),rhsMax =                    NaN  0.00000000000000E+00
 cg2d: Sum(rhs),rhsMax =                    NaN  0.00000000000000E+00
 cg2d: Sum(rhs),rhsMax =                    NaN  0.00000000000000E+00
 cg2d: Sum(rhs),rhsMax =                    NaN  0.00000000000000E+00
 cg2d: Sum(rhs),rhsMax =                    NaN  0.00000000000000E+00
 cg2d: Sum(rhs),rhsMax =                    NaN  0.00000000000000E+00
 cg2d: Sum(rhs),rhsMax =                    NaN  0.00000000000000E+00
 cg2d: Sum(rhs),rhsMax =                    NaN  0.00000000000000E+00
 cg2d: Sum(rhs),rhsMax =                    NaN  0.00000000000000E+00
 cg2d: Sum(rhs),rhsMax =                    NaN  0.00000000000000E+00
 cg2d: Sum(rhs),rhsMax =                    NaN  0.00000000000000E+00
 cg2d: Sum(rhs),rhsMax =                    NaN  0.00000000000000E+00
 cg2d: Sum(rhs),rhsMax =                    NaN  0.00000000000000E+00
 cg2d: Sum(rhs),rhsMax =                    NaN  0.00000000000000E+00
 cg2d: Sum(rhs),rhsMax =                    NaN  0.00000000000000E+00
 cg2d: Sum(rhs),rhsMax =                    NaN  0.00000000000000E+00
 cg2d: Sum(rhs),rhsMax =                    NaN  0.00000000000000E+00
 cg2d: Sum(rhs),rhsMax =                    NaN  0.00000000000000E+00
 cg2d: Sum(rhs),rhsMax =                    NaN  0.00000000000000E+00
 cg2d: Sum(rhs),rhsMax =                    NaN  0.00000000000000E+00
 cg2d: Sum(rhs),rhsMax =                    NaN  0.00000000000000E+00
 cg2d: Sum(rhs),rhsMax =                    NaN  0.00000000000000E+00
 cg2d: Sum(rhs),rhsMax =                    NaN  0.00000000000000E+00
 cg2d: Sum(rhs),rhsMax =                    NaN  0.00000000000000E+00
 cg2d: Sum(rhs),rhsMax =                    NaN  0.00000000000000E+00
 cg2d: Sum(rhs),rhsMax =                    NaN  0.00000000000000E+00
 cg2d: Sum(rhs),rhsMax =                    NaN  0.00000000000000E+00
 cg2d: Sum(rhs),rhsMax =                    NaN  0.00000000000000E+00
 cg2d: Sum(rhs),rhsMax =                    NaN  0.00000000000000E+00
 cg2d: Sum(rhs),rhsMax =                    NaN  0.00000000000000E+00
 cg2d: Sum(rhs),rhsMax =                    NaN  0.00000000000000E+00
 cg2d: Sum(rhs),rhsMax =                    NaN  0.00000000000000E+00
 cg2d: Sum(rhs),rhsMax =                    NaN  0.00000000000000E+00
 cg2d: Sum(rhs),rhsMax =                    NaN  0.00000000000000E+00
 cg2d: Sum(rhs),rhsMax =                    NaN  0.00000000000000E+00
 cg2d: Sum(rhs),rhsMax =                    NaN  0.00000000000000E+00
 cg2d: Sum(rhs),rhsMax =                    NaN  0.00000000000000E+00
 cg2d: Sum(rhs),rhsMax =                    NaN  0.00000000000000E+00
 cg2d: Sum(rhs),rhsMax =                    NaN  0.00000000000000E+00
 cg2d: Sum(rhs),rhsMax =                    NaN  0.00000000000000E+00
 cg2d: Sum(rhs),rhsMax =                    NaN  0.00000000000000E+00
 cg2d: Sum(rhs),rhsMax =                    NaN  0.00000000000000E+00
 cg2d: Sum(rhs),rhsMax =                    NaN  0.00000000000000E+00
 cg2d: Sum(rhs),rhsMax =                    NaN  0.00000000000000E+00
 cg2d: Sum(rhs),rhsMax =                    NaN  0.00000000000000E+00
 cg2d: Sum(rhs),rhsMax =                    NaN  0.00000000000000E+00
 cg2d: Sum(rhs),rhsMax =                    NaN  0.00000000000000E+00
 cg2d: Sum(rhs),rhsMax =                    NaN  0.00000000000000E+00
 cg2d: Sum(rhs),rhsMax =                    NaN  0.00000000000000E+00
 cg2d: Sum(rhs),rhsMax =                    NaN  0.00000000000000E+00
 cg2d: Sum(rhs),rhsMax =                    NaN  0.00000000000000E+00
 cg2d: Sum(rhs),rhsMax =                    NaN  0.00000000000000E+00
 cg2d: Sum(rhs),rhsMax =                    NaN  0.00000000000000E+00
 cg2d: Sum(rhs),rhsMax =                    NaN  0.00000000000000E+00
 cg2d: Sum(rhs),rhsMax =                    NaN  0.00000000000000E+00
 cg2d: Sum(rhs),rhsMax =                    NaN  0.00000000000000E+00
 cg2d: Sum(rhs),rhsMax =                    NaN  0.00000000000000E+00
 cg2d: Sum(rhs),rhsMax =                    NaN  0.00000000000000E+00
 cg2d: Sum(rhs),rhsMax =                    NaN  0.00000000000000E+00
 cg2d: Sum(rhs),rhsMax =                    NaN  0.00000000000000E+00
 cg2d: Sum(rhs),rhsMax =                    NaN  0.00000000000000E+00
 cg2d: Sum(rhs),rhsMax =                    NaN  0.00000000000000E+00
 cg2d: Sum(rhs),rhsMax =                    NaN  0.00000000000000E+00
 cg2d: Sum(rhs),rhsMax =                    NaN  0.00000000000000E+00
 cg2d: Sum(rhs),rhsMax =                    NaN  0.00000000000000E+00
 cg2d: Sum(rhs),rhsMax =                    NaN  0.00000000000000E+00
 cg2d: Sum(rhs),rhsMax =                    NaN  0.00000000000000E+00
 cg2d: Sum(rhs),rhsMax =                    NaN  0.00000000000000E+00
 cg2d: Sum(rhs),rhsMax =                    NaN  0.00000000000000E+00
 cg2d: Sum(rhs),rhsMax =                    NaN  0.00000000000000E+00
 cg2d: Sum(rhs),rhsMax =                    NaN  0.00000000000000E+00
 cg2d: Sum(rhs),rhsMax =                    NaN  0.00000000000000E+00
 cg2d: Sum(rhs),rhsMax =                    NaN  0.00000000000000E+00
 cg2d: Sum(rhs),rhsMax =                    NaN  0.00000000000000E+00
 cg2d: Sum(rhs),rhsMax =                    NaN  0.00000000000000E+00
 cg2d: Sum(rhs),rhsMax =                    NaN  0.00000000000000E+00
 cg2d: Sum(rhs),rhsMax =                    NaN  0.00000000000000E+00
 cg2d: Sum(rhs),rhsMax =                    NaN  0.00000000000000E+00
 cg2d: Sum(rhs),rhsMax =                    NaN  0.00000000000000E+00
 cg2d: Sum(rhs),rhsMax =                    NaN  0.00000000000000E+00
 cg2d: Sum(rhs),rhsMax =                    NaN  0.00000000000000E+00
 cg2d: Sum(rhs),rhsMax =                    NaN  0.00000000000000E+00
 cg2d: Sum(rhs),rhsMax =                    NaN  0.00000000000000E+00
 cg2d: Sum(rhs),rhsMax =                    NaN  0.00000000000000E+00
 cg2d: Sum(rhs),rhsMax =                    NaN  0.00000000000000E+00
 cg2d: Sum(rhs),rhsMax =                    NaN  0.00000000000000E+00
 cg2d: Sum(rhs),rhsMax =                    NaN  0.00000000000000E+00
 cg2d: Sum(rhs),rhsMax =                    NaN  0.00000000000000E+00
 cg2d: Sum(rhs),rhsMax =                    NaN  0.00000000000000E+00
 cg2d: Sum(rhs),rhsMax =                    NaN  0.00000000000000E+00
 cg2d: Sum(rhs),rhsMax =                    NaN  0.00000000000000E+00
 cg2d: Sum(rhs),rhsMax =                    NaN  0.00000000000000E+00
 cg2d: Sum(rhs),rhsMax =                    NaN  0.00000000000000E+00
 cg2d: Sum(rhs),rhsMax =                    NaN  0.00000000000000E+00
 cg2d: Sum(rhs),rhsMax =                    NaN  0.00000000000000E+00
 cg2d: Sum(rhs),rhsMax =                    NaN  0.00000000000000E+00
 cg2d: Sum(rhs),rhsMax =                    NaN  0.00000000000000E+00
 cg2d: Sum(rhs),rhsMax =                    NaN  0.00000000000000E+00
 cg2d: Sum(rhs),rhsMax =                    NaN  0.00000000000000E+00
 cg2d: Sum(rhs),rhsMax =                    NaN  0.00000000000000E+00
 cg2d: Sum(rhs),rhsMax =                    NaN  0.00000000000000E+00
 cg2d: Sum(rhs),rhsMax =                    NaN  0.00000000000000E+00
 cg2d: Sum(rhs),rhsMax =                    NaN  0.00000000000000E+00
 cg2d: Sum(rhs),rhsMax =                    NaN  0.00000000000000E+00
 cg2d: Sum(rhs),rhsMax =                    NaN  0.00000000000000E+00
 cg2d: Sum(rhs),rhsMax =                    NaN  0.00000000000000E+00
 cg2d: Sum(rhs),rhsMax =                    NaN  0.00000000000000E+00
 cg2d: Sum(rhs),rhsMax =                    NaN  0.00000000000000E+00
 cg2d: Sum(rhs),rhsMax =                    NaN  0.00000000000000E+00
 cg2d: Sum(rhs),rhsMax =                    NaN  0.00000000000000E+00
 cg2d: Sum(rhs),rhsMax =                    NaN  0.00000000000000E+00
 cg2d: Sum(rhs),rhsMax =                    NaN  0.00000000000000E+00
 cg2d: Sum(rhs),rhsMax =                    NaN  0.00000000000000E+00
 cg2d: Sum(rhs),rhsMax =                    NaN  0.00000000000000E+00
 cg2d: Sum(rhs),rhsMax =                    NaN  0.00000000000000E+00
 cg2d: Sum(rhs),rhsMax =                    NaN  0.00000000000000E+00
 cg2d: Sum(rhs),rhsMax =                    NaN  0.00000000000000E+00
 cg2d: Sum(rhs),rhsMax =                    NaN  0.00000000000000E+00
 cg2d: Sum(rhs),rhsMax =                    NaN  0.00000000000000E+00
 cg2d: Sum(rhs),rhsMax =                    NaN  0.00000000000000E+00
 cg2d: Sum(rhs),rhsMax =                    NaN  0.00000000000000E+00
 cg2d: Sum(rhs),rhsMax =                    NaN  0.00000000000000E+00
 cg2d: Sum(rhs),rhsMax =                    NaN  0.00000000000000E+00
 cg2d: Sum(rhs),rhsMax =                    NaN  0.00000000000000E+00
 cg2d: Sum(rhs),rhsMax =                    NaN  0.00000000000000E+00
 cg2d: Sum(rhs),rhsMax =                    NaN  0.00000000000000E+00
 cg2d: Sum(rhs),rhsMax =                    NaN  0.00000000000000E+00
 cg2d: Sum(rhs),rhsMax =                    NaN  0.00000000000000E+00
 cg2d: Sum(rhs),rhsMax =                    NaN  0.00000000000000E+00
 cg2d: Sum(rhs),rhsMax =                    NaN  0.00000000000000E+00
 cg2d: Sum(rhs),rhsMax =                    NaN  0.00000000000000E+00
 cg2d: Sum(rhs),rhsMax =                    NaN  0.00000000000000E+00
 cg2d: Sum(rhs),rhsMax =                    NaN  0.00000000000000E+00
 cg2d: Sum(rhs),rhsMax =                    NaN  0.00000000000000E+00
 cg2d: Sum(rhs),rhsMax =                    NaN  0.00000000000000E+00
 cg2d: Sum(rhs),rhsMax =                    NaN  0.00000000000000E+00
 cg2d: Sum(rhs),rhsMax =                    NaN  0.00000000000000E+00
 cg2d: Sum(rhs),rhsMax =                    NaN  0.00000000000000E+00
 cg2d: Sum(rhs),rhsMax =                    NaN  0.00000000000000E+00
 cg2d: Sum(rhs),rhsMax =                    NaN  0.00000000000000E+00
 cg2d: Sum(rhs),rhsMax =                    NaN  0.00000000000000E+00
 cg2d: Sum(rhs),rhsMax =                    NaN  0.00000000000000E+00
 cg2d: Sum(rhs),rhsMax =                    NaN  0.00000000000000E+00
 cg2d: Sum(rhs),rhsMax =                    NaN  0.00000000000000E+00
 cg2d: Sum(rhs),rhsMax =                    NaN  0.00000000000000E+00
 cg2d: Sum(rhs),rhsMax =                    NaN  0.00000000000000E+00
 cg2d: Sum(rhs),rhsMax =                    NaN  0.00000000000000E+00
 cg2d: Sum(rhs),rhsMax =                    NaN  0.00000000000000E+00
 cg2d: Sum(rhs),rhsMax =                    NaN  0.00000000000000E+00
 cg2d: Sum(rhs),rhsMax =                    NaN  0.00000000000000E+00
 cg2d: Sum(rhs),rhsMax =                    NaN  0.00000000000000E+00
 cg2d: Sum(rhs),rhsMax =                    NaN  0.00000000000000E+00
 cg2d: Sum(rhs),rhsMax =                    NaN  0.00000000000000E+00
 cg2d: Sum(rhs),rhsMax =                    NaN  0.00000000000000E+00
 cg2d: Sum(rhs),rhsMax =                    NaN  0.00000000000000E+00
 cg2d: Sum(rhs),rhsMax =                    NaN  0.00000000000000E+00
 cg2d: Sum(rhs),rhsMax =                    NaN  0.00000000000000E+00
 cg2d: Sum(rhs),rhsMax =                    NaN  0.00000000000000E+00
 cg2d: Sum(rhs),rhsMax =                    NaN  0.00000000000000E+00
 cg2d: Sum(rhs),rhsMax =                    NaN  0.00000000000000E+00
 cg2d: Sum(rhs),rhsMax =                    NaN  0.00000000000000E+00
 cg2d: Sum(rhs),rhsMax =                    NaN  0.00000000000000E+00
 cg2d: Sum(rhs),rhsMax =                    NaN  0.00000000000000E+00
 cg2d: Sum(rhs),rhsMax =                    NaN  0.00000000000000E+00
 cg2d: Sum(rhs),rhsMax =                    NaN  0.00000000000000E+00
 cg2d: Sum(rhs),rhsMax =                    NaN  0.00000000000000E+00
 cg2d: Sum(rhs),rhsMax =                    NaN  0.00000000000000E+00
 cg2d: Sum(rhs),rhsMax =                    NaN  0.00000000000000E+00
 cg2d: Sum(rhs),rhsMax =                    NaN  0.00000000000000E+00
 cg2d: Sum(rhs),rhsMax =                    NaN  0.00000000000000E+00
 cg2d: Sum(rhs),rhsMax =                    NaN  0.00000000000000E+00
 cg2d: Sum(rhs),rhsMax =                    NaN  0.00000000000000E+00
 cg2d: Sum(rhs),rhsMax =                    NaN  0.00000000000000E+00
 cg2d: Sum(rhs),rhsMax =                    NaN  0.00000000000000E+00
 cg2d: Sum(rhs),rhsMax =                    NaN  0.00000000000000E+00
 cg2d: Sum(rhs),rhsMax =                    NaN  0.00000000000000E+00
 cg2d: Sum(rhs),rhsMax =                    NaN  0.00000000000000E+00
 cg2d: Sum(rhs),rhsMax =                    NaN  0.00000000000000E+00
 cg2d: Sum(rhs),rhsMax =                    NaN  0.00000000000000E+00
 cg2d: Sum(rhs),rhsMax =                    NaN  0.00000000000000E+00
 cg2d: Sum(rhs),rhsMax =                    NaN  0.00000000000000E+00
 cg2d: Sum(rhs),rhsMax =                    NaN  0.00000000000000E+00
 cg2d: Sum(rhs),rhsMax =                    NaN  0.00000000000000E+00
 cg2d: Sum(rhs),rhsMax =                    NaN  0.00000000000000E+00
 cg2d: Sum(rhs),rhsMax =                    NaN  0.00000000000000E+00
 cg2d: Sum(rhs),rhsMax =                    NaN  0.00000000000000E+00
 cg2d: Sum(rhs),rhsMax =                    NaN  0.00000000000000E+00
 cg2d: Sum(rhs),rhsMax =                    NaN  0.00000000000000E+00
 cg2d: Sum(rhs),rhsMax =                    NaN  0.00000000000000E+00
 cg2d: Sum(rhs),rhsMax =                    NaN  0.00000000000000E+00
 cg2d: Sum(rhs),rhsMax =                    NaN  0.00000000000000E+00
 cg2d: Sum(rhs),rhsMax =                    NaN  0.00000000000000E+00
 cg2d: Sum(rhs),rhsMax =                    NaN  0.00000000000000E+00
 cg2d: Sum(rhs),rhsMax =                    NaN  0.00000000000000E+00
 cg2d: Sum(rhs),rhsMax =                    NaN  0.00000000000000E+00
 cg2d: Sum(rhs),rhsMax =                    NaN  0.00000000000000E+00
 cg2d: Sum(rhs),rhsMax =                    NaN  0.00000000000000E+00
 cg2d: Sum(rhs),rhsMax =                    NaN  0.00000000000000E+00
 cg2d: Sum(rhs),rhsMax =                    NaN  0.00000000000000E+00
 cg2d: Sum(rhs),rhsMax =                    NaN  0.00000000000000E+00
 cg2d: Sum(rhs),rhsMax =                    NaN  0.00000000000000E+00
 cg2d: Sum(rhs),rhsMax =                    NaN  0.00000000000000E+00
 cg2d: Sum(rhs),rhsMax =                    NaN  0.00000000000000E+00
 cg2d: Sum(rhs),rhsMax =                    NaN  0.00000000000000E+00
 cg2d: Sum(rhs),rhsMax =                    NaN  0.00000000000000E+00
 cg2d: Sum(rhs),rhsMax =                    NaN  0.00000000000000E+00
 cg2d: Sum(rhs),rhsMax =                    NaN  0.00000000000000E+00
 cg2d: Sum(rhs),rhsMax =                    NaN  0.00000000000000E+00
 cg2d: Sum(rhs),rhsMax =                    NaN  0.00000000000000E+00
 cg2d: Sum(rhs),rhsMax =                    NaN  0.00000000000000E+00
 cg2d: Sum(rhs),rhsMax =                    NaN  0.00000000000000E+00
 cg2d: Sum(rhs),rhsMax =                    NaN  0.00000000000000E+00
 cg2d: Sum(rhs),rhsMax =                    NaN  0.00000000000000E+00
 cg2d: Sum(rhs),rhsMax =                    NaN  0.00000000000000E+00
 cg2d: Sum(rhs),rhsMax =                    NaN  0.00000000000000E+00
 cg2d: Sum(rhs),rhsMax =                    NaN  0.00000000000000E+00
 cg2d: Sum(rhs),rhsMax =                    NaN  0.00000000000000E+00
 cg2d: Sum(rhs),rhsMax =                    NaN  0.00000000000000E+00
 cg2d: Sum(rhs),rhsMax =                    NaN  0.00000000000000E+00
 cg2d: Sum(rhs),rhsMax =                    NaN  0.00000000000000E+00
 cg2d: Sum(rhs),rhsMax =                    NaN  0.00000000000000E+00
 cg2d: Sum(rhs),rhsMax =                    NaN  0.00000000000000E+00
 cg2d: Sum(rhs),rhsMax =                    NaN  0.00000000000000E+00
 cg2d: Sum(rhs),rhsMax =                    NaN  0.00000000000000E+00
 cg2d: Sum(rhs),rhsMax =                    NaN  0.00000000000000E+00
 cg2d: Sum(rhs),rhsMax =                    NaN  0.00000000000000E+00
 cg2d: Sum(rhs),rhsMax =                    NaN  0.00000000000000E+00
 cg2d: Sum(rhs),rhsMax =                    NaN  0.00000000000000E+00
 cg2d: Sum(rhs),rhsMax =                    NaN  0.00000000000000E+00
 cg2d: Sum(rhs),rhsMax =                    NaN  0.00000000000000E+00
 cg2d: Sum(rhs),rhsMax =                    NaN  0.00000000000000E+00
 cg2d: Sum(rhs),rhsMax =                    NaN  0.00000000000000E+00
 cg2d: Sum(rhs),rhsMax =                    NaN  0.00000000000000E+00
 cg2d: Sum(rhs),rhsMax =                    NaN  0.00000000000000E+00
 cg2d: Sum(rhs),rhsMax =                    NaN  0.00000000000000E+00
 cg2d: Sum(rhs),rhsMax =                    NaN  0.00000000000000E+00
 cg2d: Sum(rhs),rhsMax =                    NaN  0.00000000000000E+00
 cg2d: Sum(rhs),rhsMax =                    NaN  0.00000000000000E+00
 cg2d: Sum(rhs),rhsMax =                    NaN  0.00000000000000E+00
 cg2d: Sum(rhs),rhsMax =                    NaN  0.00000000000000E+00
 cg2d: Sum(rhs),rhsMax =                    NaN  0.00000000000000E+00
 cg2d: Sum(rhs),rhsMax =                    NaN  0.00000000000000E+00
 cg2d: Sum(rhs),rhsMax =                    NaN  0.00000000000000E+00
 cg2d: Sum(rhs),rhsMax =                    NaN  0.00000000000000E+00
 cg2d: Sum(rhs),rhsMax =                    NaN  0.00000000000000E+00
 cg2d: Sum(rhs),rhsMax =                    NaN  0.00000000000000E+00
 cg2d: Sum(rhs),rhsMax =                    NaN  0.00000000000000E+00
 cg2d: Sum(rhs),rhsMax =                    NaN  0.00000000000000E+00
 cg2d: Sum(rhs),rhsMax =                    NaN  0.00000000000000E+00
 cg2d: Sum(rhs),rhsMax =                    NaN  0.00000000000000E+00
 cg2d: Sum(rhs),rhsMax =                    NaN  0.00000000000000E+00
 cg2d: Sum(rhs),rhsMax =                    NaN  0.00000000000000E+00
 cg2d: Sum(rhs),rhsMax =                    NaN  0.00000000000000E+00
 cg2d: Sum(rhs),rhsMax =                    NaN  0.00000000000000E+00
 cg2d: Sum(rhs),rhsMax =                    NaN  0.00000000000000E+00
 cg2d: Sum(rhs),rhsMax =                    NaN  0.00000000000000E+00
 cg2d: Sum(rhs),rhsMax =                    NaN  0.00000000000000E+00
 cg2d: Sum(rhs),rhsMax =                    NaN  0.00000000000000E+00
 cg2d: Sum(rhs),rhsMax =                    NaN  0.00000000000000E+00
 cg2d: Sum(rhs),rhsMax =                    NaN  0.00000000000000E+00
 cg2d: Sum(rhs),rhsMax =                    NaN  0.00000000000000E+00
 cg2d: Sum(rhs),rhsMax =                    NaN  0.00000000000000E+00
 cg2d: Sum(rhs),rhsMax =                    NaN  0.00000000000000E+00
 cg2d: Sum(rhs),rhsMax =                    NaN  0.00000000000000E+00
 cg2d: Sum(rhs),rhsMax =                    NaN  0.00000000000000E+00
 cg2d: Sum(rhs),rhsMax =                    NaN  0.00000000000000E+00
 cg2d: Sum(rhs),rhsMax =                    NaN  0.00000000000000E+00
 cg2d: Sum(rhs),rhsMax =                    NaN  0.00000000000000E+00
 cg2d: Sum(rhs),rhsMax =                    NaN  0.00000000000000E+00
 cg2d: Sum(rhs),rhsMax =                    NaN  0.00000000000000E+00
 cg2d: Sum(rhs),rhsMax =                    NaN  0.00000000000000E+00
 cg2d: Sum(rhs),rhsMax =                    NaN  0.00000000000000E+00
 cg2d: Sum(rhs),rhsMax =                    NaN  0.00000000000000E+00
 cg2d: Sum(rhs),rhsMax =                    NaN  0.00000000000000E+00
 cg2d: Sum(rhs),rhsMax =                    NaN  0.00000000000000E+00
 cg2d: Sum(rhs),rhsMax =                    NaN  0.00000000000000E+00
 cg2d: Sum(rhs),rhsMax =                    NaN  0.00000000000000E+00
 cg2d: Sum(rhs),rhsMax =                    NaN  0.00000000000000E+00
 cg2d: Sum(rhs),rhsMax =                    NaN  0.00000000000000E+00
 cg2d: Sum(rhs),rhsMax =                    NaN  0.00000000000000E+00
 cg2d: Sum(rhs),rhsMax =                    NaN  0.00000000000000E+00
 cg2d: Sum(rhs),rhsMax =                    NaN  0.00000000000000E+00
 cg2d: Sum(rhs),rhsMax =                    NaN  0.00000000000000E+00
 cg2d: Sum(rhs),rhsMax =                    NaN  0.00000000000000E+00
 cg2d: Sum(rhs),rhsMax =                    NaN  0.00000000000000E+00
 cg2d: Sum(rhs),rhsMax =                    NaN  0.00000000000000E+00
 cg2d: Sum(rhs),rhsMax =                    NaN  0.00000000000000E+00
 cg2d: Sum(rhs),rhsMax =                    NaN  0.00000000000000E+00
 cg2d: Sum(rhs),rhsMax =                    NaN  0.00000000000000E+00
 cg2d: Sum(rhs),rhsMax =                    NaN  0.00000000000000E+00
 cg2d: Sum(rhs),rhsMax =                    NaN  0.00000000000000E+00
 cg2d: Sum(rhs),rhsMax =                    NaN  0.00000000000000E+00
 cg2d: Sum(rhs),rhsMax =                    NaN  0.00000000000000E+00
 cg2d: Sum(rhs),rhsMax =                    NaN  0.00000000000000E+00
 cg2d: Sum(rhs),rhsMax =                    NaN  0.00000000000000E+00
 cg2d: Sum(rhs),rhsMax =                    NaN  0.00000000000000E+00
 cg2d: Sum(rhs),rhsMax =                    NaN  0.00000000000000E+00
 cg2d: Sum(rhs),rhsMax =                    NaN  0.00000000000000E+00
 cg2d: Sum(rhs),rhsMax =                    NaN  0.00000000000000E+00
 cg2d: Sum(rhs),rhsMax =                    NaN  0.00000000000000E+00
 cg2d: Sum(rhs),rhsMax =                    NaN  0.00000000000000E+00
 cg2d: Sum(rhs),rhsMax =                    NaN  0.00000000000000E+00
 cg2d: Sum(rhs),rhsMax =                    NaN  0.00000000000000E+00
 cg2d: Sum(rhs),rhsMax =                    NaN  0.00000000000000E+00
 cg2d: Sum(rhs),rhsMax =                    NaN  0.00000000000000E+00
 cg2d: Sum(rhs),rhsMax =                    NaN  0.00000000000000E+00
 cg2d: Sum(rhs),rhsMax =                    NaN  0.00000000000000E+00
 cg2d: Sum(rhs),rhsMax =                    NaN  0.00000000000000E+00
 cg2d: Sum(rhs),rhsMax =                    NaN  0.00000000000000E+00
 cg2d: Sum(rhs),rhsMax =                    NaN  0.00000000000000E+00
 cg2d: Sum(rhs),rhsMax =                    NaN  0.00000000000000E+00
 cg2d: Sum(rhs),rhsMax =                    NaN  0.00000000000000E+00
 cg2d: Sum(rhs),rhsMax =                    NaN  0.00000000000000E+00
 cg2d: Sum(rhs),rhsMax =                    NaN  0.00000000000000E+00
 cg2d: Sum(rhs),rhsMax =                    NaN  0.00000000000000E+00
 cg2d: Sum(rhs),rhsMax =                    NaN  0.00000000000000E+00
 cg2d: Sum(rhs),rhsMax =                    NaN  0.00000000000000E+00
 cg2d: Sum(rhs),rhsMax =                    NaN  0.00000000000000E+00
 cg2d: Sum(rhs),rhsMax =                    NaN  0.00000000000000E+00
 cg2d: Sum(rhs),rhsMax =                    NaN  0.00000000000000E+00
 cg2d: Sum(rhs),rhsMax =                    NaN  0.00000000000000E+00
 cg2d: Sum(rhs),rhsMax =                    NaN  0.00000000000000E+00
 cg2d: Sum(rhs),rhsMax =                    NaN  0.00000000000000E+00
 cg2d: Sum(rhs),rhsMax =                    NaN  0.00000000000000E+00
 cg2d: Sum(rhs),rhsMax =                    NaN  0.00000000000000E+00
 cg2d: Sum(rhs),rhsMax =                    NaN  0.00000000000000E+00
 cg2d: Sum(rhs),rhsMax =                    NaN  0.00000000000000E+00
 cg2d: Sum(rhs),rhsMax =                    NaN  0.00000000000000E+00
 cg2d: Sum(rhs),rhsMax =                    NaN  0.00000000000000E+00
 cg2d: Sum(rhs),rhsMax =                    NaN  0.00000000000000E+00
 cg2d: Sum(rhs),rhsMax =                    NaN  0.00000000000000E+00
 cg2d: Sum(rhs),rhsMax =                    NaN  0.00000000000000E+00
 cg2d: Sum(rhs),rhsMax =                    NaN  0.00000000000000E+00
 cg2d: Sum(rhs),rhsMax =                    NaN  0.00000000000000E+00
 cg2d: Sum(rhs),rhsMax =                    NaN  0.00000000000000E+00
 cg2d: Sum(rhs),rhsMax =                    NaN  0.00000000000000E+00
 cg2d: Sum(rhs),rhsMax =                    NaN  0.00000000000000E+00
 cg2d: Sum(rhs),rhsMax =                    NaN  0.00000000000000E+00
 cg2d: Sum(rhs),rhsMax =                    NaN  0.00000000000000E+00
 cg2d: Sum(rhs),rhsMax =                    NaN  0.00000000000000E+00
 cg2d: Sum(rhs),rhsMax =                    NaN  0.00000000000000E+00
 cg2d: Sum(rhs),rhsMax =                    NaN  0.00000000000000E+00
 cg2d: Sum(rhs),rhsMax =                    NaN  0.00000000000000E+00
(PID.TID 0000.0001)      cg2d_init_res =                    NaN
(PID.TID 0000.0001)      cg2d_iters(min,last) =      -1    1000
(PID.TID 0000.0001)      cg2d_last_res =                    NaN
(PID.TID 0000.0001) // =======================================================
(PID.TID 0000.0001) // Begin MONITOR dynamic field statistics
(PID.TID 0000.0001) // =======================================================
(PID.TID 0000.0001) %MON time_tsnumber                =                  6240
(PID.TID 0000.0001) %MON time_secondsf                =   9.3600000000000E+04
(PID.TID 0000.0001) %MON dynstat_eta_max              =                   NaN
(PID.TID 0000.0001) %MON dynstat_eta_min              =                   NaN
(PID.TID 0000.0001) %MON dynstat_eta_mean             =                   NaN
(PID.TID 0000.0001) %MON dynstat_eta_sd               =                   NaN
(PID.TID 0000.0001) %MON dynstat_eta_del2             =                   NaN
(PID.TID 0000.0001) %MON dynstat_uvel_max             =   5.6028564143658E-01
(PID.TID 0000.0001) %MON dynstat_uvel_min             =   5.6028564143658E-01
(PID.TID 0000.0001) %MON dynstat_uvel_mean            =                   NaN
(PID.TID 0000.0001) %MON dynstat_uvel_sd              =                   NaN
(PID.TID 0000.0001) %MON dynstat_uvel_del2            =                   NaN
(PID.TID 0000.0001) %MON dynstat_vvel_max             =                   NaN
(PID.TID 0000.0001) %MON dynstat_vvel_min             =                   NaN
(PID.TID 0000.0001) %MON dynstat_vvel_mean            =                   NaN
(PID.TID 0000.0001) %MON dynstat_vvel_sd              =                   NaN
(PID.TID 0000.0001) %MON dynstat_vvel_del2            =                   NaN
(PID.TID 0000.0001) %MON dynstat_wvel_max             =                   NaN
(PID.TID 0000.0001) %MON dynstat_wvel_min             =                   NaN
(PID.TID 0000.0001) %MON dynstat_wvel_mean            =                   NaN
(PID.TID 0000.0001) %MON dynstat_wvel_sd              =                   NaN
(PID.TID 0000.0001) %MON dynstat_wvel_del2            =                   NaN
(PID.TID 0000.0001) %MON dynstat_theta_max            =                   NaN
(PID.TID 0000.0001) %MON dynstat_theta_min            =                   NaN
(PID.TID 0000.0001) %MON dynstat_theta_mean           =                   NaN
(PID.TID 0000.0001) %MON dynstat_theta_sd             =                   NaN
(PID.TID 0000.0001) %MON dynstat_theta_del2           =                   NaN
(PID.TID 0000.0001) %MON dynstat_salt_max             =   3.5000000000000E+01
(PID.TID 0000.0001) %MON dynstat_salt_min             =   3.5000000000000E+01
(PID.TID 0000.0001) %MON dynstat_salt_mean            =   3.5000000000000E+01
(PID.TID 0000.0001) %MON dynstat_salt_sd              =   3.9790393202566E-13
(PID.TID 0000.0001) %MON dynstat_salt_del2            =   0.0000000000000E+00
(PID.TID 0000.0001) %MON dynstat_sst_max              =                   NaN
(PID.TID 0000.0001) %MON dynstat_sst_min              =                   NaN
(PID.TID 0000.0001) %MON dynstat_sst_mean             =                   NaN
(PID.TID 0000.0001) %MON dynstat_sst_sd               =                   NaN
(PID.TID 0000.0001) %MON dynstat_sst_del2             =                   NaN
(PID.TID 0000.0001) %MON dynstat_sss_max              =   3.5000000000000E+01
(PID.TID 0000.0001) %MON dynstat_sss_min              =   3.5000000000000E+01
(PID.TID 0000.0001) %MON dynstat_sss_mean             =   3.5000000000000E+01
(PID.TID 0000.0001) %MON dynstat_sss_sd               =   5.6843418860808E-14
(PID.TID 0000.0001) %MON dynstat_sss_del2             =   0.0000000000000E+00
(PID.TID 0000.0001) %MON forcing_qnet_max             =   0.0000000000000E+00
(PID.TID 0000.0001) %MON forcing_qnet_min             =   0.0000000000000E+00
(PID.TID 0000.0001) %MON forcing_qnet_mean            =   0.0000000000000E+00
(PID.TID 0000.0001) %MON forcing_qnet_sd              =   0.0000000000000E+00
(PID.TID 0000.0001) %MON forcing_qnet_del2            =   0.0000000000000E+00
(PID.TID 0000.0001) %MON forcing_qsw_max              =   0.0000000000000E+00
(PID.TID 0000.0001) %MON forcing_qsw_min              =   0.0000000000000E+00
(PID.TID 0000.0001) %MON forcing_qsw_mean             =   0.0000000000000E+00
(PID.TID 0000.0001) %MON forcing_qsw_sd               =   0.0000000000000E+00
(PID.TID 0000.0001) %MON forcing_qsw_del2             =   0.0000000000000E+00
(PID.TID 0000.0001) %MON forcing_empmr_max            =   0.0000000000000E+00
(PID.TID 0000.0001) %MON forcing_empmr_min            =   0.0000000000000E+00
(PID.TID 0000.0001) %MON forcing_empmr_mean           =   0.0000000000000E+00
(PID.TID 0000.0001) %MON forcing_empmr_sd             =   0.0000000000000E+00
(PID.TID 0000.0001) %MON forcing_empmr_del2           =   0.0000000000000E+00
(PID.TID 0000.0001) %MON forcing_fu_max               =   0.0000000000000E+00
(PID.TID 0000.0001) %MON forcing_fu_min               =   0.0000000000000E+00
(PID.TID 0000.0001) %MON forcing_fu_mean              =   0.0000000000000E+00
(PID.TID 0000.0001) %MON forcing_fu_sd                =   0.0000000000000E+00
(PID.TID 0000.0001) %MON forcing_fu_del2              =   0.0000000000000E+00
(PID.TID 0000.0001) %MON forcing_fv_max               =   0.0000000000000E+00
(PID.TID 0000.0001) %MON forcing_fv_min               =   0.0000000000000E+00
(PID.TID 0000.0001) %MON forcing_fv_mean              =   0.0000000000000E+00
(PID.TID 0000.0001) %MON forcing_fv_sd                =   0.0000000000000E+00
(PID.TID 0000.0001) %MON forcing_fv_del2              =   0.0000000000000E+00
(PID.TID 0000.0001) %MON advcfl_uvel_max              =   8.0384112777411E-03
(PID.TID 0000.0001) %MON advcfl_vvel_max              =   0.0000000000000E+00
(PID.TID 0000.0001) %MON advcfl_wvel_max              =   0.0000000000000E+00
(PID.TID 0000.0001) %MON advcfl_W_hf_max              =   0.0000000000000E+00
(PID.TID 0000.0001) %MON pe_b_mean                    =                   NaN
(PID.TID 0000.0001) %MON ke_max                       =   0.0000000000000E+00
(PID.TID 0000.0001) %MON ke_mean                      =                   NaN
(PID.TID 0000.0001) %MON ke_vol                       =   9.5121673331316E+10
(PID.TID 0000.0001) %MON vort_r_min                   =   0.0000000000000E+00
(PID.TID 0000.0001) %MON vort_r_max                   =   0.0000000000000E+00
(PID.TID 0000.0001) %MON vort_a_mean                  =                   NaN
(PID.TID 0000.0001) %MON vort_a_sd                    =                   NaN
(PID.TID 0000.0001) %MON vort_p_mean                  =                   NaN
(PID.TID 0000.0001) %MON vort_p_sd                    =   0.0000000000000E+00
(PID.TID 0000.0001) %MON surfExpan_theta_mean         =                   NaN
(PID.TID 0000.0001) %MON surfExpan_salt_mean          =                   NaN
(PID.TID 0000.0001) // =======================================================
(PID.TID 0000.0001) // End MONITOR dynamic field statistics
(PID.TID 0000.0001) // =======================================================
(PID.TID 0000.0001) // =======================================================
(PID.TID 0000.0001) // Begin OBCS MONITOR field statistics
(PID.TID 0000.0001) // =======================================================
(PID.TID 0000.0001) %MON obc_E_uVel_max               =   5.6028564143658E-01
(PID.TID 0000.0001) %MON obc_E_uVel_min               =   5.6028564143658E-01
(PID.TID 0000.0001) %MON obc_E_uVel_mean              =   5.6028564143658E-01
(PID.TID 0000.0001) %MON obc_E_uVel_sd                =   7.4505805969238E-09
(PID.TID 0000.0001) %MON obc_E_uVel_Int               =   5.6028564143658E+05
(PID.TID 0000.0001) %MON obc_W_uVel_max               =   5.6028564143658E-01
(PID.TID 0000.0001) %MON obc_W_uVel_min               =   5.6028564143658E-01
(PID.TID 0000.0001) %MON obc_W_uVel_mean              =   5.6028564143658E-01
(PID.TID 0000.0001) %MON obc_W_uVel_sd                =   7.4505805969238E-09
(PID.TID 0000.0001) %MON obc_W_uVel_Int               =   5.6028564143658E+05
(PID.TID 0000.0001) // =======================================================
(PID.TID 0000.0001) // End OBCS MONITOR field statistics
(PID.TID 0000.0001) // =======================================================
 cg2d: Sum(rhs),rhsMax =                    NaN  0.00000000000000E+00
 cg2d: Sum(rhs),rhsMax =                    NaN  0.00000000000000E+00
 cg2d: Sum(rhs),rhsMax =                    NaN  0.00000000000000E+00
 cg2d: Sum(rhs),rhsMax =                    NaN  0.00000000000000E+00
 cg2d: Sum(rhs),rhsMax =                    NaN  0.00000000000000E+00
 cg2d: Sum(rhs),rhsMax =                    NaN  0.00000000000000E+00
 cg2d: Sum(rhs),rhsMax =                    NaN  0.00000000000000E+00
 cg2d: Sum(rhs),rhsMax =                    NaN  0.00000000000000E+00
 cg2d: Sum(rhs),rhsMax =                    NaN  0.00000000000000E+00
 cg2d: Sum(rhs),rhsMax =                    NaN  0.00000000000000E+00
 cg2d: Sum(rhs),rhsMax =                    NaN  0.00000000000000E+00
 cg2d: Sum(rhs),rhsMax =                    NaN  0.00000000000000E+00
 cg2d: Sum(rhs),rhsMax =                    NaN  0.00000000000000E+00
 cg2d: Sum(rhs),rhsMax =                    NaN  0.00000000000000E+00
 cg2d: Sum(rhs),rhsMax =                    NaN  0.00000000000000E+00
 cg2d: Sum(rhs),rhsMax =                    NaN  0.00000000000000E+00
 cg2d: Sum(rhs),rhsMax =                    NaN  0.00000000000000E+00
 cg2d: Sum(rhs),rhsMax =                    NaN  0.00000000000000E+00
 cg2d: Sum(rhs),rhsMax =                    NaN  0.00000000000000E+00
 cg2d: Sum(rhs),rhsMax =                    NaN  0.00000000000000E+00
 cg2d: Sum(rhs),rhsMax =                    NaN  0.00000000000000E+00
 cg2d: Sum(rhs),rhsMax =                    NaN  0.00000000000000E+00
 cg2d: Sum(rhs),rhsMax =                    NaN  0.00000000000000E+00
 cg2d: Sum(rhs),rhsMax =                    NaN  0.00000000000000E+00
 cg2d: Sum(rhs),rhsMax =                    NaN  0.00000000000000E+00
 cg2d: Sum(rhs),rhsMax =                    NaN  0.00000000000000E+00
 cg2d: Sum(rhs),rhsMax =                    NaN  0.00000000000000E+00
 cg2d: Sum(rhs),rhsMax =                    NaN  0.00000000000000E+00
 cg2d: Sum(rhs),rhsMax =                    NaN  0.00000000000000E+00
 cg2d: Sum(rhs),rhsMax =                    NaN  0.00000000000000E+00
 cg2d: Sum(rhs),rhsMax =                    NaN  0.00000000000000E+00
 cg2d: Sum(rhs),rhsMax =                    NaN  0.00000000000000E+00
 cg2d: Sum(rhs),rhsMax =                    NaN  0.00000000000000E+00
 cg2d: Sum(rhs),rhsMax =                    NaN  0.00000000000000E+00
 cg2d: Sum(rhs),rhsMax =                    NaN  0.00000000000000E+00
 cg2d: Sum(rhs),rhsMax =                    NaN  0.00000000000000E+00
 cg2d: Sum(rhs),rhsMax =                    NaN  0.00000000000000E+00
 cg2d: Sum(rhs),rhsMax =                    NaN  0.00000000000000E+00
 cg2d: Sum(rhs),rhsMax =                    NaN  0.00000000000000E+00
 cg2d: Sum(rhs),rhsMax =                    NaN  0.00000000000000E+00
 cg2d: Sum(rhs),rhsMax =                    NaN  0.00000000000000E+00
 cg2d: Sum(rhs),rhsMax =                    NaN  0.00000000000000E+00
 cg2d: Sum(rhs),rhsMax =                    NaN  0.00000000000000E+00
 cg2d: Sum(rhs),rhsMax =                    NaN  0.00000000000000E+00
 cg2d: Sum(rhs),rhsMax =                    NaN  0.00000000000000E+00
 cg2d: Sum(rhs),rhsMax =                    NaN  0.00000000000000E+00
 cg2d: Sum(rhs),rhsMax =                    NaN  0.00000000000000E+00
 cg2d: Sum(rhs),rhsMax =                    NaN  0.00000000000000E+00
 cg2d: Sum(rhs),rhsMax =                    NaN  0.00000000000000E+00
 cg2d: Sum(rhs),rhsMax =                    NaN  0.00000000000000E+00
 cg2d: Sum(rhs),rhsMax =                    NaN  0.00000000000000E+00
 cg2d: Sum(rhs),rhsMax =                    NaN  0.00000000000000E+00
 cg2d: Sum(rhs),rhsMax =                    NaN  0.00000000000000E+00
 cg2d: Sum(rhs),rhsMax =                    NaN  0.00000000000000E+00
 cg2d: Sum(rhs),rhsMax =                    NaN  0.00000000000000E+00
 cg2d: Sum(rhs),rhsMax =                    NaN  0.00000000000000E+00
 cg2d: Sum(rhs),rhsMax =                    NaN  0.00000000000000E+00
 cg2d: Sum(rhs),rhsMax =                    NaN  0.00000000000000E+00
 cg2d: Sum(rhs),rhsMax =                    NaN  0.00000000000000E+00
 cg2d: Sum(rhs),rhsMax =                    NaN  0.00000000000000E+00
 cg2d: Sum(rhs),rhsMax =                    NaN  0.00000000000000E+00
 cg2d: Sum(rhs),rhsMax =                    NaN  0.00000000000000E+00
 cg2d: Sum(rhs),rhsMax =                    NaN  0.00000000000000E+00
 cg2d: Sum(rhs),rhsMax =                    NaN  0.00000000000000E+00
 cg2d: Sum(rhs),rhsMax =                    NaN  0.00000000000000E+00
 cg2d: Sum(rhs),rhsMax =                    NaN  0.00000000000000E+00
 cg2d: Sum(rhs),rhsMax =                    NaN  0.00000000000000E+00
 cg2d: Sum(rhs),rhsMax =                    NaN  0.00000000000000E+00
 cg2d: Sum(rhs),rhsMax =                    NaN  0.00000000000000E+00
 cg2d: Sum(rhs),rhsMax =                    NaN  0.00000000000000E+00
 cg2d: Sum(rhs),rhsMax =                    NaN  0.00000000000000E+00
 cg2d: Sum(rhs),rhsMax =                    NaN  0.00000000000000E+00
 cg2d: Sum(rhs),rhsMax =                    NaN  0.00000000000000E+00
 cg2d: Sum(rhs),rhsMax =                    NaN  0.00000000000000E+00
 cg2d: Sum(rhs),rhsMax =                    NaN  0.00000000000000E+00
 cg2d: Sum(rhs),rhsMax =                    NaN  0.00000000000000E+00
 cg2d: Sum(rhs),rhsMax =                    NaN  0.00000000000000E+00
 cg2d: Sum(rhs),rhsMax =                    NaN  0.00000000000000E+00
 cg2d: Sum(rhs),rhsMax =                    NaN  0.00000000000000E+00
 cg2d: Sum(rhs),rhsMax =                    NaN  0.00000000000000E+00
 cg2d: Sum(rhs),rhsMax =                    NaN  0.00000000000000E+00
 cg2d: Sum(rhs),rhsMax =                    NaN  0.00000000000000E+00
 cg2d: Sum(rhs),rhsMax =                    NaN  0.00000000000000E+00
 cg2d: Sum(rhs),rhsMax =                    NaN  0.00000000000000E+00
 cg2d: Sum(rhs),rhsMax =                    NaN  0.00000000000000E+00
 cg2d: Sum(rhs),rhsMax =                    NaN  0.00000000000000E+00
 cg2d: Sum(rhs),rhsMax =                    NaN  0.00000000000000E+00
 cg2d: Sum(rhs),rhsMax =                    NaN  0.00000000000000E+00
 cg2d: Sum(rhs),rhsMax =                    NaN  0.00000000000000E+00
 cg2d: Sum(rhs),rhsMax =                    NaN  0.00000000000000E+00
 cg2d: Sum(rhs),rhsMax =                    NaN  0.00000000000000E+00
 cg2d: Sum(rhs),rhsMax =                    NaN  0.00000000000000E+00
 cg2d: Sum(rhs),rhsMax =                    NaN  0.00000000000000E+00
 cg2d: Sum(rhs),rhsMax =                    NaN  0.00000000000000E+00
 cg2d: Sum(rhs),rhsMax =                    NaN  0.00000000000000E+00
 cg2d: Sum(rhs),rhsMax =                    NaN  0.00000000000000E+00
 cg2d: Sum(rhs),rhsMax =                    NaN  0.00000000000000E+00
 cg2d: Sum(rhs),rhsMax =                    NaN  0.00000000000000E+00
 cg2d: Sum(rhs),rhsMax =                    NaN  0.00000000000000E+00
 cg2d: Sum(rhs),rhsMax =                    NaN  0.00000000000000E+00
 cg2d: Sum(rhs),rhsMax =                    NaN  0.00000000000000E+00
 cg2d: Sum(rhs),rhsMax =                    NaN  0.00000000000000E+00
 cg2d: Sum(rhs),rhsMax =                    NaN  0.00000000000000E+00
 cg2d: Sum(rhs),rhsMax =                    NaN  0.00000000000000E+00
 cg2d: Sum(rhs),rhsMax =                    NaN  0.00000000000000E+00
 cg2d: Sum(rhs),rhsMax =                    NaN  0.00000000000000E+00
 cg2d: Sum(rhs),rhsMax =                    NaN  0.00000000000000E+00
 cg2d: Sum(rhs),rhsMax =                    NaN  0.00000000000000E+00
 cg2d: Sum(rhs),rhsMax =                    NaN  0.00000000000000E+00
 cg2d: Sum(rhs),rhsMax =                    NaN  0.00000000000000E+00
 cg2d: Sum(rhs),rhsMax =                    NaN  0.00000000000000E+00
 cg2d: Sum(rhs),rhsMax =                    NaN  0.00000000000000E+00
 cg2d: Sum(rhs),rhsMax =                    NaN  0.00000000000000E+00
 cg2d: Sum(rhs),rhsMax =                    NaN  0.00000000000000E+00
 cg2d: Sum(rhs),rhsMax =                    NaN  0.00000000000000E+00
 cg2d: Sum(rhs),rhsMax =                    NaN  0.00000000000000E+00
 cg2d: Sum(rhs),rhsMax =                    NaN  0.00000000000000E+00
 cg2d: Sum(rhs),rhsMax =                    NaN  0.00000000000000E+00
 cg2d: Sum(rhs),rhsMax =                    NaN  0.00000000000000E+00
 cg2d: Sum(rhs),rhsMax =                    NaN  0.00000000000000E+00
 cg2d: Sum(rhs),rhsMax =                    NaN  0.00000000000000E+00
 cg2d: Sum(rhs),rhsMax =                    NaN  0.00000000000000E+00
 cg2d: Sum(rhs),rhsMax =                    NaN  0.00000000000000E+00
 cg2d: Sum(rhs),rhsMax =                    NaN  0.00000000000000E+00
 cg2d: Sum(rhs),rhsMax =                    NaN  0.00000000000000E+00
 cg2d: Sum(rhs),rhsMax =                    NaN  0.00000000000000E+00
 cg2d: Sum(rhs),rhsMax =                    NaN  0.00000000000000E+00
 cg2d: Sum(rhs),rhsMax =                    NaN  0.00000000000000E+00
 cg2d: Sum(rhs),rhsMax =                    NaN  0.00000000000000E+00
 cg2d: Sum(rhs),rhsMax =                    NaN  0.00000000000000E+00
 cg2d: Sum(rhs),rhsMax =                    NaN  0.00000000000000E+00
 cg2d: Sum(rhs),rhsMax =                    NaN  0.00000000000000E+00
 cg2d: Sum(rhs),rhsMax =                    NaN  0.00000000000000E+00
 cg2d: Sum(rhs),rhsMax =                    NaN  0.00000000000000E+00
 cg2d: Sum(rhs),rhsMax =                    NaN  0.00000000000000E+00
 cg2d: Sum(rhs),rhsMax =                    NaN  0.00000000000000E+00
 cg2d: Sum(rhs),rhsMax =                    NaN  0.00000000000000E+00
 cg2d: Sum(rhs),rhsMax =                    NaN  0.00000000000000E+00
 cg2d: Sum(rhs),rhsMax =                    NaN  0.00000000000000E+00
 cg2d: Sum(rhs),rhsMax =                    NaN  0.00000000000000E+00
 cg2d: Sum(rhs),rhsMax =                    NaN  0.00000000000000E+00
 cg2d: Sum(rhs),rhsMax =                    NaN  0.00000000000000E+00
 cg2d: Sum(rhs),rhsMax =                    NaN  0.00000000000000E+00
 cg2d: Sum(rhs),rhsMax =                    NaN  0.00000000000000E+00
 cg2d: Sum(rhs),rhsMax =                    NaN  0.00000000000000E+00
 cg2d: Sum(rhs),rhsMax =                    NaN  0.00000000000000E+00
 cg2d: Sum(rhs),rhsMax =                    NaN  0.00000000000000E+00
 cg2d: Sum(rhs),rhsMax =                    NaN  0.00000000000000E+00
 cg2d: Sum(rhs),rhsMax =                    NaN  0.00000000000000E+00
 cg2d: Sum(rhs),rhsMax =                    NaN  0.00000000000000E+00
 cg2d: Sum(rhs),rhsMax =                    NaN  0.00000000000000E+00
 cg2d: Sum(rhs),rhsMax =                    NaN  0.00000000000000E+00
 cg2d: Sum(rhs),rhsMax =                    NaN  0.00000000000000E+00
 cg2d: Sum(rhs),rhsMax =                    NaN  0.00000000000000E+00
 cg2d: Sum(rhs),rhsMax =                    NaN  0.00000000000000E+00
 cg2d: Sum(rhs),rhsMax =                    NaN  0.00000000000000E+00
 cg2d: Sum(rhs),rhsMax =                    NaN  0.00000000000000E+00
 cg2d: Sum(rhs),rhsMax =                    NaN  0.00000000000000E+00
 cg2d: Sum(rhs),rhsMax =                    NaN  0.00000000000000E+00
 cg2d: Sum(rhs),rhsMax =                    NaN  0.00000000000000E+00
 cg2d: Sum(rhs),rhsMax =                    NaN  0.00000000000000E+00
 cg2d: Sum(rhs),rhsMax =                    NaN  0.00000000000000E+00
 cg2d: Sum(rhs),rhsMax =                    NaN  0.00000000000000E+00
 cg2d: Sum(rhs),rhsMax =                    NaN  0.00000000000000E+00
 cg2d: Sum(rhs),rhsMax =                    NaN  0.00000000000000E+00
 cg2d: Sum(rhs),rhsMax =                    NaN  0.00000000000000E+00
 cg2d: Sum(rhs),rhsMax =                    NaN  0.00000000000000E+00
 cg2d: Sum(rhs),rhsMax =                    NaN  0.00000000000000E+00
 cg2d: Sum(rhs),rhsMax =                    NaN  0.00000000000000E+00
 cg2d: Sum(rhs),rhsMax =                    NaN  0.00000000000000E+00
 cg2d: Sum(rhs),rhsMax =                    NaN  0.00000000000000E+00
 cg2d: Sum(rhs),rhsMax =                    NaN  0.00000000000000E+00
 cg2d: Sum(rhs),rhsMax =                    NaN  0.00000000000000E+00
 cg2d: Sum(rhs),rhsMax =                    NaN  0.00000000000000E+00
 cg2d: Sum(rhs),rhsMax =                    NaN  0.00000000000000E+00
 cg2d: Sum(rhs),rhsMax =                    NaN  0.00000000000000E+00
 cg2d: Sum(rhs),rhsMax =                    NaN  0.00000000000000E+00
 cg2d: Sum(rhs),rhsMax =                    NaN  0.00000000000000E+00
 cg2d: Sum(rhs),rhsMax =                    NaN  0.00000000000000E+00
 cg2d: Sum(rhs),rhsMax =                    NaN  0.00000000000000E+00
 cg2d: Sum(rhs),rhsMax =                    NaN  0.00000000000000E+00
 cg2d: Sum(rhs),rhsMax =                    NaN  0.00000000000000E+00
 cg2d: Sum(rhs),rhsMax =                    NaN  0.00000000000000E+00
 cg2d: Sum(rhs),rhsMax =                    NaN  0.00000000000000E+00
 cg2d: Sum(rhs),rhsMax =                    NaN  0.00000000000000E+00
 cg2d: Sum(rhs),rhsMax =                    NaN  0.00000000000000E+00
 cg2d: Sum(rhs),rhsMax =                    NaN  0.00000000000000E+00
 cg2d: Sum(rhs),rhsMax =                    NaN  0.00000000000000E+00
 cg2d: Sum(rhs),rhsMax =                    NaN  0.00000000000000E+00
 cg2d: Sum(rhs),rhsMax =                    NaN  0.00000000000000E+00
 cg2d: Sum(rhs),rhsMax =                    NaN  0.00000000000000E+00
 cg2d: Sum(rhs),rhsMax =                    NaN  0.00000000000000E+00
 cg2d: Sum(rhs),rhsMax =                    NaN  0.00000000000000E+00
 cg2d: Sum(rhs),rhsMax =                    NaN  0.00000000000000E+00
 cg2d: Sum(rhs),rhsMax =                    NaN  0.00000000000000E+00
 cg2d: Sum(rhs),rhsMax =                    NaN  0.00000000000000E+00
 cg2d: Sum(rhs),rhsMax =                    NaN  0.00000000000000E+00
 cg2d: Sum(rhs),rhsMax =                    NaN  0.00000000000000E+00
 cg2d: Sum(rhs),rhsMax =                    NaN  0.00000000000000E+00
 cg2d: Sum(rhs),rhsMax =                    NaN  0.00000000000000E+00
 cg2d: Sum(rhs),rhsMax =                    NaN  0.00000000000000E+00
 cg2d: Sum(rhs),rhsMax =                    NaN  0.00000000000000E+00
 cg2d: Sum(rhs),rhsMax =                    NaN  0.00000000000000E+00
 cg2d: Sum(rhs),rhsMax =                    NaN  0.00000000000000E+00
 cg2d: Sum(rhs),rhsMax =                    NaN  0.00000000000000E+00
 cg2d: Sum(rhs),rhsMax =                    NaN  0.00000000000000E+00
 cg2d: Sum(rhs),rhsMax =                    NaN  0.00000000000000E+00
 cg2d: Sum(rhs),rhsMax =                    NaN  0.00000000000000E+00
 cg2d: Sum(rhs),rhsMax =                    NaN  0.00000000000000E+00
 cg2d: Sum(rhs),rhsMax =                    NaN  0.00000000000000E+00
 cg2d: Sum(rhs),rhsMax =                    NaN  0.00000000000000E+00
 cg2d: Sum(rhs),rhsMax =                    NaN  0.00000000000000E+00
 cg2d: Sum(rhs),rhsMax =                    NaN  0.00000000000000E+00
 cg2d: Sum(rhs),rhsMax =                    NaN  0.00000000000000E+00
 cg2d: Sum(rhs),rhsMax =                    NaN  0.00000000000000E+00
 cg2d: Sum(rhs),rhsMax =                    NaN  0.00000000000000E+00
 cg2d: Sum(rhs),rhsMax =                    NaN  0.00000000000000E+00
 cg2d: Sum(rhs),rhsMax =                    NaN  0.00000000000000E+00
 cg2d: Sum(rhs),rhsMax =                    NaN  0.00000000000000E+00
 cg2d: Sum(rhs),rhsMax =                    NaN  0.00000000000000E+00
 cg2d: Sum(rhs),rhsMax =                    NaN  0.00000000000000E+00
 cg2d: Sum(rhs),rhsMax =                    NaN  0.00000000000000E+00
 cg2d: Sum(rhs),rhsMax =                    NaN  0.00000000000000E+00
 cg2d: Sum(rhs),rhsMax =                    NaN  0.00000000000000E+00
 cg2d: Sum(rhs),rhsMax =                    NaN  0.00000000000000E+00
 cg2d: Sum(rhs),rhsMax =                    NaN  0.00000000000000E+00
 cg2d: Sum(rhs),rhsMax =                    NaN  0.00000000000000E+00
 cg2d: Sum(rhs),rhsMax =                    NaN  0.00000000000000E+00
 cg2d: Sum(rhs),rhsMax =                    NaN  0.00000000000000E+00
 cg2d: Sum(rhs),rhsMax =                    NaN  0.00000000000000E+00
 cg2d: Sum(rhs),rhsMax =                    NaN  0.00000000000000E+00
 cg2d: Sum(rhs),rhsMax =                    NaN  0.00000000000000E+00
 cg2d: Sum(rhs),rhsMax =                    NaN  0.00000000000000E+00
 cg2d: Sum(rhs),rhsMax =                    NaN  0.00000000000000E+00
 cg2d: Sum(rhs),rhsMax =                    NaN  0.00000000000000E+00
 cg2d: Sum(rhs),rhsMax =                    NaN  0.00000000000000E+00
 cg2d: Sum(rhs),rhsMax =                    NaN  0.00000000000000E+00
 cg2d: Sum(rhs),rhsMax =                    NaN  0.00000000000000E+00
 cg2d: Sum(rhs),rhsMax =                    NaN  0.00000000000000E+00
 cg2d: Sum(rhs),rhsMax =                    NaN  0.00000000000000E+00
 cg2d: Sum(rhs),rhsMax =                    NaN  0.00000000000000E+00
 cg2d: Sum(rhs),rhsMax =                    NaN  0.00000000000000E+00
 cg2d: Sum(rhs),rhsMax =                    NaN  0.00000000000000E+00
 cg2d: Sum(rhs),rhsMax =                    NaN  0.00000000000000E+00
 cg2d: Sum(rhs),rhsMax =                    NaN  0.00000000000000E+00
 cg2d: Sum(rhs),rhsMax =                    NaN  0.00000000000000E+00
 cg2d: Sum(rhs),rhsMax =                    NaN  0.00000000000000E+00
 cg2d: Sum(rhs),rhsMax =                    NaN  0.00000000000000E+00
 cg2d: Sum(rhs),rhsMax =                    NaN  0.00000000000000E+00
 cg2d: Sum(rhs),rhsMax =                    NaN  0.00000000000000E+00
 cg2d: Sum(rhs),rhsMax =                    NaN  0.00000000000000E+00
 cg2d: Sum(rhs),rhsMax =                    NaN  0.00000000000000E+00
 cg2d: Sum(rhs),rhsMax =                    NaN  0.00000000000000E+00
 cg2d: Sum(rhs),rhsMax =                    NaN  0.00000000000000E+00
 cg2d: Sum(rhs),rhsMax =                    NaN  0.00000000000000E+00
 cg2d: Sum(rhs),rhsMax =                    NaN  0.00000000000000E+00
 cg2d: Sum(rhs),rhsMax =                    NaN  0.00000000000000E+00
 cg2d: Sum(rhs),rhsMax =                    NaN  0.00000000000000E+00
 cg2d: Sum(rhs),rhsMax =                    NaN  0.00000000000000E+00
 cg2d: Sum(rhs),rhsMax =                    NaN  0.00000000000000E+00
 cg2d: Sum(rhs),rhsMax =                    NaN  0.00000000000000E+00
 cg2d: Sum(rhs),rhsMax =                    NaN  0.00000000000000E+00
 cg2d: Sum(rhs),rhsMax =                    NaN  0.00000000000000E+00
 cg2d: Sum(rhs),rhsMax =                    NaN  0.00000000000000E+00
 cg2d: Sum(rhs),rhsMax =                    NaN  0.00000000000000E+00
 cg2d: Sum(rhs),rhsMax =                    NaN  0.00000000000000E+00
 cg2d: Sum(rhs),rhsMax =                    NaN  0.00000000000000E+00
 cg2d: Sum(rhs),rhsMax =                    NaN  0.00000000000000E+00
 cg2d: Sum(rhs),rhsMax =                    NaN  0.00000000000000E+00
 cg2d: Sum(rhs),rhsMax =                    NaN  0.00000000000000E+00
 cg2d: Sum(rhs),rhsMax =                    NaN  0.00000000000000E+00
 cg2d: Sum(rhs),rhsMax =                    NaN  0.00000000000000E+00
 cg2d: Sum(rhs),rhsMax =                    NaN  0.00000000000000E+00
 cg2d: Sum(rhs),rhsMax =                    NaN  0.00000000000000E+00
 cg2d: Sum(rhs),rhsMax =                    NaN  0.00000000000000E+00
 cg2d: Sum(rhs),rhsMax =                    NaN  0.00000000000000E+00
 cg2d: Sum(rhs),rhsMax =                    NaN  0.00000000000000E+00
 cg2d: Sum(rhs),rhsMax =                    NaN  0.00000000000000E+00
 cg2d: Sum(rhs),rhsMax =                    NaN  0.00000000000000E+00
 cg2d: Sum(rhs),rhsMax =                    NaN  0.00000000000000E+00
 cg2d: Sum(rhs),rhsMax =                    NaN  0.00000000000000E+00
 cg2d: Sum(rhs),rhsMax =                    NaN  0.00000000000000E+00
 cg2d: Sum(rhs),rhsMax =                    NaN  0.00000000000000E+00
 cg2d: Sum(rhs),rhsMax =                    NaN  0.00000000000000E+00
 cg2d: Sum(rhs),rhsMax =                    NaN  0.00000000000000E+00
 cg2d: Sum(rhs),rhsMax =                    NaN  0.00000000000000E+00
 cg2d: Sum(rhs),rhsMax =                    NaN  0.00000000000000E+00
 cg2d: Sum(rhs),rhsMax =                    NaN  0.00000000000000E+00
 cg2d: Sum(rhs),rhsMax =                    NaN  0.00000000000000E+00
 cg2d: Sum(rhs),rhsMax =                    NaN  0.00000000000000E+00
 cg2d: Sum(rhs),rhsMax =                    NaN  0.00000000000000E+00
 cg2d: Sum(rhs),rhsMax =                    NaN  0.00000000000000E+00
 cg2d: Sum(rhs),rhsMax =                    NaN  0.00000000000000E+00
 cg2d: Sum(rhs),rhsMax =                    NaN  0.00000000000000E+00
 cg2d: Sum(rhs),rhsMax =                    NaN  0.00000000000000E+00
 cg2d: Sum(rhs),rhsMax =                    NaN  0.00000000000000E+00
 cg2d: Sum(rhs),rhsMax =                    NaN  0.00000000000000E+00
 cg2d: Sum(rhs),rhsMax =                    NaN  0.00000000000000E+00
 cg2d: Sum(rhs),rhsMax =                    NaN  0.00000000000000E+00
 cg2d: Sum(rhs),rhsMax =                    NaN  0.00000000000000E+00
 cg2d: Sum(rhs),rhsMax =                    NaN  0.00000000000000E+00
 cg2d: Sum(rhs),rhsMax =                    NaN  0.00000000000000E+00
 cg2d: Sum(rhs),rhsMax =                    NaN  0.00000000000000E+00
 cg2d: Sum(rhs),rhsMax =                    NaN  0.00000000000000E+00
 cg2d: Sum(rhs),rhsMax =                    NaN  0.00000000000000E+00
 cg2d: Sum(rhs),rhsMax =                    NaN  0.00000000000000E+00
 cg2d: Sum(rhs),rhsMax =                    NaN  0.00000000000000E+00
 cg2d: Sum(rhs),rhsMax =                    NaN  0.00000000000000E+00
 cg2d: Sum(rhs),rhsMax =                    NaN  0.00000000000000E+00
 cg2d: Sum(rhs),rhsMax =                    NaN  0.00000000000000E+00
 cg2d: Sum(rhs),rhsMax =                    NaN  0.00000000000000E+00
 cg2d: Sum(rhs),rhsMax =                    NaN  0.00000000000000E+00
 cg2d: Sum(rhs),rhsMax =                    NaN  0.00000000000000E+00
 cg2d: Sum(rhs),rhsMax =                    NaN  0.00000000000000E+00
 cg2d: Sum(rhs),rhsMax =                    NaN  0.00000000000000E+00
 cg2d: Sum(rhs),rhsMax =                    NaN  0.00000000000000E+00
 cg2d: Sum(rhs),rhsMax =                    NaN  0.00000000000000E+00
 cg2d: Sum(rhs),rhsMax =                    NaN  0.00000000000000E+00
 cg2d: Sum(rhs),rhsMax =                    NaN  0.00000000000000E+00
 cg2d: Sum(rhs),rhsMax =                    NaN  0.00000000000000E+00
 cg2d: Sum(rhs),rhsMax =                    NaN  0.00000000000000E+00
 cg2d: Sum(rhs),rhsMax =                    NaN  0.00000000000000E+00
 cg2d: Sum(rhs),rhsMax =                    NaN  0.00000000000000E+00
 cg2d: Sum(rhs),rhsMax =                    NaN  0.00000000000000E+00
 cg2d: Sum(rhs),rhsMax =                    NaN  0.00000000000000E+00
 cg2d: Sum(rhs),rhsMax =                    NaN  0.00000000000000E+00
 cg2d: Sum(rhs),rhsMax =                    NaN  0.00000000000000E+00
 cg2d: Sum(rhs),rhsMax =                    NaN  0.00000000000000E+00
 cg2d: Sum(rhs),rhsMax =                    NaN  0.00000000000000E+00
 cg2d: Sum(rhs),rhsMax =                    NaN  0.00000000000000E+00
 cg2d: Sum(rhs),rhsMax =                    NaN  0.00000000000000E+00
 cg2d: Sum(rhs),rhsMax =                    NaN  0.00000000000000E+00
 cg2d: Sum(rhs),rhsMax =                    NaN  0.00000000000000E+00
 cg2d: Sum(rhs),rhsMax =                    NaN  0.00000000000000E+00
 cg2d: Sum(rhs),rhsMax =                    NaN  0.00000000000000E+00
 cg2d: Sum(rhs),rhsMax =                    NaN  0.00000000000000E+00
 cg2d: Sum(rhs),rhsMax =                    NaN  0.00000000000000E+00
 cg2d: Sum(rhs),rhsMax =                    NaN  0.00000000000000E+00
 cg2d: Sum(rhs),rhsMax =                    NaN  0.00000000000000E+00
 cg2d: Sum(rhs),rhsMax =                    NaN  0.00000000000000E+00
 cg2d: Sum(rhs),rhsMax =                    NaN  0.00000000000000E+00
 cg2d: Sum(rhs),rhsMax =                    NaN  0.00000000000000E+00
 cg2d: Sum(rhs),rhsMax =                    NaN  0.00000000000000E+00
 cg2d: Sum(rhs),rhsMax =                    NaN  0.00000000000000E+00
 cg2d: Sum(rhs),rhsMax =                    NaN  0.00000000000000E+00
 cg2d: Sum(rhs),rhsMax =                    NaN  0.00000000000000E+00
 cg2d: Sum(rhs),rhsMax =                    NaN  0.00000000000000E+00
 cg2d: Sum(rhs),rhsMax =                    NaN  0.00000000000000E+00
 cg2d: Sum(rhs),rhsMax =                    NaN  0.00000000000000E+00
 cg2d: Sum(rhs),rhsMax =                    NaN  0.00000000000000E+00
 cg2d: Sum(rhs),rhsMax =                    NaN  0.00000000000000E+00
 cg2d: Sum(rhs),rhsMax =                    NaN  0.00000000000000E+00
 cg2d: Sum(rhs),rhsMax =                    NaN  0.00000000000000E+00
 cg2d: Sum(rhs),rhsMax =                    NaN  0.00000000000000E+00
 cg2d: Sum(rhs),rhsMax =                    NaN  0.00000000000000E+00
 cg2d: Sum(rhs),rhsMax =                    NaN  0.00000000000000E+00
 cg2d: Sum(rhs),rhsMax =                    NaN  0.00000000000000E+00
 cg2d: Sum(rhs),rhsMax =                    NaN  0.00000000000000E+00
 cg2d: Sum(rhs),rhsMax =                    NaN  0.00000000000000E+00
 cg2d: Sum(rhs),rhsMax =                    NaN  0.00000000000000E+00
 cg2d: Sum(rhs),rhsMax =                    NaN  0.00000000000000E+00
 cg2d: Sum(rhs),rhsMax =                    NaN  0.00000000000000E+00
 cg2d: Sum(rhs),rhsMax =                    NaN  0.00000000000000E+00
 cg2d: Sum(rhs),rhsMax =                    NaN  0.00000000000000E+00
 cg2d: Sum(rhs),rhsMax =                    NaN  0.00000000000000E+00
 cg2d: Sum(rhs),rhsMax =                    NaN  0.00000000000000E+00
 cg2d: Sum(rhs),rhsMax =                    NaN  0.00000000000000E+00
 cg2d: Sum(rhs),rhsMax =                    NaN  0.00000000000000E+00
 cg2d: Sum(rhs),rhsMax =                    NaN  0.00000000000000E+00
 cg2d: Sum(rhs),rhsMax =                    NaN  0.00000000000000E+00
 cg2d: Sum(rhs),rhsMax =                    NaN  0.00000000000000E+00
 cg2d: Sum(rhs),rhsMax =                    NaN  0.00000000000000E+00
 cg2d: Sum(rhs),rhsMax =                    NaN  0.00000000000000E+00
 cg2d: Sum(rhs),rhsMax =                    NaN  0.00000000000000E+00
 cg2d: Sum(rhs),rhsMax =                    NaN  0.00000000000000E+00
 cg2d: Sum(rhs),rhsMax =                    NaN  0.00000000000000E+00
 cg2d: Sum(rhs),rhsMax =                    NaN  0.00000000000000E+00
 cg2d: Sum(rhs),rhsMax =                    NaN  0.00000000000000E+00
 cg2d: Sum(rhs),rhsMax =                    NaN  0.00000000000000E+00
 cg2d: Sum(rhs),rhsMax =                    NaN  0.00000000000000E+00
 cg2d: Sum(rhs),rhsMax =                    NaN  0.00000000000000E+00
 cg2d: Sum(rhs),rhsMax =                    NaN  0.00000000000000E+00
 cg2d: Sum(rhs),rhsMax =                    NaN  0.00000000000000E+00
 cg2d: Sum(rhs),rhsMax =                    NaN  0.00000000000000E+00
 cg2d: Sum(rhs),rhsMax =                    NaN  0.00000000000000E+00
 cg2d: Sum(rhs),rhsMax =                    NaN  0.00000000000000E+00
 cg2d: Sum(rhs),rhsMax =                    NaN  0.00000000000000E+00
 cg2d: Sum(rhs),rhsMax =                    NaN  0.00000000000000E+00
 cg2d: Sum(rhs),rhsMax =                    NaN  0.00000000000000E+00
 cg2d: Sum(rhs),rhsMax =                    NaN  0.00000000000000E+00
 cg2d: Sum(rhs),rhsMax =                    NaN  0.00000000000000E+00
 cg2d: Sum(rhs),rhsMax =                    NaN  0.00000000000000E+00
 cg2d: Sum(rhs),rhsMax =                    NaN  0.00000000000000E+00
 cg2d: Sum(rhs),rhsMax =                    NaN  0.00000000000000E+00
 cg2d: Sum(rhs),rhsMax =                    NaN  0.00000000000000E+00
 cg2d: Sum(rhs),rhsMax =                    NaN  0.00000000000000E+00
 cg2d: Sum(rhs),rhsMax =                    NaN  0.00000000000000E+00
 cg2d: Sum(rhs),rhsMax =                    NaN  0.00000000000000E+00
 cg2d: Sum(rhs),rhsMax =                    NaN  0.00000000000000E+00
 cg2d: Sum(rhs),rhsMax =                    NaN  0.00000000000000E+00
 cg2d: Sum(rhs),rhsMax =                    NaN  0.00000000000000E+00
 cg2d: Sum(rhs),rhsMax =                    NaN  0.00000000000000E+00
 cg2d: Sum(rhs),rhsMax =                    NaN  0.00000000000000E+00
 cg2d: Sum(rhs),rhsMax =                    NaN  0.00000000000000E+00
 cg2d: Sum(rhs),rhsMax =                    NaN  0.00000000000000E+00
 cg2d: Sum(rhs),rhsMax =                    NaN  0.00000000000000E+00
 cg2d: Sum(rhs),rhsMax =                    NaN  0.00000000000000E+00
 cg2d: Sum(rhs),rhsMax =                    NaN  0.00000000000000E+00
 cg2d: Sum(rhs),rhsMax =                    NaN  0.00000000000000E+00
 cg2d: Sum(rhs),rhsMax =                    NaN  0.00000000000000E+00
 cg2d: Sum(rhs),rhsMax =                    NaN  0.00000000000000E+00
 cg2d: Sum(rhs),rhsMax =                    NaN  0.00000000000000E+00
 cg2d: Sum(rhs),rhsMax =                    NaN  0.00000000000000E+00
 cg2d: Sum(rhs),rhsMax =                    NaN  0.00000000000000E+00
 cg2d: Sum(rhs),rhsMax =                    NaN  0.00000000000000E+00
 cg2d: Sum(rhs),rhsMax =                    NaN  0.00000000000000E+00
 cg2d: Sum(rhs),rhsMax =                    NaN  0.00000000000000E+00
 cg2d: Sum(rhs),rhsMax =                    NaN  0.00000000000000E+00
 cg2d: Sum(rhs),rhsMax =                    NaN  0.00000000000000E+00
 cg2d: Sum(rhs),rhsMax =                    NaN  0.00000000000000E+00
 cg2d: Sum(rhs),rhsMax =                    NaN  0.00000000000000E+00
 cg2d: Sum(rhs),rhsMax =                    NaN  0.00000000000000E+00
 cg2d: Sum(rhs),rhsMax =                    NaN  0.00000000000000E+00
 cg2d: Sum(rhs),rhsMax =                    NaN  0.00000000000000E+00
 cg2d: Sum(rhs),rhsMax =                    NaN  0.00000000000000E+00
 cg2d: Sum(rhs),rhsMax =                    NaN  0.00000000000000E+00
 cg2d: Sum(rhs),rhsMax =                    NaN  0.00000000000000E+00
 cg2d: Sum(rhs),rhsMax =                    NaN  0.00000000000000E+00
 cg2d: Sum(rhs),rhsMax =                    NaN  0.00000000000000E+00
 cg2d: Sum(rhs),rhsMax =                    NaN  0.00000000000000E+00
 cg2d: Sum(rhs),rhsMax =                    NaN  0.00000000000000E+00
 cg2d: Sum(rhs),rhsMax =                    NaN  0.00000000000000E+00
 cg2d: Sum(rhs),rhsMax =                    NaN  0.00000000000000E+00
 cg2d: Sum(rhs),rhsMax =                    NaN  0.00000000000000E+00
 cg2d: Sum(rhs),rhsMax =                    NaN  0.00000000000000E+00
 cg2d: Sum(rhs),rhsMax =                    NaN  0.00000000000000E+00
 cg2d: Sum(rhs),rhsMax =                    NaN  0.00000000000000E+00
 cg2d: Sum(rhs),rhsMax =                    NaN  0.00000000000000E+00
 cg2d: Sum(rhs),rhsMax =                    NaN  0.00000000000000E+00
 cg2d: Sum(rhs),rhsMax =                    NaN  0.00000000000000E+00
 cg2d: Sum(rhs),rhsMax =                    NaN  0.00000000000000E+00
 cg2d: Sum(rhs),rhsMax =                    NaN  0.00000000000000E+00
 cg2d: Sum(rhs),rhsMax =                    NaN  0.00000000000000E+00
 cg2d: Sum(rhs),rhsMax =                    NaN  0.00000000000000E+00
 cg2d: Sum(rhs),rhsMax =                    NaN  0.00000000000000E+00
 cg2d: Sum(rhs),rhsMax =                    NaN  0.00000000000000E+00
 cg2d: Sum(rhs),rhsMax =                    NaN  0.00000000000000E+00
 cg2d: Sum(rhs),rhsMax =                    NaN  0.00000000000000E+00
 cg2d: Sum(rhs),rhsMax =                    NaN  0.00000000000000E+00
 cg2d: Sum(rhs),rhsMax =                    NaN  0.00000000000000E+00
 cg2d: Sum(rhs),rhsMax =                    NaN  0.00000000000000E+00
 cg2d: Sum(rhs),rhsMax =                    NaN  0.00000000000000E+00
 cg2d: Sum(rhs),rhsMax =                    NaN  0.00000000000000E+00
 cg2d: Sum(rhs),rhsMax =                    NaN  0.00000000000000E+00
 cg2d: Sum(rhs),rhsMax =                    NaN  0.00000000000000E+00
 cg2d: Sum(rhs),rhsMax =                    NaN  0.00000000000000E+00
 cg2d: Sum(rhs),rhsMax =                    NaN  0.00000000000000E+00
 cg2d: Sum(rhs),rhsMax =                    NaN  0.00000000000000E+00
 cg2d: Sum(rhs),rhsMax =                    NaN  0.00000000000000E+00
 cg2d: Sum(rhs),rhsMax =                    NaN  0.00000000000000E+00
 cg2d: Sum(rhs),rhsMax =                    NaN  0.00000000000000E+00
 cg2d: Sum(rhs),rhsMax =                    NaN  0.00000000000000E+00
 cg2d: Sum(rhs),rhsMax =                    NaN  0.00000000000000E+00
 cg2d: Sum(rhs),rhsMax =                    NaN  0.00000000000000E+00
 cg2d: Sum(rhs),rhsMax =                    NaN  0.00000000000000E+00
 cg2d: Sum(rhs),rhsMax =                    NaN  0.00000000000000E+00
 cg2d: Sum(rhs),rhsMax =                    NaN  0.00000000000000E+00
 cg2d: Sum(rhs),rhsMax =                    NaN  0.00000000000000E+00
 cg2d: Sum(rhs),rhsMax =                    NaN  0.00000000000000E+00
 cg2d: Sum(rhs),rhsMax =                    NaN  0.00000000000000E+00
 cg2d: Sum(rhs),rhsMax =                    NaN  0.00000000000000E+00
 cg2d: Sum(rhs),rhsMax =                    NaN  0.00000000000000E+00
 cg2d: Sum(rhs),rhsMax =                    NaN  0.00000000000000E+00
 cg2d: Sum(rhs),rhsMax =                    NaN  0.00000000000000E+00
 cg2d: Sum(rhs),rhsMax =                    NaN  0.00000000000000E+00
 cg2d: Sum(rhs),rhsMax =                    NaN  0.00000000000000E+00
 cg2d: Sum(rhs),rhsMax =                    NaN  0.00000000000000E+00
 cg2d: Sum(rhs),rhsMax =                    NaN  0.00000000000000E+00
 cg2d: Sum(rhs),rhsMax =                    NaN  0.00000000000000E+00
 cg2d: Sum(rhs),rhsMax =                    NaN  0.00000000000000E+00
(PID.TID 0000.0001)      cg2d_init_res =                    NaN
(PID.TID 0000.0001)      cg2d_iters(min,last) =      -1    1000
(PID.TID 0000.0001)      cg2d_last_res =                    NaN
(PID.TID 0000.0001) // =======================================================
(PID.TID 0000.0001) // Begin MONITOR dynamic field statistics
(PID.TID 0000.0001) // =======================================================
(PID.TID 0000.0001) %MON time_tsnumber                =                  6720
(PID.TID 0000.0001) %MON time_secondsf                =   1.0080000000000E+05
(PID.TID 0000.0001) %MON dynstat_eta_max              =                   NaN
(PID.TID 0000.0001) %MON dynstat_eta_min              =                   NaN
(PID.TID 0000.0001) %MON dynstat_eta_mean             =                   NaN
(PID.TID 0000.0001) %MON dynstat_eta_sd               =                   NaN
(PID.TID 0000.0001) %MON dynstat_eta_del2             =                   NaN
(PID.TID 0000.0001) %MON dynstat_uvel_max             =   5.6028564143658E-01
(PID.TID 0000.0001) %MON dynstat_uvel_min             =   5.6028564143658E-01
(PID.TID 0000.0001) %MON dynstat_uvel_mean            =                   NaN
(PID.TID 0000.0001) %MON dynstat_uvel_sd              =                   NaN
(PID.TID 0000.0001) %MON dynstat_uvel_del2            =                   NaN
(PID.TID 0000.0001) %MON dynstat_vvel_max             =                   NaN
(PID.TID 0000.0001) %MON dynstat_vvel_min             =                   NaN
(PID.TID 0000.0001) %MON dynstat_vvel_mean            =                   NaN
(PID.TID 0000.0001) %MON dynstat_vvel_sd              =                   NaN
(PID.TID 0000.0001) %MON dynstat_vvel_del2            =                   NaN
(PID.TID 0000.0001) %MON dynstat_wvel_max             =                   NaN
(PID.TID 0000.0001) %MON dynstat_wvel_min             =                   NaN
(PID.TID 0000.0001) %MON dynstat_wvel_mean            =                   NaN
(PID.TID 0000.0001) %MON dynstat_wvel_sd              =                   NaN
(PID.TID 0000.0001) %MON dynstat_wvel_del2            =                   NaN
(PID.TID 0000.0001) %MON dynstat_theta_max            =                   NaN
(PID.TID 0000.0001) %MON dynstat_theta_min            =                   NaN
(PID.TID 0000.0001) %MON dynstat_theta_mean           =                   NaN
(PID.TID 0000.0001) %MON dynstat_theta_sd             =                   NaN
(PID.TID 0000.0001) %MON dynstat_theta_del2           =                   NaN
(PID.TID 0000.0001) %MON dynstat_salt_max             =   3.5000000000000E+01
(PID.TID 0000.0001) %MON dynstat_salt_min             =   3.5000000000000E+01
(PID.TID 0000.0001) %MON dynstat_salt_mean            =   3.5000000000000E+01
(PID.TID 0000.0001) %MON dynstat_salt_sd              =   3.9790393202566E-13
(PID.TID 0000.0001) %MON dynstat_salt_del2            =   0.0000000000000E+00
(PID.TID 0000.0001) %MON dynstat_sst_max              =                   NaN
(PID.TID 0000.0001) %MON dynstat_sst_min              =                   NaN
(PID.TID 0000.0001) %MON dynstat_sst_mean             =                   NaN
(PID.TID 0000.0001) %MON dynstat_sst_sd               =                   NaN
(PID.TID 0000.0001) %MON dynstat_sst_del2             =                   NaN
(PID.TID 0000.0001) %MON dynstat_sss_max              =   3.5000000000000E+01
(PID.TID 0000.0001) %MON dynstat_sss_min              =   3.5000000000000E+01
(PID.TID 0000.0001) %MON dynstat_sss_mean             =   3.5000000000000E+01
(PID.TID 0000.0001) %MON dynstat_sss_sd               =   5.6843418860808E-14
(PID.TID 0000.0001) %MON dynstat_sss_del2             =   0.0000000000000E+00
(PID.TID 0000.0001) %MON forcing_qnet_max             =   0.0000000000000E+00
(PID.TID 0000.0001) %MON forcing_qnet_min             =   0.0000000000000E+00
(PID.TID 0000.0001) %MON forcing_qnet_mean            =   0.0000000000000E+00
(PID.TID 0000.0001) %MON forcing_qnet_sd              =   0.0000000000000E+00
(PID.TID 0000.0001) %MON forcing_qnet_del2            =   0.0000000000000E+00
(PID.TID 0000.0001) %MON forcing_qsw_max              =   0.0000000000000E+00
(PID.TID 0000.0001) %MON forcing_qsw_min              =   0.0000000000000E+00
(PID.TID 0000.0001) %MON forcing_qsw_mean             =   0.0000000000000E+00
(PID.TID 0000.0001) %MON forcing_qsw_sd               =   0.0000000000000E+00
(PID.TID 0000.0001) %MON forcing_qsw_del2             =   0.0000000000000E+00
(PID.TID 0000.0001) %MON forcing_empmr_max            =   0.0000000000000E+00
(PID.TID 0000.0001) %MON forcing_empmr_min            =   0.0000000000000E+00
(PID.TID 0000.0001) %MON forcing_empmr_mean           =   0.0000000000000E+00
(PID.TID 0000.0001) %MON forcing_empmr_sd             =   0.0000000000000E+00
(PID.TID 0000.0001) %MON forcing_empmr_del2           =   0.0000000000000E+00
(PID.TID 0000.0001) %MON forcing_fu_max               =   0.0000000000000E+00
(PID.TID 0000.0001) %MON forcing_fu_min               =   0.0000000000000E+00
(PID.TID 0000.0001) %MON forcing_fu_mean              =   0.0000000000000E+00
(PID.TID 0000.0001) %MON forcing_fu_sd                =   0.0000000000000E+00
(PID.TID 0000.0001) %MON forcing_fu_del2              =   0.0000000000000E+00
(PID.TID 0000.0001) %MON forcing_fv_max               =   0.0000000000000E+00
(PID.TID 0000.0001) %MON forcing_fv_min               =   0.0000000000000E+00
(PID.TID 0000.0001) %MON forcing_fv_mean              =   0.0000000000000E+00
(PID.TID 0000.0001) %MON forcing_fv_sd                =   0.0000000000000E+00
(PID.TID 0000.0001) %MON forcing_fv_del2              =   0.0000000000000E+00
(PID.TID 0000.0001) %MON advcfl_uvel_max              =   8.0384112777411E-03
(PID.TID 0000.0001) %MON advcfl_vvel_max              =   0.0000000000000E+00
(PID.TID 0000.0001) %MON advcfl_wvel_max              =   0.0000000000000E+00
(PID.TID 0000.0001) %MON advcfl_W_hf_max              =   0.0000000000000E+00
(PID.TID 0000.0001) %MON pe_b_mean                    =                   NaN
(PID.TID 0000.0001) %MON ke_max                       =   0.0000000000000E+00
(PID.TID 0000.0001) %MON ke_mean                      =                   NaN
(PID.TID 0000.0001) %MON ke_vol                       =   9.5121673331316E+10
(PID.TID 0000.0001) %MON vort_r_min                   =   0.0000000000000E+00
(PID.TID 0000.0001) %MON vort_r_max                   =   0.0000000000000E+00
(PID.TID 0000.0001) %MON vort_a_mean                  =                   NaN
(PID.TID 0000.0001) %MON vort_a_sd                    =                   NaN
(PID.TID 0000.0001) %MON vort_p_mean                  =                   NaN
(PID.TID 0000.0001) %MON vort_p_sd                    =   0.0000000000000E+00
(PID.TID 0000.0001) %MON surfExpan_theta_mean         =                   NaN
(PID.TID 0000.0001) %MON surfExpan_salt_mean          =                   NaN
(PID.TID 0000.0001) // =======================================================
(PID.TID 0000.0001) // End MONITOR dynamic field statistics
(PID.TID 0000.0001) // =======================================================
(PID.TID 0000.0001) // =======================================================
(PID.TID 0000.0001) // Begin OBCS MONITOR field statistics
(PID.TID 0000.0001) // =======================================================
(PID.TID 0000.0001) %MON obc_E_uVel_max               =   5.6028564143658E-01
(PID.TID 0000.0001) %MON obc_E_uVel_min               =   5.6028564143658E-01
(PID.TID 0000.0001) %MON obc_E_uVel_mean              =   5.6028564143658E-01
(PID.TID 0000.0001) %MON obc_E_uVel_sd                =   7.4505805969238E-09
(PID.TID 0000.0001) %MON obc_E_uVel_Int               =   5.6028564143658E+05
(PID.TID 0000.0001) %MON obc_W_uVel_max               =   5.6028564143658E-01
(PID.TID 0000.0001) %MON obc_W_uVel_min               =   5.6028564143658E-01
(PID.TID 0000.0001) %MON obc_W_uVel_mean              =   5.6028564143658E-01
(PID.TID 0000.0001) %MON obc_W_uVel_sd                =   7.4505805969238E-09
(PID.TID 0000.0001) %MON obc_W_uVel_Int               =   5.6028564143658E+05
(PID.TID 0000.0001) // =======================================================
(PID.TID 0000.0001) // End OBCS MONITOR field statistics
(PID.TID 0000.0001) // =======================================================
 cg2d: Sum(rhs),rhsMax =                    NaN  0.00000000000000E+00
 cg2d: Sum(rhs),rhsMax =                    NaN  0.00000000000000E+00
 cg2d: Sum(rhs),rhsMax =                    NaN  0.00000000000000E+00
 cg2d: Sum(rhs),rhsMax =                    NaN  0.00000000000000E+00
 cg2d: Sum(rhs),rhsMax =                    NaN  0.00000000000000E+00
 cg2d: Sum(rhs),rhsMax =                    NaN  0.00000000000000E+00
 cg2d: Sum(rhs),rhsMax =                    NaN  0.00000000000000E+00
 cg2d: Sum(rhs),rhsMax =                    NaN  0.00000000000000E+00
 cg2d: Sum(rhs),rhsMax =                    NaN  0.00000000000000E+00
 cg2d: Sum(rhs),rhsMax =                    NaN  0.00000000000000E+00
 cg2d: Sum(rhs),rhsMax =                    NaN  0.00000000000000E+00
 cg2d: Sum(rhs),rhsMax =                    NaN  0.00000000000000E+00
 cg2d: Sum(rhs),rhsMax =                    NaN  0.00000000000000E+00
 cg2d: Sum(rhs),rhsMax =                    NaN  0.00000000000000E+00
 cg2d: Sum(rhs),rhsMax =                    NaN  0.00000000000000E+00
 cg2d: Sum(rhs),rhsMax =                    NaN  0.00000000000000E+00
 cg2d: Sum(rhs),rhsMax =                    NaN  0.00000000000000E+00
 cg2d: Sum(rhs),rhsMax =                    NaN  0.00000000000000E+00
 cg2d: Sum(rhs),rhsMax =                    NaN  0.00000000000000E+00
 cg2d: Sum(rhs),rhsMax =                    NaN  0.00000000000000E+00
 cg2d: Sum(rhs),rhsMax =                    NaN  0.00000000000000E+00
 cg2d: Sum(rhs),rhsMax =                    NaN  0.00000000000000E+00
 cg2d: Sum(rhs),rhsMax =                    NaN  0.00000000000000E+00
 cg2d: Sum(rhs),rhsMax =                    NaN  0.00000000000000E+00
 cg2d: Sum(rhs),rhsMax =                    NaN  0.00000000000000E+00
 cg2d: Sum(rhs),rhsMax =                    NaN  0.00000000000000E+00
 cg2d: Sum(rhs),rhsMax =                    NaN  0.00000000000000E+00
 cg2d: Sum(rhs),rhsMax =                    NaN  0.00000000000000E+00
 cg2d: Sum(rhs),rhsMax =                    NaN  0.00000000000000E+00
 cg2d: Sum(rhs),rhsMax =                    NaN  0.00000000000000E+00
 cg2d: Sum(rhs),rhsMax =                    NaN  0.00000000000000E+00
 cg2d: Sum(rhs),rhsMax =                    NaN  0.00000000000000E+00
 cg2d: Sum(rhs),rhsMax =                    NaN  0.00000000000000E+00
 cg2d: Sum(rhs),rhsMax =                    NaN  0.00000000000000E+00
 cg2d: Sum(rhs),rhsMax =                    NaN  0.00000000000000E+00
 cg2d: Sum(rhs),rhsMax =                    NaN  0.00000000000000E+00
 cg2d: Sum(rhs),rhsMax =                    NaN  0.00000000000000E+00
 cg2d: Sum(rhs),rhsMax =                    NaN  0.00000000000000E+00
 cg2d: Sum(rhs),rhsMax =                    NaN  0.00000000000000E+00
 cg2d: Sum(rhs),rhsMax =                    NaN  0.00000000000000E+00
 cg2d: Sum(rhs),rhsMax =                    NaN  0.00000000000000E+00
 cg2d: Sum(rhs),rhsMax =                    NaN  0.00000000000000E+00
 cg2d: Sum(rhs),rhsMax =                    NaN  0.00000000000000E+00
 cg2d: Sum(rhs),rhsMax =                    NaN  0.00000000000000E+00
 cg2d: Sum(rhs),rhsMax =                    NaN  0.00000000000000E+00
 cg2d: Sum(rhs),rhsMax =                    NaN  0.00000000000000E+00
 cg2d: Sum(rhs),rhsMax =                    NaN  0.00000000000000E+00
 cg2d: Sum(rhs),rhsMax =                    NaN  0.00000000000000E+00
 cg2d: Sum(rhs),rhsMax =                    NaN  0.00000000000000E+00
 cg2d: Sum(rhs),rhsMax =                    NaN  0.00000000000000E+00
 cg2d: Sum(rhs),rhsMax =                    NaN  0.00000000000000E+00
 cg2d: Sum(rhs),rhsMax =                    NaN  0.00000000000000E+00
 cg2d: Sum(rhs),rhsMax =                    NaN  0.00000000000000E+00
 cg2d: Sum(rhs),rhsMax =                    NaN  0.00000000000000E+00
 cg2d: Sum(rhs),rhsMax =                    NaN  0.00000000000000E+00
 cg2d: Sum(rhs),rhsMax =                    NaN  0.00000000000000E+00
 cg2d: Sum(rhs),rhsMax =                    NaN  0.00000000000000E+00
 cg2d: Sum(rhs),rhsMax =                    NaN  0.00000000000000E+00
 cg2d: Sum(rhs),rhsMax =                    NaN  0.00000000000000E+00
 cg2d: Sum(rhs),rhsMax =                    NaN  0.00000000000000E+00
 cg2d: Sum(rhs),rhsMax =                    NaN  0.00000000000000E+00
 cg2d: Sum(rhs),rhsMax =                    NaN  0.00000000000000E+00
 cg2d: Sum(rhs),rhsMax =                    NaN  0.00000000000000E+00
 cg2d: Sum(rhs),rhsMax =                    NaN  0.00000000000000E+00
 cg2d: Sum(rhs),rhsMax =                    NaN  0.00000000000000E+00
 cg2d: Sum(rhs),rhsMax =                    NaN  0.00000000000000E+00
 cg2d: Sum(rhs),rhsMax =                    NaN  0.00000000000000E+00
 cg2d: Sum(rhs),rhsMax =                    NaN  0.00000000000000E+00
 cg2d: Sum(rhs),rhsMax =                    NaN  0.00000000000000E+00
 cg2d: Sum(rhs),rhsMax =                    NaN  0.00000000000000E+00
 cg2d: Sum(rhs),rhsMax =                    NaN  0.00000000000000E+00
 cg2d: Sum(rhs),rhsMax =                    NaN  0.00000000000000E+00
 cg2d: Sum(rhs),rhsMax =                    NaN  0.00000000000000E+00
 cg2d: Sum(rhs),rhsMax =                    NaN  0.00000000000000E+00
 cg2d: Sum(rhs),rhsMax =                    NaN  0.00000000000000E+00
 cg2d: Sum(rhs),rhsMax =                    NaN  0.00000000000000E+00
 cg2d: Sum(rhs),rhsMax =                    NaN  0.00000000000000E+00
 cg2d: Sum(rhs),rhsMax =                    NaN  0.00000000000000E+00
 cg2d: Sum(rhs),rhsMax =                    NaN  0.00000000000000E+00
 cg2d: Sum(rhs),rhsMax =                    NaN  0.00000000000000E+00
 cg2d: Sum(rhs),rhsMax =                    NaN  0.00000000000000E+00
 cg2d: Sum(rhs),rhsMax =                    NaN  0.00000000000000E+00
 cg2d: Sum(rhs),rhsMax =                    NaN  0.00000000000000E+00
 cg2d: Sum(rhs),rhsMax =                    NaN  0.00000000000000E+00
 cg2d: Sum(rhs),rhsMax =                    NaN  0.00000000000000E+00
 cg2d: Sum(rhs),rhsMax =                    NaN  0.00000000000000E+00
 cg2d: Sum(rhs),rhsMax =                    NaN  0.00000000000000E+00
 cg2d: Sum(rhs),rhsMax =                    NaN  0.00000000000000E+00
 cg2d: Sum(rhs),rhsMax =                    NaN  0.00000000000000E+00
 cg2d: Sum(rhs),rhsMax =                    NaN  0.00000000000000E+00
 cg2d: Sum(rhs),rhsMax =                    NaN  0.00000000000000E+00
 cg2d: Sum(rhs),rhsMax =                    NaN  0.00000000000000E+00
 cg2d: Sum(rhs),rhsMax =                    NaN  0.00000000000000E+00
 cg2d: Sum(rhs),rhsMax =                    NaN  0.00000000000000E+00
 cg2d: Sum(rhs),rhsMax =                    NaN  0.00000000000000E+00
 cg2d: Sum(rhs),rhsMax =                    NaN  0.00000000000000E+00
 cg2d: Sum(rhs),rhsMax =                    NaN  0.00000000000000E+00
 cg2d: Sum(rhs),rhsMax =                    NaN  0.00000000000000E+00
 cg2d: Sum(rhs),rhsMax =                    NaN  0.00000000000000E+00
 cg2d: Sum(rhs),rhsMax =                    NaN  0.00000000000000E+00
 cg2d: Sum(rhs),rhsMax =                    NaN  0.00000000000000E+00
 cg2d: Sum(rhs),rhsMax =                    NaN  0.00000000000000E+00
 cg2d: Sum(rhs),rhsMax =                    NaN  0.00000000000000E+00
 cg2d: Sum(rhs),rhsMax =                    NaN  0.00000000000000E+00
 cg2d: Sum(rhs),rhsMax =                    NaN  0.00000000000000E+00
 cg2d: Sum(rhs),rhsMax =                    NaN  0.00000000000000E+00
 cg2d: Sum(rhs),rhsMax =                    NaN  0.00000000000000E+00
 cg2d: Sum(rhs),rhsMax =                    NaN  0.00000000000000E+00
 cg2d: Sum(rhs),rhsMax =                    NaN  0.00000000000000E+00
 cg2d: Sum(rhs),rhsMax =                    NaN  0.00000000000000E+00
 cg2d: Sum(rhs),rhsMax =                    NaN  0.00000000000000E+00
 cg2d: Sum(rhs),rhsMax =                    NaN  0.00000000000000E+00
 cg2d: Sum(rhs),rhsMax =                    NaN  0.00000000000000E+00
 cg2d: Sum(rhs),rhsMax =                    NaN  0.00000000000000E+00
 cg2d: Sum(rhs),rhsMax =                    NaN  0.00000000000000E+00
 cg2d: Sum(rhs),rhsMax =                    NaN  0.00000000000000E+00
 cg2d: Sum(rhs),rhsMax =                    NaN  0.00000000000000E+00
 cg2d: Sum(rhs),rhsMax =                    NaN  0.00000000000000E+00
 cg2d: Sum(rhs),rhsMax =                    NaN  0.00000000000000E+00
 cg2d: Sum(rhs),rhsMax =                    NaN  0.00000000000000E+00
 cg2d: Sum(rhs),rhsMax =                    NaN  0.00000000000000E+00
 cg2d: Sum(rhs),rhsMax =                    NaN  0.00000000000000E+00
 cg2d: Sum(rhs),rhsMax =                    NaN  0.00000000000000E+00
 cg2d: Sum(rhs),rhsMax =                    NaN  0.00000000000000E+00
 cg2d: Sum(rhs),rhsMax =                    NaN  0.00000000000000E+00
 cg2d: Sum(rhs),rhsMax =                    NaN  0.00000000000000E+00
 cg2d: Sum(rhs),rhsMax =                    NaN  0.00000000000000E+00
 cg2d: Sum(rhs),rhsMax =                    NaN  0.00000000000000E+00
 cg2d: Sum(rhs),rhsMax =                    NaN  0.00000000000000E+00
 cg2d: Sum(rhs),rhsMax =                    NaN  0.00000000000000E+00
 cg2d: Sum(rhs),rhsMax =                    NaN  0.00000000000000E+00
 cg2d: Sum(rhs),rhsMax =                    NaN  0.00000000000000E+00
 cg2d: Sum(rhs),rhsMax =                    NaN  0.00000000000000E+00
 cg2d: Sum(rhs),rhsMax =                    NaN  0.00000000000000E+00
 cg2d: Sum(rhs),rhsMax =                    NaN  0.00000000000000E+00
 cg2d: Sum(rhs),rhsMax =                    NaN  0.00000000000000E+00
 cg2d: Sum(rhs),rhsMax =                    NaN  0.00000000000000E+00
 cg2d: Sum(rhs),rhsMax =                    NaN  0.00000000000000E+00
 cg2d: Sum(rhs),rhsMax =                    NaN  0.00000000000000E+00
 cg2d: Sum(rhs),rhsMax =                    NaN  0.00000000000000E+00
 cg2d: Sum(rhs),rhsMax =                    NaN  0.00000000000000E+00
 cg2d: Sum(rhs),rhsMax =                    NaN  0.00000000000000E+00
 cg2d: Sum(rhs),rhsMax =                    NaN  0.00000000000000E+00
 cg2d: Sum(rhs),rhsMax =                    NaN  0.00000000000000E+00
 cg2d: Sum(rhs),rhsMax =                    NaN  0.00000000000000E+00
 cg2d: Sum(rhs),rhsMax =                    NaN  0.00000000000000E+00
 cg2d: Sum(rhs),rhsMax =                    NaN  0.00000000000000E+00
 cg2d: Sum(rhs),rhsMax =                    NaN  0.00000000000000E+00
 cg2d: Sum(rhs),rhsMax =                    NaN  0.00000000000000E+00
 cg2d: Sum(rhs),rhsMax =                    NaN  0.00000000000000E+00
 cg2d: Sum(rhs),rhsMax =                    NaN  0.00000000000000E+00
 cg2d: Sum(rhs),rhsMax =                    NaN  0.00000000000000E+00
 cg2d: Sum(rhs),rhsMax =                    NaN  0.00000000000000E+00
 cg2d: Sum(rhs),rhsMax =                    NaN  0.00000000000000E+00
 cg2d: Sum(rhs),rhsMax =                    NaN  0.00000000000000E+00
 cg2d: Sum(rhs),rhsMax =                    NaN  0.00000000000000E+00
 cg2d: Sum(rhs),rhsMax =                    NaN  0.00000000000000E+00
 cg2d: Sum(rhs),rhsMax =                    NaN  0.00000000000000E+00
 cg2d: Sum(rhs),rhsMax =                    NaN  0.00000000000000E+00
 cg2d: Sum(rhs),rhsMax =                    NaN  0.00000000000000E+00
 cg2d: Sum(rhs),rhsMax =                    NaN  0.00000000000000E+00
 cg2d: Sum(rhs),rhsMax =                    NaN  0.00000000000000E+00
 cg2d: Sum(rhs),rhsMax =                    NaN  0.00000000000000E+00
 cg2d: Sum(rhs),rhsMax =                    NaN  0.00000000000000E+00
 cg2d: Sum(rhs),rhsMax =                    NaN  0.00000000000000E+00
 cg2d: Sum(rhs),rhsMax =                    NaN  0.00000000000000E+00
 cg2d: Sum(rhs),rhsMax =                    NaN  0.00000000000000E+00
 cg2d: Sum(rhs),rhsMax =                    NaN  0.00000000000000E+00
 cg2d: Sum(rhs),rhsMax =                    NaN  0.00000000000000E+00
 cg2d: Sum(rhs),rhsMax =                    NaN  0.00000000000000E+00
 cg2d: Sum(rhs),rhsMax =                    NaN  0.00000000000000E+00
 cg2d: Sum(rhs),rhsMax =                    NaN  0.00000000000000E+00
 cg2d: Sum(rhs),rhsMax =                    NaN  0.00000000000000E+00
 cg2d: Sum(rhs),rhsMax =                    NaN  0.00000000000000E+00
 cg2d: Sum(rhs),rhsMax =                    NaN  0.00000000000000E+00
 cg2d: Sum(rhs),rhsMax =                    NaN  0.00000000000000E+00
 cg2d: Sum(rhs),rhsMax =                    NaN  0.00000000000000E+00
 cg2d: Sum(rhs),rhsMax =                    NaN  0.00000000000000E+00
 cg2d: Sum(rhs),rhsMax =                    NaN  0.00000000000000E+00
 cg2d: Sum(rhs),rhsMax =                    NaN  0.00000000000000E+00
 cg2d: Sum(rhs),rhsMax =                    NaN  0.00000000000000E+00
 cg2d: Sum(rhs),rhsMax =                    NaN  0.00000000000000E+00
 cg2d: Sum(rhs),rhsMax =                    NaN  0.00000000000000E+00
 cg2d: Sum(rhs),rhsMax =                    NaN  0.00000000000000E+00
 cg2d: Sum(rhs),rhsMax =                    NaN  0.00000000000000E+00
 cg2d: Sum(rhs),rhsMax =                    NaN  0.00000000000000E+00
 cg2d: Sum(rhs),rhsMax =                    NaN  0.00000000000000E+00
 cg2d: Sum(rhs),rhsMax =                    NaN  0.00000000000000E+00
 cg2d: Sum(rhs),rhsMax =                    NaN  0.00000000000000E+00
 cg2d: Sum(rhs),rhsMax =                    NaN  0.00000000000000E+00
 cg2d: Sum(rhs),rhsMax =                    NaN  0.00000000000000E+00
 cg2d: Sum(rhs),rhsMax =                    NaN  0.00000000000000E+00
 cg2d: Sum(rhs),rhsMax =                    NaN  0.00000000000000E+00
 cg2d: Sum(rhs),rhsMax =                    NaN  0.00000000000000E+00
 cg2d: Sum(rhs),rhsMax =                    NaN  0.00000000000000E+00
 cg2d: Sum(rhs),rhsMax =                    NaN  0.00000000000000E+00
 cg2d: Sum(rhs),rhsMax =                    NaN  0.00000000000000E+00
 cg2d: Sum(rhs),rhsMax =                    NaN  0.00000000000000E+00
 cg2d: Sum(rhs),rhsMax =                    NaN  0.00000000000000E+00
 cg2d: Sum(rhs),rhsMax =                    NaN  0.00000000000000E+00
 cg2d: Sum(rhs),rhsMax =                    NaN  0.00000000000000E+00
 cg2d: Sum(rhs),rhsMax =                    NaN  0.00000000000000E+00
 cg2d: Sum(rhs),rhsMax =                    NaN  0.00000000000000E+00
 cg2d: Sum(rhs),rhsMax =                    NaN  0.00000000000000E+00
 cg2d: Sum(rhs),rhsMax =                    NaN  0.00000000000000E+00
 cg2d: Sum(rhs),rhsMax =                    NaN  0.00000000000000E+00
 cg2d: Sum(rhs),rhsMax =                    NaN  0.00000000000000E+00
 cg2d: Sum(rhs),rhsMax =                    NaN  0.00000000000000E+00
 cg2d: Sum(rhs),rhsMax =                    NaN  0.00000000000000E+00
 cg2d: Sum(rhs),rhsMax =                    NaN  0.00000000000000E+00
 cg2d: Sum(rhs),rhsMax =                    NaN  0.00000000000000E+00
 cg2d: Sum(rhs),rhsMax =                    NaN  0.00000000000000E+00
 cg2d: Sum(rhs),rhsMax =                    NaN  0.00000000000000E+00
 cg2d: Sum(rhs),rhsMax =                    NaN  0.00000000000000E+00
 cg2d: Sum(rhs),rhsMax =                    NaN  0.00000000000000E+00
 cg2d: Sum(rhs),rhsMax =                    NaN  0.00000000000000E+00
 cg2d: Sum(rhs),rhsMax =                    NaN  0.00000000000000E+00
 cg2d: Sum(rhs),rhsMax =                    NaN  0.00000000000000E+00
 cg2d: Sum(rhs),rhsMax =                    NaN  0.00000000000000E+00
 cg2d: Sum(rhs),rhsMax =                    NaN  0.00000000000000E+00
 cg2d: Sum(rhs),rhsMax =                    NaN  0.00000000000000E+00
 cg2d: Sum(rhs),rhsMax =                    NaN  0.00000000000000E+00
 cg2d: Sum(rhs),rhsMax =                    NaN  0.00000000000000E+00
 cg2d: Sum(rhs),rhsMax =                    NaN  0.00000000000000E+00
 cg2d: Sum(rhs),rhsMax =                    NaN  0.00000000000000E+00
 cg2d: Sum(rhs),rhsMax =                    NaN  0.00000000000000E+00
 cg2d: Sum(rhs),rhsMax =                    NaN  0.00000000000000E+00
 cg2d: Sum(rhs),rhsMax =                    NaN  0.00000000000000E+00
 cg2d: Sum(rhs),rhsMax =                    NaN  0.00000000000000E+00
 cg2d: Sum(rhs),rhsMax =                    NaN  0.00000000000000E+00
 cg2d: Sum(rhs),rhsMax =                    NaN  0.00000000000000E+00
 cg2d: Sum(rhs),rhsMax =                    NaN  0.00000000000000E+00
 cg2d: Sum(rhs),rhsMax =                    NaN  0.00000000000000E+00
 cg2d: Sum(rhs),rhsMax =                    NaN  0.00000000000000E+00
 cg2d: Sum(rhs),rhsMax =                    NaN  0.00000000000000E+00
 cg2d: Sum(rhs),rhsMax =                    NaN  0.00000000000000E+00
 cg2d: Sum(rhs),rhsMax =                    NaN  0.00000000000000E+00
 cg2d: Sum(rhs),rhsMax =                    NaN  0.00000000000000E+00
 cg2d: Sum(rhs),rhsMax =                    NaN  0.00000000000000E+00
 cg2d: Sum(rhs),rhsMax =                    NaN  0.00000000000000E+00
 cg2d: Sum(rhs),rhsMax =                    NaN  0.00000000000000E+00
 cg2d: Sum(rhs),rhsMax =                    NaN  0.00000000000000E+00
 cg2d: Sum(rhs),rhsMax =                    NaN  0.00000000000000E+00
 cg2d: Sum(rhs),rhsMax =                    NaN  0.00000000000000E+00
 cg2d: Sum(rhs),rhsMax =                    NaN  0.00000000000000E+00
 cg2d: Sum(rhs),rhsMax =                    NaN  0.00000000000000E+00
 cg2d: Sum(rhs),rhsMax =                    NaN  0.00000000000000E+00
 cg2d: Sum(rhs),rhsMax =                    NaN  0.00000000000000E+00
 cg2d: Sum(rhs),rhsMax =                    NaN  0.00000000000000E+00
 cg2d: Sum(rhs),rhsMax =                    NaN  0.00000000000000E+00
 cg2d: Sum(rhs),rhsMax =                    NaN  0.00000000000000E+00
 cg2d: Sum(rhs),rhsMax =                    NaN  0.00000000000000E+00
 cg2d: Sum(rhs),rhsMax =                    NaN  0.00000000000000E+00
 cg2d: Sum(rhs),rhsMax =                    NaN  0.00000000000000E+00
 cg2d: Sum(rhs),rhsMax =                    NaN  0.00000000000000E+00
 cg2d: Sum(rhs),rhsMax =                    NaN  0.00000000000000E+00
 cg2d: Sum(rhs),rhsMax =                    NaN  0.00000000000000E+00
 cg2d: Sum(rhs),rhsMax =                    NaN  0.00000000000000E+00
 cg2d: Sum(rhs),rhsMax =                    NaN  0.00000000000000E+00
 cg2d: Sum(rhs),rhsMax =                    NaN  0.00000000000000E+00
 cg2d: Sum(rhs),rhsMax =                    NaN  0.00000000000000E+00
 cg2d: Sum(rhs),rhsMax =                    NaN  0.00000000000000E+00
 cg2d: Sum(rhs),rhsMax =                    NaN  0.00000000000000E+00
 cg2d: Sum(rhs),rhsMax =                    NaN  0.00000000000000E+00
 cg2d: Sum(rhs),rhsMax =                    NaN  0.00000000000000E+00
 cg2d: Sum(rhs),rhsMax =                    NaN  0.00000000000000E+00
 cg2d: Sum(rhs),rhsMax =                    NaN  0.00000000000000E+00
 cg2d: Sum(rhs),rhsMax =                    NaN  0.00000000000000E+00
 cg2d: Sum(rhs),rhsMax =                    NaN  0.00000000000000E+00
 cg2d: Sum(rhs),rhsMax =                    NaN  0.00000000000000E+00
 cg2d: Sum(rhs),rhsMax =                    NaN  0.00000000000000E+00
 cg2d: Sum(rhs),rhsMax =                    NaN  0.00000000000000E+00
 cg2d: Sum(rhs),rhsMax =                    NaN  0.00000000000000E+00
 cg2d: Sum(rhs),rhsMax =                    NaN  0.00000000000000E+00
 cg2d: Sum(rhs),rhsMax =                    NaN  0.00000000000000E+00
 cg2d: Sum(rhs),rhsMax =                    NaN  0.00000000000000E+00
 cg2d: Sum(rhs),rhsMax =                    NaN  0.00000000000000E+00
 cg2d: Sum(rhs),rhsMax =                    NaN  0.00000000000000E+00
 cg2d: Sum(rhs),rhsMax =                    NaN  0.00000000000000E+00
 cg2d: Sum(rhs),rhsMax =                    NaN  0.00000000000000E+00
 cg2d: Sum(rhs),rhsMax =                    NaN  0.00000000000000E+00
 cg2d: Sum(rhs),rhsMax =                    NaN  0.00000000000000E+00
 cg2d: Sum(rhs),rhsMax =                    NaN  0.00000000000000E+00
 cg2d: Sum(rhs),rhsMax =                    NaN  0.00000000000000E+00
 cg2d: Sum(rhs),rhsMax =                    NaN  0.00000000000000E+00
 cg2d: Sum(rhs),rhsMax =                    NaN  0.00000000000000E+00
 cg2d: Sum(rhs),rhsMax =                    NaN  0.00000000000000E+00
 cg2d: Sum(rhs),rhsMax =                    NaN  0.00000000000000E+00
 cg2d: Sum(rhs),rhsMax =                    NaN  0.00000000000000E+00
 cg2d: Sum(rhs),rhsMax =                    NaN  0.00000000000000E+00
 cg2d: Sum(rhs),rhsMax =                    NaN  0.00000000000000E+00
 cg2d: Sum(rhs),rhsMax =                    NaN  0.00000000000000E+00
 cg2d: Sum(rhs),rhsMax =                    NaN  0.00000000000000E+00
 cg2d: Sum(rhs),rhsMax =                    NaN  0.00000000000000E+00
 cg2d: Sum(rhs),rhsMax =                    NaN  0.00000000000000E+00
 cg2d: Sum(rhs),rhsMax =                    NaN  0.00000000000000E+00
 cg2d: Sum(rhs),rhsMax =                    NaN  0.00000000000000E+00
 cg2d: Sum(rhs),rhsMax =                    NaN  0.00000000000000E+00
 cg2d: Sum(rhs),rhsMax =                    NaN  0.00000000000000E+00
 cg2d: Sum(rhs),rhsMax =                    NaN  0.00000000000000E+00
 cg2d: Sum(rhs),rhsMax =                    NaN  0.00000000000000E+00
 cg2d: Sum(rhs),rhsMax =                    NaN  0.00000000000000E+00
 cg2d: Sum(rhs),rhsMax =                    NaN  0.00000000000000E+00
 cg2d: Sum(rhs),rhsMax =                    NaN  0.00000000000000E+00
 cg2d: Sum(rhs),rhsMax =                    NaN  0.00000000000000E+00
 cg2d: Sum(rhs),rhsMax =                    NaN  0.00000000000000E+00
 cg2d: Sum(rhs),rhsMax =                    NaN  0.00000000000000E+00
 cg2d: Sum(rhs),rhsMax =                    NaN  0.00000000000000E+00
 cg2d: Sum(rhs),rhsMax =                    NaN  0.00000000000000E+00
 cg2d: Sum(rhs),rhsMax =                    NaN  0.00000000000000E+00
 cg2d: Sum(rhs),rhsMax =                    NaN  0.00000000000000E+00
 cg2d: Sum(rhs),rhsMax =                    NaN  0.00000000000000E+00
 cg2d: Sum(rhs),rhsMax =                    NaN  0.00000000000000E+00
 cg2d: Sum(rhs),rhsMax =                    NaN  0.00000000000000E+00
 cg2d: Sum(rhs),rhsMax =                    NaN  0.00000000000000E+00
 cg2d: Sum(rhs),rhsMax =                    NaN  0.00000000000000E+00
 cg2d: Sum(rhs),rhsMax =                    NaN  0.00000000000000E+00
 cg2d: Sum(rhs),rhsMax =                    NaN  0.00000000000000E+00
 cg2d: Sum(rhs),rhsMax =                    NaN  0.00000000000000E+00
 cg2d: Sum(rhs),rhsMax =                    NaN  0.00000000000000E+00
 cg2d: Sum(rhs),rhsMax =                    NaN  0.00000000000000E+00
 cg2d: Sum(rhs),rhsMax =                    NaN  0.00000000000000E+00
 cg2d: Sum(rhs),rhsMax =                    NaN  0.00000000000000E+00
 cg2d: Sum(rhs),rhsMax =                    NaN  0.00000000000000E+00
 cg2d: Sum(rhs),rhsMax =                    NaN  0.00000000000000E+00
 cg2d: Sum(rhs),rhsMax =                    NaN  0.00000000000000E+00
 cg2d: Sum(rhs),rhsMax =                    NaN  0.00000000000000E+00
 cg2d: Sum(rhs),rhsMax =                    NaN  0.00000000000000E+00
 cg2d: Sum(rhs),rhsMax =                    NaN  0.00000000000000E+00
 cg2d: Sum(rhs),rhsMax =                    NaN  0.00000000000000E+00
 cg2d: Sum(rhs),rhsMax =                    NaN  0.00000000000000E+00
 cg2d: Sum(rhs),rhsMax =                    NaN  0.00000000000000E+00
 cg2d: Sum(rhs),rhsMax =                    NaN  0.00000000000000E+00
 cg2d: Sum(rhs),rhsMax =                    NaN  0.00000000000000E+00
 cg2d: Sum(rhs),rhsMax =                    NaN  0.00000000000000E+00
 cg2d: Sum(rhs),rhsMax =                    NaN  0.00000000000000E+00
 cg2d: Sum(rhs),rhsMax =                    NaN  0.00000000000000E+00
 cg2d: Sum(rhs),rhsMax =                    NaN  0.00000000000000E+00
 cg2d: Sum(rhs),rhsMax =                    NaN  0.00000000000000E+00
 cg2d: Sum(rhs),rhsMax =                    NaN  0.00000000000000E+00
 cg2d: Sum(rhs),rhsMax =                    NaN  0.00000000000000E+00
 cg2d: Sum(rhs),rhsMax =                    NaN  0.00000000000000E+00
 cg2d: Sum(rhs),rhsMax =                    NaN  0.00000000000000E+00
 cg2d: Sum(rhs),rhsMax =                    NaN  0.00000000000000E+00
 cg2d: Sum(rhs),rhsMax =                    NaN  0.00000000000000E+00
 cg2d: Sum(rhs),rhsMax =                    NaN  0.00000000000000E+00
 cg2d: Sum(rhs),rhsMax =                    NaN  0.00000000000000E+00
 cg2d: Sum(rhs),rhsMax =                    NaN  0.00000000000000E+00
 cg2d: Sum(rhs),rhsMax =                    NaN  0.00000000000000E+00
 cg2d: Sum(rhs),rhsMax =                    NaN  0.00000000000000E+00
 cg2d: Sum(rhs),rhsMax =                    NaN  0.00000000000000E+00
 cg2d: Sum(rhs),rhsMax =                    NaN  0.00000000000000E+00
 cg2d: Sum(rhs),rhsMax =                    NaN  0.00000000000000E+00
 cg2d: Sum(rhs),rhsMax =                    NaN  0.00000000000000E+00
 cg2d: Sum(rhs),rhsMax =                    NaN  0.00000000000000E+00
 cg2d: Sum(rhs),rhsMax =                    NaN  0.00000000000000E+00
 cg2d: Sum(rhs),rhsMax =                    NaN  0.00000000000000E+00
 cg2d: Sum(rhs),rhsMax =                    NaN  0.00000000000000E+00
 cg2d: Sum(rhs),rhsMax =                    NaN  0.00000000000000E+00
 cg2d: Sum(rhs),rhsMax =                    NaN  0.00000000000000E+00
 cg2d: Sum(rhs),rhsMax =                    NaN  0.00000000000000E+00
 cg2d: Sum(rhs),rhsMax =                    NaN  0.00000000000000E+00
 cg2d: Sum(rhs),rhsMax =                    NaN  0.00000000000000E+00
 cg2d: Sum(rhs),rhsMax =                    NaN  0.00000000000000E+00
 cg2d: Sum(rhs),rhsMax =                    NaN  0.00000000000000E+00
 cg2d: Sum(rhs),rhsMax =                    NaN  0.00000000000000E+00
 cg2d: Sum(rhs),rhsMax =                    NaN  0.00000000000000E+00
 cg2d: Sum(rhs),rhsMax =                    NaN  0.00000000000000E+00
 cg2d: Sum(rhs),rhsMax =                    NaN  0.00000000000000E+00
 cg2d: Sum(rhs),rhsMax =                    NaN  0.00000000000000E+00
 cg2d: Sum(rhs),rhsMax =                    NaN  0.00000000000000E+00
 cg2d: Sum(rhs),rhsMax =                    NaN  0.00000000000000E+00
 cg2d: Sum(rhs),rhsMax =                    NaN  0.00000000000000E+00
 cg2d: Sum(rhs),rhsMax =                    NaN  0.00000000000000E+00
 cg2d: Sum(rhs),rhsMax =                    NaN  0.00000000000000E+00
 cg2d: Sum(rhs),rhsMax =                    NaN  0.00000000000000E+00
 cg2d: Sum(rhs),rhsMax =                    NaN  0.00000000000000E+00
 cg2d: Sum(rhs),rhsMax =                    NaN  0.00000000000000E+00
 cg2d: Sum(rhs),rhsMax =                    NaN  0.00000000000000E+00
 cg2d: Sum(rhs),rhsMax =                    NaN  0.00000000000000E+00
 cg2d: Sum(rhs),rhsMax =                    NaN  0.00000000000000E+00
 cg2d: Sum(rhs),rhsMax =                    NaN  0.00000000000000E+00
 cg2d: Sum(rhs),rhsMax =                    NaN  0.00000000000000E+00
 cg2d: Sum(rhs),rhsMax =                    NaN  0.00000000000000E+00
 cg2d: Sum(rhs),rhsMax =                    NaN  0.00000000000000E+00
 cg2d: Sum(rhs),rhsMax =                    NaN  0.00000000000000E+00
 cg2d: Sum(rhs),rhsMax =                    NaN  0.00000000000000E+00
 cg2d: Sum(rhs),rhsMax =                    NaN  0.00000000000000E+00
 cg2d: Sum(rhs),rhsMax =                    NaN  0.00000000000000E+00
 cg2d: Sum(rhs),rhsMax =                    NaN  0.00000000000000E+00
 cg2d: Sum(rhs),rhsMax =                    NaN  0.00000000000000E+00
 cg2d: Sum(rhs),rhsMax =                    NaN  0.00000000000000E+00
 cg2d: Sum(rhs),rhsMax =                    NaN  0.00000000000000E+00
 cg2d: Sum(rhs),rhsMax =                    NaN  0.00000000000000E+00
 cg2d: Sum(rhs),rhsMax =                    NaN  0.00000000000000E+00
 cg2d: Sum(rhs),rhsMax =                    NaN  0.00000000000000E+00
 cg2d: Sum(rhs),rhsMax =                    NaN  0.00000000000000E+00
 cg2d: Sum(rhs),rhsMax =                    NaN  0.00000000000000E+00
 cg2d: Sum(rhs),rhsMax =                    NaN  0.00000000000000E+00
 cg2d: Sum(rhs),rhsMax =                    NaN  0.00000000000000E+00
 cg2d: Sum(rhs),rhsMax =                    NaN  0.00000000000000E+00
 cg2d: Sum(rhs),rhsMax =                    NaN  0.00000000000000E+00
 cg2d: Sum(rhs),rhsMax =                    NaN  0.00000000000000E+00
 cg2d: Sum(rhs),rhsMax =                    NaN  0.00000000000000E+00
 cg2d: Sum(rhs),rhsMax =                    NaN  0.00000000000000E+00
 cg2d: Sum(rhs),rhsMax =                    NaN  0.00000000000000E+00
 cg2d: Sum(rhs),rhsMax =                    NaN  0.00000000000000E+00
 cg2d: Sum(rhs),rhsMax =                    NaN  0.00000000000000E+00
 cg2d: Sum(rhs),rhsMax =                    NaN  0.00000000000000E+00
 cg2d: Sum(rhs),rhsMax =                    NaN  0.00000000000000E+00
 cg2d: Sum(rhs),rhsMax =                    NaN  0.00000000000000E+00
 cg2d: Sum(rhs),rhsMax =                    NaN  0.00000000000000E+00
 cg2d: Sum(rhs),rhsMax =                    NaN  0.00000000000000E+00
 cg2d: Sum(rhs),rhsMax =                    NaN  0.00000000000000E+00
 cg2d: Sum(rhs),rhsMax =                    NaN  0.00000000000000E+00
 cg2d: Sum(rhs),rhsMax =                    NaN  0.00000000000000E+00
 cg2d: Sum(rhs),rhsMax =                    NaN  0.00000000000000E+00
 cg2d: Sum(rhs),rhsMax =                    NaN  0.00000000000000E+00
 cg2d: Sum(rhs),rhsMax =                    NaN  0.00000000000000E+00
 cg2d: Sum(rhs),rhsMax =                    NaN  0.00000000000000E+00
 cg2d: Sum(rhs),rhsMax =                    NaN  0.00000000000000E+00
 cg2d: Sum(rhs),rhsMax =                    NaN  0.00000000000000E+00
 cg2d: Sum(rhs),rhsMax =                    NaN  0.00000000000000E+00
 cg2d: Sum(rhs),rhsMax =                    NaN  0.00000000000000E+00
 cg2d: Sum(rhs),rhsMax =                    NaN  0.00000000000000E+00
 cg2d: Sum(rhs),rhsMax =                    NaN  0.00000000000000E+00
 cg2d: Sum(rhs),rhsMax =                    NaN  0.00000000000000E+00
 cg2d: Sum(rhs),rhsMax =                    NaN  0.00000000000000E+00
 cg2d: Sum(rhs),rhsMax =                    NaN  0.00000000000000E+00
 cg2d: Sum(rhs),rhsMax =                    NaN  0.00000000000000E+00
 cg2d: Sum(rhs),rhsMax =                    NaN  0.00000000000000E+00
 cg2d: Sum(rhs),rhsMax =                    NaN  0.00000000000000E+00
 cg2d: Sum(rhs),rhsMax =                    NaN  0.00000000000000E+00
 cg2d: Sum(rhs),rhsMax =                    NaN  0.00000000000000E+00
 cg2d: Sum(rhs),rhsMax =                    NaN  0.00000000000000E+00
 cg2d: Sum(rhs),rhsMax =                    NaN  0.00000000000000E+00
 cg2d: Sum(rhs),rhsMax =                    NaN  0.00000000000000E+00
 cg2d: Sum(rhs),rhsMax =                    NaN  0.00000000000000E+00
 cg2d: Sum(rhs),rhsMax =                    NaN  0.00000000000000E+00
 cg2d: Sum(rhs),rhsMax =                    NaN  0.00000000000000E+00
 cg2d: Sum(rhs),rhsMax =                    NaN  0.00000000000000E+00
 cg2d: Sum(rhs),rhsMax =                    NaN  0.00000000000000E+00
 cg2d: Sum(rhs),rhsMax =                    NaN  0.00000000000000E+00
 cg2d: Sum(rhs),rhsMax =                    NaN  0.00000000000000E+00
 cg2d: Sum(rhs),rhsMax =                    NaN  0.00000000000000E+00
 cg2d: Sum(rhs),rhsMax =                    NaN  0.00000000000000E+00
 cg2d: Sum(rhs),rhsMax =                    NaN  0.00000000000000E+00
 cg2d: Sum(rhs),rhsMax =                    NaN  0.00000000000000E+00
 cg2d: Sum(rhs),rhsMax =                    NaN  0.00000000000000E+00
 cg2d: Sum(rhs),rhsMax =                    NaN  0.00000000000000E+00
 cg2d: Sum(rhs),rhsMax =                    NaN  0.00000000000000E+00
 cg2d: Sum(rhs),rhsMax =                    NaN  0.00000000000000E+00
 cg2d: Sum(rhs),rhsMax =                    NaN  0.00000000000000E+00
 cg2d: Sum(rhs),rhsMax =                    NaN  0.00000000000000E+00
 cg2d: Sum(rhs),rhsMax =                    NaN  0.00000000000000E+00
 cg2d: Sum(rhs),rhsMax =                    NaN  0.00000000000000E+00
 cg2d: Sum(rhs),rhsMax =                    NaN  0.00000000000000E+00
 cg2d: Sum(rhs),rhsMax =                    NaN  0.00000000000000E+00
 cg2d: Sum(rhs),rhsMax =                    NaN  0.00000000000000E+00
 cg2d: Sum(rhs),rhsMax =                    NaN  0.00000000000000E+00
 cg2d: Sum(rhs),rhsMax =                    NaN  0.00000000000000E+00
 cg2d: Sum(rhs),rhsMax =                    NaN  0.00000000000000E+00
 cg2d: Sum(rhs),rhsMax =                    NaN  0.00000000000000E+00
 cg2d: Sum(rhs),rhsMax =                    NaN  0.00000000000000E+00
 cg2d: Sum(rhs),rhsMax =                    NaN  0.00000000000000E+00
 cg2d: Sum(rhs),rhsMax =                    NaN  0.00000000000000E+00
 cg2d: Sum(rhs),rhsMax =                    NaN  0.00000000000000E+00
 cg2d: Sum(rhs),rhsMax =                    NaN  0.00000000000000E+00
 cg2d: Sum(rhs),rhsMax =                    NaN  0.00000000000000E+00
 cg2d: Sum(rhs),rhsMax =                    NaN  0.00000000000000E+00
 cg2d: Sum(rhs),rhsMax =                    NaN  0.00000000000000E+00
 cg2d: Sum(rhs),rhsMax =                    NaN  0.00000000000000E+00
 cg2d: Sum(rhs),rhsMax =                    NaN  0.00000000000000E+00
 cg2d: Sum(rhs),rhsMax =                    NaN  0.00000000000000E+00
 cg2d: Sum(rhs),rhsMax =                    NaN  0.00000000000000E+00
 cg2d: Sum(rhs),rhsMax =                    NaN  0.00000000000000E+00
 cg2d: Sum(rhs),rhsMax =                    NaN  0.00000000000000E+00
 cg2d: Sum(rhs),rhsMax =                    NaN  0.00000000000000E+00
 cg2d: Sum(rhs),rhsMax =                    NaN  0.00000000000000E+00
 cg2d: Sum(rhs),rhsMax =                    NaN  0.00000000000000E+00
(PID.TID 0000.0001)      cg2d_init_res =                    NaN
(PID.TID 0000.0001)      cg2d_iters(min,last) =      -1    1000
(PID.TID 0000.0001)      cg2d_last_res =                    NaN
(PID.TID 0000.0001) // =======================================================
(PID.TID 0000.0001) // Begin MONITOR dynamic field statistics
(PID.TID 0000.0001) // =======================================================
(PID.TID 0000.0001) %MON time_tsnumber                =                  7200
(PID.TID 0000.0001) %MON time_secondsf                =   1.0800000000000E+05
(PID.TID 0000.0001) %MON dynstat_eta_max              =                   NaN
(PID.TID 0000.0001) %MON dynstat_eta_min              =                   NaN
(PID.TID 0000.0001) %MON dynstat_eta_mean             =                   NaN
(PID.TID 0000.0001) %MON dynstat_eta_sd               =                   NaN
(PID.TID 0000.0001) %MON dynstat_eta_del2             =                   NaN
(PID.TID 0000.0001) %MON dynstat_uvel_max             =   5.6028564143658E-01
(PID.TID 0000.0001) %MON dynstat_uvel_min             =   5.6028564143658E-01
(PID.TID 0000.0001) %MON dynstat_uvel_mean            =                   NaN
(PID.TID 0000.0001) %MON dynstat_uvel_sd              =                   NaN
(PID.TID 0000.0001) %MON dynstat_uvel_del2            =                   NaN
(PID.TID 0000.0001) %MON dynstat_vvel_max             =                   NaN
(PID.TID 0000.0001) %MON dynstat_vvel_min             =                   NaN
(PID.TID 0000.0001) %MON dynstat_vvel_mean            =                   NaN
(PID.TID 0000.0001) %MON dynstat_vvel_sd              =                   NaN
(PID.TID 0000.0001) %MON dynstat_vvel_del2            =                   NaN
(PID.TID 0000.0001) %MON dynstat_wvel_max             =                   NaN
(PID.TID 0000.0001) %MON dynstat_wvel_min             =                   NaN
(PID.TID 0000.0001) %MON dynstat_wvel_mean            =                   NaN
(PID.TID 0000.0001) %MON dynstat_wvel_sd              =                   NaN
(PID.TID 0000.0001) %MON dynstat_wvel_del2            =                   NaN
(PID.TID 0000.0001) %MON dynstat_theta_max            =                   NaN
(PID.TID 0000.0001) %MON dynstat_theta_min            =                   NaN
(PID.TID 0000.0001) %MON dynstat_theta_mean           =                   NaN
(PID.TID 0000.0001) %MON dynstat_theta_sd             =                   NaN
(PID.TID 0000.0001) %MON dynstat_theta_del2           =                   NaN
(PID.TID 0000.0001) %MON dynstat_salt_max             =   3.5000000000000E+01
(PID.TID 0000.0001) %MON dynstat_salt_min             =   3.5000000000000E+01
(PID.TID 0000.0001) %MON dynstat_salt_mean            =   3.5000000000000E+01
(PID.TID 0000.0001) %MON dynstat_salt_sd              =   3.9790393202566E-13
(PID.TID 0000.0001) %MON dynstat_salt_del2            =   0.0000000000000E+00
(PID.TID 0000.0001) %MON dynstat_sst_max              =                   NaN
(PID.TID 0000.0001) %MON dynstat_sst_min              =                   NaN
(PID.TID 0000.0001) %MON dynstat_sst_mean             =                   NaN
(PID.TID 0000.0001) %MON dynstat_sst_sd               =                   NaN
(PID.TID 0000.0001) %MON dynstat_sst_del2             =                   NaN
(PID.TID 0000.0001) %MON dynstat_sss_max              =   3.5000000000000E+01
(PID.TID 0000.0001) %MON dynstat_sss_min              =   3.5000000000000E+01
(PID.TID 0000.0001) %MON dynstat_sss_mean             =   3.5000000000000E+01
(PID.TID 0000.0001) %MON dynstat_sss_sd               =   5.6843418860808E-14
(PID.TID 0000.0001) %MON dynstat_sss_del2             =   0.0000000000000E+00
(PID.TID 0000.0001) %MON forcing_qnet_max             =   0.0000000000000E+00
(PID.TID 0000.0001) %MON forcing_qnet_min             =   0.0000000000000E+00
(PID.TID 0000.0001) %MON forcing_qnet_mean            =   0.0000000000000E+00
(PID.TID 0000.0001) %MON forcing_qnet_sd              =   0.0000000000000E+00
(PID.TID 0000.0001) %MON forcing_qnet_del2            =   0.0000000000000E+00
(PID.TID 0000.0001) %MON forcing_qsw_max              =   0.0000000000000E+00
(PID.TID 0000.0001) %MON forcing_qsw_min              =   0.0000000000000E+00
(PID.TID 0000.0001) %MON forcing_qsw_mean             =   0.0000000000000E+00
(PID.TID 0000.0001) %MON forcing_qsw_sd               =   0.0000000000000E+00
(PID.TID 0000.0001) %MON forcing_qsw_del2             =   0.0000000000000E+00
(PID.TID 0000.0001) %MON forcing_empmr_max            =   0.0000000000000E+00
(PID.TID 0000.0001) %MON forcing_empmr_min            =   0.0000000000000E+00
(PID.TID 0000.0001) %MON forcing_empmr_mean           =   0.0000000000000E+00
(PID.TID 0000.0001) %MON forcing_empmr_sd             =   0.0000000000000E+00
(PID.TID 0000.0001) %MON forcing_empmr_del2           =   0.0000000000000E+00
(PID.TID 0000.0001) %MON forcing_fu_max               =   0.0000000000000E+00
(PID.TID 0000.0001) %MON forcing_fu_min               =   0.0000000000000E+00
(PID.TID 0000.0001) %MON forcing_fu_mean              =   0.0000000000000E+00
(PID.TID 0000.0001) %MON forcing_fu_sd                =   0.0000000000000E+00
(PID.TID 0000.0001) %MON forcing_fu_del2              =   0.0000000000000E+00
(PID.TID 0000.0001) %MON forcing_fv_max               =   0.0000000000000E+00
(PID.TID 0000.0001) %MON forcing_fv_min               =   0.0000000000000E+00
(PID.TID 0000.0001) %MON forcing_fv_mean              =   0.0000000000000E+00
(PID.TID 0000.0001) %MON forcing_fv_sd                =   0.0000000000000E+00
(PID.TID 0000.0001) %MON forcing_fv_del2              =   0.0000000000000E+00
(PID.TID 0000.0001) %MON advcfl_uvel_max              =   8.0384112777411E-03
(PID.TID 0000.0001) %MON advcfl_vvel_max              =   0.0000000000000E+00
(PID.TID 0000.0001) %MON advcfl_wvel_max              =   0.0000000000000E+00
(PID.TID 0000.0001) %MON advcfl_W_hf_max              =   0.0000000000000E+00
(PID.TID 0000.0001) %MON pe_b_mean                    =                   NaN
(PID.TID 0000.0001) %MON ke_max                       =   0.0000000000000E+00
(PID.TID 0000.0001) %MON ke_mean                      =                   NaN
(PID.TID 0000.0001) %MON ke_vol                       =   9.5121673331316E+10
(PID.TID 0000.0001) %MON vort_r_min                   =   0.0000000000000E+00
(PID.TID 0000.0001) %MON vort_r_max                   =   0.0000000000000E+00
(PID.TID 0000.0001) %MON vort_a_mean                  =                   NaN
(PID.TID 0000.0001) %MON vort_a_sd                    =                   NaN
(PID.TID 0000.0001) %MON vort_p_mean                  =                   NaN
(PID.TID 0000.0001) %MON vort_p_sd                    =   0.0000000000000E+00
(PID.TID 0000.0001) %MON surfExpan_theta_mean         =                   NaN
(PID.TID 0000.0001) %MON surfExpan_salt_mean          =                   NaN
(PID.TID 0000.0001) // =======================================================
(PID.TID 0000.0001) // End MONITOR dynamic field statistics
(PID.TID 0000.0001) // =======================================================
(PID.TID 0000.0001) // =======================================================
(PID.TID 0000.0001) // Begin OBCS MONITOR field statistics
(PID.TID 0000.0001) // =======================================================
(PID.TID 0000.0001) %MON obc_E_uVel_max               =   5.6028564143658E-01
(PID.TID 0000.0001) %MON obc_E_uVel_min               =   5.6028564143658E-01
(PID.TID 0000.0001) %MON obc_E_uVel_mean              =   5.6028564143658E-01
(PID.TID 0000.0001) %MON obc_E_uVel_sd                =   7.4505805969238E-09
(PID.TID 0000.0001) %MON obc_E_uVel_Int               =   5.6028564143658E+05
(PID.TID 0000.0001) %MON obc_W_uVel_max               =   5.6028564143658E-01
(PID.TID 0000.0001) %MON obc_W_uVel_min               =   5.6028564143658E-01
(PID.TID 0000.0001) %MON obc_W_uVel_mean              =   5.6028564143658E-01
(PID.TID 0000.0001) %MON obc_W_uVel_sd                =   7.4505805969238E-09
(PID.TID 0000.0001) %MON obc_W_uVel_Int               =   5.6028564143658E+05
(PID.TID 0000.0001) // =======================================================
(PID.TID 0000.0001) // End OBCS MONITOR field statistics
(PID.TID 0000.0001) // =======================================================
(PID.TID 0000.0001) %CHECKPOINT      7200 0000007200
(PID.TID 0000.0001)   Seconds in section "ALL                    [THE_MODEL_MAIN]":
(PID.TID 0000.0001)           User time:   261.94999999999999
(PID.TID 0000.0001)         System time:  0.40000000000000002
(PID.TID 0000.0001)     Wall clock time:   263.26519203186035
(PID.TID 0000.0001)          No. starts:           1
(PID.TID 0000.0001)           No. stops:           1
(PID.TID 0000.0001)   Seconds in section "INITIALISE_FIXED       [THE_MODEL_MAIN]":
(PID.TID 0000.0001)           User time:   4.0000000000000001E-002
(PID.TID 0000.0001)         System time:   0.0000000000000000
(PID.TID 0000.0001)     Wall clock time:   7.7106952667236328E-002
(PID.TID 0000.0001)          No. starts:           1
(PID.TID 0000.0001)           No. stops:           1
(PID.TID 0000.0001)   Seconds in section "THE_MAIN_LOOP          [THE_MODEL_MAIN]":
(PID.TID 0000.0001)           User time:   261.90999999999997
(PID.TID 0000.0001)         System time:  0.40000000000000002
(PID.TID 0000.0001)     Wall clock time:   263.18805384635925
(PID.TID 0000.0001)          No. starts:           1
(PID.TID 0000.0001)           No. stops:           1
(PID.TID 0000.0001)   Seconds in section "INITIALISE_VARIA    [THE_MAIN_LOOP]":
(PID.TID 0000.0001)           User time:   1.9999999999999997E-002
(PID.TID 0000.0001)         System time:   0.0000000000000000
(PID.TID 0000.0001)     Wall clock time:   2.8764009475708008E-002
(PID.TID 0000.0001)          No. starts:           1
(PID.TID 0000.0001)           No. stops:           1
(PID.TID 0000.0001)   Seconds in section "MAIN LOOP           [THE_MAIN_LOOP]":
(PID.TID 0000.0001)           User time:   261.88999999999999
(PID.TID 0000.0001)         System time:  0.40000000000000002
(PID.TID 0000.0001)     Wall clock time:   263.15925812721252
(PID.TID 0000.0001)          No. starts:           1
(PID.TID 0000.0001)           No. stops:           1
(PID.TID 0000.0001)   Seconds in section "MAIN_DO_LOOP        [THE_MAIN_LOOP]":
(PID.TID 0000.0001)           User time:   261.81999999999437
(PID.TID 0000.0001)         System time:  0.40000000000000047
(PID.TID 0000.0001)     Wall clock time:   263.09355330467224
(PID.TID 0000.0001)          No. starts:        7200
(PID.TID 0000.0001)           No. stops:        7200
(PID.TID 0000.0001)   Seconds in section "FORWARD_STEP        [MAIN_DO_LOOP]":
(PID.TID 0000.0001)           User time:   261.68999999999426
(PID.TID 0000.0001)         System time:  0.40000000000000047
(PID.TID 0000.0001)     Wall clock time:   262.95999407768250
(PID.TID 0000.0001)          No. starts:        7200
(PID.TID 0000.0001)           No. stops:        7200
(PID.TID 0000.0001)   Seconds in section "LOAD_FIELDS_DRIVER  [FORWARD_STEP]":
(PID.TID 0000.0001)           User time:  0.17999999999994998
(PID.TID 0000.0001)         System time:   0.0000000000000000
(PID.TID 0000.0001)     Wall clock time:  0.20157313346862793
(PID.TID 0000.0001)          No. starts:        7200
(PID.TID 0000.0001)           No. stops:        7200
(PID.TID 0000.0001)   Seconds in section "EXTERNAL_FLDS_LOAD [LOAD_FLDS_DRIVER]":
(PID.TID 0000.0001)           User time:   9.9999999999909051E-002
(PID.TID 0000.0001)         System time:   0.0000000000000000
(PID.TID 0000.0001)     Wall clock time:   6.7349433898925781E-002
(PID.TID 0000.0001)          No. starts:        7200
(PID.TID 0000.0001)           No. stops:        7200
(PID.TID 0000.0001)   Seconds in section "DO_ATMOSPHERIC_PHYS [FORWARD_STEP]":
(PID.TID 0000.0001)           User time:   6.9999999999936335E-002
(PID.TID 0000.0001)         System time:   0.0000000000000000
(PID.TID 0000.0001)     Wall clock time:   6.7079544067382812E-002
(PID.TID 0000.0001)          No. starts:        7200
(PID.TID 0000.0001)           No. stops:        7200
(PID.TID 0000.0001)   Seconds in section "DO_OCEANIC_PHYS     [FORWARD_STEP]":
(PID.TID 0000.0001)           User time:   67.389999999982820
(PID.TID 0000.0001)         System time:  0.12000000000000000
(PID.TID 0000.0001)     Wall clock time:   67.644023418426514
(PID.TID 0000.0001)          No. starts:        7200
(PID.TID 0000.0001)           No. stops:        7200
(PID.TID 0000.0001)   Seconds in section "DYNAMICS            [FORWARD_STEP]":
(PID.TID 0000.0001)           User time:   89.409999999985871
(PID.TID 0000.0001)         System time:   9.0000000000000080E-002
(PID.TID 0000.0001)     Wall clock time:   89.464715003967285
(PID.TID 0000.0001)          No. starts:        7200
(PID.TID 0000.0001)           No. stops:        7200
(PID.TID 0000.0001)   Seconds in section "SOLVE_FOR_PRESSURE  [FORWARD_STEP]":
(PID.TID 0000.0001)           User time:   13.949999999995555
(PID.TID 0000.0001)         System time:   3.0000000000000027E-002
(PID.TID 0000.0001)     Wall clock time:   14.294053316116333
(PID.TID 0000.0001)          No. starts:        7200
(PID.TID 0000.0001)           No. stops:        7200
(PID.TID 0000.0001)   Seconds in section "MOM_CORRECTION_STEP [FORWARD_STEP]":
(PID.TID 0000.0001)           User time:   2.9799999999983129
(PID.TID 0000.0001)         System time:   0.0000000000000000
(PID.TID 0000.0001)     Wall clock time:   3.2717854976654053
(PID.TID 0000.0001)          No. starts:        7200
(PID.TID 0000.0001)           No. stops:        7200
(PID.TID 0000.0001)   Seconds in section "INTEGR_CONTINUITY   [FORWARD_STEP]":
(PID.TID 0000.0001)           User time:   1.6399999999992474
(PID.TID 0000.0001)         System time:   0.0000000000000000
(PID.TID 0000.0001)     Wall clock time:   1.6358857154846191
(PID.TID 0000.0001)          No. starts:        7200
(PID.TID 0000.0001)           No. stops:        7200
(PID.TID 0000.0001)   Seconds in section "BLOCKING_EXCHANGES  [FORWARD_STEP]":
(PID.TID 0000.0001)           User time:   8.9399999999915849
(PID.TID 0000.0001)         System time:   1.0000000000000009E-002
(PID.TID 0000.0001)     Wall clock time:   8.6412150859832764
(PID.TID 0000.0001)          No. starts:       14400
(PID.TID 0000.0001)           No. stops:       14400
(PID.TID 0000.0001)   Seconds in section "THERMODYNAMICS      [FORWARD_STEP]":
(PID.TID 0000.0001)           User time:   75.359999999983529
(PID.TID 0000.0001)         System time:   8.0000000000000016E-002
(PID.TID 0000.0001)     Wall clock time:   75.302874088287354
(PID.TID 0000.0001)          No. starts:        7200
(PID.TID 0000.0001)           No. stops:        7200
(PID.TID 0000.0001)   Seconds in section "TRC_CORRECTION_STEP [FORWARD_STEP]":
(PID.TID 0000.0001)           User time:   5.9999999999945430E-002
(PID.TID 0000.0001)         System time:   0.0000000000000000
(PID.TID 0000.0001)     Wall clock time:   6.8252563476562500E-002
(PID.TID 0000.0001)          No. starts:        7200
(PID.TID 0000.0001)           No. stops:        7200
(PID.TID 0000.0001)   Seconds in section "MONITOR             [FORWARD_STEP]":
(PID.TID 0000.0001)           User time:   8.9999999999918145E-002
(PID.TID 0000.0001)         System time:   0.0000000000000000
(PID.TID 0000.0001)     Wall clock time:  0.14165019989013672
(PID.TID 0000.0001)          No. starts:        7200
(PID.TID 0000.0001)           No. stops:        7200
(PID.TID 0000.0001)   Seconds in section "DO_THE_MODEL_IO     [FORWARD_STEP]":
(PID.TID 0000.0001)           User time:  0.24000000000000909
(PID.TID 0000.0001)         System time:   5.0000000000000044E-002
(PID.TID 0000.0001)     Wall clock time:   1.0137112140655518
(PID.TID 0000.0001)          No. starts:        7200
(PID.TID 0000.0001)           No. stops:        7200
(PID.TID 0000.0001)   Seconds in section "DO_WRITE_PICKUP     [FORWARD_STEP]":
(PID.TID 0000.0001)           User time:  0.13000000000010914
(PID.TID 0000.0001)         System time:   2.0000000000000018E-002
(PID.TID 0000.0001)     Wall clock time:  0.18987941741943359
(PID.TID 0000.0001)          No. starts:        7200
(PID.TID 0000.0001)           No. stops:        7200
(PID.TID 0000.0001) // ======================================================
(PID.TID 0000.0001) // Tile <-> Tile communication statistics
(PID.TID 0000.0001) // ======================================================
(PID.TID 0000.0001) // o Tile number: 000001
(PID.TID 0000.0001) //         No. X exchanges =              0
(PID.TID 0000.0001) //            Max. X spins =              0
(PID.TID 0000.0001) //            Min. X spins =     1000000000
(PID.TID 0000.0001) //          Total. X spins =              0
(PID.TID 0000.0001) //            Avg. X spins =       0.00E+00
(PID.TID 0000.0001) //         No. Y exchanges =              0
(PID.TID 0000.0001) //            Max. Y spins =              0
(PID.TID 0000.0001) //            Min. Y spins =     1000000000
(PID.TID 0000.0001) //          Total. Y spins =              0
(PID.TID 0000.0001) //            Avg. Y spins =       0.00E+00
(PID.TID 0000.0001) // o Thread number: 000001
(PID.TID 0000.0001) //            No. barriers =       23849814
(PID.TID 0000.0001) //      Max. barrier spins =              1
(PID.TID 0000.0001) //      Min. barrier spins =              1
(PID.TID 0000.0001) //     Total barrier spins =       23849814
(PID.TID 0000.0001) //      Avg. barrier spins =       1.00E+00
PROGRAM MAIN: Execution ended Normally
