(PID.TID 0000.0001) 
(PID.TID 0000.0001) // ======================================================
(PID.TID 0000.0001) //                      MITgcm UV
(PID.TID 0000.0001) //                      =========
(PID.TID 0000.0001) // ======================================================
(PID.TID 0000.0001) // execution environment starting up...
(PID.TID 0000.0001) 
(PID.TID 0000.0001) // MITgcmUV version:  checkpoint65d
(PID.TID 0000.0001) // Build user:        hugke729
(PID.TID 0000.0001) // Build host:        hugke729
(PID.TID 0000.0001) // Build date:        Mon Apr 10 14:21:54 PDT 2017
(PID.TID 0000.0001) 
(PID.TID 0000.0001) // =======================================================
(PID.TID 0000.0001) // Execution Environment parameter file "eedata"
(PID.TID 0000.0001) // =======================================================
(PID.TID 0000.0001) ># Example "eedata" file
(PID.TID 0000.0001) ># Lines beginning "#" are comments
(PID.TID 0000.0001) ># nTx - No. threads per process in X
(PID.TID 0000.0001) ># nTy - No. threads per process in Y
(PID.TID 0000.0001) > &EEPARMS
(PID.TID 0000.0001) > /
(PID.TID 0000.0001) ># Note: Some systems use & as the
(PID.TID 0000.0001) ># namelist terminator. Other systems
(PID.TID 0000.0001) ># use a / character (as shown here).
(PID.TID 0000.0001) 
(PID.TID 0000.0001) // =======================================================
(PID.TID 0000.0001) // Computational Grid Specification ( see files "SIZE.h" )
(PID.TID 0000.0001) //                                  ( and "eedata"       )
(PID.TID 0000.0001) // =======================================================
(PID.TID 0000.0001)      nPx =    1 ; /* No. processes in X */
(PID.TID 0000.0001)      nPy =    1 ; /* No. processes in Y */
(PID.TID 0000.0001)      nSx =    1 ; /* No. tiles in X per process */
(PID.TID 0000.0001)      nSy =    1 ; /* No. tiles in Y per process */
(PID.TID 0000.0001)      sNx =  200 ; /* Tile size in X */
(PID.TID 0000.0001)      sNy =    1 ; /* Tile size in Y */
(PID.TID 0000.0001)      OLx =    2 ; /* Tile overlap distance in X */
(PID.TID 0000.0001)      OLy =    2 ; /* Tile overlap distance in Y */
(PID.TID 0000.0001)      nTx =    1 ; /* No. threads in X per process */
(PID.TID 0000.0001)      nTy =    1 ; /* No. threads in Y per process */
(PID.TID 0000.0001)       Nr =  100 ; /* No. levels in the vertical   */
(PID.TID 0000.0001)       Nx =  200 ; /* Total domain size in X ( = nPx*nSx*sNx ) */
(PID.TID 0000.0001)       Ny =    1 ; /* Total domain size in Y ( = nPy*nSy*sNy ) */
(PID.TID 0000.0001)   nTiles =    1 ; /* Total no. tiles per process ( = nSx*nSy ) */
(PID.TID 0000.0001)   nProcs =    1 ; /* Total no. processes ( = nPx*nPy ) */
(PID.TID 0000.0001) nThreads =    1 ; /* Total no. threads per process ( = nTx*nTy ) */
(PID.TID 0000.0001) usingMPI =    F ; /* Flag used to control whether MPI is in use */
(PID.TID 0000.0001)                   /*  note: To execute a program with MPI calls */
(PID.TID 0000.0001)                   /*  it must be launched appropriately e.g     */
(PID.TID 0000.0001)                   /*  "mpirun -np 64 ......"                    */
(PID.TID 0000.0001) useCoupler=    F ;/* Flag used to control communications with   */
(PID.TID 0000.0001)                   /*  other model components, through a coupler */
(PID.TID 0000.0001) debugMode =    F ; /* print debug msg. (sequence of S/R calls)  */
(PID.TID 0000.0001) printMapIncludesZeros=    F ; /* print zeros in Std.Output maps */
(PID.TID 0000.0001) maxLengthPrt1D=   65 /* maxLength of 1D array printed to StdOut */
(PID.TID 0000.0001) 
(PID.TID 0000.0001) // ======================================================
(PID.TID 0000.0001) // Mapping of tiles to threads
(PID.TID 0000.0001) // ======================================================
(PID.TID 0000.0001) // -o- Thread   1, tiles (   1:   1,   1:   1)
(PID.TID 0000.0001) 
(PID.TID 0000.0001) // ======================================================
(PID.TID 0000.0001) // Tile <-> Tile connectvity table
(PID.TID 0000.0001) // ======================================================
(PID.TID 0000.0001) // Tile number: 000001 (process no. = 000000)
(PID.TID 0000.0001) //        WEST: Tile = 000001, Process = 000000, Comm = put
(PID.TID 0000.0001) //                bi = 000001, bj = 000001
(PID.TID 0000.0001) //        EAST: Tile = 000001, Process = 000000, Comm = put
(PID.TID 0000.0001) //                bi = 000001, bj = 000001
(PID.TID 0000.0001) //       SOUTH: Tile = 000001, Process = 000000, Comm = put
(PID.TID 0000.0001) //                bi = 000001, bj = 000001
(PID.TID 0000.0001) //       NORTH: Tile = 000001, Process = 000000, Comm = put
(PID.TID 0000.0001) //                bi = 000001, bj = 000001
(PID.TID 0000.0001) 
(PID.TID 0000.0001)  INI_PARMS: opening model parameter file "data"
(PID.TID 0000.0001)  OPEN_COPY_DATA_FILE: opening file data
(PID.TID 0000.0001) // =======================================================
(PID.TID 0000.0001) // Parameter file "data"
(PID.TID 0000.0001) // =======================================================
(PID.TID 0000.0001) ># ====================
(PID.TID 0000.0001) ># | Model parameters |
(PID.TID 0000.0001) ># ====================
(PID.TID 0000.0001) >#
(PID.TID 0000.0001) ># See src/ini_parms.F for possible parameters.
(PID.TID 0000.0001) >#
(PID.TID 0000.0001) ># Continuous equation parameters
(PID.TID 0000.0001) > &PARM01
(PID.TID 0000.0001) > tRefFile='Tref.bin'
(PID.TID 0000.0001) > sRef= 25*35.,
(PID.TID 0000.0001) > viscAz=1.E-5,
(PID.TID 0000.0001) > viscAh=1.E-4,
(PID.TID 0000.0001) > no_slip_sides=.FALSE.,
(PID.TID 0000.0001) > no_slip_bottom=.FALSE.,
(PID.TID 0000.0001) > viscA4=0.E12,
(PID.TID 0000.0001) > diffKhT=1.E-4,
(PID.TID 0000.0001) > diffKzT=1.E-5,
(PID.TID 0000.0001) > diffKhS=1.E3,
(PID.TID 0000.0001) > diffKzS=1.E-5,
(PID.TID 0000.0001) > f0=0.E-4,
(PID.TID 0000.0001) > beta=0.0E-11,
(PID.TID 0000.0001) > tAlpha=2.E-4,
(PID.TID 0000.0001) > sBeta =0.E-4,
(PID.TID 0000.0001) > gravity=9.81,
(PID.TID 0000.0001) > gBaro=9.81,
(PID.TID 0000.0001) > rigidLid=.FALSE.,
(PID.TID 0000.0001) > implicitFreeSurface=.TRUE.,
(PID.TID 0000.0001) > eosType='LINEAR',
(PID.TID 0000.0001) > nonHydrostatic=.FALSE.,
(PID.TID 0000.0001) > readBinaryPrec=64,
(PID.TID 0000.0001) > useSingleCpuIO=.TRUE.
(PID.TID 0000.0001) > writeBinaryPrec=64,
(PID.TID 0000.0001) > writeStatePrec=64,
(PID.TID 0000.0001) > saltStepping=.FALSE.,
(PID.TID 0000.0001) ># minimum cell fraction.  This reduces steppiness..
(PID.TID 0000.0001) >  hFacMin=0.1,
(PID.TID 0000.0001) >  exactConserv=.FALSE.,
(PID.TID 0000.0001) >  implicitDiffusion=.TRUE.
(PID.TID 0000.0001) >  implicitViscosity=.TRUE.
(PID.TID 0000.0001) ># Superbee on:
(PID.TID 0000.0001) > tempAdvScheme=77,
(PID.TID 0000.0001) > staggerTimeStep=.TRUE.,
(PID.TID 0000.0001) >/
(PID.TID 0000.0001) >
(PID.TID 0000.0001) ># Elliptic solver parameters
(PID.TID 0000.0001) > &PARM02
(PID.TID 0000.0001) > cg2dMaxIters=1000,
(PID.TID 0000.0001) > cg2dTargetResidual=1.E-13,
(PID.TID 0000.0001) > cg3dMaxIters=400,
(PID.TID 0000.0001) > cg3dTargetResidual=1.E-13,
(PID.TID 0000.0001) >/
(PID.TID 0000.0001) >
(PID.TID 0000.0001) ># Time stepping parameters
(PID.TID 0000.0001) > &PARM03
(PID.TID 0000.0001) > niter0=0,
(PID.TID 0000.0001) ># times are in s
(PID.TID 0000.0001) > startTime=0,
(PID.TID 0000.0001) > endTime=108000,
(PID.TID 0000.0001) > deltaT=15,
(PID.TID 0000.0001) > abEps=0.1,
(PID.TID 0000.0001) ># once per tide checkpoint...
(PID.TID 0000.0001) > pChkptFreq=21600,
(PID.TID 0000.0001) > chkptFreq=0.0,
(PID.TID 0000.0001) > dumpFreq=7200,
(PID.TID 0000.0001) > monitorFreq=7200,
(PID.TID 0000.0001) ># Forcing for boundary condition files
(PID.TID 0000.0001) > periodicExternalForcing=.FALSE.,
(PID.TID 0000.0001) >/
(PID.TID 0000.0001) >
(PID.TID 0000.0001) ># Gridding parameters
(PID.TID 0000.0001) > &PARM04
(PID.TID 0000.0001) > usingCartesianGrid=.TRUE.,
(PID.TID 0000.0001) > usingSphericalPolarGrid=.FALSE.,
(PID.TID 0000.0001) > delXfile='delXvar.bin',
(PID.TID 0000.0001) > delY=5.e3,
(PID.TID 0000.0001) > delRfile = 'delZvar.bin',
(PID.TID 0000.0001) >/
(PID.TID 0000.0001) >
(PID.TID 0000.0001) ># Input datasets
(PID.TID 0000.0001) > &PARM05
(PID.TID 0000.0001) > bathyFile='topo.bin',
(PID.TID 0000.0001) > hydrogThetaFile='T0.bin',
(PID.TID 0000.0001) > checkIniTemp=.FALSE.,
(PID.TID 0000.0001) > uVelInitFile='U0.bin',
(PID.TID 0000.0001) > /
(PID.TID 0000.0001) 
(PID.TID 0000.0001)  INI_PARMS ; starts to read PARM01
(PID.TID 0000.0001)  INI_PARMS ; read PARM01 : OK
(PID.TID 0000.0001)  INI_PARMS ; starts to read PARM02
(PID.TID 0000.0001)  INI_PARMS ; read PARM02 : OK
(PID.TID 0000.0001)  INI_PARMS ; starts to read PARM03
(PID.TID 0000.0001)  INI_PARMS ; read PARM03 : OK
(PID.TID 0000.0001)  INI_PARMS ; starts to read PARM04
(PID.TID 0000.0001)  INI_PARMS ; read PARM04 : OK
(PID.TID 0000.0001)  INI_PARMS ; starts to read PARM05
(PID.TID 0000.0001)  INI_PARMS ; read PARM05 : OK
(PID.TID 0000.0001)  INI_PARMS: finished reading file "data"
(PID.TID 0000.0001)  PACKAGES_BOOT: opening data.pkg
(PID.TID 0000.0001)  OPEN_COPY_DATA_FILE: opening file data.pkg
(PID.TID 0000.0001) // =======================================================
(PID.TID 0000.0001) // Parameter file "data.pkg"
(PID.TID 0000.0001) // =======================================================
(PID.TID 0000.0001) ># Packages
(PID.TID 0000.0001) > &PACKAGES
(PID.TID 0000.0001) > useOBCS=.TRUE.,
(PID.TID 0000.0001) > useKL10=.TRUE.,
(PID.TID 0000.0001) > useDIAGNOSTICS=.FALSE.,
(PID.TID 0000.0001) > useMNC=.FALSE.,
(PID.TID 0000.0001) > /
(PID.TID 0000.0001) 
(PID.TID 0000.0001)  PACKAGES_BOOT: finished reading data.pkg
(PID.TID 0000.0001)  PACKAGES_BOOT: On/Off package Summary
 --------  pkgs with a standard "usePKG" On/Off switch in "data.pkg":  --------
 pkg/obcs                 compiled   and   used ( useOBCS                  = T )
 pkg/kl10                 compiled   and   used ( useKL10                  = T )
 -------- pkgs without standard "usePKG" On/Off switch in "data.pkg":  --------
 pkg/generic_advdiff      compiled   and   used ( useGAD                   = T )
 pkg/mom_common           compiled   and   used ( momStepping              = T )
 pkg/mom_vecinv           compiled but not used ( +vectorInvariantMomentum = F )
 pkg/mom_fluxform         compiled   and   used ( & not vectorInvariantMom = T )
 pkg/monitor              compiled   and   used ( monitorFreq > 0.         = T )
 pkg/debug                compiled but not used ( debugMode                = F )
 pkg/rw                   compiled   and   used
 pkg/mdsio                compiled   and   used
(PID.TID 0000.0001)  PACKAGES_BOOT: End of package Summary
(PID.TID 0000.0001) 
(PID.TID 0000.0001)  OBCS_READPARMS: opening data.obcs
(PID.TID 0000.0001)  OPEN_COPY_DATA_FILE: opening file data.obcs
(PID.TID 0000.0001) // =======================================================
(PID.TID 0000.0001) // Parameter file "data.obcs"
(PID.TID 0000.0001) // =======================================================
(PID.TID 0000.0001) ># Open-boundaries
(PID.TID 0000.0001) > &OBCS_PARM01
(PID.TID 0000.0001) > OB_Iwest=1*1,
(PID.TID 0000.0001) > OB_Ieast=1*-1,
(PID.TID 0000.0001) > OB_Jnorth=100*0,
(PID.TID 0000.0001) > OB_Jsouth=100*0,
(PID.TID 0000.0001) > useOBCSsponge=.TRUE.,
(PID.TID 0000.0001) > OBEuFile='U_in.bin',
(PID.TID 0000.0001) > OBWuFile='U_in.bin',
(PID.TID 0000.0001) > OBEtFile='TE.bin',
(PID.TID 0000.0001) > OBWtFile='TW.bin',
(PID.TID 0000.0001) > useOBCSprescribe=.TRUE.,
(PID.TID 0000.0001) > /
(PID.TID 0000.0001) >
(PID.TID 0000.0001) ># Orlanski parameters
(PID.TID 0000.0001) > &OBCS_PARM02
(PID.TID 0000.0001) >/
(PID.TID 0000.0001) >
(PID.TID 0000.0001) ># Sponge layer parameters
(PID.TID 0000.0001) > &OBCS_PARM03
(PID.TID 0000.0001) > Urelaxobcsinner=1000.,
(PID.TID 0000.0001) > Urelaxobcsbound=100.,
(PID.TID 0000.0001) > Vrelaxobcsinner=1000.0,
(PID.TID 0000.0001) > Vrelaxobcsbound=100.0,
(PID.TID 0000.0001) > spongeThickness=10,
(PID.TID 0000.0001) > /
(PID.TID 0000.0001) 
(PID.TID 0000.0001)  OBCS_READPARMS: finished reading data.obcs
(PID.TID 0000.0001)  OB_indexUnset = /* unset OB index value (i.e. no OB) */
(PID.TID 0000.0001)                       0
(PID.TID 0000.0001)     ;
(PID.TID 0000.0001)  Northern OB global indices : OB_Jnorth =
(PID.TID 0000.0001)   200 @        0                            /* I =  1:200 */
(PID.TID 0000.0001)  Southern OB global indices : OB_Jsouth =
(PID.TID 0000.0001)   200 @        0                            /* I =  1:200 */
(PID.TID 0000.0001)  Eastern  OB global indices : OB_Ieast =
(PID.TID 0000.0001)                     200                     /* J =  1 */
(PID.TID 0000.0001)  Western  OB global indices : OB_Iwest =
(PID.TID 0000.0001)                       1                     /* J =  1 */
(PID.TID 0000.0001) 
(PID.TID 0000.0001)  KL10_READPARMS: opening data.kl10
(PID.TID 0000.0001)  OPEN_COPY_DATA_FILE: opening file data.kl10
(PID.TID 0000.0001) // =======================================================
(PID.TID 0000.0001) // Parameter file "data.kl10"
(PID.TID 0000.0001) // =======================================================
(PID.TID 0000.0001) ># =====================================================================
(PID.TID 0000.0001) ># | Parameters for Klymak and Legg (2010) vertical mixing scheme      |
(PID.TID 0000.0001) ># =====================================================================
(PID.TID 0000.0001) > &KL10_PARM01
(PID.TID 0000.0001) > KLwriteState=.TRUE.,
(PID.TID 0000.0001) >/
(PID.TID 0000.0001) 
(PID.TID 0000.0001)  KL10_READPARMS: finished reading data.kl10
(PID.TID 0000.0001) SET_PARMS: done
(PID.TID 0000.0001)  MDS_READVEC_LOC: open file: delXvar.bin
(PID.TID 0000.0001) S/R LOAD_GRID_SPACING: delX loaded from file: delXvar.bin
(PID.TID 0000.0001)  MDS_READVEC_LOC: open file: delZvar.bin
(PID.TID 0000.0001) S/R LOAD_GRID_SPACING: delR loaded from file: delZvar.bin
(PID.TID 0000.0001) Enter INI_VERTICAL_GRID: setInterFDr=    T ; setCenterDr=    F
(PID.TID 0000.0001) %MON XC_max                       =   9.9471849328752E+04
(PID.TID 0000.0001) %MON XC_min                       =   6.3164731900833E+02
(PID.TID 0000.0001) %MON XC_mean                      =   5.2906107272275E+04
(PID.TID 0000.0001) %MON XC_sd                        =   2.2139310392762E+04
(PID.TID 0000.0001) %MON XG_max                       =   9.8943698657505E+04
(PID.TID 0000.0001) %MON XG_min                       =   0.0000000000000E+00
(PID.TID 0000.0001) %MON XG_mean                      =   5.2656107272275E+04
(PID.TID 0000.0001) %MON XG_sd                        =   2.2172561685063E+04
(PID.TID 0000.0001) %MON DXC_max                      =   1.2503953509116E+03
(PID.TID 0000.0001) %MON DXC_min                      =   2.0000000000000E+02
(PID.TID 0000.0001) %MON DXC_mean                     =   5.0000000000000E+02
(PID.TID 0000.0001) %MON DXC_sd                       =   2.8531736750525E+02
(PID.TID 0000.0001) %MON DXF_max                      =   1.2632946380167E+03
(PID.TID 0000.0001) %MON DXF_min                      =   2.0000000000000E+02
(PID.TID 0000.0001) %MON DXF_mean                     =   5.0000000000000E+02
(PID.TID 0000.0001) %MON DXF_sd                       =   2.8547066202794E+02
(PID.TID 0000.0001) %MON DXG_max                      =   1.2632946380167E+03
(PID.TID 0000.0001) %MON DXG_min                      =   2.0000000000000E+02
(PID.TID 0000.0001) %MON DXG_mean                     =   5.0000000000000E+02
(PID.TID 0000.0001) %MON DXG_sd                       =   2.8547066202794E+02
(PID.TID 0000.0001) %MON DXV_max                      =   1.2503953509116E+03
(PID.TID 0000.0001) %MON DXV_min                      =   2.0000000000000E+02
(PID.TID 0000.0001) %MON DXV_mean                     =   5.0000000000000E+02
(PID.TID 0000.0001) %MON DXV_sd                       =   2.8531736750525E+02
(PID.TID 0000.0001) %MON YC_max                       =   2.5000000000000E+03
(PID.TID 0000.0001) %MON YC_min                       =   2.5000000000000E+03
(PID.TID 0000.0001) %MON YC_mean                      =   2.5000000000000E+03
(PID.TID 0000.0001) %MON YC_sd                        =   0.0000000000000E+00
(PID.TID 0000.0001) %MON YG_max                       =   0.0000000000000E+00
(PID.TID 0000.0001) %MON YG_min                       =   0.0000000000000E+00
(PID.TID 0000.0001) %MON YG_mean                      =   0.0000000000000E+00
(PID.TID 0000.0001) %MON YG_sd                        =   0.0000000000000E+00
(PID.TID 0000.0001) %MON DYC_max                      =   5.0000000000000E+03
(PID.TID 0000.0001) %MON DYC_min                      =   5.0000000000000E+03
(PID.TID 0000.0001) %MON DYC_mean                     =   5.0000000000000E+03
(PID.TID 0000.0001) %MON DYC_sd                       =   0.0000000000000E+00
(PID.TID 0000.0001) %MON DYF_max                      =   5.0000000000000E+03
(PID.TID 0000.0001) %MON DYF_min                      =   5.0000000000000E+03
(PID.TID 0000.0001) %MON DYF_mean                     =   5.0000000000000E+03
(PID.TID 0000.0001) %MON DYF_sd                       =   0.0000000000000E+00
(PID.TID 0000.0001) %MON DYG_max                      =   5.0000000000000E+03
(PID.TID 0000.0001) %MON DYG_min                      =   5.0000000000000E+03
(PID.TID 0000.0001) %MON DYG_mean                     =   5.0000000000000E+03
(PID.TID 0000.0001) %MON DYG_sd                       =   0.0000000000000E+00
(PID.TID 0000.0001) %MON DYU_max                      =   5.0000000000000E+03
(PID.TID 0000.0001) %MON DYU_min                      =   5.0000000000000E+03
(PID.TID 0000.0001) %MON DYU_mean                     =   5.0000000000000E+03
(PID.TID 0000.0001) %MON DYU_sd                       =   0.0000000000000E+00
(PID.TID 0000.0001) %MON RA_max                       =   6.3164731900833E+06
(PID.TID 0000.0001) %MON RA_min                       =   1.0000000000000E+06
(PID.TID 0000.0001) %MON RA_mean                      =   2.5000000000000E+06
(PID.TID 0000.0001) %MON RA_sd                        =   1.4273533101397E+06
(PID.TID 0000.0001) %MON RAW_max                      =   6.2519767545581E+06
(PID.TID 0000.0001) %MON RAW_min                      =   1.0000000000000E+06
(PID.TID 0000.0001) %MON RAW_mean                     =   2.5000000000000E+06
(PID.TID 0000.0001) %MON RAW_sd                       =   1.4265868375263E+06
(PID.TID 0000.0001) %MON RAS_max                      =   6.3164731900833E+06
(PID.TID 0000.0001) %MON RAS_min                      =   1.0000000000000E+06
(PID.TID 0000.0001) %MON RAS_mean                     =   2.5000000000000E+06
(PID.TID 0000.0001) %MON RAS_sd                       =   1.4273533101397E+06
(PID.TID 0000.0001) %MON RAZ_max                      =   6.2519767545581E+06
(PID.TID 0000.0001) %MON RAZ_min                      =   1.0000000000000E+06
(PID.TID 0000.0001) %MON RAZ_mean                     =   2.5000000000000E+06
(PID.TID 0000.0001) %MON RAZ_sd                       =   1.4265868375263E+06
(PID.TID 0000.0001) %MON AngleCS_max                  =   1.0000000000000E+00
(PID.TID 0000.0001) %MON AngleCS_min                  =   1.0000000000000E+00
(PID.TID 0000.0001) %MON AngleCS_mean                 =   1.0000000000000E+00
(PID.TID 0000.0001) %MON AngleCS_sd                   =   0.0000000000000E+00
(PID.TID 0000.0001) %MON AngleSN_max                  =   0.0000000000000E+00
(PID.TID 0000.0001) %MON AngleSN_min                  =   0.0000000000000E+00
(PID.TID 0000.0001) %MON AngleSN_mean                 =   0.0000000000000E+00
(PID.TID 0000.0001) %MON AngleSN_sd                   =   0.0000000000000E+00
(PID.TID 0000.0001)  MDS_READVEC_LOC: open file: Tref.bin
(PID.TID 0000.0001) S/R LOAD_REF_FILES: tRef loaded from file: Tref.bin
(PID.TID 0000.0001)  MDS_READ_FIELD: opening global file: topo.bin
(PID.TID 0000.0001) // =======================================================
(PID.TID 0000.0001) // Field Model R_low (ini_masks_etc)
(PID.TID 0000.0001) // CMIN =         -1.995096555355117E+02
(PID.TID 0000.0001) // CMAX =         -8.001666550931283E+01
(PID.TID 0000.0001) // CINT =          4.425666297266623E+00
(PID.TID 0000.0001) // SYMBOLS (CMIN->CMAX): -abcdefghijklmnopqrstuvwxyz+
(PID.TID 0000.0001) //                  0.0: .
(PID.TID 0000.0001) // RANGE I (Lo:Hi:Step):(    -1:   202:     1)
(PID.TID 0000.0001) // RANGE J (Lo:Hi:Step):(     3:    -1:    -1)
(PID.TID 0000.0001) // RANGE K (Lo:Hi:Step):(   1:   1:   1)
(PID.TID 0000.0001) // =======================================================
(PID.TID 0000.0001) K =   1
(PID.TID 0000.0001) //                I=8       I=18      I=28      I=38      I=48      I=58      I=68      I=78      I=88      I=98      I=108     I=118     I=128     I=138     I=148     I=158     I=168     I=178     I=188     I=198
(PID.TID 0000.0001) // |--J--|101234567|901234567|901234567|901234567|901234567|901234567|901234567|901234567|901234567|901234567|901234567|901234567|901234567|901234567|901234567|901234567|901234567|901234567|901234567|901234567|9012
(PID.TID 0000.0001) //      3 -------------------aaaaaaaaaaaabbbbbbcccccddddeeefffgghhhiijjkkllmmnnoppqqrrssttuuvvwwxxxyyyzzzz++++++++++++zzzzyyyxxxwwvvuuttssrrqqpponnmmllkkjjiihhhggfffeeeddddcccccbbbbbbaaaaaaaaaaaa-------------------
(PID.TID 0000.0001) //      2 -------------------aaaaaaaaaaaabbbbbbcccccddddeeefffgghhhiijjkkllmmnnoppqqrrssttuuvvwwxxxyyyzzzz++++++++++++zzzzyyyxxxwwvvuuttssrrqqpponnmmllkkjjiihhhggfffeeeddddcccccbbbbbbaaaaaaaaaaaa-------------------
(PID.TID 0000.0001) //      1 -------------------aaaaaaaaaaaabbbbbbcccccddddeeefffgghhhiijjkkllmmnnoppqqrrssttuuvvwwxxxyyyzzzz++++++++++++zzzzyyyxxxwwvvuuttssrrqqpponnmmllkkjjiihhhggfffeeeddddcccccbbbbbbaaaaaaaaaaaa-------------------
(PID.TID 0000.0001) //      0 -------------------aaaaaaaaaaaabbbbbbcccccddddeeefffgghhhiijjkkllmmnnoppqqrrssttuuvvwwxxxyyyzzzz++++++++++++zzzzyyyxxxwwvvuuttssrrqqpponnmmllkkjjiihhhggfffeeeddddcccccbbbbbbaaaaaaaaaaaa-------------------
(PID.TID 0000.0001) //     -1 -------------------aaaaaaaaaaaabbbbbbcccccddddeeefffgghhhiijjkkllmmnnoppqqrrssttuuvvwwxxxyyyzzzz++++++++++++zzzzyyyxxxwwvvuuttssrrqqpponnmmllkkjjiihhhggfffeeeddddcccccbbbbbbaaaaaaaaaaaa-------------------
(PID.TID 0000.0001) // =======================================================
(PID.TID 0000.0001) // END OF FIELD                                          =
(PID.TID 0000.0001) // =======================================================
(PID.TID 0000.0001) 
(PID.TID 0000.0001) // =======================================================
(PID.TID 0000.0001) // Field Model Ro_surf (ini_masks_etc)
(PID.TID 0000.0001) // CMIN =          7.105427357601002E-15
(PID.TID 0000.0001) // CMAX =          1.207922650792170E-13
(PID.TID 0000.0001) // CINT =          4.210623619319112E-15
(PID.TID 0000.0001) // SYMBOLS (CMIN->CMAX): -abcdefghijklmnopqrstuvwxyz+
(PID.TID 0000.0001) //                  0.0: .
(PID.TID 0000.0001) // RANGE I (Lo:Hi:Step):(    -1:   202:     1)
(PID.TID 0000.0001) // RANGE J (Lo:Hi:Step):(     3:    -1:    -1)
(PID.TID 0000.0001) // RANGE K (Lo:Hi:Step):(   1:   1:   1)
(PID.TID 0000.0001) // =======================================================
(PID.TID 0000.0001) K =   1
(PID.TID 0000.0001) //                I=8       I=18      I=28      I=38      I=48      I=58      I=68      I=78      I=88      I=98      I=108     I=118     I=128     I=138     I=148     I=158     I=168     I=178     I=188     I=198
(PID.TID 0000.0001) // |--J--|101234567|901234567|901234567|901234567|901234567|901234567|901234567|901234567|901234567|901234567|901234567|901234567|901234567|901234567|901234567|901234567|901234567|901234567|901234567|901234567|9012
(PID.TID 0000.0001) //      3 ++++++++++++++++++++++++++++nnnnnnnnnnnnnnnnnnnn-ggggg-g--gggg---gngggggccgggccccggccccccccccccccccccccccccccccccccccccccggccccgggccgggggng---gggg--g-ggggg-nnnnnnnnnnnnnnnnnnnn++++++++++++++++++++++++++++
(PID.TID 0000.0001) //      2 ++++++++++++++++++++++++++++nnnnnnnnnnnnnnnnnnnn-ggggg-g--gggg---gngggggccgggccccggccccccccccccccccccccccccccccccccccccccggccccgggccgggggng---gggg--g-ggggg-nnnnnnnnnnnnnnnnnnnn++++++++++++++++++++++++++++
(PID.TID 0000.0001) //      1 ++++++++++++++++++++++++++++nnnnnnnnnnnnnnnnnnnn-ggggg-g--gggg---gngggggccgggccccggccccccccccccccccccccccccccccccccccccccggccccgggccgggggng---gggg--g-ggggg-nnnnnnnnnnnnnnnnnnnn++++++++++++++++++++++++++++
(PID.TID 0000.0001) //      0 ++++++++++++++++++++++++++++nnnnnnnnnnnnnnnnnnnn-ggggg-g--gggg---gngggggccgggccccggccccccccccccccccccccccccccccccccccccccggccccgggccgggggng---gggg--g-ggggg-nnnnnnnnnnnnnnnnnnnn++++++++++++++++++++++++++++
(PID.TID 0000.0001) //     -1 ++++++++++++++++++++++++++++nnnnnnnnnnnnnnnnnnnn-ggggg-g--gggg---gngggggccgggccccggccccccccccccccccccccccccccccccccccccccggccccgggccgggggng---gggg--g-ggggg-nnnnnnnnnnnnnnnnnnnn++++++++++++++++++++++++++++
(PID.TID 0000.0001) // =======================================================
(PID.TID 0000.0001) // END OF FIELD                                          =
(PID.TID 0000.0001) // =======================================================
(PID.TID 0000.0001) 
(PID.TID 0000.0001) // =======================================================
(PID.TID 0000.0001) // Field hFacC at iteration          0
(PID.TID 0000.0001) // CMIN =          1.000000000000000E+00
(PID.TID 0000.0001) // CMAX =          1.000000000000000E+00
(PID.TID 0000.0001) // CINT =          0.000000000000000E+00
(PID.TID 0000.0001) // SYMBOLS (CMIN->CMAX): -abcdefghijklmnopqrstuvwxyz+
(PID.TID 0000.0001) //                  0.0: .
(PID.TID 0000.0001) // RANGE I (Lo:Hi:Step):(    -1:   202:     1)
(PID.TID 0000.0001) // RANGE J (Lo:Hi:Step):(     3:    -1:    -1)
(PID.TID 0000.0001) // RANGE K (Lo:Hi:Step):(   1:   1:   1)
(PID.TID 0000.0001) // =======================================================
(PID.TID 0000.0001) // =======================================================
(PID.TID 0000.0001) // END OF FIELD                                          =
(PID.TID 0000.0001) // =======================================================
(PID.TID 0000.0001) 
(PID.TID 0000.0001) // =======================================================
(PID.TID 0000.0001) // Field hFacW at iteration          0
(PID.TID 0000.0001) // CMIN =          1.000000000000000E+00
(PID.TID 0000.0001) // CMAX =          1.000000000000000E+00
(PID.TID 0000.0001) // CINT =          0.000000000000000E+00
(PID.TID 0000.0001) // SYMBOLS (CMIN->CMAX): -abcdefghijklmnopqrstuvwxyz+
(PID.TID 0000.0001) //                  0.0: .
(PID.TID 0000.0001) // RANGE I (Lo:Hi:Step):(    -1:   202:     1)
(PID.TID 0000.0001) // RANGE J (Lo:Hi:Step):(     3:    -1:    -1)
(PID.TID 0000.0001) // RANGE K (Lo:Hi:Step):(   1:   1:   1)
(PID.TID 0000.0001) // =======================================================
(PID.TID 0000.0001) // =======================================================
(PID.TID 0000.0001) // END OF FIELD                                          =
(PID.TID 0000.0001) // =======================================================
(PID.TID 0000.0001) 
(PID.TID 0000.0001) // =======================================================
(PID.TID 0000.0001) // Field hFacS at iteration          0
(PID.TID 0000.0001) // CMIN =          1.000000000000000E+00
(PID.TID 0000.0001) // CMAX =          1.000000000000000E+00
(PID.TID 0000.0001) // CINT =          0.000000000000000E+00
(PID.TID 0000.0001) // SYMBOLS (CMIN->CMAX): -abcdefghijklmnopqrstuvwxyz+
(PID.TID 0000.0001) //                  0.0: .
(PID.TID 0000.0001) // RANGE I (Lo:Hi:Step):(    -1:   202:     1)
(PID.TID 0000.0001) // RANGE J (Lo:Hi:Step):(     3:    -1:    -1)
(PID.TID 0000.0001) // RANGE K (Lo:Hi:Step):(   1:   1:   1)
(PID.TID 0000.0001) // =======================================================
(PID.TID 0000.0001) // =======================================================
(PID.TID 0000.0001) // END OF FIELD                                          =
(PID.TID 0000.0001) // =======================================================
(PID.TID 0000.0001) 
(PID.TID 0000.0001) GAD_INIT_FIXED: GAD_OlMinSize=  2  0  1
(PID.TID 0000.0001) 
(PID.TID 0000.0001) // ===================================
(PID.TID 0000.0001) // GAD parameters :
(PID.TID 0000.0001) // ===================================
(PID.TID 0000.0001) tempAdvScheme =   /* Temp. Horiz.Advection scheme selector */
(PID.TID 0000.0001)                      77
(PID.TID 0000.0001)     ;
(PID.TID 0000.0001) tempVertAdvScheme =   /* Temp. Vert. Advection scheme selector */
(PID.TID 0000.0001)                      77
(PID.TID 0000.0001)     ;
(PID.TID 0000.0001) tempMultiDimAdvec =   /* use Muti-Dim Advec method for Temp */
(PID.TID 0000.0001)                   T
(PID.TID 0000.0001)     ;
(PID.TID 0000.0001) tempSOM_Advection = /* use 2nd Order Moment Advection for Temp */
(PID.TID 0000.0001)                   F
(PID.TID 0000.0001)     ;
(PID.TID 0000.0001) AdamsBashforthGt = /* apply Adams-Bashforth extrapolation on Gt */
(PID.TID 0000.0001)                   F
(PID.TID 0000.0001)     ;
(PID.TID 0000.0001) AdamsBashforth_T = /* apply Adams-Bashforth extrapolation on Temp */
(PID.TID 0000.0001)                   F
(PID.TID 0000.0001)     ;
(PID.TID 0000.0001) saltAdvScheme =   /* Salt. Horiz.advection scheme selector */
(PID.TID 0000.0001)                       2
(PID.TID 0000.0001)     ;
(PID.TID 0000.0001) saltVertAdvScheme =   /* Salt. Vert. Advection scheme selector */
(PID.TID 0000.0001)                       2
(PID.TID 0000.0001)     ;
(PID.TID 0000.0001) saltMultiDimAdvec =   /* use Muti-Dim Advec method for Salt */
(PID.TID 0000.0001)                   F
(PID.TID 0000.0001)     ;
(PID.TID 0000.0001) saltSOM_Advection = /* use 2nd Order Moment Advection for Salt */
(PID.TID 0000.0001)                   F
(PID.TID 0000.0001)     ;
(PID.TID 0000.0001) AdamsBashforthGs = /* apply Adams-Bashforth extrapolation on Gs */
(PID.TID 0000.0001)                   F
(PID.TID 0000.0001)     ;
(PID.TID 0000.0001) AdamsBashforth_S = /* apply Adams-Bashforth extrapolation on Salt */
(PID.TID 0000.0001)                   F
(PID.TID 0000.0001)     ;
(PID.TID 0000.0001) // ===================================
(PID.TID 0000.0001) %MON fCori_max                    =   0.0000000000000E+00
(PID.TID 0000.0001) %MON fCori_min                    =   0.0000000000000E+00
(PID.TID 0000.0001) %MON fCori_mean                   =   0.0000000000000E+00
(PID.TID 0000.0001) %MON fCori_sd                     =   0.0000000000000E+00
(PID.TID 0000.0001) %MON fCoriG_max                   =   0.0000000000000E+00
(PID.TID 0000.0001) %MON fCoriG_min                   =   0.0000000000000E+00
(PID.TID 0000.0001) %MON fCoriG_mean                  =   0.0000000000000E+00
(PID.TID 0000.0001) %MON fCoriG_sd                    =   0.0000000000000E+00
(PID.TID 0000.0001) %MON fCoriCos_max                 =   0.0000000000000E+00
(PID.TID 0000.0001) %MON fCoriCos_min                 =   0.0000000000000E+00
(PID.TID 0000.0001) %MON fCoriCos_mean                =   0.0000000000000E+00
(PID.TID 0000.0001) %MON fCoriCos_sd                  =   0.0000000000000E+00
(PID.TID 0000.0001) INI_CG2D: CG2D normalisation factor =  3.9831516982040139E-04
(PID.TID 0000.0001) 
(PID.TID 0000.0001) // =======================================================
(PID.TID 0000.0001) // Model configuration
(PID.TID 0000.0001) // =======================================================
(PID.TID 0000.0001) //
(PID.TID 0000.0001) // "Physical" paramters ( PARM01 in namelist )
(PID.TID 0000.0001) //
(PID.TID 0000.0001) buoyancyRelation = /* Type of relation to get Buoyancy */
(PID.TID 0000.0001)               'OCEANIC'
(PID.TID 0000.0001)     ;
(PID.TID 0000.0001) fluidIsAir   =  /* fluid major constituent is Air */
(PID.TID 0000.0001)                   F
(PID.TID 0000.0001)     ;
(PID.TID 0000.0001) fluidIsWater =  /* fluid major constituent is Water */
(PID.TID 0000.0001)                   T
(PID.TID 0000.0001)     ;
(PID.TID 0000.0001) usingPCoords =  /* use p (or p*) vertical coordinate */
(PID.TID 0000.0001)                   F
(PID.TID 0000.0001)     ;
(PID.TID 0000.0001) usingZCoords =  /* use z (or z*) vertical coordinate */
(PID.TID 0000.0001)                   T
(PID.TID 0000.0001)     ;
(PID.TID 0000.0001) tRef =   /* Reference temperature profile ( oC or K ) */
(PID.TID 0000.0001)                 1.497650238565370E+01,      /* K =  1 */
(PID.TID 0000.0001)                 1.470721590167325E+01,      /* K =  2 */
(PID.TID 0000.0001)                 1.349735867339025E+01,      /* K =  3 */
(PID.TID 0000.0001)                 1.150264132660976E+01,      /* K =  4 */
(PID.TID 0000.0001)                 1.029278409832675E+01,      /* K =  5 */
(PID.TID 0000.0001)                 1.002282846122323E+01,      /* K =  6 */
(PID.TID 0000.0001)                 1.000066915312308E+01,      /* K =  7 */
(PID.TID 0000.0001)    93 @  1.000000000000000E+01              /* K =  8:100 */
(PID.TID 0000.0001)     ;
(PID.TID 0000.0001) sRef =   /* Reference salinity profile ( psu ) */
(PID.TID 0000.0001)   100 @  3.500000000000000E+01              /* K =  1:100 */
(PID.TID 0000.0001)     ;
(PID.TID 0000.0001) useStrainTensionVisc= /* Use StrainTension Form of Viscous Operator */
(PID.TID 0000.0001)                   F
(PID.TID 0000.0001)     ;
(PID.TID 0000.0001) useVariableVisc = /* Use variable horizontal viscosity */
(PID.TID 0000.0001)                   F
(PID.TID 0000.0001)     ;
(PID.TID 0000.0001) useHarmonicVisc = /* Use harmonic horizontal viscosity */
(PID.TID 0000.0001)                   T
(PID.TID 0000.0001)     ;
(PID.TID 0000.0001) useBiharmonicVisc= /* Use biharmonic horiz.  viscosity */
(PID.TID 0000.0001)                   F
(PID.TID 0000.0001)     ;
(PID.TID 0000.0001) useSmag3D = /* Use isotropic 3-D Smagorinsky viscosity */
(PID.TID 0000.0001)                   F
(PID.TID 0000.0001)     ;
(PID.TID 0000.0001) viscAh  =   /* Lateral harmonic viscosity ( m^2/s ) */
(PID.TID 0000.0001)                 1.000000000000000E-04
(PID.TID 0000.0001)     ;
(PID.TID 0000.0001) viscA4  =   /* Lateral biharmonic viscosity ( m^4/s ) */
(PID.TID 0000.0001)                 0.000000000000000E+00
(PID.TID 0000.0001)     ;
(PID.TID 0000.0001) no_slip_sides =  /* Viscous BCs: No-slip sides */
(PID.TID 0000.0001)                   F
(PID.TID 0000.0001)     ;
(PID.TID 0000.0001) sideDragFactor = /* side-drag scaling factor (non-dim) */
(PID.TID 0000.0001)                 2.000000000000000E+00
(PID.TID 0000.0001)     ;
(PID.TID 0000.0001) viscArNr = /* vertical profile of vertical viscosity ( m^2/s )*/
(PID.TID 0000.0001)   100 @  1.000000000000000E-05              /* K =  1:100 */
(PID.TID 0000.0001)     ;
(PID.TID 0000.0001) no_slip_bottom =  /* Viscous BCs: No-slip bottom */
(PID.TID 0000.0001)                   F
(PID.TID 0000.0001)     ;
(PID.TID 0000.0001) bottomDragLinear = /* linear bottom-drag coefficient ( m/s ) */
(PID.TID 0000.0001)                 0.000000000000000E+00
(PID.TID 0000.0001)     ;
(PID.TID 0000.0001) bottomDragQuadratic = /* quadratic bottom-drag coefficient (-) */
(PID.TID 0000.0001)                 0.000000000000000E+00
(PID.TID 0000.0001)     ;
(PID.TID 0000.0001) diffKhT =   /* Laplacian diffusion of heat laterally ( m^2/s ) */
(PID.TID 0000.0001)                 1.000000000000000E-04
(PID.TID 0000.0001)     ;
(PID.TID 0000.0001) diffK4T =   /* Biharmonic diffusion of heat laterally ( m^4/s ) */
(PID.TID 0000.0001)                 0.000000000000000E+00
(PID.TID 0000.0001)     ;
(PID.TID 0000.0001) diffKhS =   /* Laplacian diffusion of salt laterally ( m^2/s ) */
(PID.TID 0000.0001)                 1.000000000000000E+03
(PID.TID 0000.0001)     ;
(PID.TID 0000.0001) diffK4S =   /* Biharmonic diffusion of salt laterally ( m^4/s ) */
(PID.TID 0000.0001)                 0.000000000000000E+00
(PID.TID 0000.0001)     ;
(PID.TID 0000.0001) diffKrNrT = /* vertical profile of vertical diffusion of Temp ( m^2/s )*/
(PID.TID 0000.0001)   100 @  1.000000000000000E-05              /* K =  1:100 */
(PID.TID 0000.0001)     ;
(PID.TID 0000.0001) diffKrNrS = /* vertical profile of vertical diffusion of Salt ( m^2/s )*/
(PID.TID 0000.0001)   100 @  1.000000000000000E-05              /* K =  1:100 */
(PID.TID 0000.0001)     ;
(PID.TID 0000.0001) diffKrBL79surf = /* Surface diffusion for Bryan and Lewis 79 ( m^2/s ) */
(PID.TID 0000.0001)                 0.000000000000000E+00
(PID.TID 0000.0001)     ;
(PID.TID 0000.0001) diffKrBL79deep = /* Deep diffusion for Bryan and Lewis 1979 ( m^2/s ) */
(PID.TID 0000.0001)                 0.000000000000000E+00
(PID.TID 0000.0001)     ;
(PID.TID 0000.0001) diffKrBL79scl = /* Depth scale for Bryan and Lewis 1979 ( m ) */
(PID.TID 0000.0001)                 2.000000000000000E+02
(PID.TID 0000.0001)     ;
(PID.TID 0000.0001) diffKrBL79Ho = /* Turning depth for Bryan and Lewis 1979 ( m ) */
(PID.TID 0000.0001)                -2.000000000000000E+03
(PID.TID 0000.0001)     ;
(PID.TID 0000.0001) ivdc_kappa = /* Implicit Vertical Diffusivity for Convection ( m^2/s) */
(PID.TID 0000.0001)                 0.000000000000000E+00
(PID.TID 0000.0001)     ;
(PID.TID 0000.0001) hMixCriteria=  /* Criteria for mixed-layer diagnostic */
(PID.TID 0000.0001)                -8.000000000000000E-01
(PID.TID 0000.0001)     ;
(PID.TID 0000.0001) dRhoSmall =  /* Parameter for mixed-layer diagnostic */
(PID.TID 0000.0001)                 1.000000000000000E-06
(PID.TID 0000.0001)     ;
(PID.TID 0000.0001) hMixSmooth=  /* Smoothing parameter for mixed-layer diagnostic */
(PID.TID 0000.0001)                 0.000000000000000E+00
(PID.TID 0000.0001)     ;
(PID.TID 0000.0001) eosType =  /* Type of Equation of State */
(PID.TID 0000.0001)               'LINEAR'
(PID.TID 0000.0001)     ;
(PID.TID 0000.0001) tAlpha = /* Linear EOS thermal expansion coefficient ( 1/oC ) */
(PID.TID 0000.0001)                 2.000000000000000E-04
(PID.TID 0000.0001)     ;
(PID.TID 0000.0001) sBeta  = /* Linear EOS haline contraction coefficient ( 1/psu ) */
(PID.TID 0000.0001)                 0.000000000000000E+00
(PID.TID 0000.0001)     ;
(PID.TID 0000.0001) rhoNil    = /* Reference density for Linear EOS ( kg/m^3 ) */
(PID.TID 0000.0001)                 9.998000000000000E+02
(PID.TID 0000.0001)     ;
(PID.TID 0000.0001) HeatCapacity_Cp =  /* Specific heat capacity ( J/kg/K ) */
(PID.TID 0000.0001)                 3.994000000000000E+03
(PID.TID 0000.0001)     ;
(PID.TID 0000.0001) celsius2K = /* 0 degree Celsius converted to Kelvin ( K ) */
(PID.TID 0000.0001)                 2.731500000000000E+02
(PID.TID 0000.0001)     ;
(PID.TID 0000.0001) rhoConst  = /* Reference density (Boussinesq)  ( kg/m^3 ) */
(PID.TID 0000.0001)                 9.998000000000000E+02
(PID.TID 0000.0001)     ;
(PID.TID 0000.0001) rhoFacC = /* normalized Reference density @ cell-Center (-) */
(PID.TID 0000.0001)   100 @  1.000000000000000E+00              /* K =  1:100 */
(PID.TID 0000.0001)     ;
(PID.TID 0000.0001) rhoFacF = /* normalized Reference density @ W-Interface (-) */
(PID.TID 0000.0001)   101 @  1.000000000000000E+00              /* K =  1:101 */
(PID.TID 0000.0001)     ;
(PID.TID 0000.0001) rhoConstFresh = /* Fresh-water reference density ( kg/m^3 ) */
(PID.TID 0000.0001)                 9.998000000000000E+02
(PID.TID 0000.0001)     ;
(PID.TID 0000.0001) gravity =   /* Gravitational acceleration ( m/s^2 ) */
(PID.TID 0000.0001)                 9.810000000000000E+00
(PID.TID 0000.0001)     ;
(PID.TID 0000.0001) gBaro =   /* Barotropic gravity ( m/s^2 ) */
(PID.TID 0000.0001)                 9.810000000000000E+00
(PID.TID 0000.0001)     ;
(PID.TID 0000.0001) rotationPeriod =   /* Rotation Period ( s ) */
(PID.TID 0000.0001)                 8.616400000000000E+04
(PID.TID 0000.0001)     ;
(PID.TID 0000.0001) omega =   /* Angular velocity ( rad/s ) */
(PID.TID 0000.0001)                 7.292123516990375E-05
(PID.TID 0000.0001)     ;
(PID.TID 0000.0001) f0 =   /* Reference coriolis parameter ( 1/s ) */
(PID.TID 0000.0001)                 0.000000000000000E+00
(PID.TID 0000.0001)     ;
(PID.TID 0000.0001) beta =   /* Beta ( 1/(m.s) ) */
(PID.TID 0000.0001)                 0.000000000000000E+00
(PID.TID 0000.0001)     ;
(PID.TID 0000.0001) fPrime =   /* Second coriolis parameter ( 1/s ) */
(PID.TID 0000.0001)                 0.000000000000000E+00
(PID.TID 0000.0001)     ;
(PID.TID 0000.0001) rigidLid =   /* Rigid lid on/off flag */
(PID.TID 0000.0001)                   F
(PID.TID 0000.0001)     ;
(PID.TID 0000.0001) implicitFreeSurface =   /* Implicit free surface on/off flag */
(PID.TID 0000.0001)                   T
(PID.TID 0000.0001)     ;
(PID.TID 0000.0001) freeSurfFac =   /* Implicit free surface factor */
(PID.TID 0000.0001)                 1.000000000000000E+00
(PID.TID 0000.0001)     ;
(PID.TID 0000.0001) implicSurfPress =  /* Surface Pressure implicit factor (0-1)*/
(PID.TID 0000.0001)                 1.000000000000000E+00
(PID.TID 0000.0001)     ;
(PID.TID 0000.0001) implicDiv2Dflow =  /* Barot. Flow Div. implicit factor (0-1)*/
(PID.TID 0000.0001)                 1.000000000000000E+00
(PID.TID 0000.0001)     ;
(PID.TID 0000.0001) uniformLin_PhiSurf = /* use uniform Bo_surf on/off flag*/
(PID.TID 0000.0001)                   T
(PID.TID 0000.0001)     ;
(PID.TID 0000.0001) uniformFreeSurfLev = /* free-surface level-index is uniform */
(PID.TID 0000.0001)                   T
(PID.TID 0000.0001)     ;
(PID.TID 0000.0001) hFacMin =   /* minimum partial cell factor (hFac) */
(PID.TID 0000.0001)                 1.000000000000000E-01
(PID.TID 0000.0001)     ;
(PID.TID 0000.0001) hFacMinDr = /* minimum partial cell thickness ( m) */
(PID.TID 0000.0001)                 0.000000000000000E+00
(PID.TID 0000.0001)     ;
(PID.TID 0000.0001) exactConserv =  /* Exact Volume Conservation on/off flag*/
(PID.TID 0000.0001)                   F
(PID.TID 0000.0001)     ;
(PID.TID 0000.0001) linFSConserveTr = /* Tracer correction for Lin Free Surface on/off flag*/
(PID.TID 0000.0001)                   F
(PID.TID 0000.0001)     ;
(PID.TID 0000.0001) nonlinFreeSurf = /* Non-linear Free Surf. options (-1,0,1,2,3)*/
(PID.TID 0000.0001)                       0
(PID.TID 0000.0001)      -1,0= Off ; 1,2,3= On, 2=+rescale gU,gV, 3=+update cg2d solv.
(PID.TID 0000.0001)     ;
(PID.TID 0000.0001) hFacInf =   /* lower threshold for hFac (nonlinFreeSurf only)*/
(PID.TID 0000.0001)                 2.000000000000000E-01
(PID.TID 0000.0001)     ;
(PID.TID 0000.0001) hFacSup =   /* upper threshold for hFac (nonlinFreeSurf only)*/
(PID.TID 0000.0001)                 2.000000000000000E+00
(PID.TID 0000.0001)     ;
(PID.TID 0000.0001) select_rStar = /* r* Vertical coord. options (=0 r coord.; >0 uses r*)*/
(PID.TID 0000.0001)                       0
(PID.TID 0000.0001)     ;
(PID.TID 0000.0001) useRealFreshWaterFlux = /* Real Fresh Water Flux on/off flag*/
(PID.TID 0000.0001)                   F
(PID.TID 0000.0001)     ;
(PID.TID 0000.0001) temp_EvPrRn = /* Temp. of Evap/Prec/R (UNSET=use local T)(oC)*/
(PID.TID 0000.0001)                 1.234567000000000E+05
(PID.TID 0000.0001)     ;
(PID.TID 0000.0001) salt_EvPrRn = /* Salin. of Evap/Prec/R (UNSET=use local S)(psu)*/
(PID.TID 0000.0001)                 0.000000000000000E+00
(PID.TID 0000.0001)     ;
(PID.TID 0000.0001) selectAddFluid = /* option for mass source/sink of fluid (=0: off) */
(PID.TID 0000.0001)                       0
(PID.TID 0000.0001)     ;
(PID.TID 0000.0001) temp_addMass = /* Temp. of addMass array (UNSET=use local T)(oC)*/
(PID.TID 0000.0001)                 1.234567000000000E+05
(PID.TID 0000.0001)     ;
(PID.TID 0000.0001) salt_addMass = /* Salin. of addMass array (UNSET=use local S)(psu)*/
(PID.TID 0000.0001)                 0.000000000000000E+00
(PID.TID 0000.0001)     ;
(PID.TID 0000.0001) convertFW2Salt = /* convert F.W. Flux to Salt Flux (-1=use local S)(psu)*/
(PID.TID 0000.0001)                 3.500000000000000E+01
(PID.TID 0000.0001)     ;
(PID.TID 0000.0001) use3Dsolver = /* use 3-D pressure solver on/off flag */
(PID.TID 0000.0001)                   F
(PID.TID 0000.0001)     ;
(PID.TID 0000.0001) nonHydrostatic =  /* Non-Hydrostatic on/off flag */
(PID.TID 0000.0001)                   F
(PID.TID 0000.0001)     ;
(PID.TID 0000.0001) nh_Am2 = /* Non-Hydrostatic terms scaling factor */
(PID.TID 0000.0001)                 1.000000000000000E+00
(PID.TID 0000.0001)     ;
(PID.TID 0000.0001) implicitNHPress = /* Non-Hyd Pressure implicit factor (0-1)*/
(PID.TID 0000.0001)                 1.000000000000000E+00
(PID.TID 0000.0001)     ;
(PID.TID 0000.0001) selectNHfreeSurf = /* Non-Hyd (free-)Surface option */
(PID.TID 0000.0001)                       0
(PID.TID 0000.0001)     ;
(PID.TID 0000.0001) quasiHydrostatic = /* Quasi-Hydrostatic on/off flag */
(PID.TID 0000.0001)                   F
(PID.TID 0000.0001)     ;
(PID.TID 0000.0001) calc_wVelocity = /* vertical velocity calculation on/off flag */
(PID.TID 0000.0001)                   T
(PID.TID 0000.0001)     ;
(PID.TID 0000.0001) momStepping =  /* Momentum equation on/off flag */
(PID.TID 0000.0001)                   T
(PID.TID 0000.0001)     ;
(PID.TID 0000.0001) vectorInvariantMomentum= /* Vector-Invariant Momentum on/off */
(PID.TID 0000.0001)                   F
(PID.TID 0000.0001)     ;
(PID.TID 0000.0001) momAdvection =  /* Momentum advection on/off flag */
(PID.TID 0000.0001)                   T
(PID.TID 0000.0001)     ;
(PID.TID 0000.0001) momViscosity =  /* Momentum viscosity on/off flag */
(PID.TID 0000.0001)                   T
(PID.TID 0000.0001)     ;
(PID.TID 0000.0001) momImplVertAdv= /* Momentum implicit vert. advection on/off*/
(PID.TID 0000.0001)                   F
(PID.TID 0000.0001)     ;
(PID.TID 0000.0001) implicitViscosity = /* Implicit viscosity on/off flag */
(PID.TID 0000.0001)                   T
(PID.TID 0000.0001)     ;
(PID.TID 0000.0001) metricTerms =  /* metric-Terms on/off flag */
(PID.TID 0000.0001)                   F
(PID.TID 0000.0001)     ;
(PID.TID 0000.0001) useNHMTerms = /* Non-Hydrostatic Metric-Terms on/off */
(PID.TID 0000.0001)                   F
(PID.TID 0000.0001)     ;
(PID.TID 0000.0001) selectCoriMap = /* Coriolis Map options (0,1,2,3)*/
(PID.TID 0000.0001)                       1
(PID.TID 0000.0001)     0= f-Plane ; 1= Beta-Plane ; 2= Spherical ; 3= read from file
(PID.TID 0000.0001)     ;
(PID.TID 0000.0001) use3dCoriolis = /* 3-D Coriolis on/off flag */
(PID.TID 0000.0001)                   F
(PID.TID 0000.0001)     ;
(PID.TID 0000.0001) useCoriolis =  /* Coriolis on/off flag */
(PID.TID 0000.0001)                   T
(PID.TID 0000.0001)     ;
(PID.TID 0000.0001) useCDscheme =  /* CD scheme on/off flag */
(PID.TID 0000.0001)                   F
(PID.TID 0000.0001)     ;
(PID.TID 0000.0001) useEnergyConservingCoriolis= /* Flx-Form Coriolis scheme flag */
(PID.TID 0000.0001)                   F
(PID.TID 0000.0001)     ;
(PID.TID 0000.0001) useJamartWetPoints= /* Coriolis WetPoints method flag */
(PID.TID 0000.0001)                   F
(PID.TID 0000.0001)     ;
(PID.TID 0000.0001) useJamartMomAdv= /* V.I Non-linear terms Jamart flag */
(PID.TID 0000.0001)                   F
(PID.TID 0000.0001)     ;
(PID.TID 0000.0001) useAbsVorticity= /* V.I Works with f+zeta in Coriolis */
(PID.TID 0000.0001)                   F
(PID.TID 0000.0001)     ;
(PID.TID 0000.0001) selectVortScheme= /* V.I Scheme selector for Vorticity-Term */
(PID.TID 0000.0001)               123456789
(PID.TID 0000.0001)    = 0 : enstrophy (Shallow-Water Eq.) conserving scheme by Sadourny, JAS 75
(PID.TID 0000.0001)    = 1 : same as 0 with modified hFac
(PID.TID 0000.0001)    = 2 : energy conserving scheme (used by Sadourny in JAS 75 paper)
(PID.TID 0000.0001)    = 3 : energy (general) and enstrophy (2D, nonDiv.) conserving scheme
(PID.TID 0000.0001)          from Sadourny (Burridge & Haseler, ECMWF Rep.4, 1977)
(PID.TID 0000.0001)     ;
(PID.TID 0000.0001) upwindVorticity= /* V.I Upwind bias vorticity flag */
(PID.TID 0000.0001)                   F
(PID.TID 0000.0001)     ;
(PID.TID 0000.0001) highOrderVorticity= /* V.I High order vort. advect. flag */
(PID.TID 0000.0001)                   F
(PID.TID 0000.0001)     ;
(PID.TID 0000.0001) upwindShear= /* V.I Upwind vertical Shear advection flag */
(PID.TID 0000.0001)                   F
(PID.TID 0000.0001)     ;
(PID.TID 0000.0001) selectKEscheme= /* V.I Kinetic Energy scheme selector */
(PID.TID 0000.0001)                       0
(PID.TID 0000.0001)     ;
(PID.TID 0000.0001) momForcing =  /* Momentum forcing on/off flag */
(PID.TID 0000.0001)                   T
(PID.TID 0000.0001)     ;
(PID.TID 0000.0001) momPressureForcing =  /* Momentum pressure term on/off flag */
(PID.TID 0000.0001)                   T
(PID.TID 0000.0001)     ;
(PID.TID 0000.0001) implicitIntGravWave= /* Implicit Internal Gravity Wave flag */
(PID.TID 0000.0001)                   F
(PID.TID 0000.0001)     ;
(PID.TID 0000.0001) staggerTimeStep =    /* Stagger time stepping on/off flag */
(PID.TID 0000.0001)                   T
(PID.TID 0000.0001)     ;
(PID.TID 0000.0001) doResetHFactors = /* reset thickness factors @ each time-step */
(PID.TID 0000.0001)                   F
(PID.TID 0000.0001)     ;
(PID.TID 0000.0001) multiDimAdvection =  /* enable/disable Multi-Dim Advection */
(PID.TID 0000.0001)                   T
(PID.TID 0000.0001)     ;
(PID.TID 0000.0001) useMultiDimAdvec =   /* Multi-Dim Advection is/is-not used */
(PID.TID 0000.0001)                   T
(PID.TID 0000.0001)     ;
(PID.TID 0000.0001) implicitDiffusion = /* Implicit Diffusion on/off flag */
(PID.TID 0000.0001)                   T
(PID.TID 0000.0001)     ;
(PID.TID 0000.0001) tempStepping =  /* Temperature equation on/off flag */
(PID.TID 0000.0001)                   T
(PID.TID 0000.0001)     ;
(PID.TID 0000.0001) tempAdvection = /* Temperature advection on/off flag */
(PID.TID 0000.0001)                   T
(PID.TID 0000.0001)     ;
(PID.TID 0000.0001) tempImplVertAdv = /* Temp. implicit vert. advection on/off */
(PID.TID 0000.0001)                   F
(PID.TID 0000.0001)     ;
(PID.TID 0000.0001) tempForcing  =  /* Temperature forcing on/off flag */
(PID.TID 0000.0001)                   T
(PID.TID 0000.0001)     ;
(PID.TID 0000.0001) doThetaClimRelax = /* apply SST relaxation on/off flag */
(PID.TID 0000.0001)                   F
(PID.TID 0000.0001)     ;
(PID.TID 0000.0001) tempIsActiveTr = /* Temp. is a dynamically Active Tracer */
(PID.TID 0000.0001)                   T
(PID.TID 0000.0001)     ;
(PID.TID 0000.0001) saltStepping =  /* Salinity equation on/off flag */
(PID.TID 0000.0001)                   F
(PID.TID 0000.0001)     ;
(PID.TID 0000.0001) saltAdvection = /* Salinity advection on/off flag */
(PID.TID 0000.0001)                   F
(PID.TID 0000.0001)     ;
(PID.TID 0000.0001) saltImplVertAdv = /* Sali. implicit vert. advection on/off */
(PID.TID 0000.0001)                   F
(PID.TID 0000.0001)     ;
(PID.TID 0000.0001) saltForcing  =  /* Salinity forcing on/off flag */
(PID.TID 0000.0001)                   F
(PID.TID 0000.0001)     ;
(PID.TID 0000.0001) doSaltClimRelax = /* apply SSS relaxation on/off flag */
(PID.TID 0000.0001)                   F
(PID.TID 0000.0001)     ;
(PID.TID 0000.0001) saltIsActiveTr = /* Salt  is a dynamically Active Tracer */
(PID.TID 0000.0001)                   F
(PID.TID 0000.0001)     ;
(PID.TID 0000.0001)  readBinaryPrec = /* Precision used for reading binary files */
(PID.TID 0000.0001)                      64
(PID.TID 0000.0001)     ;
(PID.TID 0000.0001) writeBinaryPrec = /* Precision used for writing binary files */
(PID.TID 0000.0001)                      64
(PID.TID 0000.0001)     ;
(PID.TID 0000.0001)  globalFiles = /* write "global" (=not per tile) files */
(PID.TID 0000.0001)                   F
(PID.TID 0000.0001)     ;
(PID.TID 0000.0001)  useSingleCpuIO = /* only master MPI process does I/O */
(PID.TID 0000.0001)                   T
(PID.TID 0000.0001)     ;
(PID.TID 0000.0001)  useSingleCpuInput = /* only master process reads input */
(PID.TID 0000.0001)                   T
(PID.TID 0000.0001)     ;
(PID.TID 0000.0001) /* debLev[*]  : level of debug & auxiliary message printing */
(PID.TID 0000.0001) debLevZero =  0 ; /* level of disabled aux. msg printing */
(PID.TID 0000.0001)    debLevA =  1 ; /* level of minimum  aux. msg printing */
(PID.TID 0000.0001)    debLevB =  2 ; /* level of low aux. print (report read-file opening)*/
(PID.TID 0000.0001)    debLevC =  3 ; /* level of moderate debug prt (most pkgs debug msg) */
(PID.TID 0000.0001)    debLevD =  4 ; /* level of enhanced debug prt (add DEBUG_STATS prt) */
(PID.TID 0000.0001)    debLevE =  5 ; /* level of extensive debug printing */
(PID.TID 0000.0001) debugLevel =  /* select debug printing level */
(PID.TID 0000.0001)                       2
(PID.TID 0000.0001)     ;
(PID.TID 0000.0001) //
(PID.TID 0000.0001) // Elliptic solver(s) paramters ( PARM02 in namelist )
(PID.TID 0000.0001) //
(PID.TID 0000.0001) cg2dMaxIters =   /* Upper limit on 2d con. grad iterations  */
(PID.TID 0000.0001)                    1000
(PID.TID 0000.0001)     ;
(PID.TID 0000.0001) cg2dChkResFreq =   /* 2d con. grad convergence test frequency */
(PID.TID 0000.0001)                       1
(PID.TID 0000.0001)     ;
(PID.TID 0000.0001) cg2dUseMinResSol= /* use cg2d last-iter(=0) / min-resid.(=1) solution */
(PID.TID 0000.0001)                       0
(PID.TID 0000.0001)     ;
(PID.TID 0000.0001) cg2dTargetResidual =   /* 2d con. grad target residual  */
(PID.TID 0000.0001)                 1.000000000000000E-13
(PID.TID 0000.0001)     ;
(PID.TID 0000.0001) cg2dTargetResWunit =   /* CG2d target residual [W units] */
(PID.TID 0000.0001)                -1.000000000000000E+00
(PID.TID 0000.0001)     ;
(PID.TID 0000.0001) cg2dPreCondFreq =   /* Freq. for updating cg2d preconditioner */
(PID.TID 0000.0001)                       1
(PID.TID 0000.0001)     ;
(PID.TID 0000.0001) useSRCGSolver =  /* use single reduction CG solver(s) */
(PID.TID 0000.0001)                   F
(PID.TID 0000.0001)     ;
(PID.TID 0000.0001) printResidualFreq = /* Freq. for printing CG residual */
(PID.TID 0000.0001)                       0
(PID.TID 0000.0001)     ;
(PID.TID 0000.0001) //
(PID.TID 0000.0001) // Time stepping paramters ( PARM03 in namelist )
(PID.TID 0000.0001) //
(PID.TID 0000.0001) deltaTMom =   /* Momentum equation timestep ( s ) */
(PID.TID 0000.0001)                 1.500000000000000E+01
(PID.TID 0000.0001)     ;
(PID.TID 0000.0001) deltaTFreeSurf = /* FreeSurface equation timestep ( s ) */
(PID.TID 0000.0001)                 1.500000000000000E+01
(PID.TID 0000.0001)     ;
(PID.TID 0000.0001) dTtracerLev =  /* Tracer equation timestep ( s ) */
(PID.TID 0000.0001)   100 @  1.500000000000000E+01              /* K =  1:100 */
(PID.TID 0000.0001)     ;
(PID.TID 0000.0001) deltaTClock  =   /* Model clock timestep ( s ) */
(PID.TID 0000.0001)                 1.500000000000000E+01
(PID.TID 0000.0001)     ;
(PID.TID 0000.0001) cAdjFreq =   /* Convective adjustment interval ( s ) */
(PID.TID 0000.0001)                 0.000000000000000E+00
(PID.TID 0000.0001)     ;
(PID.TID 0000.0001) momForcingOutAB = /* =1: take Momentum Forcing out of Adams-Bash. stepping */
(PID.TID 0000.0001)                       0
(PID.TID 0000.0001)     ;
(PID.TID 0000.0001) tracForcingOutAB = /* =1: take T,S,pTr Forcing out of Adams-Bash. stepping */
(PID.TID 0000.0001)                       0
(PID.TID 0000.0001)     ;
(PID.TID 0000.0001) momDissip_In_AB = /* put Dissipation Tendency in Adams-Bash. stepping */
(PID.TID 0000.0001)                   T
(PID.TID 0000.0001)     ;
(PID.TID 0000.0001) doAB_onGtGs = /* apply AB on Tendencies (rather than on T,S)*/
(PID.TID 0000.0001)                   T
(PID.TID 0000.0001)     ;
(PID.TID 0000.0001) abEps =   /* Adams-Bashforth-2 stabilizing weight */
(PID.TID 0000.0001)                 1.000000000000000E-01
(PID.TID 0000.0001)     ;
(PID.TID 0000.0001) pickupStrictlyMatch= /* stop if pickup do not strictly match */
(PID.TID 0000.0001)                   T
(PID.TID 0000.0001)     ;
(PID.TID 0000.0001) nIter0   =   /* Run starting timestep number */
(PID.TID 0000.0001)                       0
(PID.TID 0000.0001)     ;
(PID.TID 0000.0001) nTimeSteps = /* Number of timesteps */
(PID.TID 0000.0001)                    7200
(PID.TID 0000.0001)     ;
(PID.TID 0000.0001) nEndIter =   /* Run ending timestep number */
(PID.TID 0000.0001)                    7200
(PID.TID 0000.0001)     ;
(PID.TID 0000.0001) baseTime =   /* Model base time ( s ) */
(PID.TID 0000.0001)                 0.000000000000000E+00
(PID.TID 0000.0001)     ;
(PID.TID 0000.0001) startTime =  /* Run start time ( s ) */
(PID.TID 0000.0001)                 0.000000000000000E+00
(PID.TID 0000.0001)     ;
(PID.TID 0000.0001) endTime  =   /* Integration ending time ( s ) */
(PID.TID 0000.0001)                 1.080000000000000E+05
(PID.TID 0000.0001)     ;
(PID.TID 0000.0001) pChkPtFreq = /* Permanent restart/pickup file interval ( s ) */
(PID.TID 0000.0001)                 2.160000000000000E+04
(PID.TID 0000.0001)     ;
(PID.TID 0000.0001) chkPtFreq  = /* Rolling restart/pickup file interval ( s ) */
(PID.TID 0000.0001)                 0.000000000000000E+00
(PID.TID 0000.0001)     ;
(PID.TID 0000.0001) pickup_write_mdsio =   /* Model IO flag. */
(PID.TID 0000.0001)                   T
(PID.TID 0000.0001)     ;
(PID.TID 0000.0001) pickup_read_mdsio =   /* Model IO flag. */
(PID.TID 0000.0001)                   T
(PID.TID 0000.0001)     ;
(PID.TID 0000.0001) pickup_write_immed =   /* Model IO flag. */
(PID.TID 0000.0001)                   F
(PID.TID 0000.0001)     ;
(PID.TID 0000.0001) writePickupAtEnd =   /* Model IO flag. */
(PID.TID 0000.0001)                   T
(PID.TID 0000.0001)     ;
(PID.TID 0000.0001) dumpFreq =   /* Model state write out interval ( s ). */
(PID.TID 0000.0001)                 7.200000000000000E+03
(PID.TID 0000.0001)     ;
(PID.TID 0000.0001) dumpInitAndLast= /* write out Initial & Last iter. model state */
(PID.TID 0000.0001)                   T
(PID.TID 0000.0001)     ;
(PID.TID 0000.0001) snapshot_mdsio =   /* Model IO flag. */
(PID.TID 0000.0001)                   T
(PID.TID 0000.0001)     ;
(PID.TID 0000.0001) monitorFreq =   /* Monitor output interval ( s ). */
(PID.TID 0000.0001)                 7.200000000000000E+03
(PID.TID 0000.0001)     ;
(PID.TID 0000.0001) monitorSelect = /* select group of variables to monitor */
(PID.TID 0000.0001)                       3
(PID.TID 0000.0001)     ;
(PID.TID 0000.0001) monitor_stdio =   /* Model IO flag. */
(PID.TID 0000.0001)                   T
(PID.TID 0000.0001)     ;
(PID.TID 0000.0001) externForcingPeriod =   /* forcing period (s) */
(PID.TID 0000.0001)                 0.000000000000000E+00
(PID.TID 0000.0001)     ;
(PID.TID 0000.0001) externForcingCycle =   /* period of the cyle (s). */
(PID.TID 0000.0001)                 0.000000000000000E+00
(PID.TID 0000.0001)     ;
(PID.TID 0000.0001) tauThetaClimRelax =   /* relaxation time scale (s) */
(PID.TID 0000.0001)                 0.000000000000000E+00
(PID.TID 0000.0001)     ;
(PID.TID 0000.0001) tauSaltClimRelax =   /* relaxation time scale (s) */
(PID.TID 0000.0001)                 0.000000000000000E+00
(PID.TID 0000.0001)     ;
(PID.TID 0000.0001) latBandClimRelax =   /* max. Lat. where relaxation */
(PID.TID 0000.0001)                 1.500000000000000E+04
(PID.TID 0000.0001)     ;
(PID.TID 0000.0001) //
(PID.TID 0000.0001) // Gridding paramters ( PARM04 in namelist )
(PID.TID 0000.0001) //
(PID.TID 0000.0001) usingCartesianGrid = /* Cartesian coordinates flag ( True/False ) */
(PID.TID 0000.0001)                   T
(PID.TID 0000.0001)     ;
(PID.TID 0000.0001) usingCylindricalGrid = /* Cylindrical coordinates flag ( True/False ) */
(PID.TID 0000.0001)                   F
(PID.TID 0000.0001)     ;
(PID.TID 0000.0001) usingSphericalPolarGrid = /* Spherical coordinates flag ( True/False ) */
(PID.TID 0000.0001)                   F
(PID.TID 0000.0001)     ;
(PID.TID 0000.0001) usingCurvilinearGrid = /* Curvilinear coordinates flag ( True/False ) */
(PID.TID 0000.0001)                   F
(PID.TID 0000.0001)     ;
(PID.TID 0000.0001) selectSigmaCoord = /* Hybrid-Sigma Vert. Coordinate option */
(PID.TID 0000.0001)                       0
(PID.TID 0000.0001)     ;
(PID.TID 0000.0001) Ro_SeaLevel = /* r(1) ( units of r ==  m ) */
(PID.TID 0000.0001)                 0.000000000000000E+00
(PID.TID 0000.0001)     ;
(PID.TID 0000.0001) rSigmaBnd = /* r/sigma transition ( units of r ==  m ) */
(PID.TID 0000.0001)                 1.234567000000000E+05
(PID.TID 0000.0001)     ;
(PID.TID 0000.0001) rkSign =   /* index orientation relative to vertical coordinate */
(PID.TID 0000.0001)                -1.000000000000000E+00
(PID.TID 0000.0001)     ;
(PID.TID 0000.0001) gravitySign = /* gravity orientation relative to vertical coordinate */
(PID.TID 0000.0001)                -1.000000000000000E+00
(PID.TID 0000.0001)     ;
(PID.TID 0000.0001) mass2rUnit = /* convert mass per unit area [kg/m2] to r-units [m] */
(PID.TID 0000.0001)                 1.000200040008002E-03
(PID.TID 0000.0001)     ;
(PID.TID 0000.0001) rUnit2mass = /* convert r-units [m] to mass per unit area [kg/m2] */
(PID.TID 0000.0001)                 9.998000000000000E+02
(PID.TID 0000.0001)     ;
(PID.TID 0000.0001) drC =   /* C spacing ( units of r ) */
(PID.TID 0000.0001)                 1.911027841093720E+00,      /* K =  1 */
(PID.TID 0000.0001)                 3.793266387227716E+00,      /* K =  2 */
(PID.TID 0000.0001)                 3.736121502922837E+00,      /* K =  3 */
(PID.TID 0000.0001)                 3.679837496149051E+00,      /* K =  4 */
(PID.TID 0000.0001)                 3.624401397939275E+00,      /* K =  5 */
(PID.TID 0000.0001)                 3.569800434701612E+00,      /* K =  6 */
(PID.TID 0000.0001)                 3.516022025276056E+00,      /* K =  7 */
(PID.TID 0000.0001)                 3.463053778035543E+00,      /* K =  8 */
(PID.TID 0000.0001)                 3.410883488030667E+00,      /* K =  9 */
(PID.TID 0000.0001)                 3.359499134177421E+00,      /* K = 10 */
(PID.TID 0000.0001)                 3.308888876487289E+00,      /* K = 11 */
(PID.TID 0000.0001)                 3.259041053339081E+00,      /* K = 12 */
(PID.TID 0000.0001)                 3.209944178791858E+00,      /* K = 13 */
(PID.TID 0000.0001)                 3.161586939938343E+00,      /* K = 14 */
(PID.TID 0000.0001)                 3.113958194298194E+00,      /* K = 15 */
(PID.TID 0000.0001)                 3.067046967250559E+00,      /* K = 16 */
(PID.TID 0000.0001)                 3.020842449505298E+00,      /* K = 17 */
(PID.TID 0000.0001)                 2.975333994612308E+00,      /* K = 18 */
(PID.TID 0000.0001)                 2.930511116508364E+00,      /* K = 19 */
(PID.TID 0000.0001)                 2.886363487100922E+00,      /* K = 20 */
(PID.TID 0000.0001)                 2.842880933888319E+00,      /* K = 21 */
(PID.TID 0000.0001)                 2.800053437615819E+00,      /* K = 22 */
(PID.TID 0000.0001)                 2.757871129966981E+00,      /* K = 23 */
(PID.TID 0000.0001)                 2.716324291289798E+00,      /* K = 24 */
(PID.TID 0000.0001)                 2.675403348357094E+00,      /* K = 25 */
(PID.TID 0000.0001)                 2.635098872160659E+00,      /* K = 26 */
(PID.TID 0000.0001)                 2.595401575738620E+00,      /* K = 27 */
(PID.TID 0000.0001)                 2.556302312035529E+00,      /* K = 28 */
(PID.TID 0000.0001)                 2.517792071794709E+00,      /* K = 29 */
(PID.TID 0000.0001)                 2.479861981482332E+00,      /* K = 30 */
(PID.TID 0000.0001)                 2.442503301242782E+00,      /* K = 31 */
(PID.TID 0000.0001)                 2.405707422884812E+00,      /* K = 32 */
(PID.TID 0000.0001)                 2.369465867898052E+00,      /* K = 33 */
(PID.TID 0000.0001)                 2.333770285499381E+00,      /* K = 34 */
(PID.TID 0000.0001)                 2.298612450708744E+00,      /* K = 35 */
(PID.TID 0000.0001)                 2.263984262453950E+00,      /* K = 36 */
(PID.TID 0000.0001)                 2.229877741704019E+00,      /* K = 37 */
(PID.TID 0000.0001)                 2.196285029630657E+00,      /* K = 38 */
(PID.TID 0000.0001)                 2.163198385797422E+00,      /* K = 39 */
(PID.TID 0000.0001)                 2.130610186376174E+00,      /* K = 40 */
(PID.TID 0000.0001)                 2.098512922390386E+00,      /* K = 41 */
(PID.TID 0000.0001)                 2.066899197984931E+00,      /* K = 42 */
(PID.TID 0000.0001)                 2.035761728721925E+00,      /* K = 43 */
(PID.TID 0000.0001)                 2.005093339902247E+00,      /* K = 44 */
(PID.TID 0000.0001)                 1.974886964912343E+00,      /* K = 45 */
(PID.TID 0000.0001)                 1.945135643595938E+00,      /* K = 46 */
(PID.TID 0000.0001)                 1.915832520650274E+00,      /* K = 47 */
(PID.TID 0000.0001)                 1.886970844046513E+00,      /* K = 48 */
(PID.TID 0000.0001)                 1.858543963473929E+00,      /* K = 49 */
(PID.TID 0000.0001)                 1.830545328807549E+00,      /* K = 50 */
(PID.TID 0000.0001)                 1.802968488598866E+00,      /* K = 51 */
(PID.TID 0000.0001)                 1.775807088589302E+00,      /* K = 52 */
(PID.TID 0000.0001)                 1.749054870246054E+00,      /* K = 53 */
(PID.TID 0000.0001)                 1.722705669320003E+00,      /* K = 54 */
(PID.TID 0000.0001)                 1.696753414425351E+00,      /* K = 55 */
(PID.TID 0000.0001)                 1.671192125640645E+00,      /* K = 56 */
(PID.TID 0000.0001)                 1.646015913130889E+00,      /* K = 57 */
(PID.TID 0000.0001)                 1.621218975790403E+00,      /* K = 58 */
(PID.TID 0000.0001)                 1.596795599906137E+00,      /* K = 59 */
(PID.TID 0000.0001)                 1.572740157841108E+00,      /* K = 60 */
(PID.TID 0000.0001)                 1.549047106737689E+00,      /* K = 61 */
(PID.TID 0000.0001)                 1.525710987240416E+00,      /* K = 62 */
(PID.TID 0000.0001)                 1.502726422238047E+00,      /* K = 63 */
(PID.TID 0000.0001)                 1.480088115624565E+00,      /* K = 64 */
(PID.TID 0000.0001)                 1.457790851078848E+00,      /* K = 65 */
(PID.TID 0000.0001)                 1.435829490862726E+00,      /* K = 66 */
(PID.TID 0000.0001)                 1.414198974637144E+00,      /* K = 67 */
(PID.TID 0000.0001)                 1.392894318296153E+00,      /* K = 68 */
(PID.TID 0000.0001)                 1.371910612818476E+00,      /* K = 69 */
(PID.TID 0000.0001)                 1.351243023136370E+00,      /* K = 70 */
(PID.TID 0000.0001)                 1.330886787021528E+00,      /* K = 71 */
(PID.TID 0000.0001)                 1.310837213987765E+00,      /* K = 72 */
(PID.TID 0000.0001)                 1.291089684210241E+00,      /* K = 73 */
(PID.TID 0000.0001)                 1.271639647460953E+00,      /* K = 74 */
(PID.TID 0000.0001)                 1.252482622060276E+00,      /* K = 75 */
(PID.TID 0000.0001)                 1.233614193844294E+00,      /* K = 76 */
(PID.TID 0000.0001)                 1.215030015147682E+00,      /* K = 77 */
(PID.TID 0000.0001)                 1.196725803801926E+00,      /* K = 78 */
(PID.TID 0000.0001)                 1.178697342148616E+00,      /* K = 79 */
(PID.TID 0000.0001)                 1.160940476067618E+00,      /* K = 80 */
(PID.TID 0000.0001)                 1.143451114019882E+00,      /* K = 81 */
(PID.TID 0000.0001)                 1.126225226104663E+00,      /* K = 82 */
(PID.TID 0000.0001)                 1.109258843130958E+00,      /* K = 83 */
(PID.TID 0000.0001)                 1.092548055702920E+00,      /* K = 84 */
(PID.TID 0000.0001)                 1.076089013319057E+00,      /* K = 85 */
(PID.TID 0000.0001)                 1.059877923484997E+00,      /* K = 86 */
(PID.TID 0000.0001)                 1.043911050839622E+00,      /* K = 87 */
(PID.TID 0000.0001)                 1.028184716294366E+00,      /* K = 88 */
(PID.TID 0000.0001)                 1.012695296185480E+00,      /* K = 89 */
(PID.TID 0000.0001)                 1.002504682609961E+00,      /* K = 90 */
(PID.TID 0000.0001)     3 @  1.000000000000000E+00,             /* K = 91: 93 */
(PID.TID 0000.0001)                 1.045738735852738E+00,      /* K = 94 */
(PID.TID 0000.0001)                 1.099824677998580E+00,      /* K = 95 */
(PID.TID 0000.0001)                 1.116646763129032E+00,      /* K = 96 */
(PID.TID 0000.0001)                 1.133726146130497E+00,      /* K = 97 */
(PID.TID 0000.0001)                 1.151066762436300E+00,      /* K = 98 */
(PID.TID 0000.0001)                 1.168672607673173E+00,      /* K = 99 */
(PID.TID 0000.0001)                 1.186547738581929E+00,      /* K =100 */
(PID.TID 0000.0001)                 5.977765681977496E-01       /* K =101 */
(PID.TID 0000.0001)     ;
(PID.TID 0000.0001) drF =   /* W spacing ( units of r ) */
(PID.TID 0000.0001)                 3.822055682187439E+00,      /* K =  1 */
(PID.TID 0000.0001)                 3.764477092267992E+00,      /* K =  2 */
(PID.TID 0000.0001)                 3.707765913577681E+00,      /* K =  3 */
(PID.TID 0000.0001)                 3.651909078720421E+00,      /* K =  4 */
(PID.TID 0000.0001)                 3.596893717158130E+00,      /* K =  5 */
(PID.TID 0000.0001)                 3.542707152245095E+00,      /* K =  6 */
(PID.TID 0000.0001)                 3.489336898307018E+00,      /* K =  7 */
(PID.TID 0000.0001)                 3.436770657764067E+00,      /* K =  8 */
(PID.TID 0000.0001)                 3.384996318297267E+00,      /* K =  9 */
(PID.TID 0000.0001)                 3.334001950057574E+00,      /* K = 10 */
(PID.TID 0000.0001)                 3.283775802917003E+00,      /* K = 11 */
(PID.TID 0000.0001)                 3.234306303761158E+00,      /* K = 12 */
(PID.TID 0000.0001)                 3.185582053822558E+00,      /* K = 13 */
(PID.TID 0000.0001)                 3.137591826054127E+00,      /* K = 14 */
(PID.TID 0000.0001)                 3.090324562542261E+00,      /* K = 15 */
(PID.TID 0000.0001)                 3.043769371958857E+00,      /* K = 16 */
(PID.TID 0000.0001)                 2.997915527051739E+00,      /* K = 17 */
(PID.TID 0000.0001)                 2.952752462172877E+00,      /* K = 18 */
(PID.TID 0000.0001)                 2.908269770843852E+00,      /* K = 19 */
(PID.TID 0000.0001)                 2.864457203357994E+00,      /* K = 20 */
(PID.TID 0000.0001)                 2.821304664418644E+00,      /* K = 21 */
(PID.TID 0000.0001)                 2.778802210812994E+00,      /* K = 22 */
(PID.TID 0000.0001)                 2.736940049120968E+00,      /* K = 23 */
(PID.TID 0000.0001)                 2.695708533458628E+00,      /* K = 24 */
(PID.TID 0000.0001)                 2.655098163255560E+00,      /* K = 25 */
(PID.TID 0000.0001)                 2.615099581065759E+00,      /* K = 26 */
(PID.TID 0000.0001)                 2.575703570411481E+00,      /* K = 27 */
(PID.TID 0000.0001)                 2.536901053659578E+00,      /* K = 28 */
(PID.TID 0000.0001)                 2.498683089929840E+00,      /* K = 29 */
(PID.TID 0000.0001)                 2.461040873034825E+00,      /* K = 30 */
(PID.TID 0000.0001)                 2.423965729450739E+00,      /* K = 31 */
(PID.TID 0000.0001)                 2.387449116318886E+00,      /* K = 32 */
(PID.TID 0000.0001)                 2.351482619477218E+00,      /* K = 33 */
(PID.TID 0000.0001)                 2.316057951521544E+00,      /* K = 34 */
(PID.TID 0000.0001)                 2.281166949895945E+00,      /* K = 35 */
(PID.TID 0000.0001)                 2.246801575011955E+00,      /* K = 36 */
(PID.TID 0000.0001)                 2.212953908396083E+00,      /* K = 37 */
(PID.TID 0000.0001)                 2.179616150865231E+00,      /* K = 38 */
(PID.TID 0000.0001)                 2.146780620729614E+00,      /* K = 39 */
(PID.TID 0000.0001)                 2.114439752022734E+00,      /* K = 40 */
(PID.TID 0000.0001)                 2.082586092758038E+00,      /* K = 41 */
(PID.TID 0000.0001)                 2.051212303211825E+00,      /* K = 42 */
(PID.TID 0000.0001)                 2.020311154232026E+00,      /* K = 43 */
(PID.TID 0000.0001)                 1.989875525572468E+00,      /* K = 44 */
(PID.TID 0000.0001)                 1.959898404252218E+00,      /* K = 45 */
(PID.TID 0000.0001)                 1.930372882939658E+00,      /* K = 46 */
(PID.TID 0000.0001)                 1.901292158360891E+00,      /* K = 47 */
(PID.TID 0000.0001)                 1.872649529732135E+00,      /* K = 48 */
(PID.TID 0000.0001)                 1.844438397215723E+00,      /* K = 49 */
(PID.TID 0000.0001)                 1.816652260399374E+00,      /* K = 50 */
(PID.TID 0000.0001)                 1.789284716798359E+00,      /* K = 51 */
(PID.TID 0000.0001)                 1.762329460380246E+00,      /* K = 52 */
(PID.TID 0000.0001)                 1.735780280111862E+00,      /* K = 53 */
(PID.TID 0000.0001)                 1.709631058528145E+00,      /* K = 54 */
(PID.TID 0000.0001)                 1.683875770322557E+00,      /* K = 55 */
(PID.TID 0000.0001)                 1.658508480958733E+00,      /* K = 56 */
(PID.TID 0000.0001)                 1.633523345303044E+00,      /* K = 57 */
(PID.TID 0000.0001)                 1.608914606277762E+00,      /* K = 58 */
(PID.TID 0000.0001)                 1.584676593534511E+00,      /* K = 59 */
(PID.TID 0000.0001)                 1.560803722147705E+00,      /* K = 60 */
(PID.TID 0000.0001)                 1.537290491327673E+00,      /* K = 61 */
(PID.TID 0000.0001)                 1.514131483153160E+00,      /* K = 62 */
(PID.TID 0000.0001)                 1.491321361322935E+00,      /* K = 63 */
(PID.TID 0000.0001)                 1.468854869926195E+00,      /* K = 64 */
(PID.TID 0000.0001)                 1.446726832231500E+00,      /* K = 65 */
(PID.TID 0000.0001)                 1.424932149493952E+00,      /* K = 66 */
(PID.TID 0000.0001)                 1.403465799780336E+00,      /* K = 67 */
(PID.TID 0000.0001)                 1.382322836811970E+00,      /* K = 68 */
(PID.TID 0000.0001)                 1.361498388824982E+00,      /* K = 69 */
(PID.TID 0000.0001)                 1.340987657447758E+00,      /* K = 70 */
(PID.TID 0000.0001)                 1.320785916595297E+00,      /* K = 71 */
(PID.TID 0000.0001)                 1.300888511380233E+00,      /* K = 72 */
(PID.TID 0000.0001)                 1.281290857040249E+00,      /* K = 73 */
(PID.TID 0000.0001)                 1.261988437881657E+00,      /* K = 74 */
(PID.TID 0000.0001)                 1.242976806238896E+00,      /* K = 75 */
(PID.TID 0000.0001)                 1.224251581449692E+00,      /* K = 76 */
(PID.TID 0000.0001)                 1.205808448845673E+00,      /* K = 77 */
(PID.TID 0000.0001)                 1.187643158758179E+00,      /* K = 78 */
(PID.TID 0000.0001)                 1.169751525539053E+00,      /* K = 79 */
(PID.TID 0000.0001)                 1.152129426596184E+00,      /* K = 80 */
(PID.TID 0000.0001)                 1.134772801443579E+00,      /* K = 81 */
(PID.TID 0000.0001)                 1.117677650765746E+00,      /* K = 82 */
(PID.TID 0000.0001)                 1.100840035496170E+00,      /* K = 83 */
(PID.TID 0000.0001)                 1.084256075909671E+00,      /* K = 84 */
(PID.TID 0000.0001)                 1.067921950728443E+00,      /* K = 85 */
(PID.TID 0000.0001)                 1.051833896241551E+00,      /* K = 86 */
(PID.TID 0000.0001)                 1.035988205437693E+00,      /* K = 87 */
(PID.TID 0000.0001)                 1.020381227151040E+00,      /* K = 88 */
(PID.TID 0000.0001)                 1.005009365219921E+00,      /* K = 89 */
(PID.TID 0000.0001)     4 @  1.000000000000000E+00,             /* K = 90: 93 */
(PID.TID 0000.0001)                 1.091477471705477E+00,      /* K = 94 */
(PID.TID 0000.0001)                 1.108171884291683E+00,      /* K = 95 */
(PID.TID 0000.0001)                 1.125121641966381E+00,      /* K = 96 */
(PID.TID 0000.0001)                 1.142330650294613E+00,      /* K = 97 */
(PID.TID 0000.0001)                 1.159802874577986E+00,      /* K = 98 */
(PID.TID 0000.0001)                 1.177542340768360E+00,      /* K = 99 */
(PID.TID 0000.0001)                 1.195553136395499E+00       /* K =100 */
(PID.TID 0000.0001)     ;
(PID.TID 0000.0001) delX = /* U spacing ( m - cartesian, degrees - spherical ) */
(PID.TID 0000.0001)                 1.263294638016668E+03,      /* I =  1 */
(PID.TID 0000.0001)                 1.237496063806571E+03,      /* I =  2 */
(PID.TID 0000.0001)                 1.212224339320398E+03,      /* I =  3 */
(PID.TID 0000.0001)      . . .
(PID.TID 0000.0001)                 4.790113490274632E+02,      /* I = 48 */
(PID.TID 0000.0001)                 4.692291418815790E+02,      /* I = 49 */
(PID.TID 0000.0001)                 4.596467036489769E+02,      /* I = 50 */
(PID.TID 0000.0001)                 4.502599547167311E+02,      /* I = 51 */
(PID.TID 0000.0001)                 4.410648987843862E+02,      /* I = 52 */
(PID.TID 0000.0001)                 4.320576211625778E+02,      /* I = 53 */
(PID.TID 0000.0001)      . . .
(PID.TID 0000.0001)                 2.000000000000000E+02,      /* I = 98 */
(PID.TID 0000.0001)                 2.000000000000000E+02,      /* I = 99 */
(PID.TID 0000.0001)                 2.000000000000000E+02,      /* I =100 */
(PID.TID 0000.0001)                 2.000000000000000E+02,      /* I =101 */
(PID.TID 0000.0001)                 2.000000000000000E+02,      /* I =102 */
(PID.TID 0000.0001)                 2.000000000000000E+02,      /* I =103 */
(PID.TID 0000.0001)      . . .
(PID.TID 0000.0001)                 3.612641354876311E+02,      /* I =148 */
(PID.TID 0000.0001)                 3.687955530665730E+02,      /* I =149 */
(PID.TID 0000.0001)                 3.764839811128614E+02,      /* I =150 */
(PID.TID 0000.0001)                 3.843326928863569E+02,      /* I =151 */
(PID.TID 0000.0001)                 3.923450298858749E+02,      /* I =152 */
(PID.TID 0000.0001)                 4.005244032717896E+02,      /* I =153 */
(PID.TID 0000.0001)      . . .
(PID.TID 0000.0001)                 1.013599012055986E+03,      /* I =198 */
(PID.TID 0000.0001)                 1.034729915092050E+03,      /* I =199 */
(PID.TID 0000.0001)                 1.056301342495056E+03       /* I =200 */
(PID.TID 0000.0001)     ;
(PID.TID 0000.0001) delY = /* V spacing ( m - cartesian, degrees - spherical ) */
(PID.TID 0000.0001)                 5.000000000000000E+03       /* J =  1 */
(PID.TID 0000.0001)     ;
(PID.TID 0000.0001) xgOrigin = /* X-axis origin of West  edge (cartesian: m, lat-lon: deg) */
(PID.TID 0000.0001)                 0.000000000000000E+00
(PID.TID 0000.0001)     ;
(PID.TID 0000.0001) ygOrigin = /* Y-axis origin of South edge (cartesian: m, lat-lon: deg) */
(PID.TID 0000.0001)                 0.000000000000000E+00
(PID.TID 0000.0001)     ;
(PID.TID 0000.0001) rSphere =  /* Radius ( ignored - cartesian, m - spherical ) */
(PID.TID 0000.0001)                 6.370000000000000E+06
(PID.TID 0000.0001)     ;
(PID.TID 0000.0001) deepAtmosphere = /* Deep/Shallow Atmosphere flag (True/False) */
(PID.TID 0000.0001)                   F
(PID.TID 0000.0001)     ;
(PID.TID 0000.0001) xC =  /* xC(:,1,:,1) : P-point X coord ( deg. or m if cartesian) */
(PID.TID 0000.0001)                 6.316473190083342E+02,      /* I =  1 */
(PID.TID 0000.0001)                 1.882042669919954E+03,      /* I =  2 */
(PID.TID 0000.0001)                 3.106902871483439E+03,      /* I =  3 */
(PID.TID 0000.0001)      . . .
(PID.TID 0000.0001)                 3.864398747251778E+04,      /* I = 48 */
(PID.TID 0000.0001)                 3.911810771797229E+04,      /* I = 49 */
(PID.TID 0000.0001)                 3.958254564073758E+04,      /* I = 50 */
(PID.TID 0000.0001)                 4.003749896992043E+04,      /* I = 51 */
(PID.TID 0000.0001)                 4.048316139667099E+04,      /* I = 52 */
(PID.TID 0000.0001)                 4.091972265664447E+04,      /* I = 53 */
(PID.TID 0000.0001)      . . .
(PID.TID 0000.0001)                 5.369999999999999E+04,      /* I = 98 */
(PID.TID 0000.0001)                 5.389999999999999E+04,      /* I = 99 */
(PID.TID 0000.0001)                 5.409999999999999E+04,      /* I =100 */
(PID.TID 0000.0001)                 5.429999999999999E+04,      /* I =101 */
(PID.TID 0000.0001)                 5.449999999999999E+04,      /* I =102 */
(PID.TID 0000.0001)                 5.469999999999999E+04,      /* I =103 */
(PID.TID 0000.0001)      . . .
(PID.TID 0000.0001)                 6.578505387737689E+04,      /* I =148 */
(PID.TID 0000.0001)                 6.615008372165399E+04,      /* I =149 */
(PID.TID 0000.0001)                 6.652272348874371E+04,      /* I =150 */
(PID.TID 0000.0001)                 6.690313182574332E+04,      /* I =151 */
(PID.TID 0000.0001)                 6.729147068712943E+04,      /* I =152 */
(PID.TID 0000.0001)                 6.768790540370827E+04,      /* I =153 */
(PID.TID 0000.0001)      . . .
(PID.TID 0000.0001)                 9.740216923638493E+04,      /* I =198 */
(PID.TID 0000.0001)                 9.842633369995895E+04,      /* I =199 */
(PID.TID 0000.0001)                 9.947184932875249E+04       /* I =200 */
(PID.TID 0000.0001)     ;
(PID.TID 0000.0001) yC =  /* yC(1,:,1,:) : P-point Y coord ( deg. or m if cartesian) */
(PID.TID 0000.0001)                 2.500000000000000E+03       /* J =  1 */
(PID.TID 0000.0001)     ;
(PID.TID 0000.0001) rcoord = /* P-point R coordinate (  units of r ) */
(PID.TID 0000.0001)                -1.911027841093720E+00,      /* K =  1 */
(PID.TID 0000.0001)                -5.704294228321436E+00,      /* K =  2 */
(PID.TID 0000.0001)                -9.440415731244272E+00,      /* K =  3 */
(PID.TID 0000.0001)                -1.312025322739332E+01,      /* K =  4 */
(PID.TID 0000.0001)                -1.674465462533260E+01,      /* K =  5 */
(PID.TID 0000.0001)                -2.031445506003421E+01,      /* K =  6 */
(PID.TID 0000.0001)                -2.383047708531027E+01,      /* K =  7 */
(PID.TID 0000.0001)                -2.729353086334581E+01,      /* K =  8 */
(PID.TID 0000.0001)                -3.070441435137648E+01,      /* K =  9 */
(PID.TID 0000.0001)                -3.406391348555390E+01,      /* K = 10 */
(PID.TID 0000.0001)                -3.737280236204119E+01,      /* K = 11 */
(PID.TID 0000.0001)                -4.063184341538027E+01,      /* K = 12 */
(PID.TID 0000.0001)                -4.384178759417213E+01,      /* K = 13 */
(PID.TID 0000.0001)                -4.700337453411048E+01,      /* K = 14 */
(PID.TID 0000.0001)                -5.011733272840867E+01,      /* K = 15 */
(PID.TID 0000.0001)                -5.318437969565923E+01,      /* K = 16 */
(PID.TID 0000.0001)                -5.620522214516453E+01,      /* K = 17 */
(PID.TID 0000.0001)                -5.918055613977683E+01,      /* K = 18 */
(PID.TID 0000.0001)                -6.211106725628520E+01,      /* K = 19 */
(PID.TID 0000.0001)                -6.499743074338612E+01,      /* K = 20 */
(PID.TID 0000.0001)                -6.784031167727444E+01,      /* K = 21 */
(PID.TID 0000.0001)                -7.064036511489026E+01,      /* K = 22 */
(PID.TID 0000.0001)                -7.339823624485724E+01,      /* K = 23 */
(PID.TID 0000.0001)                -7.611456053614704E+01,      /* K = 24 */
(PID.TID 0000.0001)                -7.878996388450413E+01,      /* K = 25 */
(PID.TID 0000.0001)                -8.142506275666479E+01,      /* K = 26 */
(PID.TID 0000.0001)                -8.402046433240341E+01,      /* K = 27 */
(PID.TID 0000.0001)                -8.657676664443893E+01,      /* K = 28 */
(PID.TID 0000.0001)                -8.909455871623365E+01,      /* K = 29 */
(PID.TID 0000.0001)                -9.157442069771598E+01,      /* K = 30 */
(PID.TID 0000.0001)                -9.401692399895876E+01,      /* K = 31 */
(PID.TID 0000.0001)                -9.642263142184358E+01,      /* K = 32 */
(PID.TID 0000.0001)                -9.879209728974163E+01,      /* K = 33 */
(PID.TID 0000.0001)                -1.011258675752410E+02,      /* K = 34 */
(PID.TID 0000.0001)                -1.034244800259498E+02,      /* K = 35 */
(PID.TID 0000.0001)                -1.056884642884037E+02,      /* K = 36 */
(PID.TID 0000.0001)                -1.079183420301077E+02,      /* K = 37 */
(PID.TID 0000.0001)                -1.101146270597384E+02,      /* K = 38 */
(PID.TID 0000.0001)                -1.122778254455358E+02,      /* K = 39 */
(PID.TID 0000.0001)                -1.144084356319120E+02,      /* K = 40 */
(PID.TID 0000.0001)                -1.165069485543024E+02,      /* K = 41 */
(PID.TID 0000.0001)                -1.185738477522873E+02,      /* K = 42 */
(PID.TID 0000.0001)                -1.206096094810092E+02,      /* K = 43 */
(PID.TID 0000.0001)                -1.226147028209115E+02,      /* K = 44 */
(PID.TID 0000.0001)                -1.245895897858238E+02,      /* K = 45 */
(PID.TID 0000.0001)                -1.265347254294198E+02,      /* K = 46 */
(PID.TID 0000.0001)                -1.284505579500700E+02,      /* K = 47 */
(PID.TID 0000.0001)                -1.303375287941165E+02,      /* K = 48 */
(PID.TID 0000.0001)                -1.321960727575905E+02,      /* K = 49 */
(PID.TID 0000.0001)                -1.340266180863980E+02,      /* K = 50 */
(PID.TID 0000.0001)                -1.358295865749969E+02,      /* K = 51 */
(PID.TID 0000.0001)                -1.376053936635862E+02,      /* K = 52 */
(PID.TID 0000.0001)                -1.393544485338322E+02,      /* K = 53 */
(PID.TID 0000.0001)                -1.410771542031522E+02,      /* K = 54 */
(PID.TID 0000.0001)                -1.427739076175776E+02,      /* K = 55 */
(PID.TID 0000.0001)                -1.444450997432182E+02,      /* K = 56 */
(PID.TID 0000.0001)                -1.460911156563491E+02,      /* K = 57 */
(PID.TID 0000.0001)                -1.477123346321395E+02,      /* K = 58 */
(PID.TID 0000.0001)                -1.493091302320457E+02,      /* K = 59 */
(PID.TID 0000.0001)                -1.508818703898868E+02,      /* K = 60 */
(PID.TID 0000.0001)                -1.524309174966245E+02,      /* K = 61 */
(PID.TID 0000.0001)                -1.539566284838649E+02,      /* K = 62 */
(PID.TID 0000.0001)                -1.554593549061030E+02,      /* K = 63 */
(PID.TID 0000.0001)                -1.569394430217275E+02,      /* K = 64 */
(PID.TID 0000.0001)                -1.583972338728064E+02,      /* K = 65 */
(PID.TID 0000.0001)                -1.598330633636691E+02,      /* K = 66 */
(PID.TID 0000.0001)                -1.612472623383062E+02,      /* K = 67 */
(PID.TID 0000.0001)                -1.626401566566024E+02,      /* K = 68 */
(PID.TID 0000.0001)                -1.640120672694209E+02,      /* K = 69 */
(PID.TID 0000.0001)                -1.653633102925572E+02,      /* K = 70 */
(PID.TID 0000.0001)                -1.666941970795788E+02,      /* K = 71 */
(PID.TID 0000.0001)                -1.680050342935665E+02,      /* K = 72 */
(PID.TID 0000.0001)                -1.692961239777768E+02,      /* K = 73 */
(PID.TID 0000.0001)                -1.705677636252377E+02,      /* K = 74 */
(PID.TID 0000.0001)                -1.718202462472980E+02,      /* K = 75 */
(PID.TID 0000.0001)                -1.730538604411423E+02,      /* K = 76 */
(PID.TID 0000.0001)                -1.742688904562900E+02,      /* K = 77 */
(PID.TID 0000.0001)                -1.754656162600919E+02,      /* K = 78 */
(PID.TID 0000.0001)                -1.766443136022405E+02,      /* K = 79 */
(PID.TID 0000.0001)                -1.778052540783081E+02,      /* K = 80 */
(PID.TID 0000.0001)                -1.789487051923280E+02,      /* K = 81 */
(PID.TID 0000.0001)                -1.800749304184327E+02,      /* K = 82 */
(PID.TID 0000.0001)                -1.811841892615636E+02,      /* K = 83 */
(PID.TID 0000.0001)                -1.822767373172666E+02,      /* K = 84 */
(PID.TID 0000.0001)                -1.833528263305856E+02,      /* K = 85 */
(PID.TID 0000.0001)                -1.844127042540706E+02,      /* K = 86 */
(PID.TID 0000.0001)                -1.854566153049103E+02,      /* K = 87 */
(PID.TID 0000.0001)                -1.864848000212046E+02,      /* K = 88 */
(PID.TID 0000.0001)                -1.874974953173901E+02,      /* K = 89 */
(PID.TID 0000.0001)                -1.885000000000001E+02,      /* K = 90 */
(PID.TID 0000.0001)                -1.895000000000001E+02,      /* K = 91 */
(PID.TID 0000.0001)                -1.905000000000001E+02,      /* K = 92 */
(PID.TID 0000.0001)                -1.915000000000001E+02,      /* K = 93 */
(PID.TID 0000.0001)                -1.925457387358528E+02,      /* K = 94 */
(PID.TID 0000.0001)                -1.936455634138514E+02,      /* K = 95 */
(PID.TID 0000.0001)                -1.947622101769804E+02,      /* K = 96 */
(PID.TID 0000.0001)                -1.958959363231109E+02,      /* K = 97 */
(PID.TID 0000.0001)                -1.970470030855472E+02,      /* K = 98 */
(PID.TID 0000.0001)                -1.982156756932204E+02,      /* K = 99 */
(PID.TID 0000.0001)                -1.994022234318024E+02       /* K =100 */
(PID.TID 0000.0001)     ;
(PID.TID 0000.0001) rF =   /* W-Interf. R coordinate (  units of r ) */
(PID.TID 0000.0001)                 0.000000000000000E+00,      /* K =  1 */
(PID.TID 0000.0001)                -3.822055682187439E+00,      /* K =  2 */
(PID.TID 0000.0001)                -7.586532774455431E+00,      /* K =  3 */
(PID.TID 0000.0001)                -1.129429868803311E+01,      /* K =  4 */
(PID.TID 0000.0001)                -1.494620776675353E+01,      /* K =  5 */
(PID.TID 0000.0001)                -1.854310148391166E+01,      /* K =  6 */
(PID.TID 0000.0001)                -2.208580863615676E+01,      /* K =  7 */
(PID.TID 0000.0001)                -2.557514553446377E+01,      /* K =  8 */
(PID.TID 0000.0001)                -2.901191619222784E+01,      /* K =  9 */
(PID.TID 0000.0001)                -3.239691251052511E+01,      /* K = 10 */
(PID.TID 0000.0001)                -3.573091446058268E+01,      /* K = 11 */
(PID.TID 0000.0001)                -3.901469026349969E+01,      /* K = 12 */
(PID.TID 0000.0001)                -4.224899656726085E+01,      /* K = 13 */
(PID.TID 0000.0001)                -4.543457862108340E+01,      /* K = 14 */
(PID.TID 0000.0001)                -4.857217044713753E+01,      /* K = 15 */
(PID.TID 0000.0001)                -5.166249500967979E+01,      /* K = 16 */
(PID.TID 0000.0001)                -5.470626438163865E+01,      /* K = 17 */
(PID.TID 0000.0001)                -5.770417990869039E+01,      /* K = 18 */
(PID.TID 0000.0001)                -6.065693237086326E+01,      /* K = 19 */
(PID.TID 0000.0001)                -6.356520214170711E+01,      /* K = 20 */
(PID.TID 0000.0001)                -6.642965934506510E+01,      /* K = 21 */
(PID.TID 0000.0001)                -6.925096400948375E+01,      /* K = 22 */
(PID.TID 0000.0001)                -7.202976622029675E+01,      /* K = 23 */
(PID.TID 0000.0001)                -7.476670626941772E+01,      /* K = 24 */
(PID.TID 0000.0001)                -7.746241480287635E+01,      /* K = 25 */
(PID.TID 0000.0001)                -8.011751296613191E+01,      /* K = 26 */
(PID.TID 0000.0001)                -8.273261254719768E+01,      /* K = 27 */
(PID.TID 0000.0001)                -8.530831611760915E+01,      /* K = 28 */
(PID.TID 0000.0001)                -8.784521717126873E+01,      /* K = 29 */
(PID.TID 0000.0001)                -9.034390026119857E+01,      /* K = 30 */
(PID.TID 0000.0001)                -9.280494113423339E+01,      /* K = 31 */
(PID.TID 0000.0001)                -9.522890686368413E+01,      /* K = 32 */
(PID.TID 0000.0001)                -9.761635598000302E+01,      /* K = 33 */
(PID.TID 0000.0001)                -9.996783859948025E+01,      /* K = 34 */
(PID.TID 0000.0001)                -1.022838965510018E+02,      /* K = 35 */
(PID.TID 0000.0001)                -1.045650635008977E+02,      /* K = 36 */
(PID.TID 0000.0001)                -1.068118650759097E+02,      /* K = 37 */
(PID.TID 0000.0001)                -1.090248189843058E+02,      /* K = 38 */
(PID.TID 0000.0001)                -1.112044351351710E+02,      /* K = 39 */
(PID.TID 0000.0001)                -1.133512157559006E+02,      /* K = 40 */
(PID.TID 0000.0001)                -1.154656555079234E+02,      /* K = 41 */
(PID.TID 0000.0001)                -1.175482416006814E+02,      /* K = 42 */
(PID.TID 0000.0001)                -1.195994539038932E+02,      /* K = 43 */
(PID.TID 0000.0001)                -1.216197650581253E+02,      /* K = 44 */
(PID.TID 0000.0001)                -1.236096405836977E+02,      /* K = 45 */
(PID.TID 0000.0001)                -1.255695389879499E+02,      /* K = 46 */
(PID.TID 0000.0001)                -1.274999118708896E+02,      /* K = 47 */
(PID.TID 0000.0001)                -1.294012040292505E+02,      /* K = 48 */
(PID.TID 0000.0001)                -1.312738535589826E+02,      /* K = 49 */
(PID.TID 0000.0001)                -1.331182919561984E+02,      /* K = 50 */
(PID.TID 0000.0001)                -1.349349442165977E+02,      /* K = 51 */
(PID.TID 0000.0001)                -1.367242289333961E+02,      /* K = 52 */
(PID.TID 0000.0001)                -1.384865583937763E+02,      /* K = 53 */
(PID.TID 0000.0001)                -1.402223386738882E+02,      /* K = 54 */
(PID.TID 0000.0001)                -1.419319697324163E+02,      /* K = 55 */
(PID.TID 0000.0001)                -1.436158455027389E+02,      /* K = 56 */
(PID.TID 0000.0001)                -1.452743539836976E+02,      /* K = 57 */
(PID.TID 0000.0001)                -1.469078773290007E+02,      /* K = 58 */
(PID.TID 0000.0001)                -1.485167919352784E+02,      /* K = 59 */
(PID.TID 0000.0001)                -1.501014685288129E+02,      /* K = 60 */
(PID.TID 0000.0001)                -1.516622722509607E+02,      /* K = 61 */
(PID.TID 0000.0001)                -1.531995627422883E+02,      /* K = 62 */
(PID.TID 0000.0001)                -1.547136942254415E+02,      /* K = 63 */
(PID.TID 0000.0001)                -1.562050155867644E+02,      /* K = 64 */
(PID.TID 0000.0001)                -1.576738704566906E+02,      /* K = 65 */
(PID.TID 0000.0001)                -1.591205972889221E+02,      /* K = 66 */
(PID.TID 0000.0001)                -1.605455294384161E+02,      /* K = 67 */
(PID.TID 0000.0001)                -1.619489952381964E+02,      /* K = 68 */
(PID.TID 0000.0001)                -1.633313180750084E+02,      /* K = 69 */
(PID.TID 0000.0001)                -1.646928164638333E+02,      /* K = 70 */
(PID.TID 0000.0001)                -1.660338041212811E+02,      /* K = 71 */
(PID.TID 0000.0001)                -1.673545900378764E+02,      /* K = 72 */
(PID.TID 0000.0001)                -1.686554785492566E+02,      /* K = 73 */
(PID.TID 0000.0001)                -1.699367694062969E+02,      /* K = 74 */
(PID.TID 0000.0001)                -1.711987578441785E+02,      /* K = 75 */
(PID.TID 0000.0001)                -1.724417346504174E+02,      /* K = 76 */
(PID.TID 0000.0001)                -1.736659862318671E+02,      /* K = 77 */
(PID.TID 0000.0001)                -1.748717946807128E+02,      /* K = 78 */
(PID.TID 0000.0001)                -1.760594378394710E+02,      /* K = 79 */
(PID.TID 0000.0001)                -1.772291893650101E+02,      /* K = 80 */
(PID.TID 0000.0001)                -1.783813187916062E+02,      /* K = 81 */
(PID.TID 0000.0001)                -1.795160915930498E+02,      /* K = 82 */
(PID.TID 0000.0001)                -1.806337692438156E+02,      /* K = 83 */
(PID.TID 0000.0001)                -1.817346092793117E+02,      /* K = 84 */
(PID.TID 0000.0001)                -1.828188653552214E+02,      /* K = 85 */
(PID.TID 0000.0001)                -1.838867873059499E+02,      /* K = 86 */
(PID.TID 0000.0001)                -1.849386212021914E+02,      /* K = 87 */
(PID.TID 0000.0001)                -1.859746094076291E+02,      /* K = 88 */
(PID.TID 0000.0001)                -1.869949906347802E+02,      /* K = 89 */
(PID.TID 0000.0001)                -1.880000000000001E+02,      /* K = 90 */
(PID.TID 0000.0001)                -1.890000000000001E+02,      /* K = 91 */
(PID.TID 0000.0001)                -1.900000000000001E+02,      /* K = 92 */
(PID.TID 0000.0001)                -1.910000000000001E+02,      /* K = 93 */
(PID.TID 0000.0001)                -1.920000000000001E+02,      /* K = 94 */
(PID.TID 0000.0001)                -1.930914774717056E+02,      /* K = 95 */
(PID.TID 0000.0001)                -1.941996493559973E+02,      /* K = 96 */
(PID.TID 0000.0001)                -1.953247709979636E+02,      /* K = 97 */
(PID.TID 0000.0001)                -1.964671016482583E+02,      /* K = 98 */
(PID.TID 0000.0001)                -1.976269045228362E+02,      /* K = 99 */
(PID.TID 0000.0001)                -1.988044468636046E+02,      /* K =100 */
(PID.TID 0000.0001)                -2.000000000000001E+02       /* K =101 */
(PID.TID 0000.0001)     ;
(PID.TID 0000.0001) deepFacC = /* deep-model grid factor @ cell-Center (-) */
(PID.TID 0000.0001)   100 @  1.000000000000000E+00              /* K =  1:100 */
(PID.TID 0000.0001)     ;
(PID.TID 0000.0001) deepFacF = /* deep-model grid factor @ W-Interface (-) */
(PID.TID 0000.0001)   101 @  1.000000000000000E+00              /* K =  1:101 */
(PID.TID 0000.0001)     ;
(PID.TID 0000.0001) rVel2wUnit = /* convert units: rVel -> wSpeed (=1 if z-coord)*/
(PID.TID 0000.0001)   101 @  1.000000000000000E+00              /* K =  1:101 */
(PID.TID 0000.0001)     ;
(PID.TID 0000.0001) wUnit2rVel = /* convert units: wSpeed -> rVel (=1 if z-coord)*/
(PID.TID 0000.0001)   101 @  1.000000000000000E+00              /* K =  1:101 */
(PID.TID 0000.0001)     ;
(PID.TID 0000.0001) dBdrRef = /* Vertical grad. of reference buoyancy [(m/s/r)^2] */
(PID.TID 0000.0001)                 0.000000000000000E+00,      /* K =  1 */
(PID.TID 0000.0001)                 1.392836747106951E-04,      /* K =  2 */
(PID.TID 0000.0001)                 6.353486844670963E-04,      /* K =  3 */
(PID.TID 0000.0001)                 1.063534854046936E-03,      /* K =  4 */
(PID.TID 0000.0001)                 6.549329451315442E-04,      /* K =  5 */
(PID.TID 0000.0001)                 1.483704676733227E-04,      /* K =  6 */
(PID.TID 0000.0001)                 1.236527023436136E-05,      /* K =  7 */
(PID.TID 0000.0001)                 3.791100316712723E-07,      /* K =  8 */
(PID.TID 0000.0001)    92 @  0.000000000000000E+00              /* K =  9:100 */
(PID.TID 0000.0001)     ;
(PID.TID 0000.0001) rotateGrid = /* use rotated grid ( True/False ) */
(PID.TID 0000.0001)                   F
(PID.TID 0000.0001)     ;
(PID.TID 0000.0001) phiEuler = /* Euler angle, rotation about original z-coordinate [rad] */
(PID.TID 0000.0001)                 0.000000000000000E+00
(PID.TID 0000.0001)     ;
(PID.TID 0000.0001) thetaEuler = /* Euler angle, rotation about new x-coordinate [rad] */
(PID.TID 0000.0001)                 0.000000000000000E+00
(PID.TID 0000.0001)     ;
(PID.TID 0000.0001) psiEuler = /* Euler angle, rotation about new z-coordinate [rad] */
(PID.TID 0000.0001)                 0.000000000000000E+00
(PID.TID 0000.0001)     ;
(PID.TID 0000.0001) dxF =  /* dxF(:,1,:,1) ( units: m ) */
(PID.TID 0000.0001)                 1.263294638016668E+03,      /* I =  1 */
(PID.TID 0000.0001)                 1.237496063806571E+03,      /* I =  2 */
(PID.TID 0000.0001)                 1.212224339320398E+03,      /* I =  3 */
(PID.TID 0000.0001)      . . .
(PID.TID 0000.0001)                 4.790113490274632E+02,      /* I = 48 */
(PID.TID 0000.0001)                 4.692291418815790E+02,      /* I = 49 */
(PID.TID 0000.0001)                 4.596467036489769E+02,      /* I = 50 */
(PID.TID 0000.0001)                 4.502599547167311E+02,      /* I = 51 */
(PID.TID 0000.0001)                 4.410648987843862E+02,      /* I = 52 */
(PID.TID 0000.0001)                 4.320576211625778E+02,      /* I = 53 */
(PID.TID 0000.0001)      . . .
(PID.TID 0000.0001)                 2.000000000000000E+02,      /* I = 98 */
(PID.TID 0000.0001)                 2.000000000000000E+02,      /* I = 99 */
(PID.TID 0000.0001)                 2.000000000000000E+02,      /* I =100 */
(PID.TID 0000.0001)                 2.000000000000000E+02,      /* I =101 */
(PID.TID 0000.0001)                 2.000000000000000E+02,      /* I =102 */
(PID.TID 0000.0001)                 2.000000000000000E+02,      /* I =103 */
(PID.TID 0000.0001)      . . .
(PID.TID 0000.0001)                 3.612641354876311E+02,      /* I =148 */
(PID.TID 0000.0001)                 3.687955530665730E+02,      /* I =149 */
(PID.TID 0000.0001)                 3.764839811128614E+02,      /* I =150 */
(PID.TID 0000.0001)                 3.843326928863569E+02,      /* I =151 */
(PID.TID 0000.0001)                 3.923450298858749E+02,      /* I =152 */
(PID.TID 0000.0001)                 4.005244032717896E+02,      /* I =153 */
(PID.TID 0000.0001)      . . .
(PID.TID 0000.0001)                 1.013599012055986E+03,      /* I =198 */
(PID.TID 0000.0001)                 1.034729915092050E+03,      /* I =199 */
(PID.TID 0000.0001)                 1.056301342495056E+03       /* I =200 */
(PID.TID 0000.0001)     ;
(PID.TID 0000.0001) dxF =  /* dxF(1,:,1,:) ( units: m ) */
(PID.TID 0000.0001)                 1.263294638016668E+03       /* J =  1 */
(PID.TID 0000.0001)     ;
(PID.TID 0000.0001) dyF =  /* dyF(:,1,:,1) ( units: m ) */
(PID.TID 0000.0001)   200 @  5.000000000000000E+03              /* I =  1:200 */
(PID.TID 0000.0001)     ;
(PID.TID 0000.0001) dyF =  /* dyF(1,:,1,:) ( units: m ) */
(PID.TID 0000.0001)                 5.000000000000000E+03       /* J =  1 */
(PID.TID 0000.0001)     ;
(PID.TID 0000.0001) dxG =  /* dxG(:,1,:,1) ( units: m ) */
(PID.TID 0000.0001)                 1.263294638016668E+03,      /* I =  1 */
(PID.TID 0000.0001)                 1.237496063806571E+03,      /* I =  2 */
(PID.TID 0000.0001)                 1.212224339320398E+03,      /* I =  3 */
(PID.TID 0000.0001)      . . .
(PID.TID 0000.0001)                 4.790113490274632E+02,      /* I = 48 */
(PID.TID 0000.0001)                 4.692291418815790E+02,      /* I = 49 */
(PID.TID 0000.0001)                 4.596467036489769E+02,      /* I = 50 */
(PID.TID 0000.0001)                 4.502599547167311E+02,      /* I = 51 */
(PID.TID 0000.0001)                 4.410648987843862E+02,      /* I = 52 */
(PID.TID 0000.0001)                 4.320576211625778E+02,      /* I = 53 */
(PID.TID 0000.0001)      . . .
(PID.TID 0000.0001)                 2.000000000000000E+02,      /* I = 98 */
(PID.TID 0000.0001)                 2.000000000000000E+02,      /* I = 99 */
(PID.TID 0000.0001)                 2.000000000000000E+02,      /* I =100 */
(PID.TID 0000.0001)                 2.000000000000000E+02,      /* I =101 */
(PID.TID 0000.0001)                 2.000000000000000E+02,      /* I =102 */
(PID.TID 0000.0001)                 2.000000000000000E+02,      /* I =103 */
(PID.TID 0000.0001)      . . .
(PID.TID 0000.0001)                 3.612641354876311E+02,      /* I =148 */
(PID.TID 0000.0001)                 3.687955530665730E+02,      /* I =149 */
(PID.TID 0000.0001)                 3.764839811128614E+02,      /* I =150 */
(PID.TID 0000.0001)                 3.843326928863569E+02,      /* I =151 */
(PID.TID 0000.0001)                 3.923450298858749E+02,      /* I =152 */
(PID.TID 0000.0001)                 4.005244032717896E+02,      /* I =153 */
(PID.TID 0000.0001)      . . .
(PID.TID 0000.0001)                 1.013599012055986E+03,      /* I =198 */
(PID.TID 0000.0001)                 1.034729915092050E+03,      /* I =199 */
(PID.TID 0000.0001)                 1.056301342495056E+03       /* I =200 */
(PID.TID 0000.0001)     ;
(PID.TID 0000.0001) dxG =  /* dxG(1,:,1,:) ( units: m ) */
(PID.TID 0000.0001)                 1.263294638016668E+03       /* J =  1 */
(PID.TID 0000.0001)     ;
(PID.TID 0000.0001) dyG =  /* dyG(:,1,:,1) ( units: m ) */
(PID.TID 0000.0001)   200 @  5.000000000000000E+03              /* I =  1:200 */
(PID.TID 0000.0001)     ;
(PID.TID 0000.0001) dyG =  /* dyG(1,:,1,:) ( units: m ) */
(PID.TID 0000.0001)                 5.000000000000000E+03       /* J =  1 */
(PID.TID 0000.0001)     ;
(PID.TID 0000.0001) dxC =  /* dxC(:,1,:,1) ( units: m ) */
(PID.TID 0000.0001)                 1.159797990255862E+03,      /* I =  1 */
(PID.TID 0000.0001)                 1.250395350911620E+03,      /* I =  2 */
(PID.TID 0000.0001)                 1.224860201563485E+03,      /* I =  3 */
(PID.TID 0000.0001)      . . .
(PID.TID 0000.0001)                 4.840044193881684E+02,      /* I = 48 */
(PID.TID 0000.0001)                 4.741202454545211E+02,      /* I = 49 */
(PID.TID 0000.0001)                 4.644379227652780E+02,      /* I = 50 */
(PID.TID 0000.0001)                 4.549533291828540E+02,      /* I = 51 */
(PID.TID 0000.0001)                 4.456624267505587E+02,      /* I = 52 */
(PID.TID 0000.0001)                 4.365612599734820E+02,      /* I = 53 */
(PID.TID 0000.0001)      . . .
(PID.TID 0000.0001)                 2.000000000000000E+02,      /* I = 98 */
(PID.TID 0000.0001)                 2.000000000000000E+02,      /* I = 99 */
(PID.TID 0000.0001)                 2.000000000000000E+02,      /* I =100 */
(PID.TID 0000.0001)                 2.000000000000000E+02,      /* I =101 */
(PID.TID 0000.0001)                 2.000000000000000E+02,      /* I =102 */
(PID.TID 0000.0001)                 2.000000000000000E+02,      /* I =103 */
(PID.TID 0000.0001)      . . .
(PID.TID 0000.0001)                 3.575753287246037E+02,      /* I =148 */
(PID.TID 0000.0001)                 3.650298442771020E+02,      /* I =149 */
(PID.TID 0000.0001)                 3.726397670897172E+02,      /* I =150 */
(PID.TID 0000.0001)                 3.804083369996092E+02,      /* I =151 */
(PID.TID 0000.0001)                 3.883388613861159E+02,      /* I =152 */
(PID.TID 0000.0001)                 3.964347165788323E+02,      /* I =153 */
(PID.TID 0000.0001)      . . .
(PID.TID 0000.0001)                 1.003249324601893E+03,      /* I =198 */
(PID.TID 0000.0001)                 1.024164463574018E+03,      /* I =199 */
(PID.TID 0000.0001)                 1.045515628793553E+03       /* I =200 */
(PID.TID 0000.0001)     ;
(PID.TID 0000.0001) dxC =  /* dxC(1,:,1,:) ( units: m ) */
(PID.TID 0000.0001)                 1.159797990255862E+03       /* J =  1 */
(PID.TID 0000.0001)     ;
(PID.TID 0000.0001) dyC =  /* dyC(:,1,:,1) ( units: m ) */
(PID.TID 0000.0001)   200 @  5.000000000000000E+03              /* I =  1:200 */
(PID.TID 0000.0001)     ;
(PID.TID 0000.0001) dyC =  /* dyC(1,:,1,:) ( units: m ) */
(PID.TID 0000.0001)                 5.000000000000000E+03       /* J =  1 */
(PID.TID 0000.0001)     ;
(PID.TID 0000.0001) dxV =  /* dxV(:,1,:,1) ( units: m ) */
(PID.TID 0000.0001)                 1.159797990255862E+03,      /* I =  1 */
(PID.TID 0000.0001)                 1.250395350911620E+03,      /* I =  2 */
(PID.TID 0000.0001)                 1.224860201563485E+03,      /* I =  3 */
(PID.TID 0000.0001)      . . .
(PID.TID 0000.0001)                 4.840044193881684E+02,      /* I = 48 */
(PID.TID 0000.0001)                 4.741202454545211E+02,      /* I = 49 */
(PID.TID 0000.0001)                 4.644379227652780E+02,      /* I = 50 */
(PID.TID 0000.0001)                 4.549533291828540E+02,      /* I = 51 */
(PID.TID 0000.0001)                 4.456624267505587E+02,      /* I = 52 */
(PID.TID 0000.0001)                 4.365612599734820E+02,      /* I = 53 */
(PID.TID 0000.0001)      . . .
(PID.TID 0000.0001)                 2.000000000000000E+02,      /* I = 98 */
(PID.TID 0000.0001)                 2.000000000000000E+02,      /* I = 99 */
(PID.TID 0000.0001)                 2.000000000000000E+02,      /* I =100 */
(PID.TID 0000.0001)                 2.000000000000000E+02,      /* I =101 */
(PID.TID 0000.0001)                 2.000000000000000E+02,      /* I =102 */
(PID.TID 0000.0001)                 2.000000000000000E+02,      /* I =103 */
(PID.TID 0000.0001)      . . .
(PID.TID 0000.0001)                 3.575753287246037E+02,      /* I =148 */
(PID.TID 0000.0001)                 3.650298442771020E+02,      /* I =149 */
(PID.TID 0000.0001)                 3.726397670897172E+02,      /* I =150 */
(PID.TID 0000.0001)                 3.804083369996092E+02,      /* I =151 */
(PID.TID 0000.0001)                 3.883388613861159E+02,      /* I =152 */
(PID.TID 0000.0001)                 3.964347165788323E+02,      /* I =153 */
(PID.TID 0000.0001)      . . .
(PID.TID 0000.0001)                 1.003249324601893E+03,      /* I =198 */
(PID.TID 0000.0001)                 1.024164463574018E+03,      /* I =199 */
(PID.TID 0000.0001)                 1.045515628793553E+03       /* I =200 */
(PID.TID 0000.0001)     ;
(PID.TID 0000.0001) dxV =  /* dxV(1,:,1,:) ( units: m ) */
(PID.TID 0000.0001)                 1.159797990255862E+03       /* J =  1 */
(PID.TID 0000.0001)     ;
(PID.TID 0000.0001) dyU =  /* dyU(:,1,:,1) ( units: m ) */
(PID.TID 0000.0001)   200 @  5.000000000000000E+03              /* I =  1:200 */
(PID.TID 0000.0001)     ;
(PID.TID 0000.0001) dyU =  /* dyU(1,:,1,:) ( units: m ) */
(PID.TID 0000.0001)                 5.000000000000000E+03       /* J =  1 */
(PID.TID 0000.0001)     ;
(PID.TID 0000.0001) rA  =  /* rA (:,1,:,1) ( units: m^2 ) */
(PID.TID 0000.0001)                 6.316473190083342E+06,      /* I =  1 */
(PID.TID 0000.0001)                 6.187480319032855E+06,      /* I =  2 */
(PID.TID 0000.0001)                 6.061121696601991E+06,      /* I =  3 */
(PID.TID 0000.0001)      . . .
(PID.TID 0000.0001)                 2.395056745137316E+06,      /* I = 48 */
(PID.TID 0000.0001)                 2.346145709407895E+06,      /* I = 49 */
(PID.TID 0000.0001)                 2.298233518244884E+06,      /* I = 50 */
(PID.TID 0000.0001)                 2.251299773583656E+06,      /* I = 51 */
(PID.TID 0000.0001)                 2.205324493921931E+06,      /* I = 52 */
(PID.TID 0000.0001)                 2.160288105812889E+06,      /* I = 53 */
(PID.TID 0000.0001)      . . .
(PID.TID 0000.0001)                 1.000000000000000E+06,      /* I = 98 */
(PID.TID 0000.0001)                 1.000000000000000E+06,      /* I = 99 */
(PID.TID 0000.0001)                 1.000000000000000E+06,      /* I =100 */
(PID.TID 0000.0001)                 1.000000000000000E+06,      /* I =101 */
(PID.TID 0000.0001)                 1.000000000000000E+06,      /* I =102 */
(PID.TID 0000.0001)                 1.000000000000000E+06,      /* I =103 */
(PID.TID 0000.0001)      . . .
(PID.TID 0000.0001)                 1.806320677438155E+06,      /* I =148 */
(PID.TID 0000.0001)                 1.843977765332865E+06,      /* I =149 */
(PID.TID 0000.0001)                 1.882419905564307E+06,      /* I =150 */
(PID.TID 0000.0001)                 1.921663464431785E+06,      /* I =151 */
(PID.TID 0000.0001)                 1.961725149429375E+06,      /* I =152 */
(PID.TID 0000.0001)                 2.002622016358948E+06,      /* I =153 */
(PID.TID 0000.0001)      . . .
(PID.TID 0000.0001)                 5.067995060279928E+06,      /* I =198 */
(PID.TID 0000.0001)                 5.173649575460250E+06,      /* I =199 */
(PID.TID 0000.0001)                 5.281506712475282E+06       /* I =200 */
(PID.TID 0000.0001)     ;
(PID.TID 0000.0001) rA  =  /* rA (1,:,1,:) ( units: m^2 ) */
(PID.TID 0000.0001)                 6.316473190083342E+06       /* J =  1 */
(PID.TID 0000.0001)     ;
(PID.TID 0000.0001) rAw =  /* rAw(:,1,:,1) ( units: m^2 ) */
(PID.TID 0000.0001)                 5.798989951279311E+06,      /* I =  1 */
(PID.TID 0000.0001)                 6.251976754558099E+06,      /* I =  2 */
(PID.TID 0000.0001)                 6.124301007817423E+06,      /* I =  3 */
(PID.TID 0000.0001)      . . .
(PID.TID 0000.0001)                 2.420022096940842E+06,      /* I = 48 */
(PID.TID 0000.0001)                 2.370601227272606E+06,      /* I = 49 */
(PID.TID 0000.0001)                 2.322189613826390E+06,      /* I = 50 */
(PID.TID 0000.0001)                 2.274766645914270E+06,      /* I = 51 */
(PID.TID 0000.0001)                 2.228312133752794E+06,      /* I = 52 */
(PID.TID 0000.0001)                 2.182806299867410E+06,      /* I = 53 */
(PID.TID 0000.0001)      . . .
(PID.TID 0000.0001)                 1.000000000000000E+06,      /* I = 98 */
(PID.TID 0000.0001)                 1.000000000000000E+06,      /* I = 99 */
(PID.TID 0000.0001)                 1.000000000000000E+06,      /* I =100 */
(PID.TID 0000.0001)                 1.000000000000000E+06,      /* I =101 */
(PID.TID 0000.0001)                 1.000000000000000E+06,      /* I =102 */
(PID.TID 0000.0001)                 1.000000000000000E+06,      /* I =103 */
(PID.TID 0000.0001)      . . .
(PID.TID 0000.0001)                 1.787876643623018E+06,      /* I =148 */
(PID.TID 0000.0001)                 1.825149221385510E+06,      /* I =149 */
(PID.TID 0000.0001)                 1.863198835448586E+06,      /* I =150 */
(PID.TID 0000.0001)                 1.902041684998046E+06,      /* I =151 */
(PID.TID 0000.0001)                 1.941694306930580E+06,      /* I =152 */
(PID.TID 0000.0001)                 1.982173582894161E+06,      /* I =153 */
(PID.TID 0000.0001)      . . .
(PID.TID 0000.0001)                 5.016246623009465E+06,      /* I =198 */
(PID.TID 0000.0001)                 5.120822317870088E+06,      /* I =199 */
(PID.TID 0000.0001)                 5.227578143967765E+06       /* I =200 */
(PID.TID 0000.0001)     ;
(PID.TID 0000.0001) rAw =  /* rAw(1,:,1,:) ( units: m^2 ) */
(PID.TID 0000.0001)                 5.798989951279311E+06       /* J =  1 */
(PID.TID 0000.0001)     ;
(PID.TID 0000.0001) rAs =  /* rAs(:,1,:,1) ( units: m^2 ) */
(PID.TID 0000.0001)                 6.316473190083342E+06,      /* I =  1 */
(PID.TID 0000.0001)                 6.187480319032855E+06,      /* I =  2 */
(PID.TID 0000.0001)                 6.061121696601991E+06,      /* I =  3 */
(PID.TID 0000.0001)      . . .
(PID.TID 0000.0001)                 2.395056745137316E+06,      /* I = 48 */
(PID.TID 0000.0001)                 2.346145709407895E+06,      /* I = 49 */
(PID.TID 0000.0001)                 2.298233518244884E+06,      /* I = 50 */
(PID.TID 0000.0001)                 2.251299773583656E+06,      /* I = 51 */
(PID.TID 0000.0001)                 2.205324493921931E+06,      /* I = 52 */
(PID.TID 0000.0001)                 2.160288105812889E+06,      /* I = 53 */
(PID.TID 0000.0001)      . . .
(PID.TID 0000.0001)                 1.000000000000000E+06,      /* I = 98 */
(PID.TID 0000.0001)                 1.000000000000000E+06,      /* I = 99 */
(PID.TID 0000.0001)                 1.000000000000000E+06,      /* I =100 */
(PID.TID 0000.0001)                 1.000000000000000E+06,      /* I =101 */
(PID.TID 0000.0001)                 1.000000000000000E+06,      /* I =102 */
(PID.TID 0000.0001)                 1.000000000000000E+06,      /* I =103 */
(PID.TID 0000.0001)      . . .
(PID.TID 0000.0001)                 1.806320677438155E+06,      /* I =148 */
(PID.TID 0000.0001)                 1.843977765332865E+06,      /* I =149 */
(PID.TID 0000.0001)                 1.882419905564307E+06,      /* I =150 */
(PID.TID 0000.0001)                 1.921663464431785E+06,      /* I =151 */
(PID.TID 0000.0001)                 1.961725149429375E+06,      /* I =152 */
(PID.TID 0000.0001)                 2.002622016358948E+06,      /* I =153 */
(PID.TID 0000.0001)      . . .
(PID.TID 0000.0001)                 5.067995060279928E+06,      /* I =198 */
(PID.TID 0000.0001)                 5.173649575460250E+06,      /* I =199 */
(PID.TID 0000.0001)                 5.281506712475282E+06       /* I =200 */
(PID.TID 0000.0001)     ;
(PID.TID 0000.0001) rAs =  /* rAs(1,:,1,:) ( units: m^2 ) */
(PID.TID 0000.0001)                 6.316473190083342E+06       /* J =  1 */
(PID.TID 0000.0001)     ;
(PID.TID 0000.0001) globalArea = /* Integrated horizontal Area (m^2) */
(PID.TID 0000.0001)                 4.884020200974414E+08
(PID.TID 0000.0001)     ;
(PID.TID 0000.0001) // =======================================================
(PID.TID 0000.0001) // End of Model config. summary
(PID.TID 0000.0001) // =======================================================
(PID.TID 0000.0001) 
(PID.TID 0000.0001) == Packages configuration : Check & print summary ==
(PID.TID 0000.0001) 
(PID.TID 0000.0001) OBCS_CHECK: #define ALLOW_OBCS
(PID.TID 0000.0001) OBCS_CHECK: start summary:
(PID.TID 0000.0001) useOBCSprescribe = /* prescribe OB values */
(PID.TID 0000.0001)                   T
(PID.TID 0000.0001)     ;
(PID.TID 0000.0001) useOBCSbalance = /* balance the flow through OB */
(PID.TID 0000.0001)                   F
(PID.TID 0000.0001)     ;
(PID.TID 0000.0001) OBCS_uvApplyFac = /* Factor to apply to U,V 2nd column/row */
(PID.TID 0000.0001)                 1.000000000000000E+00
(PID.TID 0000.0001)     ;
(PID.TID 0000.0001) OBCS_u1_adv_T = /* Temp uses upwind adv-scheme @ OB */
(PID.TID 0000.0001)                       0
(PID.TID 0000.0001)     ;
(PID.TID 0000.0001) OBCS_u1_adv_S = /* Salt uses upwind adv-scheme @ OB */
(PID.TID 0000.0001)                       0
(PID.TID 0000.0001)     ;
(PID.TID 0000.0001) OBCS_monitorFreq = /* monitor output frequency [s] */
(PID.TID 0000.0001)                 7.200000000000000E+03
(PID.TID 0000.0001)     ;
(PID.TID 0000.0001) OBCS_monSelect = /* select group of variables to monitor */
(PID.TID 0000.0001)                       0
(PID.TID 0000.0001)     ;
(PID.TID 0000.0001) useOBCStides = /* apply tidal forcing through OB */
(PID.TID 0000.0001)                   F
(PID.TID 0000.0001)     ;
(PID.TID 0000.0001) tidalPeriod = /* (s) */
(PID.TID 0000.0001)    10 @  0.000000000000000E+00              /* I =  1: 10 */
(PID.TID 0000.0001)     ;
(PID.TID 0000.0001) OB_indexNone = /* null value for OB index (i.e. no OB) */
(PID.TID 0000.0001)                     -99
(PID.TID 0000.0001)     ;
(PID.TID 0000.0001) ======== Tile bi=   1 , bj=   1 ========
(PID.TID 0000.0001)  OB_Jn = /* Northern OB local indices */
(PID.TID 0000.0001)   204 @      -99                            /* I = -1:202 */
(PID.TID 0000.0001)  OB_Js = /* Southern OB local indices */
(PID.TID 0000.0001)   204 @      -99                            /* I = -1:202 */
(PID.TID 0000.0001)  OB_Ie = /* Eastern OB local indices */
(PID.TID 0000.0001)     5 @      200                            /* J = -1:  3 */
(PID.TID 0000.0001)  OB_Iw = /* Western OB local indices */
(PID.TID 0000.0001)     5 @        1                            /* J = -1:  3 */
(PID.TID 0000.0001) OBCS_CHECK: end summary.
(PID.TID 0000.0001) OBCS_CHECK: set-up OK
(PID.TID 0000.0001) OBCS_CHECK: check Inside Mask and OB locations: OK
(PID.TID 0000.0001) KL10_CHECK: #define ALLOW_KL10
(PID.TID 0000.0001) GAD_CHECK: #define ALLOW_GENERIC_ADVDIFF
(PID.TID 0000.0001) // =======================================================
(PID.TID 0000.0001) // Check Model config. (CONFIG_CHECK):
(PID.TID 0000.0001) // CONFIG_CHECK : Normal End
(PID.TID 0000.0001) // =======================================================
(PID.TID 0000.0001) 
(PID.TID 0000.0001)  MDS_READ_FIELD: opening global file: U0.bin
(PID.TID 0000.0001)  MDS_READ_FIELD: opening global file: T0.bin
(PID.TID 0000.0001) Start initial hydrostatic pressure computation
(PID.TID 0000.0001) Pressure is predetermined for buoyancyRelation OCEANIC
(PID.TID 0000.0001) 
(PID.TID 0000.0001)  OBCS_FIELDS_LOAD: Reading initial data:         0  0.000000000000E+00
(PID.TID 0000.0001)  MDS_READ_SEC_YZ: opening global file: U_in.bin
(PID.TID 0000.0001)  MDS_READ_SEC_YZ: opening global file: TE.bin
(PID.TID 0000.0001)  MDS_READ_SEC_YZ: opening global file: U_in.bin
(PID.TID 0000.0001)  MDS_READ_SEC_YZ: opening global file: TW.bin
(PID.TID 0000.0001) // =======================================================
(PID.TID 0000.0001) // Model current state
(PID.TID 0000.0001) // =======================================================
(PID.TID 0000.0001) 
(PID.TID 0000.0001) // =======================================================
(PID.TID 0000.0001) // Begin MONITOR dynamic field statistics
(PID.TID 0000.0001) // =======================================================
(PID.TID 0000.0001) %MON time_tsnumber                =                     0
(PID.TID 0000.0001) %MON time_secondsf                =   0.0000000000000E+00
(PID.TID 0000.0001) %MON dynstat_eta_max              =   0.0000000000000E+00
(PID.TID 0000.0001) %MON dynstat_eta_min              =   0.0000000000000E+00
(PID.TID 0000.0001) %MON dynstat_eta_mean             =   0.0000000000000E+00
(PID.TID 0000.0001) %MON dynstat_eta_sd               =   0.0000000000000E+00
(PID.TID 0000.0001) %MON dynstat_eta_del2             =   0.0000000000000E+00
(PID.TID 0000.0001) %MON dynstat_uvel_max             =   0.0000000000000E+00
(PID.TID 0000.0001) %MON dynstat_uvel_min             =   0.0000000000000E+00
(PID.TID 0000.0001) %MON dynstat_uvel_mean            =   0.0000000000000E+00
(PID.TID 0000.0001) %MON dynstat_uvel_sd              =   0.0000000000000E+00
(PID.TID 0000.0001) %MON dynstat_uvel_del2            =   0.0000000000000E+00
(PID.TID 0000.0001) %MON dynstat_vvel_max             =   0.0000000000000E+00
(PID.TID 0000.0001) %MON dynstat_vvel_min             =   0.0000000000000E+00
(PID.TID 0000.0001) %MON dynstat_vvel_mean            =   0.0000000000000E+00
(PID.TID 0000.0001) %MON dynstat_vvel_sd              =   0.0000000000000E+00
(PID.TID 0000.0001) %MON dynstat_vvel_del2            =   0.0000000000000E+00
(PID.TID 0000.0001) %MON dynstat_wvel_max             =  -0.0000000000000E+00
(PID.TID 0000.0001) %MON dynstat_wvel_min             =  -0.0000000000000E+00
(PID.TID 0000.0001) %MON dynstat_wvel_mean            =   0.0000000000000E+00
(PID.TID 0000.0001) %MON dynstat_wvel_sd              =   0.0000000000000E+00
(PID.TID 0000.0001) %MON dynstat_wvel_del2            =   0.0000000000000E+00
(PID.TID 0000.0001) %MON dynstat_theta_max            =   1.4976502385654E+01
(PID.TID 0000.0001) %MON dynstat_theta_min            =   9.9765023856537E+00
(PID.TID 0000.0001) %MON dynstat_theta_mean           =   1.2377145327849E+01
(PID.TID 0000.0001) %MON dynstat_theta_sd             =   2.4594478979939E+00
(PID.TID 0000.0001) %MON dynstat_theta_del2           =   1.2825346005191E-04
(PID.TID 0000.0001) %MON dynstat_salt_max             =   3.5000000000000E+01
(PID.TID 0000.0001) %MON dynstat_salt_min             =   3.5000000000000E+01
(PID.TID 0000.0001) %MON dynstat_salt_mean            =   3.5000000000000E+01
(PID.TID 0000.0001) %MON dynstat_salt_sd              =   3.4816594052245E-13
(PID.TID 0000.0001) %MON dynstat_salt_del2            =   0.0000000000000E+00
(PID.TID 0000.0001) %MON dynstat_sst_max              =   1.4976502385654E+01
(PID.TID 0000.0001) %MON dynstat_sst_min              =   1.4660889826104E+01
(PID.TID 0000.0001) %MON dynstat_sst_mean             =   1.4805460003481E+01
(PID.TID 0000.0001) %MON dynstat_sst_sd               =   1.5615403295374E-01
(PID.TID 0000.0001) %MON dynstat_sst_del2             =   1.1441769504615E-04
(PID.TID 0000.0001) %MON dynstat_sss_max              =   3.5000000000000E+01
(PID.TID 0000.0001) %MON dynstat_sss_min              =   3.5000000000000E+01
(PID.TID 0000.0001) %MON dynstat_sss_mean             =   3.5000000000000E+01
(PID.TID 0000.0001) %MON dynstat_sss_sd               =   3.5527136788005E-14
(PID.TID 0000.0001) %MON dynstat_sss_del2             =   0.0000000000000E+00
(PID.TID 0000.0001) %MON forcing_qnet_max             =   0.0000000000000E+00
(PID.TID 0000.0001) %MON forcing_qnet_min             =   0.0000000000000E+00
(PID.TID 0000.0001) %MON forcing_qnet_mean            =   0.0000000000000E+00
(PID.TID 0000.0001) %MON forcing_qnet_sd              =   0.0000000000000E+00
(PID.TID 0000.0001) %MON forcing_qnet_del2            =   0.0000000000000E+00
(PID.TID 0000.0001) %MON forcing_qsw_max              =   0.0000000000000E+00
(PID.TID 0000.0001) %MON forcing_qsw_min              =   0.0000000000000E+00
(PID.TID 0000.0001) %MON forcing_qsw_mean             =   0.0000000000000E+00
(PID.TID 0000.0001) %MON forcing_qsw_sd               =   0.0000000000000E+00
(PID.TID 0000.0001) %MON forcing_qsw_del2             =   0.0000000000000E+00
(PID.TID 0000.0001) %MON forcing_empmr_max            =   0.0000000000000E+00
(PID.TID 0000.0001) %MON forcing_empmr_min            =   0.0000000000000E+00
(PID.TID 0000.0001) %MON forcing_empmr_mean           =   0.0000000000000E+00
(PID.TID 0000.0001) %MON forcing_empmr_sd             =   0.0000000000000E+00
(PID.TID 0000.0001) %MON forcing_empmr_del2           =   0.0000000000000E+00
(PID.TID 0000.0001) %MON forcing_fu_max               =   0.0000000000000E+00
(PID.TID 0000.0001) %MON forcing_fu_min               =   0.0000000000000E+00
(PID.TID 0000.0001) %MON forcing_fu_mean              =   0.0000000000000E+00
(PID.TID 0000.0001) %MON forcing_fu_sd                =   0.0000000000000E+00
(PID.TID 0000.0001) %MON forcing_fu_del2              =   0.0000000000000E+00
(PID.TID 0000.0001) %MON forcing_fv_max               =   0.0000000000000E+00
(PID.TID 0000.0001) %MON forcing_fv_min               =   0.0000000000000E+00
(PID.TID 0000.0001) %MON forcing_fv_mean              =   0.0000000000000E+00
(PID.TID 0000.0001) %MON forcing_fv_sd                =   0.0000000000000E+00
(PID.TID 0000.0001) %MON forcing_fv_del2              =   0.0000000000000E+00
(PID.TID 0000.0001) %MON advcfl_uvel_max              =   0.0000000000000E+00
(PID.TID 0000.0001) %MON advcfl_vvel_max              =   0.0000000000000E+00
(PID.TID 0000.0001) %MON advcfl_wvel_max              =   0.0000000000000E+00
(PID.TID 0000.0001) %MON advcfl_W_hf_max              =   0.0000000000000E+00
(PID.TID 0000.0001) %MON pe_b_mean                    =   0.0000000000000E+00
(PID.TID 0000.0001) %MON ke_max                       =   0.0000000000000E+00
(PID.TID 0000.0001) %MON ke_mean                      =   0.0000000000000E+00
(PID.TID 0000.0001) %MON ke_vol                       =   8.5337279889550E+10
(PID.TID 0000.0001) %MON vort_r_min                   =   0.0000000000000E+00
(PID.TID 0000.0001) %MON vort_r_max                   =   0.0000000000000E+00
(PID.TID 0000.0001) %MON vort_a_mean                  =   0.0000000000000E+00
(PID.TID 0000.0001) %MON vort_a_sd                    =   0.0000000000000E+00
(PID.TID 0000.0001) %MON vort_p_mean                  =   0.0000000000000E+00
(PID.TID 0000.0001) %MON vort_p_sd                    =   0.0000000000000E+00
(PID.TID 0000.0001) %MON surfExpan_theta_mean         =   0.0000000000000E+00
(PID.TID 0000.0001) %MON surfExpan_salt_mean          =   0.0000000000000E+00
(PID.TID 0000.0001) // =======================================================
(PID.TID 0000.0001) // End MONITOR dynamic field statistics
(PID.TID 0000.0001) // =======================================================
(PID.TID 0000.0001) // =======================================================
(PID.TID 0000.0001) // Begin OBCS MONITOR field statistics
(PID.TID 0000.0001) // =======================================================
(PID.TID 0000.0001) %MON obc_E_uVel_max               =   0.0000000000000E+00
(PID.TID 0000.0001) %MON obc_E_uVel_min               =   0.0000000000000E+00
(PID.TID 0000.0001) %MON obc_E_uVel_mean              =   0.0000000000000E+00
(PID.TID 0000.0001) %MON obc_E_uVel_sd                =   0.0000000000000E+00
(PID.TID 0000.0001) %MON obc_E_uVel_Int               =   0.0000000000000E+00
(PID.TID 0000.0001) %MON obc_W_uVel_max               =   0.0000000000000E+00
(PID.TID 0000.0001) %MON obc_W_uVel_min               =   0.0000000000000E+00
(PID.TID 0000.0001) %MON obc_W_uVel_mean              =   0.0000000000000E+00
(PID.TID 0000.0001) %MON obc_W_uVel_sd                =   0.0000000000000E+00
(PID.TID 0000.0001) %MON obc_W_uVel_Int               =   0.0000000000000E+00
(PID.TID 0000.0001) // =======================================================
(PID.TID 0000.0001) // End OBCS MONITOR field statistics
(PID.TID 0000.0001) // =======================================================
(PID.TID 0000.0001) SOLVE_FOR_PRESSURE: putPmEinXvector =    F
 cg2d: Sum(rhs),rhsMax =   2.03830008427275E-16  6.60166302369223E-03
 cg2d: Sum(rhs),rhsMax =  -2.41939541501322E-14  1.45868303814610E-02
 cg2d: Sum(rhs),rhsMax =  -5.17638429007614E-14  2.10076991731380E-02
 cg2d: Sum(rhs),rhsMax =  -6.55922441375864E-14  2.51488441817702E-02
 cg2d: Sum(rhs),rhsMax =  -4.65370624375898E-14  2.81654836317054E-02
 cg2d: Sum(rhs),rhsMax =  -1.97671277289812E-13  2.96934561813889E-02
 cg2d: Sum(rhs),rhsMax =  -2.08450792006052E-13  3.03291128685803E-02
 cg2d: Sum(rhs),rhsMax =  -1.95122101156201E-13  3.06683192600423E-02
 cg2d: Sum(rhs),rhsMax =  -3.54702324941905E-13  3.07805311852748E-02
 cg2d: Sum(rhs),rhsMax =  -3.33403216056111E-13  3.07617373904657E-02
 cg2d: Sum(rhs),rhsMax =  -3.16974158367049E-13  3.07037938792003E-02
 cg2d: Sum(rhs),rhsMax =  -3.61846726013784E-13  3.06425992597956E-02
 cg2d: Sum(rhs),rhsMax =  -4.65000577181473E-13  3.05884318916386E-02
 cg2d: Sum(rhs),rhsMax =  -5.34706848197082E-13  3.05471612351196E-02
 cg2d: Sum(rhs),rhsMax =  -5.78205891642051E-13  3.10279449254963E-02
 cg2d: Sum(rhs),rhsMax =  -4.71281177442289E-13  3.17714173995407E-02
 cg2d: Sum(rhs),rhsMax =  -4.54076297979080E-13  3.25224952129080E-02
 cg2d: Sum(rhs),rhsMax =  -4.61752791600626E-13  3.33188565658352E-02
 cg2d: Sum(rhs),rhsMax =  -4.33682123510343E-13  3.41102955320877E-02
 cg2d: Sum(rhs),rhsMax =  -3.33724197409241E-13  3.49470218331488E-02
 cg2d: Sum(rhs),rhsMax =  -1.97138336768943E-13  3.57917865994365E-02
 cg2d: Sum(rhs),rhsMax =  -1.00446265455891E-13  3.66659017131125E-02
 cg2d: Sum(rhs),rhsMax =   1.35711566749438E-14  3.75607781898525E-02
 cg2d: Sum(rhs),rhsMax =   1.34915426370283E-13  3.84800508321024E-02
 cg2d: Sum(rhs),rhsMax =   2.65015831858126E-13  3.94180218219363E-02
 cg2d: Sum(rhs),rhsMax =   3.57612882100317E-13  4.03880489977360E-02
 cg2d: Sum(rhs),rhsMax =   4.14551023149837E-13  4.13571423125568E-02
 cg2d: Sum(rhs),rhsMax =   4.49942773545770E-13  4.23820503433203E-02
 cg2d: Sum(rhs),rhsMax =   5.32510748483488E-13  4.34017101801704E-02
 cg2d: Sum(rhs),rhsMax =   5.72830311895193E-13  4.44465568100809E-02
 cg2d: Sum(rhs),rhsMax =   6.52518258944508E-13  4.55253211385771E-02
 cg2d: Sum(rhs),rhsMax =   7.11299788542951E-13  4.66044844895410E-02
 cg2d: Sum(rhs),rhsMax =   7.51919255024074E-13  4.76918224980334E-02
 cg2d: Sum(rhs),rhsMax =   8.76282059114010E-13  4.88302544207188E-02
 cg2d: Sum(rhs),rhsMax =   9.07543560320137E-13  4.99732237331109E-02
 cg2d: Sum(rhs),rhsMax =   9.47280748799835E-13  5.11226953979732E-02
 cg2d: Sum(rhs),rhsMax =   1.02216612317364E-12  5.22805451567388E-02
 cg2d: Sum(rhs),rhsMax =   1.10956520867392E-12  5.34534083556002E-02
 cg2d: Sum(rhs),rhsMax =   1.15182590502689E-12  5.46638867948299E-02
 cg2d: Sum(rhs),rhsMax =   1.23995208360910E-12  5.58824429305021E-02
 cg2d: Sum(rhs),rhsMax =   1.35895353807871E-12  5.71102565139588E-02
 cg2d: Sum(rhs),rhsMax =   1.44760008288173E-12  5.83481269956260E-02
 cg2d: Sum(rhs),rhsMax =   1.54181298262467E-12  5.95964910669270E-02
 cg2d: Sum(rhs),rhsMax =   1.65433525168776E-12  6.08556252436590E-02
 cg2d: Sum(rhs),rhsMax =   1.74978109258872E-12  6.21254599172183E-02
 cg2d: Sum(rhs),rhsMax =   1.84393982288061E-12  6.34058086117984E-02
 cg2d: Sum(rhs),rhsMax =   1.90924489759658E-12  6.46961851819638E-02
 cg2d: Sum(rhs),rhsMax =   1.97808045984682E-12  6.59958593028369E-02
 cg2d: Sum(rhs),rhsMax =   2.13215035904657E-12  6.73038302252199E-02
 cg2d: Sum(rhs),rhsMax =   2.20867161365712E-12  6.86188061460737E-02
 cg2d: Sum(rhs),rhsMax =   2.34284206618307E-12  6.99391790727889E-02
 cg2d: Sum(rhs),rhsMax =   2.48378054235054E-12  7.12629969544697E-02
 cg2d: Sum(rhs),rhsMax =   2.60150755104771E-12  7.25878943503160E-02
 cg2d: Sum(rhs),rhsMax =   2.73777875370307E-12  7.39456113511058E-02
 cg2d: Sum(rhs),rhsMax =   2.85856407988838E-12  7.53185770455485E-02
 cg2d: Sum(rhs),rhsMax =   2.86155821260792E-12  7.66925910237780E-02
 cg2d: Sum(rhs),rhsMax =   2.92054574968503E-12  7.80643150862758E-02
 cg2d: Sum(rhs),rhsMax =   2.93404189832813E-12  7.94298465262683E-02
 cg2d: Sum(rhs),rhsMax =   2.96405955335644E-12  8.07847219712624E-02
 cg2d: Sum(rhs),rhsMax =   3.04238578774374E-12  8.21909811171047E-02
 cg2d: Sum(rhs),rhsMax =   3.06318859166765E-12  8.36059814606874E-02
 cg2d: Sum(rhs),rhsMax =   3.13338244239958E-12  8.50071591737452E-02
 cg2d: Sum(rhs),rhsMax =   3.15650283688740E-12  8.63883669531379E-02
 cg2d: Sum(rhs),rhsMax =   3.20116155805295E-12  8.77945551118166E-02
 cg2d: Sum(rhs),rhsMax =   3.21992432716911E-12  8.92402090993028E-02
 cg2d: Sum(rhs),rhsMax =   3.23707727289957E-12  9.06606325791203E-02
 cg2d: Sum(rhs),rhsMax =   3.27504690034175E-12  9.20475835959707E-02
 cg2d: Sum(rhs),rhsMax =   3.29547500399485E-12  9.35079559431296E-02
 cg2d: Sum(rhs),rhsMax =   3.29880567306873E-12  9.49634523698695E-02
 cg2d: Sum(rhs),rhsMax =   3.32667227098682E-12  9.63793979578387E-02
 cg2d: Sum(rhs),rhsMax =   3.36153327396005E-12  9.81835741158568E-02
 cg2d: Sum(rhs),rhsMax =   3.33832961274538E-12  1.01719119470403E-01
 cg2d: Sum(rhs),rhsMax =   3.31423777311102E-12  1.06145400095251E-01
 cg2d: Sum(rhs),rhsMax =   3.28859162124218E-12  1.12154746235305E-01
 cg2d: Sum(rhs),rhsMax =   3.14037684745472E-12  1.20358516140353E-01
 cg2d: Sum(rhs),rhsMax =   2.99271718517957E-12  1.30817941089510E-01
 cg2d: Sum(rhs),rhsMax =   2.85460544091620E-12  1.41442457646481E-01
 cg2d: Sum(rhs),rhsMax =   2.69440025846279E-12  1.51798313527274E-01
 cg2d: Sum(rhs),rhsMax =   2.56350496385949E-12  1.61781597424276E-01
 cg2d: Sum(rhs),rhsMax =   2.44182452036057E-12  1.71304237920248E-01
 cg2d: Sum(rhs),rhsMax =   2.41295872172032E-12  1.80296035978425E-01
 cg2d: Sum(rhs),rhsMax =   2.35256258918071E-12  1.88705663307643E-01
 cg2d: Sum(rhs),rhsMax =   2.26574314865502E-12  1.96500662960197E-01
 cg2d: Sum(rhs),rhsMax =   2.18447482325246E-12  2.03666555698536E-01
 cg2d: Sum(rhs),rhsMax =   2.10487183238683E-12  2.10205206891971E-01
 cg2d: Sum(rhs),rhsMax =   2.03392858111329E-12  2.16132641149615E-01
 cg2d: Sum(rhs),rhsMax =   1.98252525507314E-12  2.21476505032103E-01
 cg2d: Sum(rhs),rhsMax =   1.93001170600837E-12  2.26273373524714E-01
 cg2d: Sum(rhs),rhsMax =   1.89270821238097E-12  2.30566076582560E-01
 cg2d: Sum(rhs),rhsMax =   1.80033765673215E-12  2.34401192042375E-01
 cg2d: Sum(rhs),rhsMax =   1.77768910702980E-12  2.37826814976477E-01
 cg2d: Sum(rhs),rhsMax =   1.74127379182210E-12  2.40890675409754E-01
 cg2d: Sum(rhs),rhsMax =   1.68531855138099E-12  2.43638639894439E-01
 cg2d: Sum(rhs),rhsMax =   1.62425628502660E-12  2.46113600527315E-01
 cg2d: Sum(rhs),rhsMax =   1.60105262381194E-12  2.48354729391101E-01
 cg2d: Sum(rhs),rhsMax =   1.56008539420327E-12  2.50397057922835E-01
 cg2d: Sum(rhs),rhsMax =   1.47215573065296E-12  2.52271329326635E-01
 cg2d: Sum(rhs),rhsMax =   1.45261580541955E-12  2.54004067173103E-01
 cg2d: Sum(rhs),rhsMax =   1.36113342819044E-12  2.55617803650117E-01
 cg2d: Sum(rhs),rhsMax =   1.30295774170008E-12  2.57131415223470E-01
 cg2d: Sum(rhs),rhsMax =   1.24245058685801E-12  2.62351695244724E-01
 cg2d: Sum(rhs),rhsMax =   1.14575016141316E-12  2.68060393850961E-01
 cg2d: Sum(rhs),rhsMax =   1.10922382390299E-12  2.73259264113140E-01
 cg2d: Sum(rhs),rhsMax =   1.06170627844904E-12  2.77988019958750E-01
 cg2d: Sum(rhs),rhsMax =   1.06803454968940E-12  2.82288426537970E-01
 cg2d: Sum(rhs),rhsMax =   1.07891473533073E-12  2.86202711759059E-01
 cg2d: Sum(rhs),rhsMax =   1.08557607347848E-12  2.89772244189703E-01
 cg2d: Sum(rhs),rhsMax =   1.12432285703790E-12  2.93036491817080E-01
 cg2d: Sum(rhs),rhsMax =   1.14697140674025E-12  2.96032257621800E-01
 cg2d: Sum(rhs),rhsMax =   1.20259358027397E-12  2.98793173195044E-01
 cg2d: Sum(rhs),rhsMax =   1.22646337530341E-12  3.01349421045097E-01
 cg2d: Sum(rhs),rhsMax =   1.27298172003520E-12  3.03727649721492E-01
 cg2d: Sum(rhs),rhsMax =   1.31850086404484E-12  3.05951043039013E-01
 cg2d: Sum(rhs),rhsMax =   1.31783473023006E-12  3.08039504921829E-01
 cg2d: Sum(rhs),rhsMax =   1.36257671812245E-12  3.10009923988261E-01
 cg2d: Sum(rhs),rhsMax =   1.42796885427288E-12  3.11876486227480E-01
 cg2d: Sum(rhs),rhsMax =   1.46982426230124E-12  3.13651009292159E-01
 cg2d: Sum(rhs),rhsMax =   1.49458223575039E-12  3.15343277452143E-01
 cg2d: Sum(rhs),rhsMax =   1.58317803311547E-12  3.16961361651744E-01
 cg2d: Sum(rhs),rhsMax =   1.58972834896076E-12  3.18511914046826E-01
 cg2d: Sum(rhs),rhsMax =   1.65978342181461E-12  3.20000430652341E-01
 cg2d: Sum(rhs),rhsMax =   1.73216996302017E-12  3.21431479201311E-01
 cg2d: Sum(rhs),rhsMax =   1.72761804861921E-12  3.22808891985757E-01
 cg2d: Sum(rhs),rhsMax =   1.80599979415774E-12  3.24135925366879E-01
 cg2d: Sum(rhs),rhsMax =   1.85718107559296E-12  3.25415388896330E-01
 cg2d: Sum(rhs),rhsMax =   1.89970261743611E-12  3.26649747695570E-01
 cg2d: Sum(rhs),rhsMax =   1.94566585065559E-12  3.27841202015058E-01
 cg2d: Sum(rhs),rhsMax =   1.98596694644948E-12  3.28991747853770E-01
 cg2d: Sum(rhs),rhsMax =   2.03648209406992E-12  3.30103222263871E-01
 cg2d: Sum(rhs),rhsMax =   2.12352357920054E-12  3.31177336579527E-01
 cg2d: Sum(rhs),rhsMax =   2.17936779733918E-12  3.32215700360041E-01
 cg2d: Sum(rhs),rhsMax =   2.08377759491896E-12  3.33219838374771E-01
 cg2d: Sum(rhs),rhsMax =   2.11486383960846E-12  3.34191202514754E-01
 cg2d: Sum(rhs),rhsMax =   2.09687822660953E-12  3.35131180114884E-01
 cg2d: Sum(rhs),rhsMax =   2.18258744411060E-12  3.36041099821819E-01
 cg2d: Sum(rhs),rhsMax =   2.15927276059347E-12  3.36922235850455E-01
 cg2d: Sum(rhs),rhsMax =   2.20012896789967E-12  3.37775811234345E-01
 cg2d: Sum(rhs),rhsMax =   2.23832063994678E-12  3.38603000488392E-01
 cg2d: Sum(rhs),rhsMax =   2.28361773935148E-12  3.39404931959211E-01
 cg2d: Sum(rhs),rhsMax =   2.27007301845106E-12  3.40182690032809E-01
 cg2d: Sum(rhs),rhsMax =   2.30271357537504E-12  3.40937317293864E-01
 cg2d: Sum(rhs),rhsMax =   2.29560814801744E-12  3.41669816679448E-01
 cg2d: Sum(rhs),rhsMax =   2.32691643731187E-12  3.42381153637022E-01
 cg2d: Sum(rhs),rhsMax =   2.41218156560308E-12  3.43072258277115E-01
 cg2d: Sum(rhs),rhsMax =   2.50377496513465E-12  3.43744027501430E-01
 cg2d: Sum(rhs),rhsMax =   2.53730370047833E-12  3.44397327084072E-01
 cg2d: Sum(rhs),rhsMax =   2.61934918199813E-12  3.45032993684703E-01
 cg2d: Sum(rhs),rhsMax =   2.66187072384128E-12  3.45651836775998E-01
 cg2d: Sum(rhs),rhsMax =   2.70161670812286E-12  3.46254640472355E-01
 cg2d: Sum(rhs),rhsMax =   2.80697687315978E-12  3.46842165251616E-01
 cg2d: Sum(rhs),rhsMax =   2.85227397256449E-12  3.47415149565897E-01
 cg2d: Sum(rhs),rhsMax =   2.90711898998097E-12  3.47974311341193E-01
 cg2d: Sum(rhs),rhsMax =   2.95941049444082E-12  3.48520349367981E-01
 cg2d: Sum(rhs),rhsMax =   3.01569880178931E-12  3.49053944586616E-01
 cg2d: Sum(rhs),rhsMax =   3.05910852205216E-12  3.49575761271809E-01
 cg2d: Sum(rhs),rhsMax =   3.11473069558588E-12  3.50086448120057E-01
 cg2d: Sum(rhs),rhsMax =   3.13582493305375E-12  3.50586639242601E-01
 cg2d: Sum(rhs),rhsMax =   3.16979775760728E-12  3.51076955064417E-01
 cg2d: Sum(rhs),rhsMax =   3.22830651100503E-12  3.51558003127033E-01
 cg2d: Sum(rhs),rhsMax =   3.34188232642418E-12  3.52030378789557E-01
 cg2d: Sum(rhs),rhsMax =   3.45867778861475E-12  3.52494665818427E-01
 cg2d: Sum(rhs),rhsMax =   3.52762263844397E-12  3.52951436851863E-01
 cg2d: Sum(rhs),rhsMax =   3.56370488674429E-12  3.53401253719991E-01
 cg2d: Sum(rhs),rhsMax =   3.52928797298091E-12  3.53844667596000E-01
 cg2d: Sum(rhs),rhsMax =   3.52962103988830E-12  3.54282218947417E-01
 cg2d: Sum(rhs),rhsMax =   3.50452999953177E-12  3.54714437249713E-01
 cg2d: Sum(rhs),rhsMax =   3.48288065055158E-12  3.55141840416825E-01
 cg2d: Sum(rhs),rhsMax =   3.43480799358531E-12  3.55564933894751E-01
 cg2d: Sum(rhs),rhsMax =   3.44746453606604E-12  3.55984209355191E-01
 cg2d: Sum(rhs),rhsMax =   3.41482397914206E-12  3.56400142916189E-01
 cg2d: Sum(rhs),rhsMax =   3.34943184299163E-12  3.56813192805918E-01
 cg2d: Sum(rhs),rhsMax =   3.32334160191294E-12  3.57223796374252E-01
 cg2d: Sum(rhs),rhsMax =   3.36342065310191E-12  3.57632366344725E-01
 cg2d: Sum(rhs),rhsMax =   3.40050210212439E-12  3.58039286187102E-01
 cg2d: Sum(rhs),rhsMax =   3.40560912803767E-12  3.58444904478401E-01
 cg2d: Sum(rhs),rhsMax =   3.42093020577749E-12  3.58849528108323E-01
 cg2d: Sum(rhs),rhsMax =   3.46389583683049E-12  3.59253414174086E-01
 cg2d: Sum(rhs),rhsMax =   3.45778961019505E-12  3.59656760400533E-01
 cg2d: Sum(rhs),rhsMax =   3.49387185849537E-12  3.60059693914714E-01
 cg2d: Sum(rhs),rhsMax =   3.57636142922502E-12  3.60462258201134E-01
 cg2d: Sum(rhs),rhsMax =   3.57069929179943E-12  3.60864398065469E-01
 cg2d: Sum(rhs),rhsMax =   3.58424401269986E-12  3.61265942442167E-01
 cg2d: Sum(rhs),rhsMax =   3.62354590777159E-12  3.61666584896249E-01
 cg2d: Sum(rhs),rhsMax =   3.59123841775499E-12  3.62065861693250E-01
 cg2d: Sum(rhs),rhsMax =   3.61444207896966E-12  3.62463127344931E-01
 cg2d: Sum(rhs),rhsMax =   3.63464813801784E-12  3.62857527583562E-01
 cg2d: Sum(rhs),rhsMax =   3.63831187399910E-12  3.63247969775315E-01
 cg2d: Sum(rhs),rhsMax =   3.63487018262276E-12  3.63633090854554E-01
 cg2d: Sum(rhs),rhsMax =   3.59667851057566E-12  3.64011222946172E-01
 cg2d: Sum(rhs),rhsMax =   3.60766971851945E-12  3.64380356942532E-01
 cg2d: Sum(rhs),rhsMax =   3.61466412357458E-12  3.64738104414719E-01
 cg2d: Sum(rhs),rhsMax =   3.58557628032941E-12  3.65081658363183E-01
 cg2d: Sum(rhs),rhsMax =   3.57691654073733E-12  3.65407753448769E-01
 cg2d: Sum(rhs),rhsMax =   3.55515616945468E-12  3.65712626488314E-01
 cg2d: Sum(rhs),rhsMax =   3.53994611401731E-12  3.65991978145926E-01
 cg2d: Sum(rhs),rhsMax =   3.50242057578498E-12  3.66240936896740E-01
 cg2d: Sum(rhs),rhsMax =   3.54061224783209E-12  3.66454026478875E-01
 cg2d: Sum(rhs),rhsMax =   3.54904994281924E-12  3.66625138174895E-01
 cg2d: Sum(rhs),rhsMax =   3.63897800781388E-12  3.66747509369374E-01
 cg2d: Sum(rhs),rhsMax =   3.57369689396592E-12  3.66813709906518E-01
 cg2d: Sum(rhs),rhsMax =   3.45279360658424E-12  3.66815637813484E-01
 cg2d: Sum(rhs),rhsMax =   3.36197736316990E-12  3.66744525949854E-01
 cg2d: Sum(rhs),rhsMax =   3.26771942837922E-12  3.66590961113333E-01
 cg2d: Sum(rhs),rhsMax =   3.20232729222880E-12  3.66344916989639E-01
 cg2d: Sum(rhs),rhsMax =   3.12561088122720E-12  3.65995802192259E-01
 cg2d: Sum(rhs),rhsMax =   3.02124991691244E-12  3.65532524400738E-01
 cg2d: Sum(rhs),rhsMax =   2.94886337570688E-12  3.64943571312880E-01
 cg2d: Sum(rhs),rhsMax =   2.88968848849436E-12  3.64217108771105E-01
 cg2d: Sum(rhs),rhsMax =   2.82385226313409E-12  3.63341096011602E-01
 cg2d: Sum(rhs),rhsMax =   2.72348810170797E-12  3.62303417524340E-01
 cg2d: Sum(rhs),rhsMax =   2.63633559427490E-12  3.61092030513423E-01
 cg2d: Sum(rhs),rhsMax =   2.59603449848100E-12  3.59695126423930E-01
 cg2d: Sum(rhs),rhsMax =   2.51532128459075E-12  3.58101304469298E-01
 cg2d: Sum(rhs),rhsMax =   2.43050024550939E-12  3.56299754570622E-01
 cg2d: Sum(rhs),rhsMax =   2.37432296046336E-12  3.54280446625046E-01
 cg2d: Sum(rhs),rhsMax =   2.28195240481455E-12  3.52034322574975E-01
 cg2d: Sum(rhs),rhsMax =   2.22177831687986E-12  3.49553487373094E-01
 cg2d: Sum(rhs),rhsMax =   2.11708428565771E-12  3.46831394649102E-01
 cg2d: Sum(rhs),rhsMax =   2.13118411807045E-12  3.44238884141451E-01
 cg2d: Sum(rhs),rhsMax =   2.19024798298051E-12  3.43415881562369E-01
 cg2d: Sum(rhs),rhsMax =   2.25197638314967E-12  3.42408189590213E-01
 cg2d: Sum(rhs),rhsMax =   2.26174634576637E-12  3.41206254089534E-01
 cg2d: Sum(rhs),rhsMax =   2.29460894729527E-12  3.39800832390810E-01
 cg2d: Sum(rhs),rhsMax =   2.26330065800084E-12  3.38183105023547E-01
 cg2d: Sum(rhs),rhsMax =   2.27173835298800E-12  3.36344794076697E-01
 cg2d: Sum(rhs),rhsMax =   2.23643326080492E-12  3.34278286658557E-01
 cg2d: Sum(rhs),rhsMax =   2.21578311254689E-12  3.31976761624108E-01
 cg2d: Sum(rhs),rhsMax =   2.15361062316788E-12  3.29434317456587E-01
 cg2d: Sum(rhs),rhsMax =   2.16804352248801E-12  3.26646098943786E-01
 cg2d: Sum(rhs),rhsMax =   2.17181828077173E-12  3.23608420089935E-01
 cg2d: Sum(rhs),rhsMax =   2.13873363463790E-12  3.20318880561792E-01
 cg2d: Sum(rhs),rhsMax =   2.17381668221606E-12  3.16776472892457E-01
 cg2d: Sum(rhs),rhsMax =   2.20468088230064E-12  3.12981677666014E-01
 cg2d: Sum(rhs),rhsMax =   2.24709140184132E-12  3.08936543985945E-01
 cg2d: Sum(rhs),rhsMax =   2.29460894729527E-12  3.04644752693126E-01
 cg2d: Sum(rhs),rhsMax =   2.41184849869569E-12  3.00111660044972E-01
 cg2d: Sum(rhs),rhsMax =   2.50111042987555E-12  2.95344319892705E-01
 cg2d: Sum(rhs),rhsMax =   2.61257682154792E-12  2.90351482792448E-01
 cg2d: Sum(rhs),rhsMax =   2.71960232112178E-12  2.85143570948522E-01
 cg2d: Sum(rhs),rhsMax =   2.85105272723740E-12  2.79732628401790E-01
 cg2d: Sum(rhs),rhsMax =   2.97539770599542E-12  2.74132246427715E-01
 cg2d: Sum(rhs),rhsMax =   3.02691205433803E-12  2.68357464681523E-01
 cg2d: Sum(rhs),rhsMax =   3.17657011805750E-12  2.62424649203962E-01
 cg2d: Sum(rhs),rhsMax =   3.30890870259282E-12  2.56351348962321E-01
 cg2d: Sum(rhs),rhsMax =   3.41082717625341E-12  2.50156133129686E-01
 cg2d: Sum(rhs),rhsMax =   3.54027918092470E-12  2.43858411783522E-01
 cg2d: Sum(rhs),rhsMax =   3.70170560870520E-12  2.37478243117066E-01
 cg2d: Sum(rhs),rhsMax =   3.84714482493109E-12  2.31036130590169E-01
 cg2d: Sum(rhs),rhsMax =   4.01989552756277E-12  2.24552813689439E-01
 cg2d: Sum(rhs),rhsMax =   4.15134593367839E-12  2.18049056113180E-01
 cg2d: Sum(rhs),rhsMax =   4.34119407088929E-12  2.11545435240592E-01
 cg2d: Sum(rhs),rhsMax =   4.56357174272171E-12  2.05062136686234E-01
 cg2d: Sum(rhs),rhsMax =   4.78350692389995E-12  1.98618757582904E-01
 cg2d: Sum(rhs),rhsMax =   4.99922325758462E-12  1.92234121984976E-01
 cg2d: Sum(rhs),rhsMax =   5.24091881004551E-12  1.85926111449273E-01
 cg2d: Sum(rhs),rhsMax =   5.48916467835170E-12  1.79711513443625E-01
 cg2d: Sum(rhs),rhsMax =   5.75361980281741E-12  1.73605889768451E-01
 cg2d: Sum(rhs),rhsMax =   6.03250782660325E-12  1.67623466669667E-01
 cg2d: Sum(rhs),rhsMax =   6.36113384189230E-12  1.61777047788365E-01
 cg2d: Sum(rhs),rhsMax =   6.70974387162460E-12  1.56077950550859E-01
 cg2d: Sum(rhs),rhsMax =   6.98907598462029E-12  1.50535966068238E-01
 cg2d: Sum(rhs),rhsMax =   7.29061255810848E-12  1.45159342102828E-01
 cg2d: Sum(rhs),rhsMax =   7.56994467110417E-12  1.39954788184010E-01
 cg2d: Sum(rhs),rhsMax =   7.87903076115981E-12  1.34927501529534E-01
 cg2d: Sum(rhs),rhsMax =   8.18944911884500E-12  1.30081212060631E-01
 cg2d: Sum(rhs),rhsMax =   8.39117664241940E-12  1.26718494600045E-01
 cg2d: Sum(rhs),rhsMax =   8.56370530044614E-12  1.24296310277457E-01
 cg2d: Sum(rhs),rhsMax =   8.62643290133747E-12  1.21942421459140E-01
 cg2d: Sum(rhs),rhsMax =   8.72368843829463E-12  1.19649317929385E-01
 cg2d: Sum(rhs),rhsMax =   8.85980178111367E-12  1.17409965961785E-01
 cg2d: Sum(rhs),rhsMax =   8.90221230065436E-12  1.15217843613545E-01
 cg2d: Sum(rhs),rhsMax =   9.04287755787436E-12  1.13066964228915E-01
 cg2d: Sum(rhs),rhsMax =   9.11259956382082E-12  1.10951889135542E-01
 cg2d: Sum(rhs),rhsMax =   9.18198850285989E-12  1.08867730610789E-01
 cg2d: Sum(rhs),rhsMax =   9.28057630744661E-12  1.06810146250387E-01
 cg2d: Sum(rhs),rhsMax =   9.37738775519392E-12  1.04775325893208E-01
 cg2d: Sum(rhs),rhsMax =   9.41791089559274E-12  1.02759972247947E-01
 cg2d: Sum(rhs),rhsMax =   9.55169277006007E-12  1.00761276334517E-01
 cg2d: Sum(rhs),rhsMax =   9.62718793573458E-12  9.87768887997174E-02
 cg2d: Sum(rhs),rhsMax =   9.72522062880898E-12  9.68048880978223E-02
 cg2d: Sum(rhs),rhsMax =   9.92983473224740E-12  9.48437464463569E-02
 cg2d: Sum(rhs),rhsMax =   1.01189057133411E-11  9.28922943792715E-02
 cg2d: Sum(rhs),rhsMax =   1.03814734586649E-11  9.09496846277260E-02
 cg2d: Sum(rhs),rhsMax =   1.06582520587040E-11  8.90153559656014E-02
 cg2d: Sum(rhs),rhsMax =   1.10016440402205E-11  8.70889975650790E-02
 cg2d: Sum(rhs),rhsMax =   1.11719522521980E-11  8.51705143194890E-02
 cg2d: Sum(rhs),rhsMax =   1.12650999639641E-11  8.32599935071774E-02
 cg2d: Sum(rhs),rhsMax =   1.14108722470974E-11  8.13576730930177E-02
 cg2d: Sum(rhs),rhsMax =   1.16410214801022E-11  7.94639118938092E-02
 cg2d: Sum(rhs),rhsMax =   1.17466036897440E-11  7.75791617706535E-02
 cg2d: Sum(rhs),rhsMax =   1.18830500994704E-11  7.63630264121180E-02
 cg2d: Sum(rhs),rhsMax =   1.14219744773436E-11  7.83791952928120E-02
 cg2d: Sum(rhs),rhsMax =   1.10654818641365E-11  8.01852759081802E-02
 cg2d: Sum(rhs),rhsMax =   1.08052455871643E-11  8.17833226083925E-02
 cg2d: Sum(rhs),rhsMax =   1.04799502409492E-11  8.31527232453258E-02
 cg2d: Sum(rhs),rhsMax =   1.02657882194990E-11  8.42814009521693E-02
 cg2d: Sum(rhs),rhsMax =   1.00157659943534E-11  8.51973493183535E-02
 cg2d: Sum(rhs),rhsMax =   9.88298332060822E-12  8.58767378413868E-02
 cg2d: Sum(rhs),rhsMax =   9.73565672524046E-12  8.63166066246609E-02
 cg2d: Sum(rhs),rhsMax =   9.66060564877580E-12  8.65184631336476E-02
 cg2d: Sum(rhs),rhsMax =   9.41113853514253E-12  8.78394537109015E-02
 cg2d: Sum(rhs),rhsMax =   9.15889586394769E-12  8.95867298077502E-02
 cg2d: Sum(rhs),rhsMax =   8.92291796006361E-12  9.12971672810691E-02
 cg2d: Sum(rhs),rhsMax =   8.66806626476091E-12  9.29599663279683E-02
 cg2d: Sum(rhs),rhsMax =   8.46805958687469E-12  9.45679033813971E-02
 cg2d: Sum(rhs),rhsMax =   8.26044788126978E-12  9.60990740120313E-02
 cg2d: Sum(rhs),rhsMax =   8.07681699299678E-12  9.75679986527682E-02
 cg2d: Sum(rhs),rhsMax =   7.90478793533111E-12  9.89509045906186E-02
 cg2d: Sum(rhs),rhsMax =   7.77622410907952E-12  1.00234888751086E-01
 cg2d: Sum(rhs),rhsMax =   7.61785079461674E-12  1.01409263876031E-01
 cg2d: Sum(rhs),rhsMax =   7.49694750723506E-12  1.02462343033234E-01
 cg2d: Sum(rhs),rhsMax =   7.37410132956029E-12  1.03380699662294E-01
 cg2d: Sum(rhs),rhsMax =   7.28184179621394E-12  1.04159646692227E-01
 cg2d: Sum(rhs),rhsMax =   7.19585502295672E-12  1.04788834109989E-01
 cg2d: Sum(rhs),rhsMax =   7.11680714360341E-12  1.05255122457641E-01
 cg2d: Sum(rhs),rhsMax =   7.06235070424555E-12  1.05547330147804E-01
 cg2d: Sum(rhs),rhsMax =   6.99279523175278E-12  1.05658970745188E-01
 cg2d: Sum(rhs),rhsMax =   6.97431001839277E-12  1.05567443117389E-01
 cg2d: Sum(rhs),rhsMax =   6.97764068746665E-12  1.05277230097005E-01
 cg2d: Sum(rhs),rhsMax =   6.98152646805283E-12  1.04769374289064E-01
 cg2d: Sum(rhs),rhsMax =   7.01477764764036E-12  1.04034266906351E-01
 cg2d: Sum(rhs),rhsMax =   7.07323088988687E-12  1.03056925831017E-01
 cg2d: Sum(rhs),rhsMax =   7.16071646422733E-12  1.01836876715069E-01
 cg2d: Sum(rhs),rhsMax =   7.21883663956646E-12  1.00358511756245E-01
 cg2d: Sum(rhs),rhsMax =   6.95596358291084E-12  1.04137690989986E-01
 cg2d: Sum(rhs),rhsMax =   6.69769795180741E-12  1.08376833450602E-01
 cg2d: Sum(rhs),rhsMax =   6.46846465279793E-12  1.12342232531544E-01
 cg2d: Sum(rhs),rhsMax =   6.27434215694223E-12  1.16020137021861E-01
 cg2d: Sum(rhs),rhsMax =   6.07505712402201E-12  1.19397221472163E-01
 cg2d: Sum(rhs),rhsMax =   5.90966164892848E-12  1.22464598956961E-01
 cg2d: Sum(rhs),rhsMax =   5.81021342149768E-12  1.25213032523080E-01
 cg2d: Sum(rhs),rhsMax =   5.68897706720861E-12  1.27635416352157E-01
 cg2d: Sum(rhs),rhsMax =   5.56349410985035E-12  1.29730957917052E-01
 cg2d: Sum(rhs),rhsMax =   5.43606826219900E-12  1.31491505951797E-01
 cg2d: Sum(rhs),rhsMax =   5.31746868759342E-12  1.32930715895933E-01
 cg2d: Sum(rhs),rhsMax =   5.19807807908279E-12  1.34015259261127E-01
 cg2d: Sum(rhs),rhsMax =   5.08759701034478E-12  1.34757583178684E-01
 cg2d: Sum(rhs),rhsMax =   4.99608687754005E-12  1.35183365140465E-01
 cg2d: Sum(rhs),rhsMax =   4.97121788178845E-12  1.35258364565207E-01
 cg2d: Sum(rhs),rhsMax =   5.05946673445834E-12  1.34998404010342E-01
 cg2d: Sum(rhs),rhsMax =   5.11836406591470E-12  1.34410539252381E-01
 cg2d: Sum(rhs),rhsMax =   5.15318343552451E-12  1.33507842383879E-01
 cg2d: Sum(rhs),rhsMax =   5.19040366242507E-12  1.32303030715926E-01
 cg2d: Sum(rhs),rhsMax =   5.22162868499265E-12  1.30800164724361E-01
 cg2d: Sum(rhs),rhsMax =   5.24617155273077E-12  1.29004382318440E-01
 cg2d: Sum(rhs),rhsMax =   5.27457938437337E-12  1.26951203962416E-01
 cg2d: Sum(rhs),rhsMax =   5.29456339881662E-12  1.24607820142997E-01
 cg2d: Sum(rhs),rhsMax =   5.31799604353012E-12  1.22070994959418E-01
 cg2d: Sum(rhs),rhsMax =   5.34588345812992E-12  1.19276600914397E-01
 cg2d: Sum(rhs),rhsMax =   5.38919256443116E-12  1.16261771315810E-01
 cg2d: Sum(rhs),rhsMax =   5.43773359673594E-12  1.13039418641885E-01
 cg2d: Sum(rhs),rhsMax =   5.29017628314588E-12  1.13725950902569E-01
 cg2d: Sum(rhs),rhsMax =   5.12593353180213E-12  1.15189916529944E-01
 cg2d: Sum(rhs),rhsMax =   4.98000208778993E-12  1.16476067952418E-01
 cg2d: Sum(rhs),rhsMax =   4.82239942423135E-12  1.17556798608382E-01
 cg2d: Sum(rhs),rhsMax =   4.71387165412729E-12  1.18429011571714E-01
 cg2d: Sum(rhs),rhsMax =   4.61107541038785E-12  1.19079874188679E-01
 cg2d: Sum(rhs),rhsMax =   4.50597198442537E-12  1.19481531527472E-01
 cg2d: Sum(rhs),rhsMax =   4.41459369060482E-12  1.19621587410518E-01
 cg2d: Sum(rhs),rhsMax =   4.35695923783896E-12  1.19485099455000E-01
 cg2d: Sum(rhs),rhsMax =   4.29946356295119E-12  1.19057813158631E-01
 cg2d: Sum(rhs),rhsMax =   4.26621932225757E-12  1.18328643772380E-01
 cg2d: Sum(rhs),rhsMax =   4.23947682515191E-12  1.17288839783453E-01
 cg2d: Sum(rhs),rhsMax =   4.05370875755651E-12  1.20972122240973E-01
 cg2d: Sum(rhs),rhsMax =   3.83879039667079E-12  1.26151262011519E-01
 cg2d: Sum(rhs),rhsMax =   3.65592972562112E-12  1.31044193611925E-01
 cg2d: Sum(rhs),rhsMax =   3.51511875162913E-12  1.35621374758391E-01
 cg2d: Sum(rhs),rhsMax =   3.37007505235576E-12  1.39866036198041E-01
 cg2d: Sum(rhs),rhsMax =   3.26456917054685E-12  1.43762501057753E-01
 cg2d: Sum(rhs),rhsMax =   3.15397707950638E-12  1.47315620285408E-01
 cg2d: Sum(rhs),rhsMax =   3.07037034685820E-12  1.50478086471316E-01
 cg2d: Sum(rhs),rhsMax =   3.00010016829333E-12  1.53256723182026E-01
 cg2d: Sum(rhs),rhsMax =   2.94675395196009E-12  1.55650264175500E-01
 cg2d: Sum(rhs),rhsMax =   2.89816434739798E-12  1.57657017792311E-01
 cg2d: Sum(rhs),rhsMax =   2.86341089728026E-12  1.59281670195340E-01
 cg2d: Sum(rhs),rhsMax =   2.83115544896795E-12  1.60521095497379E-01
 cg2d: Sum(rhs),rhsMax =   2.83376447307582E-12  1.61380086658816E-01
 cg2d: Sum(rhs),rhsMax =   2.84255431692859E-12  1.61858590863788E-01
 cg2d: Sum(rhs),rhsMax =   2.86089554824009E-12  1.61960913399478E-01
 cg2d: Sum(rhs),rhsMax =   2.73560341046419E-12  1.61703874372705E-01
 cg2d: Sum(rhs),rhsMax =   2.70809763502911E-12  1.61098386042108E-01
 cg2d: Sum(rhs),rhsMax =   2.69518435347393E-12  1.60136022154712E-01
 cg2d: Sum(rhs),rhsMax =   2.70421185444292E-12  1.58825805751860E-01
 cg2d: Sum(rhs),rhsMax =   2.72522282518395E-12  1.57179349656869E-01
 cg2d: Sum(rhs),rhsMax =   2.72684652635746E-12  1.55214565470422E-01
 cg2d: Sum(rhs),rhsMax =   2.75329758991916E-12  1.52947982278996E-01
 cg2d: Sum(rhs),rhsMax =   2.78353728955238E-12  1.50392421095704E-01
 cg2d: Sum(rhs),rhsMax =   2.81666356904964E-12  1.47565295123528E-01
 cg2d: Sum(rhs),rhsMax =   2.85760304308269E-12  1.44506640081959E-01
 cg2d: Sum(rhs),rhsMax =   2.92185720063287E-12  1.41228819193866E-01
 cg2d: Sum(rhs),rhsMax =   2.96743185579373E-12  1.37716106208831E-01
 cg2d: Sum(rhs),rhsMax =   3.04978264864531E-12  1.33945848861532E-01
 cg2d: Sum(rhs),rhsMax =   3.05810932132999E-12  1.31880068215153E-01
 cg2d: Sum(rhs),rhsMax =   3.03801428458428E-12  1.33237216186843E-01
 cg2d: Sum(rhs),rhsMax =   2.97978308694269E-12  1.34365231550214E-01
 cg2d: Sum(rhs),rhsMax =   2.93393087602567E-12  1.35226228880062E-01
 cg2d: Sum(rhs),rhsMax =   2.89657187124703E-12  1.35798084197918E-01
 cg2d: Sum(rhs),rhsMax =   2.89673840470073E-12  1.36085211473334E-01
 cg2d: Sum(rhs),rhsMax =   2.88541412984955E-12  1.36060203946437E-01
 cg2d: Sum(rhs),rhsMax =   2.86470847044029E-12  1.35697953152066E-01
 cg2d: Sum(rhs),rhsMax =   2.88175039386829E-12  1.34996592796511E-01
 cg2d: Sum(rhs),rhsMax =   2.89179791224115E-12  1.33943807027586E-01
 cg2d: Sum(rhs),rhsMax =   2.91300317201149E-12  1.32521186048995E-01
 cg2d: Sum(rhs),rhsMax =   2.89412938059286E-12  1.32317608809391E-01
 cg2d: Sum(rhs),rhsMax =   2.76223488526739E-12  1.38028827256089E-01
 cg2d: Sum(rhs),rhsMax =   2.64754884682361E-12  1.43453802326739E-01
 cg2d: Sum(rhs),rhsMax =   2.55806487103882E-12  1.48490750936690E-01
 cg2d: Sum(rhs),rhsMax =   2.47313280965500E-12  1.53112207476018E-01
 cg2d: Sum(rhs),rhsMax =   2.39641639865340E-12  1.57407782452091E-01
 cg2d: Sum(rhs),rhsMax =   2.33435493157685E-12  1.61274565308175E-01
 cg2d: Sum(rhs),rhsMax =   2.27107221917322E-12  1.64725490452464E-01
 cg2d: Sum(rhs),rhsMax =   2.20723439525727E-12  1.67707928913028E-01
 cg2d: Sum(rhs),rhsMax =   2.14706030732259E-12  1.70339711544370E-01
 cg2d: Sum(rhs),rhsMax =   2.05668815311810E-12  1.72514284685782E-01
 cg2d: Sum(rhs),rhsMax =   1.93445259810687E-12  1.74249583731189E-01
 cg2d: Sum(rhs),rhsMax =   1.85251813888954E-12  1.75567775695739E-01
 cg2d: Sum(rhs),rhsMax =   1.82731607623055E-12  1.76470809524738E-01
 cg2d: Sum(rhs),rhsMax =   1.84752213527872E-12  1.76941961026139E-01
 cg2d: Sum(rhs),rhsMax =   1.94932958663685E-12  1.76994240383647E-01
 cg2d: Sum(rhs),rhsMax =   2.03148609045911E-12  1.76645071855273E-01
 cg2d: Sum(rhs),rhsMax =   2.15150119942109E-12  1.75899929667014E-01
 cg2d: Sum(rhs),rhsMax =   2.23798757303939E-12  1.74775075028076E-01
 cg2d: Sum(rhs),rhsMax =   2.29971597320855E-12  1.73277984737688E-01
 cg2d: Sum(rhs),rhsMax =   2.38487007919730E-12  1.71427983043961E-01
 cg2d: Sum(rhs),rhsMax =   2.52564635871977E-12  1.69276865229298E-01
 cg2d: Sum(rhs),rhsMax =   2.54329890481131E-12  1.66787326750142E-01
 cg2d: Sum(rhs),rhsMax =   2.68263189440177E-12  1.64025834246857E-01
 cg2d: Sum(rhs),rhsMax =   2.81386025591246E-12  1.60966262034534E-01
 cg2d: Sum(rhs),rhsMax =   2.80631073934501E-12  1.61937564676369E-01
 cg2d: Sum(rhs),rhsMax =   2.80186984724651E-12  1.66213385092619E-01
 cg2d: Sum(rhs),rhsMax =   2.70605760022136E-12  1.71082282445213E-01
 cg2d: Sum(rhs),rhsMax =   2.54074539185467E-12  1.75841052061680E-01
 cg2d: Sum(rhs),rhsMax =   2.44615439015661E-12  1.80487556945978E-01
 cg2d: Sum(rhs),rhsMax =   2.32169838909613E-12  1.85020220370449E-01
 cg2d: Sum(rhs),rhsMax =   2.15405471237773E-12  1.89438001309615E-01
 cg2d: Sum(rhs),rhsMax =   2.01039185299123E-12  1.93740367270316E-01
 cg2d: Sum(rhs),rhsMax =   1.95277127801319E-12  1.97927264964403E-01
 cg2d: Sum(rhs),rhsMax =   1.86706206051213E-12  2.01999089268106E-01
 cg2d: Sum(rhs),rhsMax =   1.81266113230549E-12  2.05956650903970E-01
 cg2d: Sum(rhs),rhsMax =   1.71218594857692E-12  2.09801143266432E-01
 cg2d: Sum(rhs),rhsMax =   1.69964042839865E-12  2.13534108792918E-01
 cg2d: Sum(rhs),rhsMax =   1.66988645133870E-12  2.17157405258377E-01
 cg2d: Sum(rhs),rhsMax =   1.59805502164545E-12  2.20673172341399E-01
 cg2d: Sum(rhs),rhsMax =   1.54409818264867E-12  2.24083798779792E-01
 cg2d: Sum(rhs),rhsMax =   1.50801593434835E-12  2.27391890400095E-01
 cg2d: Sum(rhs),rhsMax =   1.52899914951377E-12  2.30600239270668E-01
 cg2d: Sum(rhs),rhsMax =   1.49069645516420E-12  2.33711794192576E-01
 cg2d: Sum(rhs),rhsMax =   1.47881706880071E-12  2.36729632707361E-01
 cg2d: Sum(rhs),rhsMax =   1.49502632496024E-12  2.39656934766368E-01
 cg2d: Sum(rhs),rhsMax =   1.52611256964974E-12  2.42496958173006E-01
 cg2d: Sum(rhs),rhsMax =   1.51179069263208E-12  2.45253015877619E-01
 cg2d: Sum(rhs),rhsMax =   1.52844403800145E-12  2.47928455174842E-01
 cg2d: Sum(rhs),rhsMax =   1.51989532071184E-12  2.50526638825385E-01
 cg2d: Sum(rhs),rhsMax =   1.54498636106837E-12  2.53050928098343E-01
 cg2d: Sum(rhs),rhsMax =   1.54842805244471E-12  2.55504667706247E-01
 cg2d: Sum(rhs),rhsMax =   1.57773794029481E-12  2.57891172583367E-01
 cg2d: Sum(rhs),rhsMax =   1.60271795834888E-12  2.60213716438199E-01
 cg2d: Sum(rhs),rhsMax =   1.59305901803464E-12  2.62475521993856E-01
 cg2d: Sum(rhs),rhsMax =   1.56863411149288E-12  2.64679752815207E-01
 cg2d: Sum(rhs),rhsMax =   1.67565961106675E-12  2.66829506609302E-01
 cg2d: Sum(rhs),rhsMax =   1.66822111680176E-12  2.68927809875850E-01
 cg2d: Sum(rhs),rhsMax =   1.68742797512778E-12  2.70977613777452E-01
 cg2d: Sum(rhs),rhsMax =   1.70063962912081E-12  2.72981791094973E-01
 cg2d: Sum(rhs),rhsMax =   1.72484249105764E-12  2.74943134131608E-01
 cg2d: Sum(rhs),rhsMax =   1.73772107814330E-12  2.76864353429797E-01
 cg2d: Sum(rhs),rhsMax =   1.72606373638473E-12  2.78748077167877E-01
 cg2d: Sum(rhs),rhsMax =   1.75992553863580E-12  2.80596851107837E-01
 cg2d: Sum(rhs),rhsMax =   1.71607172916310E-12  2.82413138971493E-01
 cg2d: Sum(rhs),rhsMax =   1.66933133982639E-12  2.84199323129136E-01
 cg2d: Sum(rhs),rhsMax =   1.62370117351429E-12  2.85957705492010E-01
 cg2d: Sum(rhs),rhsMax =   1.69819713846664E-12  2.87690508507383E-01
 cg2d: Sum(rhs),rhsMax =   1.77224901420914E-12  2.89399876162375E-01
 cg2d: Sum(rhs),rhsMax =   1.79201098404747E-12  2.91087874909793E-01
 cg2d: Sum(rhs),rhsMax =   1.87994064759778E-12  2.92756494436207E-01
 cg2d: Sum(rhs),rhsMax =   1.90325533111491E-12  2.94407648199261E-01
 cg2d: Sum(rhs),rhsMax =   1.90158999657797E-12  2.96043173668200E-01
 cg2d: Sum(rhs),rhsMax =   1.97664107304263E-12  2.97664832208956E-01
 cg2d: Sum(rhs),rhsMax =   2.00572891628781E-12  2.99274308563249E-01
 cg2d: Sum(rhs),rhsMax =   2.03781436169947E-12  3.00873209880341E-01
 cg2d: Sum(rhs),rhsMax =   2.04847250273588E-12  3.02463064270492E-01
(PID.TID 0000.0001)      cg2d_init_res =   5.72047168156205E-02
(PID.TID 0000.0001)      cg2d_iters(min,last) =      -1      29
(PID.TID 0000.0001)      cg2d_last_res =   9.91304261468290E-14
(PID.TID 0000.0001) // =======================================================
(PID.TID 0000.0001) // Begin MONITOR dynamic field statistics
(PID.TID 0000.0001) // =======================================================
(PID.TID 0000.0001) %MON time_tsnumber                =                   480
(PID.TID 0000.0001) %MON time_secondsf                =   7.2000000000000E+03
(PID.TID 0000.0001) %MON dynstat_eta_max              =   3.0348905250626E-02
(PID.TID 0000.0001) %MON dynstat_eta_min              =  -2.7764181699922E-02
(PID.TID 0000.0001) %MON dynstat_eta_mean             =  -7.3727012586122E-16
(PID.TID 0000.0001) %MON dynstat_eta_sd               =   2.6612355301391E-02
(PID.TID 0000.0001) %MON dynstat_eta_del2             =   1.2865043310405E-04
(PID.TID 0000.0001) %MON dynstat_uvel_max             =   8.8849482637636E-01
(PID.TID 0000.0001) %MON dynstat_uvel_min             =  -5.4260701385707E-01
(PID.TID 0000.0001) %MON dynstat_uvel_mean            =   1.8294856321946E-03
(PID.TID 0000.0001) %MON dynstat_uvel_sd              =   5.9246081374576E-02
(PID.TID 0000.0001) %MON dynstat_uvel_del2            =   1.8513550213933E-04
(PID.TID 0000.0001) %MON dynstat_vvel_max             =   0.0000000000000E+00
(PID.TID 0000.0001) %MON dynstat_vvel_min             =   0.0000000000000E+00
(PID.TID 0000.0001) %MON dynstat_vvel_mean            =   0.0000000000000E+00
(PID.TID 0000.0001) %MON dynstat_vvel_sd              =   0.0000000000000E+00
(PID.TID 0000.0001) %MON dynstat_vvel_del2            =   0.0000000000000E+00
(PID.TID 0000.0001) %MON dynstat_wvel_max             =   5.6397795552292E-02
(PID.TID 0000.0001) %MON dynstat_wvel_min             =  -1.8076731805326E-02
(PID.TID 0000.0001) %MON dynstat_wvel_mean            =  -3.5757484496601E-22
(PID.TID 0000.0001) %MON dynstat_wvel_sd              =   1.6104430065199E-03
(PID.TID 0000.0001) %MON dynstat_wvel_del2            =   2.8996014527638E-05
(PID.TID 0000.0001) %MON dynstat_theta_max            =   1.4976502385927E+01
(PID.TID 0000.0001) %MON dynstat_theta_min            =   9.9765023856516E+00
(PID.TID 0000.0001) %MON dynstat_theta_mean           =   1.2377078357235E+01
(PID.TID 0000.0001) %MON dynstat_theta_sd             =   2.4576354999160E+00
(PID.TID 0000.0001) %MON dynstat_theta_del2           =   1.1365489736776E-03
(PID.TID 0000.0001) %MON dynstat_salt_max             =   3.5000000000000E+01
(PID.TID 0000.0001) %MON dynstat_salt_min             =   3.5000000000000E+01
(PID.TID 0000.0001) %MON dynstat_salt_mean            =   3.5000000000000E+01
(PID.TID 0000.0001) %MON dynstat_salt_sd              =   3.4816594052245E-13
(PID.TID 0000.0001) %MON dynstat_salt_del2            =   0.0000000000000E+00
(PID.TID 0000.0001) %MON dynstat_sst_max              =   1.4976502385655E+01
(PID.TID 0000.0001) %MON dynstat_sst_min              =   1.4653308044357E+01
(PID.TID 0000.0001) %MON dynstat_sst_mean             =   1.4808234070206E+01
(PID.TID 0000.0001) %MON dynstat_sst_sd               =   1.5923098328653E-01
(PID.TID 0000.0001) %MON dynstat_sst_del2             =   4.1627847689805E-04
(PID.TID 0000.0001) %MON dynstat_sss_max              =   3.5000000000000E+01
(PID.TID 0000.0001) %MON dynstat_sss_min              =   3.5000000000000E+01
(PID.TID 0000.0001) %MON dynstat_sss_mean             =   3.5000000000000E+01
(PID.TID 0000.0001) %MON dynstat_sss_sd               =   3.5527136788005E-14
(PID.TID 0000.0001) %MON dynstat_sss_del2             =   0.0000000000000E+00
(PID.TID 0000.0001) %MON forcing_qnet_max             =   0.0000000000000E+00
(PID.TID 0000.0001) %MON forcing_qnet_min             =   0.0000000000000E+00
(PID.TID 0000.0001) %MON forcing_qnet_mean            =   0.0000000000000E+00
(PID.TID 0000.0001) %MON forcing_qnet_sd              =   0.0000000000000E+00
(PID.TID 0000.0001) %MON forcing_qnet_del2            =   0.0000000000000E+00
(PID.TID 0000.0001) %MON forcing_qsw_max              =   0.0000000000000E+00
(PID.TID 0000.0001) %MON forcing_qsw_min              =   0.0000000000000E+00
(PID.TID 0000.0001) %MON forcing_qsw_mean             =   0.0000000000000E+00
(PID.TID 0000.0001) %MON forcing_qsw_sd               =   0.0000000000000E+00
(PID.TID 0000.0001) %MON forcing_qsw_del2             =   0.0000000000000E+00
(PID.TID 0000.0001) %MON forcing_empmr_max            =   0.0000000000000E+00
(PID.TID 0000.0001) %MON forcing_empmr_min            =   0.0000000000000E+00
(PID.TID 0000.0001) %MON forcing_empmr_mean           =   0.0000000000000E+00
(PID.TID 0000.0001) %MON forcing_empmr_sd             =   0.0000000000000E+00
(PID.TID 0000.0001) %MON forcing_empmr_del2           =   0.0000000000000E+00
(PID.TID 0000.0001) %MON forcing_fu_max               =   0.0000000000000E+00
(PID.TID 0000.0001) %MON forcing_fu_min               =   0.0000000000000E+00
(PID.TID 0000.0001) %MON forcing_fu_mean              =   0.0000000000000E+00
(PID.TID 0000.0001) %MON forcing_fu_sd                =   0.0000000000000E+00
(PID.TID 0000.0001) %MON forcing_fu_del2              =   0.0000000000000E+00
(PID.TID 0000.0001) %MON forcing_fv_max               =   0.0000000000000E+00
(PID.TID 0000.0001) %MON forcing_fv_min               =   0.0000000000000E+00
(PID.TID 0000.0001) %MON forcing_fv_mean              =   0.0000000000000E+00
(PID.TID 0000.0001) %MON forcing_fv_sd                =   0.0000000000000E+00
(PID.TID 0000.0001) %MON forcing_fv_del2              =   0.0000000000000E+00
(PID.TID 0000.0001) %MON advcfl_uvel_max              =   6.6637111978227E-02
(PID.TID 0000.0001) %MON advcfl_vvel_max              =   0.0000000000000E+00
(PID.TID 0000.0001) %MON advcfl_wvel_max              =   2.7661522934481E-01
(PID.TID 0000.0001) %MON advcfl_W_hf_max              =   2.7873067784743E-01
(PID.TID 0000.0001) %MON pe_b_mean                    =   1.9881277801542E-05
(PID.TID 0000.0001) %MON ke_max                       =   3.6086003222842E-01
(PID.TID 0000.0001) %MON ke_mean                      =   1.7761684864858E-03
(PID.TID 0000.0001) %MON ke_vol                       =   8.5337279889550E+10
(PID.TID 0000.0001) %MON vort_r_min                   =   0.0000000000000E+00
(PID.TID 0000.0001) %MON vort_r_max                   =   0.0000000000000E+00
(PID.TID 0000.0001) %MON vort_a_mean                  =   0.0000000000000E+00
(PID.TID 0000.0001) %MON vort_a_sd                    =   0.0000000000000E+00
(PID.TID 0000.0001) %MON vort_p_mean                  =   0.0000000000000E+00
(PID.TID 0000.0001) %MON vort_p_sd                    =   0.0000000000000E+00
(PID.TID 0000.0001) %MON surfExpan_theta_mean         =   2.0045041510201E-06
(PID.TID 0000.0001) %MON surfExpan_salt_mean          =   8.9012422053603E-19
(PID.TID 0000.0001) // =======================================================
(PID.TID 0000.0001) // End MONITOR dynamic field statistics
(PID.TID 0000.0001) // =======================================================
(PID.TID 0000.0001) // =======================================================
(PID.TID 0000.0001) // Begin OBCS MONITOR field statistics
(PID.TID 0000.0001) // =======================================================
(PID.TID 0000.0001) %MON obc_E_uVel_max               =   0.0000000000000E+00
(PID.TID 0000.0001) %MON obc_E_uVel_min               =   0.0000000000000E+00
(PID.TID 0000.0001) %MON obc_E_uVel_mean              =   0.0000000000000E+00
(PID.TID 0000.0001) %MON obc_E_uVel_sd                =   0.0000000000000E+00
(PID.TID 0000.0001) %MON obc_E_uVel_Int               =   0.0000000000000E+00
(PID.TID 0000.0001) %MON obc_W_uVel_max               =   0.0000000000000E+00
(PID.TID 0000.0001) %MON obc_W_uVel_min               =   0.0000000000000E+00
(PID.TID 0000.0001) %MON obc_W_uVel_mean              =   0.0000000000000E+00
(PID.TID 0000.0001) %MON obc_W_uVel_sd                =   0.0000000000000E+00
(PID.TID 0000.0001) %MON obc_W_uVel_Int               =   0.0000000000000E+00
(PID.TID 0000.0001) // =======================================================
(PID.TID 0000.0001) // End OBCS MONITOR field statistics
(PID.TID 0000.0001) // =======================================================
 cg2d: Sum(rhs),rhsMax =   2.03970174084134E-12  3.04045318860912E-01
 cg2d: Sum(rhs),rhsMax =   2.06024086679690E-12  3.05621337348019E-01
 cg2d: Sum(rhs),rhsMax =   2.06878958408652E-12  3.07192397053783E-01
 cg2d: Sum(rhs),rhsMax =   2.02338146237935E-12  3.08759685508423E-01
 cg2d: Sum(rhs),rhsMax =   1.99218419538738E-12  3.10324296596135E-01
 cg2d: Sum(rhs),rhsMax =   1.94988469814916E-12  3.11887226314146E-01
 cg2d: Sum(rhs),rhsMax =   1.90014670664596E-12  3.13449368207438E-01
 cg2d: Sum(rhs),rhsMax =   1.83431048128568E-12  3.15011508551237E-01
 cg2d: Sum(rhs),rhsMax =   1.72017955435422E-12  3.16574321360264E-01
 cg2d: Sum(rhs),rhsMax =   1.64102065269844E-12  3.18138363307357E-01
 cg2d: Sum(rhs),rhsMax =   1.51034740270006E-12  3.19704068634167E-01
 cg2d: Sum(rhs),rhsMax =   1.42219569454483E-12  3.21271744133443E-01
 cg2d: Sum(rhs),rhsMax =   1.35824684832642E-12  3.22841564276183E-01
 cg2d: Sum(rhs),rhsMax =   1.33182354034034E-12  3.24413566548440E-01
 cg2d: Sum(rhs),rhsMax =   1.32283073384087E-12  3.25987647052553E-01
 cg2d: Sum(rhs),rhsMax =   1.32438504607535E-12  3.27563556417110E-01
 cg2d: Sum(rhs),rhsMax =   1.35769173681410E-12  3.29140896049972E-01
 cg2d: Sum(rhs),rhsMax =   1.38522526782481E-12  3.30719114760232E-01
 cg2d: Sum(rhs),rhsMax =   1.35313982241314E-12  3.32297505768827E-01
 cg2d: Sum(rhs),rhsMax =   1.30884192373060E-12  3.33875204124281E-01
 cg2d: Sum(rhs),rhsMax =   1.23812071706197E-12  3.35451184540088E-01
 cg2d: Sum(rhs),rhsMax =   1.24167343074078E-12  3.37024259673595E-01
 cg2d: Sum(rhs),rhsMax =   1.23456800338317E-12  3.38593078872608E-01
 cg2d: Sum(rhs),rhsMax =   1.23168142351915E-12  3.40156127424915E-01
 cg2d: Sum(rhs),rhsMax =   1.22690746451326E-12  3.41711726356565E-01
 cg2d: Sum(rhs),rhsMax =   1.20947696302665E-12  3.43258032836331E-01
 cg2d: Sum(rhs),rhsMax =   1.20714549467493E-12  3.44793041255059E-01
 cg2d: Sum(rhs),rhsMax =   1.18483001187997E-12  3.46314585058650E-01
 cg2d: Sum(rhs),rhsMax =   1.16973097874506E-12  3.47820339421116E-01
 cg2d: Sum(rhs),rhsMax =   1.13486997577184E-12  3.49307824848542E-01
 cg2d: Sum(rhs),rhsMax =   1.06170627844904E-12  3.50774411805218E-01
 cg2d: Sum(rhs),rhsMax =   1.05904174318994E-12  3.52217326449054E-01
 cg2d: Sum(rhs),rhsMax =   9.76441150157825E-13  3.53633657554514E-01
 cg2d: Sum(rhs),rhsMax =   9.25259868722605E-13  3.55020364687724E-01
 cg2d: Sum(rhs),rhsMax =   8.95283847057726E-13  3.56374287680552E-01
 cg2d: Sum(rhs),rhsMax =   8.44768699437282E-13  3.57692157428954E-01
 cg2d: Sum(rhs),rhsMax =   7.67719221528296E-13  3.58970608016667E-01
 cg2d: Sum(rhs),rhsMax =   6.91446899736547E-13  3.60206190139589E-01
 cg2d: Sum(rhs),rhsMax =   5.96411808828634E-13  3.61395385779931E-01
 cg2d: Sum(rhs),rhsMax =   5.61661828157867E-13  3.62534624053844E-01
 cg2d: Sum(rhs),rhsMax =   4.38094005517087E-13  3.63620298132705E-01
 cg2d: Sum(rhs),rhsMax =   3.86801701779405E-13  3.64648783117437E-01
 cg2d: Sum(rhs),rhsMax =   2.82440737464640E-13  3.65616454727971E-01
 cg2d: Sum(rhs),rhsMax =   1.84074977482851E-13  3.66519708656325E-01
 cg2d: Sum(rhs),rhsMax =   1.21680443498917E-13  3.67354980422007E-01
 cg2d: Sum(rhs),rhsMax =   4.16333634234434E-14  3.68118765562160E-01
 cg2d: Sum(rhs),rhsMax =  -1.31006316905768E-14  3.68807639985661E-01
 cg2d: Sum(rhs),rhsMax =  -4.58522109170190E-14  3.69418280319488E-01
 cg2d: Sum(rhs),rhsMax =   7.21644966006352E-15  3.69947484076566E-01
 cg2d: Sum(rhs),rhsMax =   2.33146835171283E-14  3.70852485459781E-01
 cg2d: Sum(rhs),rhsMax =   5.06261699229071E-14  3.71902497179716E-01
 cg2d: Sum(rhs),rhsMax =   7.99360577730113E-14  3.72854310224333E-01
 cg2d: Sum(rhs),rhsMax =   8.21565038222616E-14  3.73703438205832E-01
 cg2d: Sum(rhs),rhsMax =   7.16093850883226E-14  3.74445507117317E-01
 cg2d: Sum(rhs),rhsMax =   9.91429160990265E-14  3.75076278158224E-01
 cg2d: Sum(rhs),rhsMax =   1.15907283770866E-13  3.75591670648843E-01
 cg2d: Sum(rhs),rhsMax =   6.85007606193722E-14  3.75987784881904E-01
 cg2d: Sum(rhs),rhsMax =   8.11573031000989E-14  3.76260924747607E-01
 cg2d: Sum(rhs),rhsMax =   4.08562073062058E-14  3.76407619958388E-01
 cg2d: Sum(rhs),rhsMax =   3.95239396766556E-14  3.76424647692203E-01
 cg2d: Sum(rhs),rhsMax =  -4.88498130835069E-15  3.76309053468643E-01
 cg2d: Sum(rhs),rhsMax =  -3.00870439673417E-14  3.76058171071228E-01
 cg2d: Sum(rhs),rhsMax =  -5.40678612992451E-14  3.75669641331840E-01
 cg2d: Sum(rhs),rhsMax =  -4.39648317751562E-14  3.75141429599308E-01
 cg2d: Sum(rhs),rhsMax =  -5.09592368302947E-14  3.74471841723166E-01
 cg2d: Sum(rhs),rhsMax =  -6.22835116814713E-14  3.73659538395078E-01
 cg2d: Sum(rhs),rhsMax =  -6.32827124036339E-14  3.72703547703649E-01
 cg2d: Sum(rhs),rhsMax =  -4.90718576884319E-14  3.71603275772847E-01
 cg2d: Sum(rhs),rhsMax =  -7.01660951563099E-14  3.70358515369585E-01
 cg2d: Sum(rhs),rhsMax =  -3.45279360658424E-14  3.68969452382135E-01
 cg2d: Sum(rhs),rhsMax =  -1.53210777398272E-14  3.67436670088172E-01
 cg2d: Sum(rhs),rhsMax =  -1.86517468137026E-14  3.65761151149854E-01
 cg2d: Sum(rhs),rhsMax =   1.37667655053519E-14  3.63944277294104E-01
 cg2d: Sum(rhs),rhsMax =   3.86357612569554E-14  3.61987826659731E-01
 cg2d: Sum(rhs),rhsMax =   2.66453525910038E-14  3.59893968819575E-01
 cg2d: Sum(rhs),rhsMax =  -6.88338275267597E-15  3.57665257515164E-01
 cg2d: Sum(rhs),rhsMax =  -3.21964677141295E-14  3.55304621172738E-01
 cg2d: Sum(rhs),rhsMax =  -5.45119505090952E-14  3.52815351301140E-01
 cg2d: Sum(rhs),rhsMax =  -2.23154827949656E-14  3.50201088902114E-01
 cg2d: Sum(rhs),rhsMax =  -4.35207425653061E-14  3.47465809049276E-01
 cg2d: Sum(rhs),rhsMax =  -1.98729921407903E-14  3.44613803811288E-01
 cg2d: Sum(rhs),rhsMax =  -1.34336985979644E-14  3.41649663705469E-01
 cg2d: Sum(rhs),rhsMax =   2.66453525910038E-14  3.38578257869305E-01
 cg2d: Sum(rhs),rhsMax =   6.72795152922845E-14  3.35404713129089E-01
 cg2d: Sum(rhs),rhsMax =   4.61852778244065E-14  3.32134392128519E-01
 cg2d: Sum(rhs),rhsMax =   1.27897692436818E-13  3.28772870657856E-01
 cg2d: Sum(rhs),rhsMax =   1.82964754458226E-13  3.25325914299342E-01
 cg2d: Sum(rhs),rhsMax =   2.28039809258007E-13  3.21799454480419E-01
 cg2d: Sum(rhs),rhsMax =   2.42028619368284E-13  3.18199564006338E-01
 cg2d: Sum(rhs),rhsMax =   3.30624416733372E-13  3.14532432130607E-01
 cg2d: Sum(rhs),rhsMax =   3.83693077310454E-13  3.10804339217522E-01
 cg2d: Sum(rhs),rhsMax =   4.05453448593107E-13  3.07021631056313E-01
 cg2d: Sum(rhs),rhsMax =   4.96269692007445E-13  3.04163789285260E-01
 cg2d: Sum(rhs),rhsMax =   5.64770452626817E-13  3.01293818382922E-01
 cg2d: Sum(rhs),rhsMax =   5.94302385081846E-13  2.98407822641397E-01
 cg2d: Sum(rhs),rhsMax =   6.49480469405717E-13  2.95508011951159E-01
 cg2d: Sum(rhs),rhsMax =   6.70685729176057E-13  2.92596426102660E-01
 cg2d: Sum(rhs),rhsMax =   7.01660951563099E-13  2.89674934568212E-01
 cg2d: Sum(rhs),rhsMax =   7.02771174587724E-13  2.86745237934197E-01
 cg2d: Sum(rhs),rhsMax =   7.10875802667488E-13  2.83808870922904E-01
 cg2d: Sum(rhs),rhsMax =   7.49733608529368E-13  2.80867206918298E-01
 cg2d: Sum(rhs),rhsMax =   7.01882996168024E-13  2.77921463882653E-01
 cg2d: Sum(rhs),rhsMax =   7.69384556065233E-13  2.74972711524005E-01
 cg2d: Sum(rhs),rhsMax =   7.24864612777765E-13  2.72021879549913E-01
 cg2d: Sum(rhs),rhsMax =   7.07656155896075E-13  2.69069766821748E-01
 cg2d: Sum(rhs),rhsMax =   6.68465283126807E-13  2.66117051207413E-01
 cg2d: Sum(rhs),rhsMax =   6.58251231300255E-13  2.63164299921598E-01
 cg2d: Sum(rhs),rhsMax =   7.51176898461381E-13  2.60211980140647E-01
 cg2d: Sum(rhs),rhsMax =   7.82263143150885E-13  2.57260469685684E-01
 cg2d: Sum(rhs),rhsMax =   8.47544256998845E-13  2.54310067583463E-01
 cg2d: Sum(rhs),rhsMax =   9.52349310523459E-13  2.51361004337047E-01
 cg2d: Sum(rhs),rhsMax =   9.92317339409965E-13  2.48413451767091E-01
 cg2d: Sum(rhs),rhsMax =   9.98756632952791E-13  2.45467532317044E-01
 cg2d: Sum(rhs),rhsMax =   1.07092112955343E-12  2.42523327749480E-01
 cg2d: Sum(rhs),rhsMax =   1.11932685342708E-12  2.39580887193635E-01
 cg2d: Sum(rhs),rhsMax =   1.13742348872847E-12  2.36640234533924E-01
 cg2d: Sum(rhs),rhsMax =   1.17184040249185E-12  2.33701375152921E-01
 cg2d: Sum(rhs),rhsMax =   1.13964393477772E-12  2.30764302059154E-01
 cg2d: Sum(rhs),rhsMax =   1.21769261340887E-12  2.27829001439349E-01
 cg2d: Sum(rhs),rhsMax =   1.27686750062139E-12  2.24895457675911E-01
 cg2d: Sum(rhs),rhsMax =   1.26065824446187E-12  2.21963657865483E-01
 cg2d: Sum(rhs),rhsMax =   1.32360788995811E-12  2.19033595863949E-01
 cg2d: Sum(rhs),rhsMax =   1.34847688570972E-12  2.18609077344028E-01
 cg2d: Sum(rhs),rhsMax =   1.33359989717974E-12  2.20250165558625E-01
 cg2d: Sum(rhs),rhsMax =   1.39677158728091E-12  2.21365717927356E-01
 cg2d: Sum(rhs),rhsMax =   1.51878509768721E-12  2.21979501771761E-01
 cg2d: Sum(rhs),rhsMax =   1.52622359195220E-12  2.22083779021940E-01
 cg2d: Sum(rhs),rhsMax =   1.48836498681248E-12  2.21725221740484E-01
 cg2d: Sum(rhs),rhsMax =   1.45161660469739E-12  2.20893033289475E-01
 cg2d: Sum(rhs),rhsMax =   1.39621647576860E-12  2.19607099767167E-01
 cg2d: Sum(rhs),rhsMax =   1.35025324254912E-12  2.17879640152994E-01
 cg2d: Sum(rhs),rhsMax =   1.26754162721454E-12  2.15732285144570E-01
 cg2d: Sum(rhs),rhsMax =   1.23701049403735E-12  2.13215404937828E-01
 cg2d: Sum(rhs),rhsMax =   1.10034203970599E-12  2.10276762461183E-01
 cg2d: Sum(rhs),rhsMax =   1.07058806264604E-12  2.07172417633153E-01
 cg2d: Sum(rhs),rhsMax =   9.58677581763823E-13  2.03691902978122E-01
 cg2d: Sum(rhs),rhsMax =   8.90398865749376E-13  1.99807101748862E-01
 cg2d: Sum(rhs),rhsMax =   8.00137733847350E-13  1.98620126921857E-01
 cg2d: Sum(rhs),rhsMax =   7.03992419914812E-13  2.00297048630504E-01
 cg2d: Sum(rhs),rhsMax =   5.88529225353795E-13  2.01557217094865E-01
 cg2d: Sum(rhs),rhsMax =   4.83391104921793E-13  2.02383738580796E-01
 cg2d: Sum(rhs),rhsMax =   3.72812891669128E-13  2.02764572681800E-01
 cg2d: Sum(rhs),rhsMax =   2.65232280582950E-13  2.02673415306020E-01
 cg2d: Sum(rhs),rhsMax =   1.85296222809939E-13  2.02055851879100E-01
 cg2d: Sum(rhs),rhsMax =   7.77156117237610E-14  2.00930061715037E-01
 cg2d: Sum(rhs),rhsMax =  -1.12132525487141E-14  1.99243715089507E-01
 cg2d: Sum(rhs),rhsMax =  -1.42996725571720E-13  1.96980103578877E-01
 cg2d: Sum(rhs),rhsMax =  -2.56239474083486E-13  1.94126149392638E-01
 cg2d: Sum(rhs),rhsMax =  -3.27959881474271E-13  1.90672587269597E-01
 cg2d: Sum(rhs),rhsMax =  -4.63629135083465E-13  1.87104363227315E-01
 cg2d: Sum(rhs),rhsMax =  -5.34905453264400E-13  1.95230327854405E-01
 cg2d: Sum(rhs),rhsMax =  -6.48814335590941E-13  2.02790228770206E-01
 cg2d: Sum(rhs),rhsMax =  -7.01327884655711E-13  2.09766292179322E-01
 cg2d: Sum(rhs),rhsMax =  -8.03024313711376E-13  2.16113342956037E-01
 cg2d: Sum(rhs),rhsMax =  -8.84181616811475E-13  2.21803292944083E-01
 cg2d: Sum(rhs),rhsMax =  -9.60787005510610E-13  2.26970102718556E-01
 cg2d: Sum(rhs),rhsMax =  -1.02340358409947E-12  2.31433289003087E-01
 cg2d: Sum(rhs),rhsMax =  -1.03661523809251E-12  2.35366084457455E-01
 cg2d: Sum(rhs),rhsMax =  -9.66227098331274E-13  2.38748129557512E-01
 cg2d: Sum(rhs),rhsMax =  -9.41247080277208E-13  2.41498423759209E-01
 cg2d: Sum(rhs),rhsMax =  -9.76774217065213E-13  2.43627780667176E-01
 cg2d: Sum(rhs),rhsMax =  -9.82769421398189E-13  2.45177260758409E-01
 cg2d: Sum(rhs),rhsMax =  -1.01635366789310E-12  2.46167913263417E-01
 cg2d: Sum(rhs),rhsMax =  -1.03650421579005E-12  2.46579714971345E-01
 cg2d: Sum(rhs),rhsMax =  -1.07219788603174E-12  2.46441577452403E-01
 cg2d: Sum(rhs),rhsMax =  -1.08768549722527E-12  2.45763702217550E-01
 cg2d: Sum(rhs),rhsMax =  -1.15629728014710E-12  2.44554243965290E-01
 cg2d: Sum(rhs),rhsMax =  -1.20309318063505E-12  2.42797627107501E-01
 cg2d: Sum(rhs),rhsMax =  -1.24383836563879E-12  2.40580936096971E-01
 cg2d: Sum(rhs),rhsMax =  -1.28419497258392E-12  2.37894440033743E-01
 cg2d: Sum(rhs),rhsMax =  -1.33604238783391E-12  2.34780430241160E-01
 cg2d: Sum(rhs),rhsMax =  -1.39177558367010E-12  2.31363602402056E-01
 cg2d: Sum(rhs),rhsMax =  -1.45772283133283E-12  2.27490768418728E-01
 cg2d: Sum(rhs),rhsMax =  -1.51550993976457E-12  2.23250019178377E-01
 cg2d: Sum(rhs),rhsMax =  -1.56674673235102E-12  2.18683346134779E-01
 cg2d: Sum(rhs),rhsMax =  -1.65467639590133E-12  2.13739226769370E-01
 cg2d: Sum(rhs),rhsMax =  -1.71124225900599E-12  2.08493417425704E-01
 cg2d: Sum(rhs),rhsMax =  -1.75898184906487E-12  2.02895953329615E-01
 cg2d: Sum(rhs),rhsMax =  -1.77563519443424E-12  2.01923025084905E-01
 cg2d: Sum(rhs),rhsMax =  -1.80128134630309E-12  2.01887376865561E-01
 cg2d: Sum(rhs),rhsMax =  -1.79578574233119E-12  2.01307730063734E-01
 cg2d: Sum(rhs),rhsMax =  -1.77535763867809E-12  2.00181742187198E-01
 cg2d: Sum(rhs),rhsMax =  -1.75587322459592E-12  1.98411721340490E-01
 cg2d: Sum(rhs),rhsMax =  -1.75615078035207E-12  1.96014865995728E-01
 cg2d: Sum(rhs),rhsMax =  -1.75259806667327E-12  1.94519712157302E-01
 cg2d: Sum(rhs),rhsMax =  -1.71318514929908E-12  2.03982968550289E-01
 cg2d: Sum(rhs),rhsMax =  -1.64679381242649E-12  2.13018442328179E-01
 cg2d: Sum(rhs),rhsMax =  -1.60577107166660E-12  2.21312430994576E-01
 cg2d: Sum(rhs),rhsMax =  -1.56852308919042E-12  2.28914647056000E-01
 cg2d: Sum(rhs),rhsMax =  -1.60726987274984E-12  2.35833336650962E-01
 cg2d: Sum(rhs),rhsMax =  -1.63502544836547E-12  2.42012595063187E-01
 cg2d: Sum(rhs),rhsMax =  -1.64165903093760E-12  2.47544214069754E-01
 cg2d: Sum(rhs),rhsMax =  -1.62966862227165E-12  2.52430345453960E-01
 cg2d: Sum(rhs),rhsMax =  -1.58381641135463E-12  2.56603125326454E-01
 cg2d: Sum(rhs),rhsMax =  -1.52500234662512E-12  2.60097725403430E-01
 cg2d: Sum(rhs),rhsMax =  -1.50765511186535E-12  2.62901397616718E-01
 cg2d: Sum(rhs),rhsMax =  -1.48578371828023E-12  2.65011563373086E-01
 cg2d: Sum(rhs),rhsMax =  -1.36399225247885E-12  2.66445905991086E-01
 cg2d: Sum(rhs),rhsMax =  -1.32219235560171E-12  2.67207186593333E-01
 cg2d: Sum(rhs),rhsMax =  -1.24053545214053E-12  2.67328105470730E-01
 cg2d: Sum(rhs),rhsMax =  -1.12565512466745E-12  2.66861764371104E-01
 cg2d: Sum(rhs),rhsMax =  -1.02287622816277E-12  2.65806737169686E-01
 cg2d: Sum(rhs),rhsMax =  -9.23400245156358E-13  2.64139014839409E-01
 cg2d: Sum(rhs),rhsMax =  -9.01639873873705E-13  2.61937996543291E-01
 cg2d: Sum(rhs),rhsMax =  -8.92314000466854E-13  2.59200288173146E-01
 cg2d: Sum(rhs),rhsMax =  -8.75993722004864E-13  2.56144169610811E-01
 cg2d: Sum(rhs),rhsMax =  -8.82877104757540E-13  2.52604758214280E-01
 cg2d: Sum(rhs),rhsMax =  -8.75272077038858E-13  2.48801660229958E-01
 cg2d: Sum(rhs),rhsMax =  -8.73079386565223E-13  2.44549084679545E-01
 cg2d: Sum(rhs),rhsMax =  -8.73384697896995E-13  2.39875673203417E-01
 cg2d: Sum(rhs),rhsMax =  -8.82599549001384E-13  2.34856185640301E-01
 cg2d: Sum(rhs),rhsMax =  -8.85458373289794E-13  2.29574500253639E-01
 cg2d: Sum(rhs),rhsMax =  -8.79407657805586E-13  2.23917770863287E-01
 cg2d: Sum(rhs),rhsMax =  -9.13907838295813E-13  2.17821041881489E-01
 cg2d: Sum(rhs),rhsMax =  -9.18487508272392E-13  2.13236750069989E-01
 cg2d: Sum(rhs),rhsMax =  -9.11326569763560E-13  2.13692972104584E-01
 cg2d: Sum(rhs),rhsMax =  -9.04332164708421E-13  2.13546692557439E-01
 cg2d: Sum(rhs),rhsMax =  -8.91203777442229E-13  2.12757565689083E-01
 cg2d: Sum(rhs),rhsMax =  -8.75896577490209E-13  2.11327534784818E-01
 cg2d: Sum(rhs),rhsMax =  -8.73787153743422E-13  2.09207233676597E-01
 cg2d: Sum(rhs),rhsMax =  -8.52901083092661E-13  2.06384386518587E-01
 cg2d: Sum(rhs),rhsMax =  -8.06812949782909E-13  2.14587359697836E-01
 cg2d: Sum(rhs),rhsMax =  -7.53924700447328E-13  2.23891162726846E-01
 cg2d: Sum(rhs),rhsMax =  -7.03076485919496E-13  2.32607132555810E-01
 cg2d: Sum(rhs),rhsMax =  -6.64551746965003E-13  2.40599570302914E-01
 cg2d: Sum(rhs),rhsMax =  -6.00824945351519E-13  2.47889667685335E-01
 cg2d: Sum(rhs),rhsMax =  -5.63257773755765E-13  2.54312683988659E-01
 cg2d: Sum(rhs),rhsMax =  -5.36931610284341E-13  2.60115422462397E-01
 cg2d: Sum(rhs),rhsMax =  -5.26911847487099E-13  2.65185211547237E-01
 cg2d: Sum(rhs),rhsMax =  -5.02611841035616E-13  2.69761155353528E-01
 cg2d: Sum(rhs),rhsMax =  -4.80893103116387E-13  2.73620058609420E-01
 cg2d: Sum(rhs),rhsMax =  -4.47378245560515E-13  2.76793016247841E-01
 cg2d: Sum(rhs),rhsMax =  -4.35540492560449E-13  2.79188135775387E-01
 cg2d: Sum(rhs),rhsMax =  -4.19372869764345E-13  2.80927823288887E-01
 cg2d: Sum(rhs),rhsMax =  -4.01623179158150E-13  2.82054236018985E-01
 cg2d: Sum(rhs),rhsMax =  -3.80015463541383E-13  2.82600393391942E-01
 cg2d: Sum(rhs),rhsMax =  -3.66817687336152E-13  2.82549785359995E-01
 cg2d: Sum(rhs),rhsMax =  -3.34260397139019E-13  2.81921119041709E-01
 cg2d: Sum(rhs),rhsMax =  -3.22353255199914E-13  2.80726128678079E-01
 cg2d: Sum(rhs),rhsMax =  -2.98955304955939E-13  2.78945939357380E-01
 cg2d: Sum(rhs),rhsMax =  -4.06188971346921E-13  2.76698817675286E-01
 cg2d: Sum(rhs),rhsMax =  -3.92824661687996E-13  2.74018436562210E-01
 cg2d: Sum(rhs),rhsMax =  -3.68677310902399E-13  2.70929848801197E-01
 cg2d: Sum(rhs),rhsMax =  -3.53994611401731E-13  2.67437053446505E-01
 cg2d: Sum(rhs),rhsMax =  -3.28653770864662E-13  2.63568138701653E-01
 cg2d: Sum(rhs),rhsMax =  -3.07309733216243E-13  2.59386991504140E-01
 cg2d: Sum(rhs),rhsMax =  -2.78610468029683E-13  2.54865788576449E-01
 cg2d: Sum(rhs),rhsMax =  -2.44276820993150E-13  2.50023789633205E-01
 cg2d: Sum(rhs),rhsMax =  -2.30537811063414E-13  2.44778295872989E-01
 cg2d: Sum(rhs),rhsMax =  -1.87350135405495E-13  2.39285715401868E-01
 cg2d: Sum(rhs),rhsMax =  -1.59816604394791E-13  2.33426217141009E-01
 cg2d: Sum(rhs),rhsMax =  -1.21097576410989E-13  2.27901576549978E-01
 cg2d: Sum(rhs),rhsMax =  -9.00390872971002E-14  2.27916843192972E-01
 cg2d: Sum(rhs),rhsMax =  -2.52575738102223E-14  2.27269140252026E-01
 cg2d: Sum(rhs),rhsMax =   1.57096557984460E-14  2.25961769211190E-01
 cg2d: Sum(rhs),rhsMax =   6.73905375947470E-14  2.23945490859612E-01
 cg2d: Sum(rhs),rhsMax =   1.27065025168349E-13  2.21211215804783E-01
 cg2d: Sum(rhs),rhsMax =   1.81632486828676E-13  2.17765174932628E-01
 cg2d: Sum(rhs),rhsMax =   2.38753461445640E-13  2.24622090163787E-01
 cg2d: Sum(rhs),rhsMax =   2.70339306496226E-13  2.34030468436409E-01
 cg2d: Sum(rhs),rhsMax =   3.06477065947774E-13  2.42767354155729E-01
 cg2d: Sum(rhs),rhsMax =   3.42614825399323E-13  2.50766171126309E-01
 cg2d: Sum(rhs),rhsMax =   3.52329276864793E-13  2.58059416655018E-01
 cg2d: Sum(rhs),rhsMax =   3.90409926609436E-13  2.64650972896407E-01
 cg2d: Sum(rhs),rhsMax =   4.11004563716233E-13  2.70504729896296E-01
 cg2d: Sum(rhs),rhsMax =   4.53526105559376E-13  2.75675144688279E-01
 cg2d: Sum(rhs),rhsMax =   4.79338790881911E-13  2.80144892578544E-01
 cg2d: Sum(rhs),rhsMax =   5.32796029517613E-13  2.83805399803697E-01
 cg2d: Sum(rhs),rhsMax =   5.68767255515468E-13  2.86746147861966E-01
 cg2d: Sum(rhs),rhsMax =   6.11621864265999E-13  2.89127683056160E-01
 cg2d: Sum(rhs),rhsMax =   6.59139409719955E-13  2.90914344918949E-01
 cg2d: Sum(rhs),rhsMax =   7.01827485016793E-13  2.92072591242535E-01
 cg2d: Sum(rhs),rhsMax =   7.56117390920963E-13  2.92649201717181E-01
 cg2d: Sum(rhs),rhsMax =   8.03968003282307E-13  2.92571866077477E-01
 cg2d: Sum(rhs),rhsMax =   8.53150883273202E-13  2.91931801475907E-01
 cg2d: Sum(rhs),rhsMax =   8.78297434780961E-13  2.90735015843750E-01
 cg2d: Sum(rhs),rhsMax =   9.45077349712165E-13  2.89055577424745E-01
 cg2d: Sum(rhs),rhsMax =   9.99589300221260E-13  2.86886154532609E-01
 cg2d: Sum(rhs),rhsMax =   1.06670228205985E-12  2.84267392592494E-01
 cg2d: Sum(rhs),rhsMax =   1.13015152791718E-12  2.81169014249973E-01
 cg2d: Sum(rhs),rhsMax =   1.20620180510400E-12  2.77740507788306E-01
 cg2d: Sum(rhs),rhsMax =   1.24550370017573E-12  2.73971421054366E-01
 cg2d: Sum(rhs),rhsMax =   1.32277522268964E-12  2.69907200681861E-01
 cg2d: Sum(rhs),rhsMax =   1.39921407793508E-12  2.65489844221860E-01
 cg2d: Sum(rhs),rhsMax =   1.48647760767062E-12  2.60723689490120E-01
 cg2d: Sum(rhs),rhsMax =   1.55420121217276E-12  2.55611728018590E-01
 cg2d: Sum(rhs),rhsMax =   1.66644475996236E-12  2.50181366327230E-01
 cg2d: Sum(rhs),rhsMax =   1.75437442351267E-12  2.44368403599843E-01
 cg2d: Sum(rhs),rhsMax =   1.85151893816737E-12  2.42227149756843E-01
 cg2d: Sum(rhs),rhsMax =   1.91180404840452E-12  2.41832280918472E-01
 cg2d: Sum(rhs),rhsMax =   1.96564986509884E-12  2.40737992682189E-01
 cg2d: Sum(rhs),rhsMax =   2.04192218689059E-12  2.38930752063347E-01
 cg2d: Sum(rhs),rhsMax =   2.12607709215717E-12  2.36383687023790E-01
 cg2d: Sum(rhs),rhsMax =   2.18469686785738E-12  2.33103549605249E-01
 cg2d: Sum(rhs),rhsMax =   2.27429186594463E-12  2.29130180361148E-01
 cg2d: Sum(rhs),rhsMax =   2.36266561870480E-12  2.28397838384469E-01
 cg2d: Sum(rhs),rhsMax =   2.29594121492482E-12  2.37431806589353E-01
 cg2d: Sum(rhs),rhsMax =   2.28395080625887E-12  2.45906907087281E-01
 cg2d: Sum(rhs),rhsMax =   2.25730545366787E-12  2.53716861074908E-01
 cg2d: Sum(rhs),rhsMax =   2.21100915354100E-12  2.60825417300212E-01
 cg2d: Sum(rhs),rhsMax =   2.21478391182472E-12  2.67148118281612E-01
 cg2d: Sum(rhs),rhsMax =   2.19158025061006E-12  2.72737172445949E-01
 cg2d: Sum(rhs),rhsMax =   2.16515694262398E-12  2.77658379127840E-01
 cg2d: Sum(rhs),rhsMax =   2.16482387571659E-12  2.81856193171613E-01
 cg2d: Sum(rhs),rhsMax =   2.12518891373747E-12  2.85373673186849E-01
 cg2d: Sum(rhs),rhsMax =   2.07656114525889E-12  2.88249421761904E-01
 cg2d: Sum(rhs),rhsMax =   1.95565785787721E-12  2.90359357202090E-01
 cg2d: Sum(rhs),rhsMax =   1.88515869581352E-12  2.91936510622373E-01
 cg2d: Sum(rhs),rhsMax =   2.00539584938042E-12  2.92920855088135E-01
 cg2d: Sum(rhs),rhsMax =   2.10209627482527E-12  2.93340191281018E-01
 cg2d: Sum(rhs),rhsMax =   2.20989893051637E-12  2.93191360529340E-01
 cg2d: Sum(rhs),rhsMax =   2.28816965375245E-12  2.92353946394694E-01
 cg2d: Sum(rhs),rhsMax =   2.40640840587503E-12  2.91096822748834E-01
 cg2d: Sum(rhs),rhsMax =   2.53352894219461E-12  2.89263313874356E-01
 cg2d: Sum(rhs),rhsMax =   2.63433719283057E-12  2.86944624370711E-01
 cg2d: Sum(rhs),rhsMax =   2.77833311912445E-12  2.84255289086539E-01
 cg2d: Sum(rhs),rhsMax =   2.92577073679468E-12  2.81219454495152E-01
 cg2d: Sum(rhs),rhsMax =   3.06432657026789E-12  2.77796336721097E-01
 cg2d: Sum(rhs),rhsMax =   3.18145509936585E-12  2.74074654922607E-01
 cg2d: Sum(rhs),rhsMax =   3.32589511486958E-12  2.69934615944938E-01
 cg2d: Sum(rhs),rhsMax =   3.52484708088241E-12  2.65410480778683E-01
 cg2d: Sum(rhs),rhsMax =   3.66728869494182E-12  2.60528545497771E-01
 cg2d: Sum(rhs),rhsMax =   3.75122155560348E-12  2.60167978346224E-01
 cg2d: Sum(rhs),rhsMax =   3.83026943495679E-12  2.61189236079772E-01
 cg2d: Sum(rhs),rhsMax =   3.93240995322230E-12  2.61579596302145E-01
 cg2d: Sum(rhs),rhsMax =   3.98825417136095E-12  2.61294531650243E-01
 cg2d: Sum(rhs),rhsMax =   4.01689792539628E-12  2.60294516811012E-01
 cg2d: Sum(rhs),rhsMax =   4.07041067518321E-12  2.58543154094202E-01
 cg2d: Sum(rhs),rhsMax =   4.11171097169927E-12  2.56050014253618E-01
 cg2d: Sum(rhs),rhsMax =   4.13091783002528E-12  2.52766201491867E-01
 cg2d: Sum(rhs),rhsMax =   4.01945143835292E-12  2.55538734587634E-01
 cg2d: Sum(rhs),rhsMax =   3.86934928542360E-12  2.58311902515501E-01
 cg2d: Sum(rhs),rhsMax =   3.68949315543432E-12  2.61085235498319E-01
 cg2d: Sum(rhs),rhsMax =   3.56381590904675E-12  2.63858277179180E-01
 cg2d: Sum(rhs),rhsMax =   3.38751249273628E-12  2.66630584890664E-01
 cg2d: Sum(rhs),rhsMax =   3.34710037463992E-12  2.69401725669238E-01
 cg2d: Sum(rhs),rhsMax =   3.27959881474271E-12  2.72171268109038E-01
 cg2d: Sum(rhs),rhsMax =   3.23319149231338E-12  2.74938770494073E-01
 cg2d: Sum(rhs),rhsMax =   3.19977377927216E-12  2.80175956604134E-01
 cg2d: Sum(rhs),rhsMax =   3.15525383598469E-12  2.85027956117041E-01
 cg2d: Sum(rhs),rhsMax =   3.05988567816939E-12  2.89146480923307E-01
 cg2d: Sum(rhs),rhsMax =   3.02036173849274E-12  2.92562837272879E-01
 cg2d: Sum(rhs),rhsMax =   2.99582580964852E-12  2.95194152469446E-01
 cg2d: Sum(rhs),rhsMax =   3.02879943347989E-12  2.97346134870460E-01
 cg2d: Sum(rhs),rhsMax =   3.00393043772829E-12  2.98863606513289E-01
 cg2d: Sum(rhs),rhsMax =   2.97684099592743E-12  2.99576527531419E-01
 cg2d: Sum(rhs),rhsMax =   2.96784818942797E-12  2.99794718593648E-01
 cg2d: Sum(rhs),rhsMax =   3.00914848594402E-12  3.02364923828967E-01
 cg2d: Sum(rhs),rhsMax =   2.99460456432143E-12  3.05062107322589E-01
 cg2d: Sum(rhs),rhsMax =   2.95319324550292E-12  3.07745713440739E-01
 cg2d: Sum(rhs),rhsMax =   2.95452551313247E-12  3.10413999588241E-01
 cg2d: Sum(rhs),rhsMax =   2.94086976992958E-12  3.13065107844730E-01
 cg2d: Sum(rhs),rhsMax =   2.94275714907144E-12  3.15697072894743E-01
 cg2d: Sum(rhs),rhsMax =   2.92965651738086E-12  3.18307830334830E-01
 cg2d: Sum(rhs),rhsMax =   2.97473157218064E-12  3.20895225039130E-01
 cg2d: Sum(rhs),rhsMax =   2.87769807982841E-12  3.23457019388904E-01
 cg2d: Sum(rhs),rhsMax =   2.74291700463891E-12  3.25990901287849E-01
 cg2d: Sum(rhs),rhsMax =   2.72892819452863E-12  3.28494491980623E-01
 cg2d: Sum(rhs),rhsMax =   2.68063349295744E-12  3.30965353758790E-01
 cg2d: Sum(rhs),rhsMax =   2.66764388356933E-12  3.33400997673011E-01
 cg2d: Sum(rhs),rhsMax =   2.62367905179417E-12  3.35798891374289E-01
 cg2d: Sum(rhs),rhsMax =   2.54773979690981E-12  3.38156467185381E-01
 cg2d: Sum(rhs),rhsMax =   2.43005615629954E-12  3.40471130463628E-01
 cg2d: Sum(rhs),rhsMax =   2.34390284958863E-12  3.42740268266809E-01
 cg2d: Sum(rhs),rhsMax =   2.24087415290342E-12  3.44961258282383E-01
 cg2d: Sum(rhs),rhsMax =   2.14994688718662E-12  3.47131477934620E-01
 cg2d: Sum(rhs),rhsMax =   2.04458672214969E-12  3.49248313548669E-01
 cg2d: Sum(rhs),rhsMax =   1.98197014356083E-12  3.51309169428740E-01
 cg2d: Sum(rhs),rhsMax =   1.91469062826854E-12  3.53311476700183E-01
 cg2d: Sum(rhs),rhsMax =   1.83375536977337E-12  3.55252701771781E-01
 cg2d: Sum(rhs),rhsMax =   1.71695990758280E-12  3.57130354293119E-01
 cg2d: Sum(rhs),rhsMax =   1.65778502037028E-12  3.58941994509997E-01
 cg2d: Sum(rhs),rhsMax =   1.58495438995487E-12  3.60685239955759E-01
 cg2d: Sum(rhs),rhsMax =   1.50546242139171E-12  3.62357771455741E-01
 cg2d: Sum(rhs),rhsMax =   1.43685063846988E-12  3.63957338463692E-01
 cg2d: Sum(rhs),rhsMax =   1.38444811170757E-12  3.65481763791495E-01
 cg2d: Sum(rhs),rhsMax =   1.27786670134356E-12  3.66928947835460E-01
 cg2d: Sum(rhs),rhsMax =   1.26687549339977E-12  3.68296872442519E-01
 cg2d: Sum(rhs),rhsMax =   1.21957999255073E-12  3.69583604596092E-01
 cg2d: Sum(rhs),rhsMax =   1.18749454713907E-12  3.70787300131574E-01
 cg2d: Sum(rhs),rhsMax =   1.07713837849133E-12  3.71906207712115E-01
 cg2d: Sum(rhs),rhsMax =   1.08779651952773E-12  3.72938673302432E-01
 cg2d: Sum(rhs),rhsMax =   1.02584607475364E-12  3.73883145367742E-01
 cg2d: Sum(rhs),rhsMax =   9.58122470251510E-13  3.74738180992957E-01
 cg2d: Sum(rhs),rhsMax =   9.45465927770783E-13  3.75502453061938E-01
 cg2d: Sum(rhs),rhsMax =   8.75743921824323E-13  3.76174758558419E-01
 cg2d: Sum(rhs),rhsMax =   8.59756710269721E-13  3.76754027952515E-01
 cg2d: Sum(rhs),rhsMax =   7.83817455385361E-13  3.77239335526395E-01
 cg2d: Sum(rhs),rhsMax =   7.24087456660527E-13  3.77629910379237E-01
 cg2d: Sum(rhs),rhsMax =   6.92446100458710E-13  3.77925147746504E-01
 cg2d: Sum(rhs),rhsMax =   6.51922960059892E-13  3.78124620183929E-01
 cg2d: Sum(rhs),rhsMax =   5.88085136143945E-13  3.78436992858457E-01
 cg2d: Sum(rhs),rhsMax =   5.42677014436777E-13  3.79050837096877E-01
 cg2d: Sum(rhs),rhsMax =   5.08482145278322E-13  3.79587806330890E-01
 cg2d: Sum(rhs),rhsMax =   4.47197834319013E-13  3.80047573492437E-01
 cg2d: Sum(rhs),rhsMax =   3.89244192433580E-13  3.80429901469106E-01
 cg2d: Sum(rhs),rhsMax =   3.43947093028873E-13  3.80734640251303E-01
 cg2d: Sum(rhs),rhsMax =   2.62456723021387E-13  3.80961723452346E-01
 cg2d: Sum(rhs),rhsMax =   2.35700348127921E-13  3.81111164306764E-01
 cg2d: Sum(rhs),rhsMax =   2.06168415672892E-13  3.81183051281909E-01
 cg2d: Sum(rhs),rhsMax =   1.35114142096882E-13  3.81177543462998E-01
 cg2d: Sum(rhs),rhsMax =   8.50430836862870E-14  3.81094865887773E-01
 cg2d: Sum(rhs),rhsMax =   5.89528426075958E-14  3.80935305021362E-01
 cg2d: Sum(rhs),rhsMax =  -2.95319324550292E-14  3.80699204545699E-01
 cg2d: Sum(rhs),rhsMax =  -5.24025267623074E-14  3.80386961630455E-01
 cg2d: Sum(rhs),rhsMax =  -7.84927678409986E-14  3.79999023820243E-01
 cg2d: Sum(rhs),rhsMax =  -1.45661260830821E-13  3.79535886633435E-01
 cg2d: Sum(rhs),rhsMax =  -2.26152430116144E-13  3.78998091920759E-01
 cg2d: Sum(rhs),rhsMax =  -2.16382467499443E-13  3.78386226980865E-01
 cg2d: Sum(rhs),rhsMax =  -2.88546964100078E-13  3.77700924379336E-01
 cg2d: Sum(rhs),rhsMax =  -3.26960680752109E-13  3.76942862371353E-01
 cg2d: Sum(rhs),rhsMax =  -3.74256181601140E-13  3.76112765790199E-01
 cg2d: Sum(rhs),rhsMax =  -4.25326440733897E-13  3.75211407236648E-01
 cg2d: Sum(rhs),rhsMax =  -4.43645120640213E-13  3.74239608389827E-01
 cg2d: Sum(rhs),rhsMax =  -4.67070826459803E-13  3.73198241258555E-01
 cg2d: Sum(rhs),rhsMax =  -5.30020471956050E-13  3.72088229202482E-01
 cg2d: Sum(rhs),rhsMax =  -5.18252107895023E-13  3.70910547572377E-01
 cg2d: Sum(rhs),rhsMax =  -5.70432590052405E-13  3.69666223845812E-01
 cg2d: Sum(rhs),rhsMax =  -5.53224133170716E-13  3.68356337164842E-01
 cg2d: Sum(rhs),rhsMax =  -5.99187366390197E-13  3.66982017213234E-01
 cg2d: Sum(rhs),rhsMax =  -5.56998891454441E-13  3.65544442399072E-01
 cg2d: Sum(rhs),rhsMax =  -5.56332757639666E-13  3.64044837333065E-01
 cg2d: Sum(rhs),rhsMax =  -5.77426995107544E-13  3.62484469612380E-01
 cg2d: Sum(rhs),rhsMax =  -5.34683408659475E-13  3.60864645934847E-01
 cg2d: Sum(rhs),rhsMax =  -5.46229728115577E-13  3.59186707579726E-01
 cg2d: Sum(rhs),rhsMax =  -4.86166662483356E-13  3.57452025301249E-01
 cg2d: Sum(rhs),rhsMax =  -4.70623540138604E-13  3.55661993691573E-01
 cg2d: Sum(rhs),rhsMax =  -4.40314451566337E-13  3.53818025082580E-01
 cg2d: Sum(rhs),rhsMax =  -4.29434265925011E-13  3.51921543072476E-01
 cg2d: Sum(rhs),rhsMax =  -4.04343225568482E-13  3.49973975783614E-01
 cg2d: Sum(rhs),rhsMax =  -3.70481423317415E-13  3.47976748981750E-01
 cg2d: Sum(rhs),rhsMax =  -3.03312930327593E-13  3.45931279212075E-01
 cg2d: Sum(rhs),rhsMax =  -2.83328915884340E-13  3.43838967130842E-01
 cg2d: Sum(rhs),rhsMax =  -2.46580533769247E-13  3.41701191229962E-01
 cg2d: Sum(rhs),rhsMax =  -2.41362485553509E-13  3.39519302161482E-01
 cg2d: Sum(rhs),rhsMax =  -2.20379270388094E-13  3.37294617866123E-01
 cg2d: Sum(rhs),rhsMax =  -1.82853732155763E-13  3.35028419693332E-01
 cg2d: Sum(rhs),rhsMax =  -1.93400850889702E-13  3.32721949667350E-01
 cg2d: Sum(rhs),rhsMax =  -2.01172412062078E-13  3.30376409005728E-01
 cg2d: Sum(rhs),rhsMax =  -2.14050999147730E-13  3.27992957936132E-01
 cg2d: Sum(rhs),rhsMax =  -2.62012633811537E-13  3.25572716788055E-01
 cg2d: Sum(rhs),rhsMax =  -3.04978264864531E-13  3.23116768263080E-01
 cg2d: Sum(rhs),rhsMax =  -3.70592445619877E-13  3.20626160717422E-01
 cg2d: Sum(rhs),rhsMax =  -4.50528503392889E-13  3.18101912228742E-01
 cg2d: Sum(rhs),rhsMax =  -5.29132293536350E-13  3.16146930021280E-01
 cg2d: Sum(rhs),rhsMax =  -6.60360655047043E-13  3.25076711408844E-01
 cg2d: Sum(rhs),rhsMax =  -7.48401340899818E-13  3.33111984847626E-01
 cg2d: Sum(rhs),rhsMax =  -8.56759108103233E-13  3.40137161926348E-01
 cg2d: Sum(rhs),rhsMax =  -9.63118473862323E-13  3.46158575710318E-01
 cg2d: Sum(rhs),rhsMax =  -1.06326059068351E-12  3.51099516489798E-01
 cg2d: Sum(rhs),rhsMax =  -1.19948495580502E-12  3.55088490579067E-01
 cg2d: Sum(rhs),rhsMax =  -1.19237952844742E-12  3.58195979859234E-01
 cg2d: Sum(rhs),rhsMax =  -1.24811272428360E-12  3.60771320321362E-01
 cg2d: Sum(rhs),rhsMax =  -1.30029320644098E-12  3.61874387677211E-01
 cg2d: Sum(rhs),rhsMax =  -1.32105437700147E-12  3.62599327070742E-01
 cg2d: Sum(rhs),rhsMax =  -1.37956313039922E-12  3.62309709362104E-01
 cg2d: Sum(rhs),rhsMax =  -1.45361500614172E-12  3.60994402047505E-01
 cg2d: Sum(rhs),rhsMax =  -1.52777790418668E-12  3.58763266299542E-01
 cg2d: Sum(rhs),rhsMax =  -1.60460533749074E-12  3.55744441748092E-01
 cg2d: Sum(rhs),rhsMax =  -1.66422431391311E-12  3.51889881227725E-01
 cg2d: Sum(rhs),rhsMax =  -1.73450143137188E-12  3.47254084700884E-01
 cg2d: Sum(rhs),rhsMax =  -1.83597581582262E-12  3.41905038700810E-01
 cg2d: Sum(rhs),rhsMax =  -1.90214510809028E-12  3.35965864755212E-01
 cg2d: Sum(rhs),rhsMax =  -2.01438865587988E-12  3.29412572717876E-01
 cg2d: Sum(rhs),rhsMax =  -2.11131112592966E-12  3.22725873039227E-01
 cg2d: Sum(rhs),rhsMax =  -2.21300755498532E-12  3.15266193072649E-01
 cg2d: Sum(rhs),rhsMax =  -2.35345076760041E-12  3.07087768362707E-01
 cg2d: Sum(rhs),rhsMax =  -2.46291875782845E-12  2.98324949454806E-01
 cg2d: Sum(rhs),rhsMax =  -2.56916710128507E-12  2.95629957541039E-01
 cg2d: Sum(rhs),rhsMax =  -2.64188670939802E-12  2.96607964041400E-01
 cg2d: Sum(rhs),rhsMax =  -2.71072053692478E-12  2.96903270897390E-01
 cg2d: Sum(rhs),rhsMax =  -2.78077560977863E-12  2.96456011447113E-01
 cg2d: Sum(rhs),rhsMax =  -2.84094969771331E-12  2.95201909594823E-01
 cg2d: Sum(rhs),rhsMax =  -2.95508062464478E-12  2.93095843378244E-01
 cg2d: Sum(rhs),rhsMax =  -3.04922753713299E-12  2.90161346927501E-01
 cg2d: Sum(rhs),rhsMax =  -3.14404058343598E-12  2.86314591080879E-01
 cg2d: Sum(rhs),rhsMax =  -3.16979775760728E-12  2.90017865937159E-01
 cg2d: Sum(rhs),rhsMax =  -3.10584891138888E-12  3.03849469730449E-01
 cg2d: Sum(rhs),rhsMax =  -3.05544478607089E-12  3.16808639151067E-01
 cg2d: Sum(rhs),rhsMax =  -2.99760216648792E-12  3.28803028269429E-01
(PID.TID 0000.0001)      cg2d_init_res =   8.17332665720152E-02
(PID.TID 0000.0001)      cg2d_iters(min,last) =      -1      30
(PID.TID 0000.0001)      cg2d_last_res =   5.47218599336230E-14
(PID.TID 0000.0001) // =======================================================
(PID.TID 0000.0001) // Begin MONITOR dynamic field statistics
(PID.TID 0000.0001) // =======================================================
(PID.TID 0000.0001) %MON time_tsnumber                =                   960
(PID.TID 0000.0001) %MON time_secondsf                =   1.4400000000000E+04
(PID.TID 0000.0001) %MON dynstat_eta_max              =   2.3799705053061E-02
(PID.TID 0000.0001) %MON dynstat_eta_min              =  -2.5102520339732E-02
(PID.TID 0000.0001) %MON dynstat_eta_mean             =   1.1627190176414E-15
(PID.TID 0000.0001) %MON dynstat_eta_sd               =   1.9603021822802E-02
(PID.TID 0000.0001) %MON dynstat_eta_del2             =   2.2261984075589E-04
(PID.TID 0000.0001) %MON dynstat_uvel_max             =   1.3034014550459E+00
(PID.TID 0000.0001) %MON dynstat_uvel_min             =  -8.0021616938170E-01
(PID.TID 0000.0001) %MON dynstat_uvel_mean            =  -2.3270968628995E-03
(PID.TID 0000.0001) %MON dynstat_uvel_sd              =   9.7806635849171E-02
(PID.TID 0000.0001) %MON dynstat_uvel_del2            =   3.3922194661631E-04
(PID.TID 0000.0001) %MON dynstat_vvel_max             =   0.0000000000000E+00
(PID.TID 0000.0001) %MON dynstat_vvel_min             =   0.0000000000000E+00
(PID.TID 0000.0001) %MON dynstat_vvel_mean            =   0.0000000000000E+00
(PID.TID 0000.0001) %MON dynstat_vvel_sd              =   0.0000000000000E+00
(PID.TID 0000.0001) %MON dynstat_vvel_del2            =   0.0000000000000E+00
(PID.TID 0000.0001) %MON dynstat_wvel_max             =   8.8362618929843E-02
(PID.TID 0000.0001) %MON dynstat_wvel_min             =  -3.9596138865554E-02
(PID.TID 0000.0001) %MON dynstat_wvel_mean            =  -7.3290869822244E-21
(PID.TID 0000.0001) %MON dynstat_wvel_sd              =   3.0358483443755E-03
(PID.TID 0000.0001) %MON dynstat_wvel_del2            =   5.9036207662688E-05
(PID.TID 0000.0001) %MON dynstat_theta_max            =   1.4976502385985E+01
(PID.TID 0000.0001) %MON dynstat_theta_min            =   9.9765023856502E+00
(PID.TID 0000.0001) %MON dynstat_theta_mean           =   1.2377063260979E+01
(PID.TID 0000.0001) %MON dynstat_theta_sd             =   2.4480544756996E+00
(PID.TID 0000.0001) %MON dynstat_theta_del2           =   1.6079878368793E-03
(PID.TID 0000.0001) %MON dynstat_salt_max             =   3.5000000000000E+01
(PID.TID 0000.0001) %MON dynstat_salt_min             =   3.5000000000000E+01
(PID.TID 0000.0001) %MON dynstat_salt_mean            =   3.5000000000000E+01
(PID.TID 0000.0001) %MON dynstat_salt_sd              =   3.4816594052245E-13
(PID.TID 0000.0001) %MON dynstat_salt_del2            =   0.0000000000000E+00
(PID.TID 0000.0001) %MON dynstat_sst_max              =   1.4976502385655E+01
(PID.TID 0000.0001) %MON dynstat_sst_min              =   1.4645187447311E+01
(PID.TID 0000.0001) %MON dynstat_sst_mean             =   1.4816439194381E+01
(PID.TID 0000.0001) %MON dynstat_sst_sd               =   1.6251050974333E-01
(PID.TID 0000.0001) %MON dynstat_sst_del2             =   4.0887926165557E-04
(PID.TID 0000.0001) %MON dynstat_sss_max              =   3.5000000000000E+01
(PID.TID 0000.0001) %MON dynstat_sss_min              =   3.5000000000000E+01
(PID.TID 0000.0001) %MON dynstat_sss_mean             =   3.5000000000000E+01
(PID.TID 0000.0001) %MON dynstat_sss_sd               =   3.5527136788005E-14
(PID.TID 0000.0001) %MON dynstat_sss_del2             =   0.0000000000000E+00
(PID.TID 0000.0001) %MON forcing_qnet_max             =   0.0000000000000E+00
(PID.TID 0000.0001) %MON forcing_qnet_min             =   0.0000000000000E+00
(PID.TID 0000.0001) %MON forcing_qnet_mean            =   0.0000000000000E+00
(PID.TID 0000.0001) %MON forcing_qnet_sd              =   0.0000000000000E+00
(PID.TID 0000.0001) %MON forcing_qnet_del2            =   0.0000000000000E+00
(PID.TID 0000.0001) %MON forcing_qsw_max              =   0.0000000000000E+00
(PID.TID 0000.0001) %MON forcing_qsw_min              =   0.0000000000000E+00
(PID.TID 0000.0001) %MON forcing_qsw_mean             =   0.0000000000000E+00
(PID.TID 0000.0001) %MON forcing_qsw_sd               =   0.0000000000000E+00
(PID.TID 0000.0001) %MON forcing_qsw_del2             =   0.0000000000000E+00
(PID.TID 0000.0001) %MON forcing_empmr_max            =   0.0000000000000E+00
(PID.TID 0000.0001) %MON forcing_empmr_min            =   0.0000000000000E+00
(PID.TID 0000.0001) %MON forcing_empmr_mean           =   0.0000000000000E+00
(PID.TID 0000.0001) %MON forcing_empmr_sd             =   0.0000000000000E+00
(PID.TID 0000.0001) %MON forcing_empmr_del2           =   0.0000000000000E+00
(PID.TID 0000.0001) %MON forcing_fu_max               =   0.0000000000000E+00
(PID.TID 0000.0001) %MON forcing_fu_min               =   0.0000000000000E+00
(PID.TID 0000.0001) %MON forcing_fu_mean              =   0.0000000000000E+00
(PID.TID 0000.0001) %MON forcing_fu_sd                =   0.0000000000000E+00
(PID.TID 0000.0001) %MON forcing_fu_del2              =   0.0000000000000E+00
(PID.TID 0000.0001) %MON forcing_fv_max               =   0.0000000000000E+00
(PID.TID 0000.0001) %MON forcing_fv_min               =   0.0000000000000E+00
(PID.TID 0000.0001) %MON forcing_fv_mean              =   0.0000000000000E+00
(PID.TID 0000.0001) %MON forcing_fv_sd                =   0.0000000000000E+00
(PID.TID 0000.0001) %MON forcing_fv_del2              =   0.0000000000000E+00
(PID.TID 0000.0001) %MON advcfl_uvel_max              =   8.7882201057866E-02
(PID.TID 0000.0001) %MON advcfl_vvel_max              =   0.0000000000000E+00
(PID.TID 0000.0001) %MON advcfl_wvel_max              =   4.5897510438927E-01
(PID.TID 0000.0001) %MON advcfl_W_hf_max              =   4.6248517214518E-01
(PID.TID 0000.0001) %MON pe_b_mean                    =   1.0787572174342E-05
(PID.TID 0000.0001) %MON ke_max                       =   5.6764852347925E-01
(PID.TID 0000.0001) %MON ke_mean                      =   4.8387524658413E-03
(PID.TID 0000.0001) %MON ke_vol                       =   8.5337279889550E+10
(PID.TID 0000.0001) %MON vort_r_min                   =   0.0000000000000E+00
(PID.TID 0000.0001) %MON vort_r_max                   =   0.0000000000000E+00
(PID.TID 0000.0001) %MON vort_a_mean                  =   0.0000000000000E+00
(PID.TID 0000.0001) %MON vort_a_sd                    =   0.0000000000000E+00
(PID.TID 0000.0001) %MON vort_p_mean                  =   0.0000000000000E+00
(PID.TID 0000.0001) %MON vort_p_sd                    =   0.0000000000000E+00
(PID.TID 0000.0001) %MON surfExpan_theta_mean         =  -2.4103076627866E-06
(PID.TID 0000.0001) %MON surfExpan_salt_mean          =  -3.4822851305489E-19
(PID.TID 0000.0001) // =======================================================
(PID.TID 0000.0001) // End MONITOR dynamic field statistics
(PID.TID 0000.0001) // =======================================================
(PID.TID 0000.0001) // =======================================================
(PID.TID 0000.0001) // Begin OBCS MONITOR field statistics
(PID.TID 0000.0001) // =======================================================
(PID.TID 0000.0001) %MON obc_E_uVel_max               =   0.0000000000000E+00
(PID.TID 0000.0001) %MON obc_E_uVel_min               =   0.0000000000000E+00
(PID.TID 0000.0001) %MON obc_E_uVel_mean              =   0.0000000000000E+00
(PID.TID 0000.0001) %MON obc_E_uVel_sd                =   0.0000000000000E+00
(PID.TID 0000.0001) %MON obc_E_uVel_Int               =   0.0000000000000E+00
(PID.TID 0000.0001) %MON obc_W_uVel_max               =   0.0000000000000E+00
(PID.TID 0000.0001) %MON obc_W_uVel_min               =   0.0000000000000E+00
(PID.TID 0000.0001) %MON obc_W_uVel_mean              =   0.0000000000000E+00
(PID.TID 0000.0001) %MON obc_W_uVel_sd                =   0.0000000000000E+00
(PID.TID 0000.0001) %MON obc_W_uVel_Int               =   0.0000000000000E+00
(PID.TID 0000.0001) // =======================================================
(PID.TID 0000.0001) // End OBCS MONITOR field statistics
(PID.TID 0000.0001) // =======================================================
 cg2d: Sum(rhs),rhsMax =  -2.96185298509499E-12  3.39857455338369E-01
 cg2d: Sum(rhs),rhsMax =  -2.93720603394831E-12  3.49909691798170E-01
 cg2d: Sum(rhs),rhsMax =  -2.90945045833269E-12  3.58967991969008E-01
 cg2d: Sum(rhs),rhsMax =  -2.89568369282733E-12  3.67003648252530E-01
 cg2d: Sum(rhs),rhsMax =  -2.91944246555431E-12  3.73995686443949E-01
 cg2d: Sum(rhs),rhsMax =  -2.92421642456020E-12  3.79928940066151E-01
 cg2d: Sum(rhs),rhsMax =  -2.94475555051577E-12  3.84675516679889E-01
 cg2d: Sum(rhs),rhsMax =  -2.95785618220634E-12  3.88633777228498E-01
 cg2d: Sum(rhs),rhsMax =  -2.95763413760142E-12  3.91630812423859E-01
 cg2d: Sum(rhs),rhsMax =  -2.98200353299194E-12  3.93455574472245E-01
 cg2d: Sum(rhs),rhsMax =  -3.03845837379413E-12  3.94257238187424E-01
 cg2d: Sum(rhs),rhsMax =  -3.06454861487282E-12  3.94085180948253E-01
 cg2d: Sum(rhs),rhsMax =  -3.13471471002913E-12  3.92854985839586E-01
 cg2d: Sum(rhs),rhsMax =  -3.20848903001547E-12  3.90748385517700E-01
 cg2d: Sum(rhs),rhsMax =  -3.26738636147184E-12  3.87789974147565E-01
 cg2d: Sum(rhs),rhsMax =  -3.36841665671272E-12  3.83963599851318E-01
 cg2d: Sum(rhs),rhsMax =  -3.44535511231925E-12  3.79396332223486E-01
 cg2d: Sum(rhs),rhsMax =  -3.51196849379676E-12  3.74097998269058E-01
 cg2d: Sum(rhs),rhsMax =  -3.62382346352774E-12  3.68162169451809E-01
 cg2d: Sum(rhs),rhsMax =  -3.75027786603255E-12  3.61593511869301E-01
 cg2d: Sum(rhs),rhsMax =  -3.87229137643885E-12  3.54449805483322E-01
 cg2d: Sum(rhs),rhsMax =  -4.00074418038798E-12  3.47190806161895E-01
 cg2d: Sum(rhs),rhsMax =  -4.13635792284595E-12  3.39172038086458E-01
 cg2d: Sum(rhs),rhsMax =  -4.30216973157371E-12  3.30573603024951E-01
 cg2d: Sum(rhs),rhsMax =  -4.46032100143157E-12  3.21345313642895E-01
 cg2d: Sum(rhs),rhsMax =  -4.64239757747009E-12  3.11577181623282E-01
 cg2d: Sum(rhs),rhsMax =  -4.86599649462960E-12  3.01332857579562E-01
 cg2d: Sum(rhs),rhsMax =  -5.06739095129660E-12  2.92033397632025E-01
 cg2d: Sum(rhs),rhsMax =  -5.11601871977518E-12  2.91981787366144E-01
 cg2d: Sum(rhs),rhsMax =  -5.19229104156693E-12  2.91115407520860E-01
 cg2d: Sum(rhs),rhsMax =  -5.27644594683352E-12  2.89459644793877E-01
 cg2d: Sum(rhs),rhsMax =  -5.35366195819620E-12  2.86973538566449E-01
 cg2d: Sum(rhs),rhsMax =  -5.29559729400830E-12  2.92485308598613E-01
 cg2d: Sum(rhs),rhsMax =  -5.09664532799547E-12  3.07256037967177E-01
 cg2d: Sum(rhs),rhsMax =  -4.92217377967563E-12  3.21098465494757E-01
 cg2d: Sum(rhs),rhsMax =  -4.78633799261274E-12  3.33988615705957E-01
 cg2d: Sum(rhs),rhsMax =  -4.64872584871046E-12  3.45903830486430E-01
 cg2d: Sum(rhs),rhsMax =  -4.54669635274740E-12  3.56820058002010E-01
 cg2d: Sum(rhs),rhsMax =  -4.57300863843102E-12  3.66880110409222E-01
 cg2d: Sum(rhs),rhsMax =  -4.59743354497277E-12  3.75608943061687E-01
 cg2d: Sum(rhs),rhsMax =  -4.65216754008679E-12  3.83371951942736E-01
 cg2d: Sum(rhs),rhsMax =  -4.69807526215504E-12  3.90208151232515E-01
 cg2d: Sum(rhs),rhsMax =  -4.75275374611783E-12  3.96060074152453E-01
 cg2d: Sum(rhs),rhsMax =  -4.80443462791413E-12  4.00968159113636E-01
 cg2d: Sum(rhs),rhsMax =  -4.86766182916654E-12  4.04885995714925E-01
 cg2d: Sum(rhs),rhsMax =  -4.93438623294651E-12  4.07846685364944E-01
 cg2d: Sum(rhs),rhsMax =  -5.00138819248264E-12  4.09756118010697E-01
 cg2d: Sum(rhs),rhsMax =  -5.08398878551475E-12  4.10798199667303E-01
 cg2d: Sum(rhs),rhsMax =  -5.16908738035227E-12  4.10954917460694E-01
 cg2d: Sum(rhs),rhsMax =  -5.25632315451219E-12  4.10344491157446E-01
 cg2d: Sum(rhs),rhsMax =  -5.33750821318790E-12  4.08914938918147E-01
 cg2d: Sum(rhs),rhsMax =  -5.44511657984970E-12  4.06599561027778E-01
 cg2d: Sum(rhs),rhsMax =  -5.54453705170488E-12  4.03527017560869E-01
 cg2d: Sum(rhs),rhsMax =  -5.65883451209004E-12  3.99739834305116E-01
 cg2d: Sum(rhs),rhsMax =  -5.77818348723724E-12  3.95263456104138E-01
 cg2d: Sum(rhs),rhsMax =  -5.89409077100811E-12  3.90161413759496E-01
 cg2d: Sum(rhs),rhsMax =  -6.02662364457274E-12  3.84569425250914E-01
 cg2d: Sum(rhs),rhsMax =  -6.15738016129797E-12  3.78424121733690E-01
 cg2d: Sum(rhs),rhsMax =  -6.30268059964578E-12  3.71761319888967E-01
 cg2d: Sum(rhs),rhsMax =  -6.44556630291504E-12  3.64544298965632E-01
 cg2d: Sum(rhs),rhsMax =  -6.61792842748810E-12  3.56803234755160E-01
 cg2d: Sum(rhs),rhsMax =  -6.79967193661923E-12  3.48538050163592E-01
 cg2d: Sum(rhs),rhsMax =  -6.97408797378785E-12  3.39821891451125E-01
 cg2d: Sum(rhs),rhsMax =  -7.17606529754278E-12  3.30639584354785E-01
 cg2d: Sum(rhs),rhsMax =  -7.37790384341963E-12  3.21073789356752E-01
 cg2d: Sum(rhs),rhsMax =  -7.61077312283476E-12  3.11279263279281E-01
 cg2d: Sum(rhs),rhsMax =  -7.85185805263211E-12  3.01313041524593E-01
 cg2d: Sum(rhs),rhsMax =  -8.00001731526834E-12  2.95488949900136E-01
 cg2d: Sum(rhs),rhsMax =  -8.01830823959904E-12  2.93909212128985E-01
 cg2d: Sum(rhs),rhsMax =  -8.08808575669673E-12  2.91456785930101E-01
 cg2d: Sum(rhs),rhsMax =  -7.86415377262983E-12  2.99127889661695E-01
 cg2d: Sum(rhs),rhsMax =  -7.46921968719505E-12  3.13874339322741E-01
 cg2d: Sum(rhs),rhsMax =  -7.12632730603957E-12  3.27752896594974E-01
 cg2d: Sum(rhs),rhsMax =  -6.83153533742598E-12  3.40834939900543E-01
 cg2d: Sum(rhs),rhsMax =  -6.56480425575978E-12  3.53047737729471E-01
 cg2d: Sum(rhs),rhsMax =  -6.32616181661660E-12  3.64319378982430E-01
 cg2d: Sum(rhs),rhsMax =  -6.09604033918743E-12  3.74734756553978E-01
 cg2d: Sum(rhs),rhsMax =  -5.89833737407730E-12  3.84254183433006E-01
 cg2d: Sum(rhs),rhsMax =  -5.71401259641391E-12  3.92837653716561E-01
 cg2d: Sum(rhs),rhsMax =  -5.55665236046110E-12  4.00375330048860E-01
 cg2d: Sum(rhs),rhsMax =  -5.42520195434548E-12  4.07037406779693E-01
 cg2d: Sum(rhs),rhsMax =  -5.30554766786651E-12  4.12765448757048E-01
 cg2d: Sum(rhs),rhsMax =  -5.21147014431733E-12  4.17444814858808E-01
 cg2d: Sum(rhs),rhsMax =  -5.13245002053964E-12  4.21257461865615E-01
 cg2d: Sum(rhs),rhsMax =  -5.07988096032364E-12  4.24272000770312E-01
 cg2d: Sum(rhs),rhsMax =  -5.02635433274889E-12  4.26463296180912E-01
 cg2d: Sum(rhs),rhsMax =  -4.99290886413206E-12  4.27960653737404E-01
 cg2d: Sum(rhs),rhsMax =  -4.96926111370755E-12  4.28648637043170E-01
 cg2d: Sum(rhs),rhsMax =  -4.97228647144965E-12  4.28415018009111E-01
 cg2d: Sum(rhs),rhsMax =  -4.98037722174161E-12  4.27359771370439E-01
 cg2d: Sum(rhs),rhsMax =  -4.99994490255062E-12  4.25570346675067E-01
 cg2d: Sum(rhs),rhsMax =  -5.03246055938433E-12  4.23195067175284E-01
 cg2d: Sum(rhs),rhsMax =  -5.07598130194964E-12  4.20100644123290E-01
 cg2d: Sum(rhs),rhsMax =  -5.12721809453609E-12  4.16388890274901E-01
 cg2d: Sum(rhs),rhsMax =  -5.20093690337120E-12  4.12165047260122E-01
 cg2d: Sum(rhs),rhsMax =  -5.27357324475730E-12  4.07346692464726E-01
 cg2d: Sum(rhs),rhsMax =  -5.36773403503332E-12  4.02049994182652E-01
 cg2d: Sum(rhs),rhsMax =  -5.45816170038904E-12  3.96242988268990E-01
 cg2d: Sum(rhs),rhsMax =  -5.57383306176717E-12  3.89928828574780E-01
 cg2d: Sum(rhs),rhsMax =  -5.69774782910315E-12  3.83106045908313E-01
 cg2d: Sum(rhs),rhsMax =  -5.84071679909925E-12  3.75715581648965E-01
 cg2d: Sum(rhs),rhsMax =  -6.00930416538858E-12  3.67826531140409E-01
 cg2d: Sum(rhs),rhsMax =  -6.15382744761916E-12  3.59582239904452E-01
 cg2d: Sum(rhs),rhsMax =  -6.33626484614069E-12  3.51006189738033E-01
 cg2d: Sum(rhs),rhsMax =  -6.54648557585347E-12  3.42259354111794E-01
 cg2d: Sum(rhs),rhsMax =  -6.75381972570221E-12  3.33263605620220E-01
 cg2d: Sum(rhs),rhsMax =  -6.99434954398725E-12  3.24151880114442E-01
 cg2d: Sum(rhs),rhsMax =  -7.22752413473415E-12  3.14884415369694E-01
 cg2d: Sum(rhs),rhsMax =  -7.49150741441440E-12  3.05552791269466E-01
 cg2d: Sum(rhs),rhsMax =  -7.44609929270723E-12  3.08575576165880E-01
 cg2d: Sum(rhs),rhsMax =  -7.14114878341832E-12  3.23435532092566E-01
 cg2d: Sum(rhs),rhsMax =  -6.87147561073687E-12  3.37440575958442E-01
 cg2d: Sum(rhs),rhsMax =  -6.64301946784462E-12  3.50525942179115E-01
 cg2d: Sum(rhs),rhsMax =  -6.44931330562315E-12  3.62927907536143E-01
 cg2d: Sum(rhs),rhsMax =  -6.26573792850138E-12  3.74492334135911E-01
 cg2d: Sum(rhs),rhsMax =  -6.12140893530011E-12  3.85113538503913E-01
 cg2d: Sum(rhs),rhsMax =  -5.98254779049512E-12  3.94960408799046E-01
 cg2d: Sum(rhs),rhsMax =  -5.87704884758011E-12  4.03916374401457E-01
 cg2d: Sum(rhs),rhsMax =  -5.78728731603917E-12  4.11849099703513E-01
 cg2d: Sum(rhs),rhsMax =  -5.70274383271396E-12  4.18967916162404E-01
 cg2d: Sum(rhs),rhsMax =  -5.63976643164210E-12  4.25247384930829E-01
 cg2d: Sum(rhs),rhsMax =  -5.58725288257733E-12  4.30684363858295E-01
 cg2d: Sum(rhs),rhsMax =  -5.54467582958296E-12  4.35333910071155E-01
 cg2d: Sum(rhs),rhsMax =  -5.51605983112324E-12  4.39195123932432E-01
 cg2d: Sum(rhs),rhsMax =  -5.49602030552876E-12  4.42286827229846E-01
 cg2d: Sum(rhs),rhsMax =  -5.47548117957319E-12  4.44552927209483E-01
 cg2d: Sum(rhs),rhsMax =  -5.46729328476658E-12  4.46076544204372E-01
 cg2d: Sum(rhs),rhsMax =  -5.45530287610063E-12  4.46840663211712E-01
 cg2d: Sum(rhs),rhsMax =  -5.42807465642170E-12  4.47120232216545E-01
 cg2d: Sum(rhs),rhsMax =  -5.41383604613088E-12  4.46481445642491E-01
 cg2d: Sum(rhs),rhsMax =  -5.47528689054388E-12  4.45154675489146E-01
 cg2d: Sum(rhs),rhsMax =  -5.45175016242183E-12  4.43159158302318E-01
 cg2d: Sum(rhs),rhsMax =  -5.44872480467973E-12  4.40490186537860E-01
 cg2d: Sum(rhs),rhsMax =  -5.46998557560130E-12  4.37268250391473E-01
 cg2d: Sum(rhs),rhsMax =  -5.51944601134835E-12  4.33509396591221E-01
 cg2d: Sum(rhs),rhsMax =  -5.56446555499690E-12  4.29331213608978E-01
 cg2d: Sum(rhs),rhsMax =  -5.64825963778048E-12  4.24678734820223E-01
 cg2d: Sum(rhs),rhsMax =  -5.74701397582089E-12  4.19300435967201E-01
 cg2d: Sum(rhs),rhsMax =  -5.84654546997854E-12  4.13369224362036E-01
 cg2d: Sum(rhs),rhsMax =  -5.96350746562280E-12  4.06916915402709E-01
 cg2d: Sum(rhs),rhsMax =  -6.10250738830587E-12  3.99979871476125E-01
 cg2d: Sum(rhs),rhsMax =  -6.24222895595494E-12  3.92493982705230E-01
 cg2d: Sum(rhs),rhsMax =  -6.41553477009893E-12  3.84674508601216E-01
 cg2d: Sum(rhs),rhsMax =  -6.58795240582322E-12  3.76418207311243E-01
 cg2d: Sum(rhs),rhsMax =  -6.78440637003064E-12  3.68068168431995E-01
 cg2d: Sum(rhs),rhsMax =  -6.98230362417007E-12  3.59438546577401E-01
 cg2d: Sum(rhs),rhsMax =  -7.20862258773991E-12  3.50633495916066E-01
 cg2d: Sum(rhs),rhsMax =  -7.46813721974604E-12  3.41474463381572E-01
 cg2d: Sum(rhs),rhsMax =  -7.73386910069007E-12  3.32179127472905E-01
 cg2d: Sum(rhs),rhsMax =  -8.02125033061429E-12  3.22770944268462E-01
 cg2d: Sum(rhs),rhsMax =  -7.86037901434611E-12  3.31722793419315E-01
 cg2d: Sum(rhs),rhsMax =  -7.60880247696605E-12  3.45225280178951E-01
 cg2d: Sum(rhs),rhsMax =  -7.39724947962372E-12  3.58097386406646E-01
 cg2d: Sum(rhs),rhsMax =  -7.21439574746796E-12  3.70193111002099E-01
 cg2d: Sum(rhs),rhsMax =  -7.05796532329828E-12  3.81262976576180E-01
 cg2d: Sum(rhs),rhsMax =  -6.92246260314278E-12  3.91747714322607E-01
 cg2d: Sum(rhs),rhsMax =  -6.81099621147041E-12  4.01457753888390E-01
 cg2d: Sum(rhs),rhsMax =  -6.71263045148862E-12  4.10056275557681E-01
 cg2d: Sum(rhs),rhsMax =  -6.64712729303574E-12  4.17919929760113E-01
 cg2d: Sum(rhs),rhsMax =  -6.58190169033901E-12  4.25034970116814E-01
 cg2d: Sum(rhs),rhsMax =  -6.53788134741262E-12  4.31334562034254E-01
 cg2d: Sum(rhs),rhsMax =  -6.50363096710294E-12  4.36744466013363E-01
 cg2d: Sum(rhs),rhsMax =  -6.49824638543350E-12  4.41461139133271E-01
 cg2d: Sum(rhs),rhsMax =  -6.48137099545920E-12  4.45463051406843E-01
 cg2d: Sum(rhs),rhsMax =  -6.49141851383206E-12  4.48677454780393E-01
 cg2d: Sum(rhs),rhsMax =  -6.51340092971964E-12  4.51192163697491E-01
 cg2d: Sum(rhs),rhsMax =  -6.54770682118055E-12  4.52939045068300E-01
 cg2d: Sum(rhs),rhsMax =  -6.58639809358874E-12  4.53847744946583E-01
 cg2d: Sum(rhs),rhsMax =  -6.63530341782348E-12  4.53910619050386E-01
 cg2d: Sum(rhs),rhsMax =  -6.68831656724933E-12  4.53484055981320E-01
 cg2d: Sum(rhs),rhsMax =  -6.75925981852288E-12  4.52407928684462E-01
 cg2d: Sum(rhs),rhsMax =  -6.85634882202635E-12  4.50642247282105E-01
 cg2d: Sum(rhs),rhsMax =  -6.94311275140080E-12  4.48352692302340E-01
 cg2d: Sum(rhs),rhsMax =  -7.02726765666739E-12  4.45475155661095E-01
 cg2d: Sum(rhs),rhsMax =  -7.14528436418504E-12  4.42072604884125E-01
 cg2d: Sum(rhs),rhsMax =  -7.25658422240372E-12  4.38129733161846E-01
 cg2d: Sum(rhs),rhsMax =  -7.38953342960258E-12  4.33778587084902E-01
 cg2d: Sum(rhs),rhsMax =  -7.50721707021285E-12  4.28848523047398E-01
 cg2d: Sum(rhs),rhsMax =  -7.69034835812477E-12  4.23361728909116E-01
 cg2d: Sum(rhs),rhsMax =  -7.84139420062502E-12  4.17154278983922E-01
 cg2d: Sum(rhs),rhsMax =  -8.02635735652757E-12  4.10747094435037E-01
 cg2d: Sum(rhs),rhsMax =  -8.23852097653344E-12  4.03282958353542E-01
 cg2d: Sum(rhs),rhsMax =  -8.44802006128020E-12  3.95261961154203E-01
 cg2d: Sum(rhs),rhsMax =  -8.67295124606926E-12  3.86863928256120E-01
 cg2d: Sum(rhs),rhsMax =  -8.92852458633797E-12  3.78163579032760E-01
 cg2d: Sum(rhs),rhsMax =  -9.16910991577424E-12  3.69113492215914E-01
 cg2d: Sum(rhs),rhsMax =  -9.47597555978064E-12  3.59722865825147E-01
 cg2d: Sum(rhs),rhsMax =  -9.72788516406808E-12  3.50109004643606E-01
 cg2d: Sum(rhs),rhsMax =  -9.97801841151613E-12  3.40218017559248E-01
 cg2d: Sum(rhs),rhsMax =  -1.02756692044181E-11  3.30224389331026E-01
 cg2d: Sum(rhs),rhsMax =  -1.04027897407377E-11  3.24514935473724E-01
 cg2d: Sum(rhs),rhsMax =  -9.90263426814408E-12  3.37755219913970E-01
 cg2d: Sum(rhs),rhsMax =  -9.49829104257560E-12  3.50345355906840E-01
 cg2d: Sum(rhs),rhsMax =  -9.07074415579245E-12  3.62168345586188E-01
 cg2d: Sum(rhs),rhsMax =  -8.70492566917846E-12  3.73035613291326E-01
 cg2d: Sum(rhs),rhsMax =  -8.49442738370954E-12  3.82845123375233E-01
 cg2d: Sum(rhs),rhsMax =  -8.25994828090870E-12  3.92062310138801E-01
 cg2d: Sum(rhs),rhsMax =  -8.06610334080915E-12  4.00613396629393E-01
 cg2d: Sum(rhs),rhsMax =  -7.90678633677544E-12  4.08454205638590E-01
 cg2d: Sum(rhs),rhsMax =  -7.79731834654740E-12  4.15210629274529E-01
 cg2d: Sum(rhs),rhsMax =  -7.69961872038039E-12  4.21353045923080E-01
 cg2d: Sum(rhs),rhsMax =  -7.60336238414538E-12  4.26651960568093E-01
 cg2d: Sum(rhs),rhsMax =  -7.55973061927762E-12  4.31197940275727E-01
 cg2d: Sum(rhs),rhsMax =  -7.46214201541306E-12  4.34830170120038E-01
 cg2d: Sum(rhs),rhsMax =  -7.37165883890611E-12  4.37615573891119E-01
 cg2d: Sum(rhs),rhsMax =  -7.26363413861009E-12  4.39687681516725E-01
 cg2d: Sum(rhs),rhsMax =  -7.17725878729425E-12  4.40959049002886E-01
 cg2d: Sum(rhs),rhsMax =  -7.01994018470486E-12  4.41649054322883E-01
 cg2d: Sum(rhs),rhsMax =  -6.89093226924342E-12  4.41724789919008E-01
 cg2d: Sum(rhs),rhsMax =  -6.83786360866634E-12  4.41039710957106E-01
 cg2d: Sum(rhs),rhsMax =  -6.82798262374718E-12  4.39632421433442E-01
 cg2d: Sum(rhs),rhsMax =  -6.83642031873433E-12  4.37606345672094E-01
 cg2d: Sum(rhs),rhsMax =  -6.83797463096880E-12  4.35011965954360E-01
 cg2d: Sum(rhs),rhsMax =  -6.86695145191152E-12  4.31932226722042E-01
 cg2d: Sum(rhs),rhsMax =  -6.86861678644846E-12  4.28586580214634E-01
 cg2d: Sum(rhs),rhsMax =  -6.89215351457051E-12  4.24323537157226E-01
 cg2d: Sum(rhs),rhsMax =  -6.95210555790027E-12  4.19536583254637E-01
 cg2d: Sum(rhs),rhsMax =  -6.98596736015134E-12  4.14092844767748E-01
 cg2d: Sum(rhs),rhsMax =  -7.07711667047306E-12  4.07929433585092E-01
 cg2d: Sum(rhs),rhsMax =  -7.18347603623215E-12  4.01521163897749E-01
 cg2d: Sum(rhs),rhsMax =  -7.26130267025837E-12  3.94436032626658E-01
 cg2d: Sum(rhs),rhsMax =  -7.35522753814166E-12  3.86851509735257E-01
 cg2d: Sum(rhs),rhsMax =  -7.46336326074015E-12  3.78780801855109E-01
 cg2d: Sum(rhs),rhsMax =  -7.59370344383115E-12  3.70081595927708E-01
 cg2d: Sum(rhs),rhsMax =  -7.71072095062664E-12  3.60986589833397E-01
 cg2d: Sum(rhs),rhsMax =  -7.89057708061591E-12  3.51258885738088E-01
 cg2d: Sum(rhs),rhsMax =  -8.05600031128506E-12  3.41668235719153E-01
 cg2d: Sum(rhs),rhsMax =  -8.21709367215817E-12  3.33778511177974E-01
 cg2d: Sum(rhs),rhsMax =  -8.16324785546385E-12  3.35446165579490E-01
 cg2d: Sum(rhs),rhsMax =  -8.09363687181985E-12  3.37059204378393E-01
 cg2d: Sum(rhs),rhsMax =  -8.00137733847350E-12  3.38617182667511E-01
 cg2d: Sum(rhs),rhsMax =  -7.94608823184717E-12  3.40119684606029E-01
 cg2d: Sum(rhs),rhsMax =  -7.85038700712448E-12  3.42234152895628E-01
 cg2d: Sum(rhs),rhsMax =  -7.74635910971710E-12  3.45136732829713E-01
 cg2d: Sum(rhs),rhsMax =  -7.46458450606724E-12  3.55993802418320E-01
 cg2d: Sum(rhs),rhsMax =  -7.22055748525463E-12  3.66085367290275E-01
 cg2d: Sum(rhs),rhsMax =  -6.99318380981140E-12  3.75330797626248E-01
 cg2d: Sum(rhs),rhsMax =  -6.77236045021345E-12  3.83768054734753E-01
 cg2d: Sum(rhs),rhsMax =  -6.62569998866047E-12  3.91230600363701E-01
 cg2d: Sum(rhs),rhsMax =  -6.48336939690353E-12  3.97946470931275E-01
 cg2d: Sum(rhs),rhsMax =  -6.33149088713481E-12  4.03955889651151E-01
 cg2d: Sum(rhs),rhsMax =  -6.22368823144370E-12  4.09025029153757E-01
 cg2d: Sum(rhs),rhsMax =  -6.14952533339874E-12  4.13367579862738E-01
 cg2d: Sum(rhs),rhsMax =  -6.06592553964447E-12  4.16852180030846E-01
 cg2d: Sum(rhs),rhsMax =  -6.01674265965357E-12  4.19728913056346E-01
 cg2d: Sum(rhs),rhsMax =  -5.94879701054651E-12  4.21835368500924E-01
 cg2d: Sum(rhs),rhsMax =  -5.88884496721676E-12  4.23260706693138E-01
 cg2d: Sum(rhs),rhsMax =  -5.85043125056472E-12  4.23919441098355E-01
 cg2d: Sum(rhs),rhsMax =  -5.84443604623175E-12  4.24043685664925E-01
 cg2d: Sum(rhs),rhsMax =  -5.81668047061612E-12  4.23293978700619E-01
 cg2d: Sum(rhs),rhsMax =  -5.81590331449888E-12  4.21954306088172E-01
 cg2d: Sum(rhs),rhsMax =  -5.83544323973229E-12  4.19693949865450E-01
 cg2d: Sum(rhs),rhsMax =  -5.89517323845712E-12  4.16854498453258E-01
 cg2d: Sum(rhs),rhsMax =  -5.86330983765038E-12  4.13479791508422E-01
 cg2d: Sum(rhs),rhsMax =  -5.86675152902671E-12  4.09491889859121E-01
 cg2d: Sum(rhs),rhsMax =  -5.90427706725904E-12  4.04892593319671E-01
 cg2d: Sum(rhs),rhsMax =  -5.94713167600958E-12  3.99737136424688E-01
 cg2d: Sum(rhs),rhsMax =  -6.07358607851438E-12  3.94155958000093E-01
 cg2d: Sum(rhs),rhsMax =  -6.26032559125633E-12  3.88221232008752E-01
 cg2d: Sum(rhs),rhsMax =  -6.38344932468726E-12  3.81603214381435E-01
 cg2d: Sum(rhs),rhsMax =  -6.53788134741262E-12  3.77386241501259E-01
 cg2d: Sum(rhs),rhsMax =  -6.65678623334998E-12  3.77566142674082E-01
 cg2d: Sum(rhs),rhsMax =  -6.71585009826003E-12  3.77672885863105E-01
 cg2d: Sum(rhs),rhsMax =  -6.78446188118187E-12  3.77707232612343E-01
 cg2d: Sum(rhs),rhsMax =  -6.87250256703464E-12  3.77670013813269E-01
 cg2d: Sum(rhs),rhsMax =  -6.96365187735637E-12  3.77562123128521E-01
 cg2d: Sum(rhs),rhsMax =  -7.09965419787295E-12  3.77384509328326E-01
 cg2d: Sum(rhs),rhsMax =  -7.22166770827926E-12  3.77138167623826E-01
 cg2d: Sum(rhs),rhsMax =  -7.32169880279798E-12  3.76824130163003E-01
 cg2d: Sum(rhs),rhsMax =  -7.45048467365450E-12  3.76443455924061E-01
 cg2d: Sum(rhs),rhsMax =  -7.54485363074764E-12  3.75997220304193E-01
 cg2d: Sum(rhs),rhsMax =  -7.70006280959024E-12  3.75486504750718E-01
 cg2d: Sum(rhs),rhsMax =  -7.77800046591892E-12  3.74912386811918E-01
 cg2d: Sum(rhs),rhsMax =  -7.92277354833004E-12  3.74275930993208E-01
 cg2d: Sum(rhs),rhsMax =  -8.01581023779363E-12  3.73578180788615E-01
 cg2d: Sum(rhs),rhsMax =  -8.15625345040871E-12  3.72820152217971E-01
 cg2d: Sum(rhs),rhsMax =  -8.28748181191941E-12  3.72002829138472E-01
 cg2d: Sum(rhs),rhsMax =  -8.20687962033162E-12  3.78332747806672E-01
 cg2d: Sum(rhs),rhsMax =  -8.10940203876953E-12  3.86830264770062E-01
 cg2d: Sum(rhs),rhsMax =  -8.04034616663785E-12  3.94508516499752E-01
 cg2d: Sum(rhs),rhsMax =  -7.96873678154952E-12  4.01491676821066E-01
 cg2d: Sum(rhs),rhsMax =  -7.97617527581451E-12  4.07601792937385E-01
 cg2d: Sum(rhs),rhsMax =  -7.93620724692801E-12  4.13004475886851E-01
 cg2d: Sum(rhs),rhsMax =  -7.96152033188946E-12  4.17611730378894E-01
 cg2d: Sum(rhs),rhsMax =  -7.96451793405595E-12  4.23095297300895E-01
 cg2d: Sum(rhs),rhsMax =  -8.00881583273849E-12  4.25710786892905E-01
 cg2d: Sum(rhs),rhsMax =  -7.96929189306184E-12  4.27433590840204E-01
 cg2d: Sum(rhs),rhsMax =  -7.98738852836323E-12  4.28589914092599E-01
 cg2d: Sum(rhs),rhsMax =  -8.02924393639159E-12  4.29039878529424E-01
 cg2d: Sum(rhs),rhsMax =  -8.09419198333217E-12  4.28729401059474E-01
 cg2d: Sum(rhs),rhsMax =  -8.13848988201471E-12  4.27716984174481E-01
 cg2d: Sum(rhs),rhsMax =  -8.23119350457091E-12  4.26072798892723E-01
 cg2d: Sum(rhs),rhsMax =  -8.35120861353289E-12  4.23709400916005E-01
 cg2d: Sum(rhs),rhsMax =  -8.45645775626735E-12  4.20613459347723E-01
 cg2d: Sum(rhs),rhsMax =  -8.63586979704678E-12  4.17020959221683E-01
 cg2d: Sum(rhs),rhsMax =  -8.84192719041721E-12  4.12883712319015E-01
 cg2d: Sum(rhs),rhsMax =  -9.06141828238560E-12  4.08187481465052E-01
 cg2d: Sum(rhs),rhsMax =  -9.29833987584061E-12  4.03061204067543E-01
 cg2d: Sum(rhs),rhsMax =  -9.53348511245622E-12  3.97469580534562E-01
 cg2d: Sum(rhs),rhsMax =  -9.74820224541872E-12  3.91350610369775E-01
 cg2d: Sum(rhs),rhsMax =  -9.99766935905200E-12  3.84581074265231E-01
 cg2d: Sum(rhs),rhsMax =  -1.02298169935011E-11  3.76994109447823E-01
 cg2d: Sum(rhs),rhsMax =  -1.05535580274818E-11  3.68874630042459E-01
 cg2d: Sum(rhs),rhsMax =  -1.08897335593383E-11  3.60345582928453E-01
 cg2d: Sum(rhs),rhsMax =  -1.12145848163436E-11  3.51576126717151E-01
 cg2d: Sum(rhs),rhsMax =  -1.14308562615406E-11  3.47621156908341E-01
 cg2d: Sum(rhs),rhsMax =  -1.15411014078859E-11  3.46389646199057E-01
 cg2d: Sum(rhs),rhsMax =  -1.17004184119196E-11  3.44481077704981E-01
 cg2d: Sum(rhs),rhsMax =  -1.18670628879158E-11  3.41801050649324E-01
 cg2d: Sum(rhs),rhsMax =  -1.20868870467916E-11  3.38332470514020E-01
 cg2d: Sum(rhs),rhsMax =  -1.23234755733392E-11  3.34119781991418E-01
 cg2d: Sum(rhs),rhsMax =  -1.25847110510335E-11  3.29075124094150E-01
 cg2d: Sum(rhs),rhsMax =  -1.29934951687005E-11  3.23391976157285E-01
 cg2d: Sum(rhs),rhsMax =  -1.25924826122059E-11  3.36470561409585E-01
 cg2d: Sum(rhs),rhsMax =  -1.22181154083023E-11  3.49328442589870E-01
 cg2d: Sum(rhs),rhsMax =  -1.18306475727081E-11  3.61480022336376E-01
 cg2d: Sum(rhs),rhsMax =  -1.14727116695690E-11  3.72563613856695E-01
 cg2d: Sum(rhs),rhsMax =  -1.11310960448918E-11  3.82871410068976E-01
 cg2d: Sum(rhs),rhsMax =  -1.08340003635021E-11  3.92531744258446E-01
 cg2d: Sum(rhs),rhsMax =  -1.05689901275241E-11  4.01500863811192E-01
 cg2d: Sum(rhs),rhsMax =  -1.03365094261676E-11  4.09492008961172E-01
 cg2d: Sum(rhs),rhsMax =  -1.01419983522533E-11  4.16580571481857E-01
 cg2d: Sum(rhs),rhsMax =  -9.99100802090425E-12  4.22798750101214E-01
 cg2d: Sum(rhs),rhsMax =  -9.86510872991175E-12  4.28155837237155E-01
 cg2d: Sum(rhs),rhsMax =  -9.80859837795833E-12  4.32795107950838E-01
 cg2d: Sum(rhs),rhsMax =  -9.76441150157825E-12  4.38012929448546E-01
 cg2d: Sum(rhs),rhsMax =  -9.82158798734645E-12  4.40577921394086E-01
 cg2d: Sum(rhs),rhsMax =  -9.90629800412535E-12  4.42188185815906E-01
 cg2d: Sum(rhs),rhsMax =  -1.00204289310568E-11  4.43082003383139E-01
 cg2d: Sum(rhs),rhsMax =  -1.01909591876392E-11  4.43191007806233E-01
 cg2d: Sum(rhs),rhsMax =  -1.02584607475364E-11  4.42663750584188E-01
 cg2d: Sum(rhs),rhsMax =  -1.03499431247656E-11  4.41272094076557E-01
 cg2d: Sum(rhs),rhsMax =  -1.04526387545434E-11  4.39342604213908E-01
 cg2d: Sum(rhs),rhsMax =  -1.05764286217891E-11  4.36745648641136E-01
 cg2d: Sum(rhs),rhsMax =  -1.07491793244208E-11  4.33492084368009E-01
 cg2d: Sum(rhs),rhsMax =  -1.09054987262880E-11  4.29498850026182E-01
 cg2d: Sum(rhs),rhsMax =  -1.10937925512644E-11  4.24906953711129E-01
 cg2d: Sum(rhs),rhsMax =  -1.12684306330380E-11  4.20090659676803E-01
 cg2d: Sum(rhs),rhsMax =  -1.14832587883029E-11  4.14753907371527E-01
 cg2d: Sum(rhs),rhsMax =  -1.17047482817156E-11  4.08987120860979E-01
 cg2d: Sum(rhs),rhsMax =  -1.19679821608543E-11  4.02556673327254E-01
 cg2d: Sum(rhs),rhsMax =  -1.22392096457702E-11  3.95299054949184E-01
 cg2d: Sum(rhs),rhsMax =  -1.25504051595726E-11  3.87804801568068E-01
 cg2d: Sum(rhs),rhsMax =  -1.28802524201888E-11  3.79784650652154E-01
 cg2d: Sum(rhs),rhsMax =  -1.32700517241346E-11  3.71214104240408E-01
 cg2d: Sum(rhs),rhsMax =  -1.36531896899328E-11  3.62217058720676E-01
 cg2d: Sum(rhs),rhsMax =  -1.41052725055602E-11  3.52783106385154E-01
 cg2d: Sum(rhs),rhsMax =  -1.45493617154102E-11  3.43037451809685E-01
 cg2d: Sum(rhs),rhsMax =  -1.50822687672303E-11  3.32856823829591E-01
 cg2d: Sum(rhs),rhsMax =  -1.53156376470065E-11  3.29633268470945E-01
 cg2d: Sum(rhs),rhsMax =  -1.55007118252115E-11  3.26987761601491E-01
 cg2d: Sum(rhs),rhsMax =  -1.57597268568566E-11  3.23594931488537E-01
 cg2d: Sum(rhs),rhsMax =  -1.60486068878640E-11  3.19429036618710E-01
 cg2d: Sum(rhs),rhsMax =  -1.54316559530798E-11  3.33091109710433E-01
 cg2d: Sum(rhs),rhsMax =  -1.48979717451425E-11  3.47041940901931E-01
 cg2d: Sum(rhs),rhsMax =  -1.44032563653695E-11  3.60234017423658E-01
 cg2d: Sum(rhs),rhsMax =  -1.39991351844060E-11  3.72691080702254E-01
 cg2d: Sum(rhs),rhsMax =  -1.36437527942235E-11  3.84372932618146E-01
 cg2d: Sum(rhs),rhsMax =  -1.33221211839896E-11  3.95120287037777E-01
 cg2d: Sum(rhs),rhsMax =  -1.30762067840351E-11  4.05054527943335E-01
 cg2d: Sum(rhs),rhsMax =  -1.28233534901767E-11  4.14156817585047E-01
 cg2d: Sum(rhs),rhsMax =  -1.26427202040702E-11  4.22311149269330E-01
 cg2d: Sum(rhs),rhsMax =  -1.24896759601256E-11  4.29884446451470E-01
 cg2d: Sum(rhs),rhsMax =  -1.24305565840643E-11  4.36508749052513E-01
 cg2d: Sum(rhs),rhsMax =  -1.24095178577477E-11  4.42280529083780E-01
 cg2d: Sum(rhs),rhsMax =  -1.23949184249739E-11  4.47023491062037E-01
 cg2d: Sum(rhs),rhsMax =  -1.23894783321532E-11  4.51101883338518E-01
 cg2d: Sum(rhs),rhsMax =  -1.24263932477220E-11  4.54421132393606E-01
 cg2d: Sum(rhs),rhsMax =  -1.24812937762897E-11  4.56982746909805E-01
 cg2d: Sum(rhs),rhsMax =  -1.25434107545175E-11  4.58721044608781E-01
 cg2d: Sum(rhs),rhsMax =  -1.26456622950855E-11  4.59705410622316E-01
 cg2d: Sum(rhs),rhsMax =  -1.27577948205726E-11  4.59908585872768E-01
 cg2d: Sum(rhs),rhsMax =  -1.28783095298957E-11  4.59356903156583E-01
 cg2d: Sum(rhs),rhsMax =  -1.30331301306796E-11  4.58372669474440E-01
 cg2d: Sum(rhs),rhsMax =  -1.31848976181459E-11  4.56847411449774E-01
 cg2d: Sum(rhs),rhsMax =  -1.33926758572045E-11  4.54059245505398E-01
 cg2d: Sum(rhs),rhsMax =  -1.36176625531448E-11  4.50572256602120E-01
 cg2d: Sum(rhs),rhsMax =  -1.38709599362130E-11  4.46329541140415E-01
 cg2d: Sum(rhs),rhsMax =  -1.41626155247820E-11  4.41432637539653E-01
 cg2d: Sum(rhs),rhsMax =  -1.43848821743120E-11  4.35943524279682E-01
 cg2d: Sum(rhs),rhsMax =  -1.46436751613521E-11  4.29911419460575E-01
 cg2d: Sum(rhs),rhsMax =  -1.49245615865823E-11  4.23329076836915E-01
 cg2d: Sum(rhs),rhsMax =  -1.52109991269356E-11  4.16141710695691E-01
 cg2d: Sum(rhs),rhsMax =  -1.55465640361285E-11  4.08415074736407E-01
 cg2d: Sum(rhs),rhsMax =  -1.59141033684307E-11  4.00162812431597E-01
 cg2d: Sum(rhs),rhsMax =  -1.63244973094834E-11  3.91402234239092E-01
 cg2d: Sum(rhs),rhsMax =  -1.67173497267470E-11  3.83131232408040E-01
 cg2d: Sum(rhs),rhsMax =  -1.71732628118093E-11  3.74121542912582E-01
 cg2d: Sum(rhs),rhsMax =  -1.76675341023724E-11  3.64586961525806E-01
 cg2d: Sum(rhs),rhsMax =  -1.82208137466944E-11  3.54704786751545E-01
 cg2d: Sum(rhs),rhsMax =  -1.88143944868102E-11  3.44556244098039E-01
 cg2d: Sum(rhs),rhsMax =  -1.94585458856977E-11  3.34105525977606E-01
 cg2d: Sum(rhs),rhsMax =  -2.01486050066535E-11  3.23468321875412E-01
 cg2d: Sum(rhs),rhsMax =  -2.07024397624878E-11  3.15693832930608E-01
 cg2d: Sum(rhs),rhsMax =  -2.06404338065624E-11  3.17286548555325E-01
 cg2d: Sum(rhs),rhsMax =  -1.97875049678942E-11  3.32120165685506E-01
 cg2d: Sum(rhs),rhsMax =  -1.90206184136343E-11  3.46355295141511E-01
 cg2d: Sum(rhs),rhsMax =  -1.83563164668499E-11  3.59787713033350E-01
 cg2d: Sum(rhs),rhsMax =  -1.77861059214024E-11  3.72399495403467E-01
 cg2d: Sum(rhs),rhsMax =  -1.72847847146329E-11  3.84344239154166E-01
 cg2d: Sum(rhs),rhsMax =  -1.69231850755125E-11  3.95219943062943E-01
 cg2d: Sum(rhs),rhsMax =  -1.66164582093842E-11  4.05468133203679E-01
 cg2d: Sum(rhs),rhsMax =  -1.63624114257743E-11  4.14946156131520E-01
 cg2d: Sum(rhs),rhsMax =  -1.61525237629689E-11  4.23557159569305E-01
 cg2d: Sum(rhs),rhsMax =  -1.59856294867922E-11  4.31357065452931E-01
 cg2d: Sum(rhs),rhsMax =  -1.58520419013541E-11  4.38327982719638E-01
 cg2d: Sum(rhs),rhsMax =  -1.57492907604251E-11  4.44542323135450E-01
 cg2d: Sum(rhs),rhsMax =  -1.56727408828772E-11  4.49883150245623E-01
 cg2d: Sum(rhs),rhsMax =  -1.56209489787784E-11  4.54452990235278E-01
 cg2d: Sum(rhs),rhsMax =  -1.55979118510174E-11  4.58227881556265E-01
 cg2d: Sum(rhs),rhsMax =  -1.55975232729588E-11  4.61202289057210E-01
 cg2d: Sum(rhs),rhsMax =  -1.56419877050951E-11  4.63278580623223E-01
 cg2d: Sum(rhs),rhsMax =  -1.56926138750180E-11  4.64650789109081E-01
 cg2d: Sum(rhs),rhsMax =  -1.57617807694521E-11  4.65354365000426E-01
 cg2d: Sum(rhs),rhsMax =  -1.58520419013541E-11  4.65309197488398E-01
 cg2d: Sum(rhs),rhsMax =  -1.59809943056644E-11  4.64576212554798E-01
 cg2d: Sum(rhs),rhsMax =  -1.61213264959770E-11  4.63129397106591E-01
 cg2d: Sum(rhs),rhsMax =  -1.62773683420880E-11  4.61090097156861E-01
 cg2d: Sum(rhs),rhsMax =  -1.64698532589824E-11  4.58357254503889E-01
 cg2d: Sum(rhs),rhsMax =  -1.66891500619215E-11  4.55094395765814E-01
 cg2d: Sum(rhs),rhsMax =  -1.69258496107716E-11  4.51226528160646E-01
 cg2d: Sum(rhs),rhsMax =  -1.71816449956452E-11  4.46792396626910E-01
 cg2d: Sum(rhs),rhsMax =  -1.74700531818672E-11  4.41779179702613E-01
 cg2d: Sum(rhs),rhsMax =  -1.77802494949475E-11  4.36341830423062E-01
 cg2d: Sum(rhs),rhsMax =  -1.81178683167360E-11  4.30462467256147E-01
 cg2d: Sum(rhs),rhsMax =  -1.84301740535631E-11  4.24041209421959E-01
 cg2d: Sum(rhs),rhsMax =  -1.88288273861303E-11  4.17121340018320E-01
 cg2d: Sum(rhs),rhsMax =  -1.92518501140881E-11  4.09740616274226E-01
 cg2d: Sum(rhs),rhsMax =  -1.97122596024002E-11  4.01900464841006E-01
 cg2d: Sum(rhs),rhsMax =  -2.02062810927828E-11  3.93781060286910E-01
 cg2d: Sum(rhs),rhsMax =  -2.07650563410766E-11  3.85239874344176E-01
 cg2d: Sum(rhs),rhsMax =  -2.13416506689157E-11  3.76311106737709E-01
 cg2d: Sum(rhs),rhsMax =  -2.19366469433879E-11  3.67231420986770E-01
 cg2d: Sum(rhs),rhsMax =  -2.24728569087063E-11  3.57923880683864E-01
 cg2d: Sum(rhs),rhsMax =  -2.30070129614290E-11  3.48383511921953E-01
 cg2d: Sum(rhs),rhsMax =  -2.36350661264595E-11  3.38819257624252E-01
 cg2d: Sum(rhs),rhsMax =  -2.43380038345009E-11  3.29218675491108E-01
 cg2d: Sum(rhs),rhsMax =  -2.50829357284488E-11  3.19585374745893E-01
 cg2d: Sum(rhs),rhsMax =  -2.48846221406751E-11  3.22471689082355E-01
 cg2d: Sum(rhs),rhsMax =  -2.38661868046108E-11  3.36555031025924E-01
 cg2d: Sum(rhs),rhsMax =  -2.29646301974640E-11  3.50115319192306E-01
 cg2d: Sum(rhs),rhsMax =  -2.21600238159425E-11  3.63054652560289E-01
 cg2d: Sum(rhs),rhsMax =  -2.14939177567430E-11  3.75355189835548E-01
 cg2d: Sum(rhs),rhsMax =  -2.09243178339591E-11  3.86835523339000E-01
 cg2d: Sum(rhs),rhsMax =  -2.03992378544626E-11  3.97610306110002E-01
 cg2d: Sum(rhs),rhsMax =  -1.99850136439750E-11  4.07658176579875E-01
 cg2d: Sum(rhs),rhsMax =  -1.95950478065754E-11  4.16929758663181E-01
 cg2d: Sum(rhs),rhsMax =  -1.92445503977012E-11  4.25444238256747E-01
 cg2d: Sum(rhs),rhsMax =  -1.89470383826773E-11  4.33083836485474E-01
 cg2d: Sum(rhs),rhsMax =  -1.86703152937895E-11  4.40089950067363E-01
 cg2d: Sum(rhs),rhsMax =  -1.84415260839899E-11  4.46326868871712E-01
 cg2d: Sum(rhs),rhsMax =  -1.82240889046170E-11  4.51908381519869E-01
 cg2d: Sum(rhs),rhsMax =  -1.80443437969302E-11  4.56683092929779E-01
 cg2d: Sum(rhs),rhsMax =  -1.78727310728988E-11  4.60909207095459E-01
 cg2d: Sum(rhs),rhsMax =  -1.77473868934186E-11  4.64317307231350E-01
 cg2d: Sum(rhs),rhsMax =  -1.76348935454484E-11  4.66977861352004E-01
 cg2d: Sum(rhs),rhsMax =  -1.75618131148525E-11  4.69030421686467E-01
 cg2d: Sum(rhs),rhsMax =  -1.74849301703972E-11  4.70681984960873E-01
 cg2d: Sum(rhs),rhsMax =  -1.74800174335132E-11  4.71642648351206E-01
 cg2d: Sum(rhs),rhsMax =  -1.75342518282662E-11  4.71950788945826E-01
 cg2d: Sum(rhs),rhsMax =  -1.75741921015771E-11  4.71604332805771E-01
 cg2d: Sum(rhs),rhsMax =  -1.75974235183673E-11  4.70519122491270E-01
 cg2d: Sum(rhs),rhsMax =  -1.76147707531271E-11  4.69435164559075E-01
 cg2d: Sum(rhs),rhsMax =  -1.76706427268414E-11  4.67404801280839E-01
 cg2d: Sum(rhs),rhsMax =  -1.77637626830318E-11  4.64705324782792E-01
 cg2d: Sum(rhs),rhsMax =  -1.78606018863547E-11  4.61487972381863E-01
 cg2d: Sum(rhs),rhsMax =  -1.79779524600576E-11  4.57615181264062E-01
 cg2d: Sum(rhs),rhsMax =  -1.81018533496058E-11  4.53271317358695E-01
 cg2d: Sum(rhs),rhsMax =  -1.82466541875925E-11  4.48745760762790E-01
 cg2d: Sum(rhs),rhsMax =  -1.84270099179429E-11  4.43701612929815E-01
 cg2d: Sum(rhs),rhsMax =  -1.86419768510859E-11  4.38145387628248E-01
 cg2d: Sum(rhs),rhsMax =  -1.89065985090053E-11  4.32041474903813E-01
 cg2d: Sum(rhs),rhsMax =  -1.91886506684114E-11  4.25491330534657E-01
 cg2d: Sum(rhs),rhsMax =  -1.95206628639255E-11  4.18454939761567E-01
 cg2d: Sum(rhs),rhsMax =  -1.98954186458877E-11  4.10881528696883E-01
 cg2d: Sum(rhs),rhsMax =  -2.02726446740797E-11  4.03048150385492E-01
 cg2d: Sum(rhs),rhsMax =  -2.07241446226192E-11  3.94725071699836E-01
 cg2d: Sum(rhs),rhsMax =  -2.12034279023499E-11  3.85996153766793E-01
 cg2d: Sum(rhs),rhsMax =  -2.17161844062730E-11  3.76981855442282E-01
 cg2d: Sum(rhs),rhsMax =  -2.22695195617462E-11  3.67845529113404E-01
(PID.TID 0000.0001)      cg2d_init_res =   7.48803518715010E-02
(PID.TID 0000.0001)      cg2d_iters(min,last) =      -1      29
(PID.TID 0000.0001)      cg2d_last_res =   8.11387940521485E-14
(PID.TID 0000.0001) // =======================================================
(PID.TID 0000.0001) // Begin MONITOR dynamic field statistics
(PID.TID 0000.0001) // =======================================================
(PID.TID 0000.0001) %MON time_tsnumber                =                  1440
(PID.TID 0000.0001) %MON time_secondsf                =   2.1600000000000E+04
(PID.TID 0000.0001) %MON dynstat_eta_max              =   1.6997210002945E-02
(PID.TID 0000.0001) %MON dynstat_eta_min              =  -4.1090465730876E-02
(PID.TID 0000.0001) %MON dynstat_eta_mean             =   9.4786015540402E-15
(PID.TID 0000.0001) %MON dynstat_eta_sd               =   1.1475861299613E-02
(PID.TID 0000.0001) %MON dynstat_eta_del2             =   2.7827473251713E-04
(PID.TID 0000.0001) %MON dynstat_uvel_max             =   1.6755324646245E+00
(PID.TID 0000.0001) %MON dynstat_uvel_min             =  -8.8412689030459E-01
(PID.TID 0000.0001) %MON dynstat_uvel_mean            =   1.3643231146637E-03
(PID.TID 0000.0001) %MON dynstat_uvel_sd              =   1.3447078413754E-01
(PID.TID 0000.0001) %MON dynstat_uvel_del2            =   5.6305271123029E-04
(PID.TID 0000.0001) %MON dynstat_vvel_max             =   0.0000000000000E+00
(PID.TID 0000.0001) %MON dynstat_vvel_min             =   0.0000000000000E+00
(PID.TID 0000.0001) %MON dynstat_vvel_mean            =   0.0000000000000E+00
(PID.TID 0000.0001) %MON dynstat_vvel_sd              =   0.0000000000000E+00
(PID.TID 0000.0001) %MON dynstat_vvel_del2            =   0.0000000000000E+00
(PID.TID 0000.0001) %MON dynstat_wvel_max             =   7.6834184228839E-02
(PID.TID 0000.0001) %MON dynstat_wvel_min             =  -4.6151772713765E-02
(PID.TID 0000.0001) %MON dynstat_wvel_mean            =   4.7273721331169E-20
(PID.TID 0000.0001) %MON dynstat_wvel_sd              =   4.3505158492117E-03
(PID.TID 0000.0001) %MON dynstat_wvel_del2            =   7.8649863828091E-05
(PID.TID 0000.0001) %MON dynstat_theta_max            =   1.4976502386012E+01
(PID.TID 0000.0001) %MON dynstat_theta_min            =   9.9765023856485E+00
(PID.TID 0000.0001) %MON dynstat_theta_mean           =   1.2377105175959E+01
(PID.TID 0000.0001) %MON dynstat_theta_sd             =   2.4293275623986E+00
(PID.TID 0000.0001) %MON dynstat_theta_del2           =   2.1222375368670E-03
(PID.TID 0000.0001) %MON dynstat_salt_max             =   3.5000000000000E+01
(PID.TID 0000.0001) %MON dynstat_salt_min             =   3.5000000000000E+01
(PID.TID 0000.0001) %MON dynstat_salt_mean            =   3.5000000000000E+01
(PID.TID 0000.0001) %MON dynstat_salt_sd              =   3.4816594052245E-13
(PID.TID 0000.0001) %MON dynstat_salt_del2            =   0.0000000000000E+00
(PID.TID 0000.0001) %MON dynstat_sst_max              =   1.4976502385655E+01
(PID.TID 0000.0001) %MON dynstat_sst_min              =   1.4637318899768E+01
(PID.TID 0000.0001) %MON dynstat_sst_mean             =   1.4826767020861E+01
(PID.TID 0000.0001) %MON dynstat_sst_sd               =   1.6467536872015E-01
(PID.TID 0000.0001) %MON dynstat_sst_del2             =   8.6849136435747E-04
(PID.TID 0000.0001) %MON dynstat_sss_max              =   3.5000000000000E+01
(PID.TID 0000.0001) %MON dynstat_sss_min              =   3.5000000000000E+01
(PID.TID 0000.0001) %MON dynstat_sss_mean             =   3.5000000000000E+01
(PID.TID 0000.0001) %MON dynstat_sss_sd               =   3.5527136788005E-14
(PID.TID 0000.0001) %MON dynstat_sss_del2             =   0.0000000000000E+00
(PID.TID 0000.0001) %MON forcing_qnet_max             =   0.0000000000000E+00
(PID.TID 0000.0001) %MON forcing_qnet_min             =   0.0000000000000E+00
(PID.TID 0000.0001) %MON forcing_qnet_mean            =   0.0000000000000E+00
(PID.TID 0000.0001) %MON forcing_qnet_sd              =   0.0000000000000E+00
(PID.TID 0000.0001) %MON forcing_qnet_del2            =   0.0000000000000E+00
(PID.TID 0000.0001) %MON forcing_qsw_max              =   0.0000000000000E+00
(PID.TID 0000.0001) %MON forcing_qsw_min              =   0.0000000000000E+00
(PID.TID 0000.0001) %MON forcing_qsw_mean             =   0.0000000000000E+00
(PID.TID 0000.0001) %MON forcing_qsw_sd               =   0.0000000000000E+00
(PID.TID 0000.0001) %MON forcing_qsw_del2             =   0.0000000000000E+00
(PID.TID 0000.0001) %MON forcing_empmr_max            =   0.0000000000000E+00
(PID.TID 0000.0001) %MON forcing_empmr_min            =   0.0000000000000E+00
(PID.TID 0000.0001) %MON forcing_empmr_mean           =   0.0000000000000E+00
(PID.TID 0000.0001) %MON forcing_empmr_sd             =   0.0000000000000E+00
(PID.TID 0000.0001) %MON forcing_empmr_del2           =   0.0000000000000E+00
(PID.TID 0000.0001) %MON forcing_fu_max               =   0.0000000000000E+00
(PID.TID 0000.0001) %MON forcing_fu_min               =   0.0000000000000E+00
(PID.TID 0000.0001) %MON forcing_fu_mean              =   0.0000000000000E+00
(PID.TID 0000.0001) %MON forcing_fu_sd                =   0.0000000000000E+00
(PID.TID 0000.0001) %MON forcing_fu_del2              =   0.0000000000000E+00
(PID.TID 0000.0001) %MON forcing_fv_max               =   0.0000000000000E+00
(PID.TID 0000.0001) %MON forcing_fv_min               =   0.0000000000000E+00
(PID.TID 0000.0001) %MON forcing_fv_mean              =   0.0000000000000E+00
(PID.TID 0000.0001) %MON forcing_fv_sd                =   0.0000000000000E+00
(PID.TID 0000.0001) %MON forcing_fv_del2              =   0.0000000000000E+00
(PID.TID 0000.0001) %MON advcfl_uvel_max              =   9.2727372257964E-02
(PID.TID 0000.0001) %MON advcfl_vvel_max              =   0.0000000000000E+00
(PID.TID 0000.0001) %MON advcfl_wvel_max              =   4.4982883971025E-01
(PID.TID 0000.0001) %MON advcfl_W_hf_max              =   4.5326896029816E-01
(PID.TID 0000.0001) %MON pe_b_mean                    =   3.6969897698750E-06
(PID.TID 0000.0001) %MON ke_max                       =   1.0232586966554E+00
(PID.TID 0000.0001) %MON ke_mean                      =   9.1422176705314E-03
(PID.TID 0000.0001) %MON ke_vol                       =   8.5337279889550E+10
(PID.TID 0000.0001) %MON vort_r_min                   =   0.0000000000000E+00
(PID.TID 0000.0001) %MON vort_r_max                   =   0.0000000000000E+00
(PID.TID 0000.0001) %MON vort_a_mean                  =   0.0000000000000E+00
(PID.TID 0000.0001) %MON vort_a_sd                    =   0.0000000000000E+00
(PID.TID 0000.0001) %MON vort_p_mean                  =   0.0000000000000E+00
(PID.TID 0000.0001) %MON vort_p_sd                    =   0.0000000000000E+00
(PID.TID 0000.0001) %MON surfExpan_theta_mean         =   1.3204118980129E-06
(PID.TID 0000.0001) %MON surfExpan_salt_mean          =   2.9524936227194E-18
(PID.TID 0000.0001) // =======================================================
(PID.TID 0000.0001) // End MONITOR dynamic field statistics
(PID.TID 0000.0001) // =======================================================
(PID.TID 0000.0001) // =======================================================
(PID.TID 0000.0001) // Begin OBCS MONITOR field statistics
(PID.TID 0000.0001) // =======================================================
(PID.TID 0000.0001) %MON obc_E_uVel_max               =   0.0000000000000E+00
(PID.TID 0000.0001) %MON obc_E_uVel_min               =   0.0000000000000E+00
(PID.TID 0000.0001) %MON obc_E_uVel_mean              =   0.0000000000000E+00
(PID.TID 0000.0001) %MON obc_E_uVel_sd                =   0.0000000000000E+00
(PID.TID 0000.0001) %MON obc_E_uVel_Int               =   0.0000000000000E+00
(PID.TID 0000.0001) %MON obc_W_uVel_max               =   0.0000000000000E+00
(PID.TID 0000.0001) %MON obc_W_uVel_min               =   0.0000000000000E+00
(PID.TID 0000.0001) %MON obc_W_uVel_mean              =   0.0000000000000E+00
(PID.TID 0000.0001) %MON obc_W_uVel_sd                =   0.0000000000000E+00
(PID.TID 0000.0001) %MON obc_W_uVel_Int               =   0.0000000000000E+00
(PID.TID 0000.0001) // =======================================================
(PID.TID 0000.0001) // End OBCS MONITOR field statistics
(PID.TID 0000.0001) // =======================================================
(PID.TID 0000.0001) %CHECKPOINT      1440 0000001440
 cg2d: Sum(rhs),rhsMax =  -2.28663754597846E-11  3.58479984524436E-01
 cg2d: Sum(rhs),rhsMax =  -2.35040320539781E-11  3.48957925885557E-01
 cg2d: Sum(rhs),rhsMax =  -2.41798803202187E-11  3.39221412442491E-01
 cg2d: Sum(rhs),rhsMax =  -2.49394949136672E-11  3.29066709450324E-01
 cg2d: Sum(rhs),rhsMax =  -2.41187625427131E-11  3.40599154891881E-01
 cg2d: Sum(rhs),rhsMax =  -2.31505370429375E-11  3.54664800755414E-01
 cg2d: Sum(rhs),rhsMax =  -2.23140395050336E-11  3.68187153786884E-01
 cg2d: Sum(rhs),rhsMax =  -2.15523709989895E-11  3.81043855517013E-01
 cg2d: Sum(rhs),rhsMax =  -2.09012807061981E-11  3.93117359585053E-01
 cg2d: Sum(rhs),rhsMax =  -2.03282390920378E-11  4.04461457376753E-01
 cg2d: Sum(rhs),rhsMax =  -1.97965532855449E-11  4.15230044369305E-01
 cg2d: Sum(rhs),rhsMax =  -1.93371985091062E-11  4.25354686589135E-01
 cg2d: Sum(rhs),rhsMax =  -1.89148696705388E-11  4.34789554993655E-01
 cg2d: Sum(rhs),rhsMax =  -1.85469972713292E-11  4.43545655636643E-01
 cg2d: Sum(rhs),rhsMax =  -1.82061032916181E-11  4.51825376780730E-01
 cg2d: Sum(rhs),rhsMax =  -1.79197767735673E-11  4.59054972012045E-01
 cg2d: Sum(rhs),rhsMax =  -1.76475500879292E-11  4.65576831132044E-01
 cg2d: Sum(rhs),rhsMax =  -1.74248393491894E-11  4.71329622148939E-01
 cg2d: Sum(rhs),rhsMax =  -1.72131753295446E-11  4.76672693714563E-01
 cg2d: Sum(rhs),rhsMax =  -1.70487512995976E-11  4.80889676292192E-01
 cg2d: Sum(rhs),rhsMax =  -1.69181335607504E-11  4.84319765143716E-01
 cg2d: Sum(rhs),rhsMax =  -1.67707514542315E-11  4.87087277295799E-01
 cg2d: Sum(rhs),rhsMax =  -1.66673341794876E-11  4.89109446992067E-01
 cg2d: Sum(rhs),rhsMax =  -1.65821800734989E-11  4.90379643508209E-01
 cg2d: Sum(rhs),rhsMax =  -1.65076285973953E-11  4.90891206112214E-01
 cg2d: Sum(rhs),rhsMax =  -1.64577240724384E-11  4.90716984716677E-01
 cg2d: Sum(rhs),rhsMax =  -1.64365743238193E-11  4.89843171982683E-01
 cg2d: Sum(rhs),rhsMax =  -1.64214197795332E-11  4.88226050514189E-01
 cg2d: Sum(rhs),rhsMax =  -1.64476210429143E-11  4.86012670965191E-01
 cg2d: Sum(rhs),rhsMax =  -1.64873115160447E-11  4.83114604622677E-01
 cg2d: Sum(rhs),rhsMax =  -1.65265578999652E-11  4.79624049708967E-01
 cg2d: Sum(rhs),rhsMax =  -1.65917835026619E-11  4.75532293189384E-01
 cg2d: Sum(rhs),rhsMax =  -1.66506808341182E-11  4.71546067179816E-01
 cg2d: Sum(rhs),rhsMax =  -1.67297842246228E-11  4.66849586476034E-01
 cg2d: Sum(rhs),rhsMax =  -1.68507430231557E-11  4.61498284732438E-01
 cg2d: Sum(rhs),rhsMax =  -1.69916303249806E-11  4.55556236965997E-01
 cg2d: Sum(rhs),rhsMax =  -1.71222480638278E-11  4.49083689852093E-01
 cg2d: Sum(rhs),rhsMax =  -1.72946656995521E-11  4.42028546951619E-01
 cg2d: Sum(rhs),rhsMax =  -1.74918413087255E-11  4.34344285593808E-01
 cg2d: Sum(rhs),rhsMax =  -1.77012848823210E-11  4.26089952788399E-01
 cg2d: Sum(rhs),rhsMax =  -1.79794512611409E-11  4.17140760237100E-01
 cg2d: Sum(rhs),rhsMax =  -1.83312254264933E-11  4.07696719975520E-01
 cg2d: Sum(rhs),rhsMax =  -1.88208337803530E-11  3.97747305769501E-01
 cg2d: Sum(rhs),rhsMax =  -1.93939309056645E-11  3.87343518900901E-01
 cg2d: Sum(rhs),rhsMax =  -1.99638083842046E-11  3.76610515870491E-01
 cg2d: Sum(rhs),rhsMax =  -2.06026307125740E-11  3.65401460415446E-01
 cg2d: Sum(rhs),rhsMax =  -2.12799777798978E-11  3.53813891018377E-01
 cg2d: Sum(rhs),rhsMax =  -2.19866347350717E-11  3.41993788434205E-01
 cg2d: Sum(rhs),rhsMax =  -2.26637597577906E-11  3.31432276257710E-01
 cg2d: Sum(rhs),rhsMax =  -2.27781127293269E-11  3.28959584622261E-01
 cg2d: Sum(rhs),rhsMax =  -2.25985896662451E-11  3.31165243924534E-01
 cg2d: Sum(rhs),rhsMax =  -2.16563433852457E-11  3.45019979713534E-01
 cg2d: Sum(rhs),rhsMax =  -2.06692440940515E-11  3.60859739087665E-01
 cg2d: Sum(rhs),rhsMax =  -2.00000016548074E-11  3.72170861424830E-01
 cg2d: Sum(rhs),rhsMax =  -1.92659221909253E-11  3.85340895497509E-01
 cg2d: Sum(rhs),rhsMax =  -1.87453386146785E-11  3.94930399636876E-01
 cg2d: Sum(rhs),rhsMax =  -1.82639459112011E-11  4.04508529304568E-01
 cg2d: Sum(rhs),rhsMax =  -1.78129733185983E-11  4.13552371590863E-01
 cg2d: Sum(rhs),rhsMax =  -1.74198433455786E-11  4.21747069299217E-01
 cg2d: Sum(rhs),rhsMax =  -1.70762293194571E-11  4.29274599502032E-01
 cg2d: Sum(rhs),rhsMax =  -1.67874603107521E-11  4.36031584664684E-01
 cg2d: Sum(rhs),rhsMax =  -1.65467639590133E-11  4.42000693958161E-01
 cg2d: Sum(rhs),rhsMax =  -1.64023239435096E-11  4.47276425799695E-01
 cg2d: Sum(rhs),rhsMax =  -1.61618496363758E-11  4.51757955023483E-01
 cg2d: Sum(rhs),rhsMax =  -1.59335877825129E-11  4.55536917597963E-01
 cg2d: Sum(rhs),rhsMax =  -1.56996637912243E-11  4.58563459790372E-01
 cg2d: Sum(rhs),rhsMax =  -1.55270241108951E-11  4.60901196954719E-01
 cg2d: Sum(rhs),rhsMax =  -1.53689283521885E-11  4.62497195284926E-01
 cg2d: Sum(rhs),rhsMax =  -1.52368118122581E-11  4.63338477422884E-01
 cg2d: Sum(rhs),rhsMax =  -1.50865986370263E-11  4.63479551711789E-01
 cg2d: Sum(rhs),rhsMax =  -1.49905643453963E-11  4.62998887796909E-01
 cg2d: Sum(rhs),rhsMax =  -1.49550372086082E-11  4.61883709452007E-01
 cg2d: Sum(rhs),rhsMax =  -1.48587808723732E-11  4.60142741795004E-01
 cg2d: Sum(rhs),rhsMax =  -1.48281387168936E-11  4.57815002282791E-01
 cg2d: Sum(rhs),rhsMax =  -1.47958312268770E-11  4.54916620526825E-01
 cg2d: Sum(rhs),rhsMax =  -1.48311363190601E-11  4.51326396231155E-01
 cg2d: Sum(rhs),rhsMax =  -1.48230316909803E-11  4.47323357274759E-01
 cg2d: Sum(rhs),rhsMax =  -1.48429046831211E-11  4.42876260842532E-01
 cg2d: Sum(rhs),rhsMax =  -1.48729917270884E-11  4.37913651711977E-01
 cg2d: Sum(rhs),rhsMax =  -1.49718015762801E-11  4.32418435125782E-01
 cg2d: Sum(rhs),rhsMax =  -1.51217927069069E-11  4.24618426897726E-01
 cg2d: Sum(rhs),rhsMax =  -1.52443613288256E-11  4.18263550645310E-01
 cg2d: Sum(rhs),rhsMax =  -1.53664858615343E-11  4.11704907733445E-01
 cg2d: Sum(rhs),rhsMax =  -1.54719570488737E-11  4.04682525878270E-01
 cg2d: Sum(rhs),rhsMax =  -1.56455959299251E-11  3.97265707762055E-01
 cg2d: Sum(rhs),rhsMax =  -1.58082436030327E-11  3.89402306676026E-01
 cg2d: Sum(rhs),rhsMax =  -1.60466084864197E-11  3.81114520710194E-01
 cg2d: Sum(rhs),rhsMax =  -1.62765356748196E-11  3.72384864976787E-01
 cg2d: Sum(rhs),rhsMax =  -1.65535363194635E-11  3.63399599813263E-01
 cg2d: Sum(rhs),rhsMax =  -1.68550728929517E-11  3.54137391901599E-01
 cg2d: Sum(rhs),rhsMax =  -1.71525016412488E-11  3.45369954086801E-01
 cg2d: Sum(rhs),rhsMax =  -1.70382596920149E-11  3.45385507689710E-01
 cg2d: Sum(rhs),rhsMax =  -1.69029235053131E-11  3.44893952055919E-01
 cg2d: Sum(rhs),rhsMax =  -1.68188796223490E-11  3.43870662789448E-01
 cg2d: Sum(rhs),rhsMax =  -1.67830194186536E-11  3.42326350749333E-01
 cg2d: Sum(rhs),rhsMax =  -1.67457159250262E-11  3.40229784519065E-01
 cg2d: Sum(rhs),rhsMax =  -1.67439395681868E-11  3.37592221775802E-01
 cg2d: Sum(rhs),rhsMax =  -1.68067781913805E-11  3.34397927152366E-01
 cg2d: Sum(rhs),rhsMax =  -1.68702829483891E-11  3.30831020213149E-01
 cg2d: Sum(rhs),rhsMax =  -1.66814340119004E-11  3.32603254799932E-01
 cg2d: Sum(rhs),rhsMax =  -1.65114588668303E-11  3.34314112478296E-01
 cg2d: Sum(rhs),rhsMax =  -1.63450364354389E-11  3.35963355823342E-01
 cg2d: Sum(rhs),rhsMax =  -1.61598512349315E-11  3.38173559859810E-01
 cg2d: Sum(rhs),rhsMax =  -1.56872292933485E-11  3.46809279701914E-01
 cg2d: Sum(rhs),rhsMax =  -1.52333701208818E-11  3.54874050654186E-01
 cg2d: Sum(rhs),rhsMax =  -1.48613343853299E-11  3.62303332765727E-01
 cg2d: Sum(rhs),rhsMax =  -1.45059519951474E-11  3.69112048878935E-01
 cg2d: Sum(rhs),rhsMax =  -1.42402756253546E-11  3.75320412095815E-01
 cg2d: Sum(rhs),rhsMax =  -1.39874778426474E-11  3.80942365545360E-01
 cg2d: Sum(rhs),rhsMax =  -1.37944100586651E-11  3.85928919512626E-01
 cg2d: Sum(rhs),rhsMax =  -1.36124445049290E-11  3.90311866726682E-01
 cg2d: Sum(rhs),rhsMax =  -1.34842137455848E-11  3.93960173033857E-01
 cg2d: Sum(rhs),rhsMax =  -1.33766331344987E-11  3.96974361274655E-01
 cg2d: Sum(rhs),rhsMax =  -1.33161259796566E-11  3.99488816703842E-01
 cg2d: Sum(rhs),rhsMax =  -1.32196475988167E-11  4.01480406726223E-01
 cg2d: Sum(rhs),rhsMax =  -1.31618049792337E-11  4.02875522467317E-01
 cg2d: Sum(rhs),rhsMax =  -1.31129551661502E-11  4.03741705544688E-01
 cg2d: Sum(rhs),rhsMax =  -1.31030741812310E-11  4.04133190274131E-01
 cg2d: Sum(rhs),rhsMax =  -1.30262467479270E-11  4.04035636090856E-01
 cg2d: Sum(rhs),rhsMax =  -1.30405686249446E-11  4.03511885071510E-01
 cg2d: Sum(rhs),rhsMax =  -1.29921629010710E-11  4.02574159032922E-01
 cg2d: Sum(rhs),rhsMax =  -1.30260247033220E-11  4.01081919015750E-01
 cg2d: Sum(rhs),rhsMax =  -1.30330191083772E-11  3.99251315168654E-01
 cg2d: Sum(rhs),rhsMax =  -1.30245814133900E-11  3.96947616358024E-01
 cg2d: Sum(rhs),rhsMax =  -1.30687682897701E-11  3.94354001124368E-01
 cg2d: Sum(rhs),rhsMax =  -1.31074040510271E-11  3.91442842817365E-01
 cg2d: Sum(rhs),rhsMax =  -1.31497035482653E-11  3.88228067555836E-01
 cg2d: Sum(rhs),rhsMax =  -1.32345245873466E-11  3.84711866140351E-01
 cg2d: Sum(rhs),rhsMax =  -1.33378863509392E-11  3.80896348108045E-01
 cg2d: Sum(rhs),rhsMax =  -1.34112720928670E-11  3.76777815324485E-01
 cg2d: Sum(rhs),rhsMax =  -1.35164102132990E-11  3.72389428874088E-01
 cg2d: Sum(rhs),rhsMax =  -1.35945699142326E-11  3.67816684189557E-01
 cg2d: Sum(rhs),rhsMax =  -1.37266864541630E-11  3.62882483603941E-01
 cg2d: Sum(rhs),rhsMax =  -1.38582478825811E-11  3.57685398748117E-01
 cg2d: Sum(rhs),rhsMax =  -1.38143940731084E-11  3.57221548080063E-01
 cg2d: Sum(rhs),rhsMax =  -1.37378997067117E-11  3.56961515201470E-01
 cg2d: Sum(rhs),rhsMax =  -1.36529676453279E-11  3.56657677683599E-01
 cg2d: Sum(rhs),rhsMax =  -1.35754740782090E-11  3.56310991401038E-01
 cg2d: Sum(rhs),rhsMax =  -1.35256250644034E-11  3.55922385877429E-01
 cg2d: Sum(rhs),rhsMax =  -1.35444988558220E-11  3.55492756180633E-01
 cg2d: Sum(rhs),rhsMax =  -1.35460531680565E-11  3.55022954914885E-01
 cg2d: Sum(rhs),rhsMax =  -1.35229605291443E-11  3.54513784499727E-01
 cg2d: Sum(rhs),rhsMax =  -1.35451649896368E-11  3.53965989977086E-01
 cg2d: Sum(rhs),rhsMax =  -1.35540467738338E-11  3.53380252635188E-01
 cg2d: Sum(rhs),rhsMax =  -1.35739197659746E-11  3.52757184773380E-01
 cg2d: Sum(rhs),rhsMax =  -1.35672584278268E-11  3.52097325947623E-01
 cg2d: Sum(rhs),rhsMax =  -1.35893518660168E-11  3.51401141025556E-01
 cg2d: Sum(rhs),rhsMax =  -1.35986777394237E-11  3.50885462092300E-01
 cg2d: Sum(rhs),rhsMax =  -1.36216593560334E-11  3.50588548350272E-01
 cg2d: Sum(rhs),rhsMax =  -1.35930156019981E-11  3.50252822357950E-01
 cg2d: Sum(rhs),rhsMax =  -1.36395339467299E-11  3.49877876999688E-01
 cg2d: Sum(rhs),rhsMax =  -1.36149980178857E-11  3.49463240121978E-01
 cg2d: Sum(rhs),rhsMax =  -1.36460842625752E-11  3.49008378621905E-01
 cg2d: Sum(rhs),rhsMax =  -1.36731737043760E-11  3.48512706850273E-01
 cg2d: Sum(rhs),rhsMax =  -1.36896050051405E-11  3.47975598787769E-01
 cg2d: Sum(rhs),rhsMax =  -1.37055922166951E-11  3.47396403210182E-01
 cg2d: Sum(rhs),rhsMax =  -1.37535538513589E-11  3.46774460903846E-01
 cg2d: Sum(rhs),rhsMax =  -1.35444988558220E-11  3.52173177098717E-01
 cg2d: Sum(rhs),rhsMax =  -1.33180133587985E-11  3.58002801136656E-01
 cg2d: Sum(rhs),rhsMax =  -1.31297195338220E-11  3.63367977651672E-01
 cg2d: Sum(rhs),rhsMax =  -1.29808386262198E-11  3.68283891167223E-01
 cg2d: Sum(rhs),rhsMax =  -1.28296262502658E-11  3.72804757538616E-01
 cg2d: Sum(rhs),rhsMax =  -1.27008403794093E-11  3.76880554753617E-01
 cg2d: Sum(rhs),rhsMax =  -1.25598420552819E-11  3.80558900898672E-01
 cg2d: Sum(rhs),rhsMax =  -1.24508181542637E-11  3.83646264574820E-01
 cg2d: Sum(rhs),rhsMax =  -1.23652199590651E-11  3.86357995553830E-01
 cg2d: Sum(rhs),rhsMax =  -1.22742926933483E-11  3.88780534136673E-01
 cg2d: Sum(rhs),rhsMax =  -1.22276633263141E-11  3.90924763637336E-01
 cg2d: Sum(rhs),rhsMax =  -1.21440635325598E-11  3.92728675056412E-01
 cg2d: Sum(rhs),rhsMax =  -1.21411769526958E-11  3.94293109746531E-01
 cg2d: Sum(rhs),rhsMax =  -1.20816689985759E-11  3.95590620291459E-01
 cg2d: Sum(rhs),rhsMax =  -1.20812249093660E-11  3.96345606722642E-01
 cg2d: Sum(rhs),rhsMax =  -1.20581322704538E-11  3.96859362169781E-01
 cg2d: Sum(rhs),rhsMax =  -1.20577992035464E-11  3.97307621824951E-01
 cg2d: Sum(rhs),rhsMax =  -1.20485843524420E-11  3.97504233237122E-01
 cg2d: Sum(rhs),rhsMax =  -1.20677912107681E-11  3.97396953823247E-01
 cg2d: Sum(rhs),rhsMax =  -1.20484733301396E-11  3.97078510775779E-01
 cg2d: Sum(rhs),rhsMax =  -1.20582432927563E-11  3.96567296987633E-01
 cg2d: Sum(rhs),rhsMax =  -1.20269350034619E-11  3.95963823927640E-01
 cg2d: Sum(rhs),rhsMax =  -1.19897425321369E-11  3.95156025321755E-01
 cg2d: Sum(rhs),rhsMax =  -1.19573240198179E-11  3.94241849625769E-01
 cg2d: Sum(rhs),rhsMax =  -1.20179421969624E-11  3.93225712686313E-01
 cg2d: Sum(rhs),rhsMax =  -1.21255228080486E-11  3.91884117961572E-01
 cg2d: Sum(rhs),rhsMax =  -1.22858390128044E-11  3.90385760298816E-01
 cg2d: Sum(rhs),rhsMax =  -1.23911991778414E-11  3.88605709198347E-01
 cg2d: Sum(rhs),rhsMax =  -1.25373045278820E-11  3.86745004213506E-01
 cg2d: Sum(rhs),rhsMax =  -1.26637589303868E-11  3.84806941187396E-01
 cg2d: Sum(rhs),rhsMax =  -1.28022037415576E-11  3.82711250597258E-01
 cg2d: Sum(rhs),rhsMax =  -1.29521948721845E-11  3.80534237514396E-01
 cg2d: Sum(rhs),rhsMax =  -1.30978561330153E-11  3.78318176271005E-01
 cg2d: Sum(rhs),rhsMax =  -1.32532873564628E-11  3.76037042774228E-01
 cg2d: Sum(rhs),rhsMax =  -1.34187105871320E-11  3.73723186557856E-01
 cg2d: Sum(rhs),rhsMax =  -1.35794708810977E-11  3.71434266975999E-01
 cg2d: Sum(rhs),rhsMax =  -1.37193589822004E-11  3.68938039051744E-01
 cg2d: Sum(rhs),rhsMax =  -1.38842271013573E-11  3.66768544947395E-01
 cg2d: Sum(rhs),rhsMax =  -1.40475409082796E-11  3.64498797523783E-01
 cg2d: Sum(rhs),rhsMax =  -1.41845424295184E-11  3.61957862015322E-01
 cg2d: Sum(rhs),rhsMax =  -1.43809408825746E-11  3.59594724888026E-01
 cg2d: Sum(rhs),rhsMax =  -1.45413681096329E-11  3.57174855256993E-01
 cg2d: Sum(rhs),rhsMax =  -1.47080125856291E-11  3.54749149269508E-01
 cg2d: Sum(rhs),rhsMax =  -1.48817624889830E-11  3.52393448119098E-01
 cg2d: Sum(rhs),rhsMax =  -1.50717216484964E-11  3.49893050967113E-01
 cg2d: Sum(rhs),rhsMax =  -1.52478030202019E-11  3.47498883028279E-01
 cg2d: Sum(rhs),rhsMax =  -1.54103396710070E-11  3.44910504792464E-01
 cg2d: Sum(rhs),rhsMax =  -1.56059609679460E-11  3.42269577976732E-01
 cg2d: Sum(rhs),rhsMax =  -1.57949209267372E-11  3.39668609379307E-01
 cg2d: Sum(rhs),rhsMax =  -1.58444368736355E-11  3.40512416733867E-01
 cg2d: Sum(rhs),rhsMax =  -1.55533363965787E-11  3.48061717696513E-01
 cg2d: Sum(rhs),rhsMax =  -1.53370649513818E-11  3.55249990150861E-01
 cg2d: Sum(rhs),rhsMax =  -1.51025858485809E-11  3.62059447478833E-01
 cg2d: Sum(rhs),rhsMax =  -1.49052992171050E-11  3.68581269280450E-01
 cg2d: Sum(rhs),rhsMax =  -1.47077905410242E-11  3.74715836442599E-01
 cg2d: Sum(rhs),rhsMax =  -1.45696787967609E-11  3.80418137493852E-01
 cg2d: Sum(rhs),rhsMax =  -1.44301237625655E-11  3.85861140256229E-01
 cg2d: Sum(rhs),rhsMax =  -1.42785783197041E-11  3.90998140200813E-01
 cg2d: Sum(rhs),rhsMax =  -1.41753275784140E-11  3.95843463923821E-01
 cg2d: Sum(rhs),rhsMax =  -1.40613076737850E-11  4.00298172960782E-01
 cg2d: Sum(rhs),rhsMax =  -1.39951383815173E-11  4.04559903145289E-01
 cg2d: Sum(rhs),rhsMax =  -1.39055433834301E-11  4.08394630142870E-01
 cg2d: Sum(rhs),rhsMax =  -1.38400402249772E-11  4.11969417863419E-01
 cg2d: Sum(rhs),rhsMax =  -1.37859723636780E-11  4.15349326143675E-01
 cg2d: Sum(rhs),rhsMax =  -1.37122535548428E-11  4.18519558264911E-01
 cg2d: Sum(rhs),rhsMax =  -1.36683997453702E-11  4.21364876750176E-01
 cg2d: Sum(rhs),rhsMax =  -1.36205491330088E-11  4.23951317897851E-01
 cg2d: Sum(rhs),rhsMax =  -1.35644828702652E-11  4.26390282219910E-01
 cg2d: Sum(rhs),rhsMax =  -1.35541022849850E-11  4.28331421695573E-01
 cg2d: Sum(rhs),rhsMax =  -1.35244593302275E-11  4.30163037466384E-01
 cg2d: Sum(rhs),rhsMax =  -1.35546018853461E-11  4.31803137396294E-01
 cg2d: Sum(rhs),rhsMax =  -1.35660371824997E-11  4.33215710328374E-01
 cg2d: Sum(rhs),rhsMax =  -1.35943478696277E-11  4.34444973202467E-01
 cg2d: Sum(rhs),rhsMax =  -1.36179956200522E-11  4.35479068366043E-01
 cg2d: Sum(rhs),rhsMax =  -1.36594624500219E-11  4.36392583099008E-01
 cg2d: Sum(rhs),rhsMax =  -1.36928246519119E-11  4.37055103455378E-01
 cg2d: Sum(rhs),rhsMax =  -1.37340139261255E-11  4.37468318052299E-01
 cg2d: Sum(rhs),rhsMax =  -1.37848066295021E-11  4.37726295156356E-01
 cg2d: Sum(rhs),rhsMax =  -1.38253852810521E-11  4.37707738654742E-01
 cg2d: Sum(rhs),rhsMax =  -1.38764555401849E-11  4.37737202365336E-01
 cg2d: Sum(rhs),rhsMax =  -1.39231404183704E-11  4.37321245076734E-01
 cg2d: Sum(rhs),rhsMax =  -1.39987466063474E-11  4.36723146546061E-01
 cg2d: Sum(rhs),rhsMax =  -1.41200939829389E-11  4.35983739165211E-01
 cg2d: Sum(rhs),rhsMax =  -1.42248990364635E-11  4.35078841576475E-01
 cg2d: Sum(rhs),rhsMax =  -1.43439704558546E-11  4.33873887845852E-01
 cg2d: Sum(rhs),rhsMax =  -1.44619871633722E-11  4.32436985851133E-01
 cg2d: Sum(rhs),rhsMax =  -1.46017642421725E-11  4.30861161308227E-01
 cg2d: Sum(rhs),rhsMax =  -1.47354906054886E-11  4.29177762356820E-01
 cg2d: Sum(rhs),rhsMax =  -1.48823176004953E-11  4.27122241960488E-01
 cg2d: Sum(rhs),rhsMax =  -1.50661150222220E-11  4.25012678367865E-01
 cg2d: Sum(rhs),rhsMax =  -1.52289292287833E-11  4.22792820385173E-01
 cg2d: Sum(rhs),rhsMax =  -1.53957402382332E-11  4.20367412635223E-01
 cg2d: Sum(rhs),rhsMax =  -1.55609414242974E-11  4.17823739466776E-01
 cg2d: Sum(rhs),rhsMax =  -1.57680535295412E-11  4.15094499334550E-01
 cg2d: Sum(rhs),rhsMax =  -1.59696700308132E-11  4.12126781223060E-01
 cg2d: Sum(rhs),rhsMax =  -1.61844426749269E-11  4.09043268246586E-01
 cg2d: Sum(rhs),rhsMax =  -1.64082636366913E-11  4.05587963189288E-01
 cg2d: Sum(rhs),rhsMax =  -1.66712754712250E-11  4.01689600963946E-01
 cg2d: Sum(rhs),rhsMax =  -1.69892433454777E-11  3.97016815872101E-01
 cg2d: Sum(rhs),rhsMax =  -1.72781788876364E-11  3.92250676831219E-01
 cg2d: Sum(rhs),rhsMax =  -1.75905401356147E-11  3.87630470157406E-01
 cg2d: Sum(rhs),rhsMax =  -1.77480252716578E-11  3.86130403934907E-01
 cg2d: Sum(rhs),rhsMax =  -1.75388037426671E-11  3.93553685867561E-01
 cg2d: Sum(rhs),rhsMax =  -1.73246417212169E-11  4.00437044959336E-01
 cg2d: Sum(rhs),rhsMax =  -1.71410108329439E-11  4.06952107217964E-01
 cg2d: Sum(rhs),rhsMax =  -1.69775304925679E-11  4.13144055882919E-01
 cg2d: Sum(rhs),rhsMax =  -1.68318137205858E-11  4.18804191697696E-01
 cg2d: Sum(rhs),rhsMax =  -1.67129643457997E-11  4.24078282273113E-01
 cg2d: Sum(rhs),rhsMax =  -1.65695235310181E-11  4.29751163196810E-01
 cg2d: Sum(rhs),rhsMax =  -1.64743774178078E-11  4.33962879733352E-01
 cg2d: Sum(rhs),rhsMax =  -1.64077640363303E-11  4.37924871231057E-01
 cg2d: Sum(rhs),rhsMax =  -1.63162816591012E-11  4.41461259432336E-01
 cg2d: Sum(rhs),rhsMax =  -1.61459179359724E-11  4.44568109879848E-01
 cg2d: Sum(rhs),rhsMax =  -1.59987023629071E-11  4.47266061205963E-01
 cg2d: Sum(rhs),rhsMax =  -1.59086910311856E-11  4.49574799520270E-01
 cg2d: Sum(rhs),rhsMax =  -1.58369706237949E-11  4.51337322894744E-01
 cg2d: Sum(rhs),rhsMax =  -1.57929502808685E-11  4.52702351312766E-01
 cg2d: Sum(rhs),rhsMax =  -1.57805157829927E-11  4.53727308496048E-01
 cg2d: Sum(rhs),rhsMax =  -1.57840129855202E-11  4.54431954176851E-01
 cg2d: Sum(rhs),rhsMax =  -1.57882040774382E-11  4.55056677665212E-01
 cg2d: Sum(rhs),rhsMax =  -1.58131008287654E-11  4.55240529702784E-01
 cg2d: Sum(rhs),rhsMax =  -1.58517365900224E-11  4.55026006128392E-01
 cg2d: Sum(rhs),rhsMax =  -1.58931201532653E-11  4.54529157286271E-01
 cg2d: Sum(rhs),rhsMax =  -1.59500468388529E-11  4.53730377063572E-01
 cg2d: Sum(rhs),rhsMax =  -1.60201019117068E-11  4.52680024154609E-01
 cg2d: Sum(rhs),rhsMax =  -1.61091140427061E-11  4.51126442808204E-01
 cg2d: Sum(rhs),rhsMax =  -1.62014845983549E-11  4.49296202675548E-01
 cg2d: Sum(rhs),rhsMax =  -1.63181135270918E-11  4.47066242382450E-01
 cg2d: Sum(rhs),rhsMax =  -1.64372959687853E-11  4.44701117797559E-01
 cg2d: Sum(rhs),rhsMax =  -1.65721325551260E-11  4.41909658557041E-01
 cg2d: Sum(rhs),rhsMax =  -1.67252323102218E-11  4.38850889522239E-01
 cg2d: Sum(rhs),rhsMax =  -1.69152469808864E-11  4.34251626519779E-01
 cg2d: Sum(rhs),rhsMax =  -1.71298530915465E-11  4.29623787172040E-01
 cg2d: Sum(rhs),rhsMax =  -1.73405179104691E-11  4.25400938990211E-01
 cg2d: Sum(rhs),rhsMax =  -1.75306713590118E-11  4.21547355301893E-01
 cg2d: Sum(rhs),rhsMax =  -1.76857140044007E-11  4.18323871329594E-01
 cg2d: Sum(rhs),rhsMax =  -1.79275205791640E-11  4.13456971324503E-01
 cg2d: Sum(rhs),rhsMax =  -1.81746284688700E-11  4.08655832732346E-01
 cg2d: Sum(rhs),rhsMax =  -1.84182669116240E-11  4.03890417678143E-01
 cg2d: Sum(rhs),rhsMax =  -1.86650139788469E-11  3.98828639109780E-01
 cg2d: Sum(rhs),rhsMax =  -1.89356030855237E-11  3.93596402649366E-01
 cg2d: Sum(rhs),rhsMax =  -1.91968108076424E-11  3.89020534582101E-01
 cg2d: Sum(rhs),rhsMax =  -1.94945726228468E-11  3.83693215738629E-01
 cg2d: Sum(rhs),rhsMax =  -1.97935001722271E-11  3.78280585290682E-01
 cg2d: Sum(rhs),rhsMax =  -2.01327565729770E-11  3.72304050696665E-01
 cg2d: Sum(rhs),rhsMax =  -2.04616323884466E-11  3.66891912937966E-01
 cg2d: Sum(rhs),rhsMax =  -2.07831252208024E-11  3.61570129426891E-01
 cg2d: Sum(rhs),rhsMax =  -2.07100725457821E-11  3.62803439555890E-01
 cg2d: Sum(rhs),rhsMax =  -2.02062810927828E-11  3.69658174062667E-01
 cg2d: Sum(rhs),rhsMax =  -1.98436544973646E-11  3.76113283969240E-01
 cg2d: Sum(rhs),rhsMax =  -1.95493898846877E-11  3.81965769596658E-01
 cg2d: Sum(rhs),rhsMax =  -1.92806326460015E-11  3.87457308176888E-01
 cg2d: Sum(rhs),rhsMax =  -1.90307769543097E-11  3.92489677760583E-01
 cg2d: Sum(rhs),rhsMax =  -1.88340454343461E-11  3.97012180607369E-01
 cg2d: Sum(rhs),rhsMax =  -1.86473059216041E-11  4.01143167547709E-01
 cg2d: Sum(rhs),rhsMax =  -1.84999793262364E-11  4.04989420196969E-01
 cg2d: Sum(rhs),rhsMax =  -1.83627557603927E-11  4.08408106019739E-01
 cg2d: Sum(rhs),rhsMax =  -1.82409920501669E-11  4.11472054891843E-01
 cg2d: Sum(rhs),rhsMax =  -1.81211434746587E-11  4.14151704716664E-01
 cg2d: Sum(rhs),rhsMax =  -1.80181702891247E-11  4.16445419618464E-01
 cg2d: Sum(rhs),rhsMax =  -1.79182779724840E-11  4.18967641560079E-01
 cg2d: Sum(rhs),rhsMax =  -1.78454195864930E-11  4.20692738368220E-01
 cg2d: Sum(rhs),rhsMax =  -1.77959869063216E-11  4.21904291741324E-01
 cg2d: Sum(rhs),rhsMax =  -1.77468317819063E-11  4.22725244427920E-01
 cg2d: Sum(rhs),rhsMax =  -1.77284853464243E-11  4.23170606661559E-01
 cg2d: Sum(rhs),rhsMax =  -1.76158809761517E-11  4.25321928552565E-01
 cg2d: Sum(rhs),rhsMax =  -1.76350045677509E-11  4.24098998320902E-01
 cg2d: Sum(rhs),rhsMax =  -1.76867964718497E-11  4.22681541141647E-01
 cg2d: Sum(rhs),rhsMax =  -1.77403369772122E-11  4.21358030913951E-01
 cg2d: Sum(rhs),rhsMax =  -1.77905468135009E-11  4.19669185756399E-01
 cg2d: Sum(rhs),rhsMax =  -1.78362880021155E-11  4.17631200999247E-01
 cg2d: Sum(rhs),rhsMax =  -1.78931869321275E-11  4.15420427766194E-01
 cg2d: Sum(rhs),rhsMax =  -1.79724568560857E-11  4.12998041775112E-01
 cg2d: Sum(rhs),rhsMax =  -1.80451764641987E-11  4.10368715827428E-01
 cg2d: Sum(rhs),rhsMax =  -1.81301085255825E-11  4.07571690806242E-01
 cg2d: Sum(rhs),rhsMax =  -1.82218962141434E-11  4.04710590036172E-01
 cg2d: Sum(rhs),rhsMax =  -1.83200399295202E-11  4.01682401680297E-01
 cg2d: Sum(rhs),rhsMax =  -1.84400272829066E-11  3.98341601313482E-01
 cg2d: Sum(rhs),rhsMax =  -1.85626514159765E-11  3.94861764564954E-01
 cg2d: Sum(rhs),rhsMax =  -1.86926030210088E-11  3.91286200841790E-01
 cg2d: Sum(rhs),rhsMax =  -1.88109527954339E-11  3.87528184016665E-01
 cg2d: Sum(rhs),rhsMax =  -1.89558924112987E-11  3.83562432379887E-01
 cg2d: Sum(rhs),rhsMax =  -1.91218707534802E-11  3.79401762055369E-01
 cg2d: Sum(rhs),rhsMax =  -1.92683091704282E-11  3.75032933919701E-01
 cg2d: Sum(rhs),rhsMax =  -1.94358418248441E-11  3.70590167912860E-01
 cg2d: Sum(rhs),rhsMax =  -1.96371807703599E-11  3.66099603874970E-01
 cg2d: Sum(rhs),rhsMax =  -1.99361638308915E-11  3.60232324411734E-01
 cg2d: Sum(rhs),rhsMax =  -2.01722527570780E-11  3.55448550201094E-01
 cg2d: Sum(rhs),rhsMax =  -2.04024575012340E-11  3.50933003447103E-01
 cg2d: Sum(rhs),rhsMax =  -2.06247796619152E-11  3.46510046723218E-01
 cg2d: Sum(rhs),rhsMax =  -2.08021377900991E-11  3.41995863098338E-01
 cg2d: Sum(rhs),rhsMax =  -2.09816053420298E-11  3.37460858873323E-01
 cg2d: Sum(rhs),rhsMax =  -2.11563544461058E-11  3.32927759065187E-01
 cg2d: Sum(rhs),rhsMax =  -2.13270512361419E-11  3.28553666739262E-01
 cg2d: Sum(rhs),rhsMax =  -2.14929185560209E-11  3.24280876337133E-01
 cg2d: Sum(rhs),rhsMax =  -2.16485718240733E-11  3.20011976560457E-01
 cg2d: Sum(rhs),rhsMax =  -2.18555173958634E-11  3.15675652840076E-01
 cg2d: Sum(rhs),rhsMax =  -2.20608531442679E-11  3.11427498520657E-01
 cg2d: Sum(rhs),rhsMax =  -2.22391549620227E-11  3.07277378709575E-01
 cg2d: Sum(rhs),rhsMax =  -2.18460249890029E-11  3.11571836788382E-01
 cg2d: Sum(rhs),rhsMax =  -2.13726814024540E-11  3.17018875897537E-01
 cg2d: Sum(rhs),rhsMax =  -2.09314232613167E-11  3.22151753693474E-01
 cg2d: Sum(rhs),rhsMax =  -2.06012429337932E-11  3.26897217556893E-01
 cg2d: Sum(rhs),rhsMax =  -2.02836081264479E-11  3.31271815378692E-01
 cg2d: Sum(rhs),rhsMax =  -2.00165439778743E-11  3.35356892061323E-01
 cg2d: Sum(rhs),rhsMax =  -1.97650229516455E-11  3.39072083264652E-01
 cg2d: Sum(rhs),rhsMax =  -1.95480853726338E-11  3.42433282097941E-01
 cg2d: Sum(rhs),rhsMax =  -1.93435822914978E-11  3.45413071005295E-01
 cg2d: Sum(rhs),rhsMax =  -1.91782145719799E-11  3.48062650755176E-01
 cg2d: Sum(rhs),rhsMax =  -1.90237270381033E-11  3.50446961379575E-01
 cg2d: Sum(rhs),rhsMax =  -1.88795645783557E-11  3.52467467101966E-01
 cg2d: Sum(rhs),rhsMax =  -1.87448945254687E-11  3.54209021737099E-01
 cg2d: Sum(rhs),rhsMax =  -1.85633730609425E-11  3.55654990643881E-01
 cg2d: Sum(rhs),rhsMax =  -1.84048887241772E-11  3.56843394616929E-01
 cg2d: Sum(rhs),rhsMax =  -1.83675297193986E-11  3.57763342333937E-01
 cg2d: Sum(rhs),rhsMax =  -1.84132153968619E-11  3.58345116994548E-01
 cg2d: Sum(rhs),rhsMax =  -1.83706938550188E-11  3.58791117078893E-01
 cg2d: Sum(rhs),rhsMax =  -1.83557613553376E-11  3.58884730455840E-01
 cg2d: Sum(rhs),rhsMax =  -1.83633663830562E-11  3.58726507925086E-01
 cg2d: Sum(rhs),rhsMax =  -1.83684734089695E-11  3.58360639837971E-01
 cg2d: Sum(rhs),rhsMax =  -1.84544601822267E-11  3.57743515473674E-01
 cg2d: Sum(rhs),rhsMax =  -1.85554349663164E-11  3.56867145130321E-01
 cg2d: Sum(rhs),rhsMax =  -1.86725634954144E-11  3.55832716880943E-01
 cg2d: Sum(rhs),rhsMax =  -1.86267667956486E-11  3.54626627943914E-01
 cg2d: Sum(rhs),rhsMax =  -1.86546333935667E-11  3.53228850347375E-01
 cg2d: Sum(rhs),rhsMax =  -1.87007076490886E-11  3.51652839646714E-01
 cg2d: Sum(rhs),rhsMax =  -1.87460047484933E-11  3.49958168839334E-01
 cg2d: Sum(rhs),rhsMax =  -1.87984072752556E-11  3.48153342149993E-01
 cg2d: Sum(rhs),rhsMax =  -1.88663529243627E-11  3.46225560529237E-01
 cg2d: Sum(rhs),rhsMax =  -1.89739335354489E-11  3.44191058368228E-01
 cg2d: Sum(rhs),rhsMax =  -1.90440996306052E-11  3.42045922730480E-01
 cg2d: Sum(rhs),rhsMax =  -1.91380244984884E-11  3.39761088568706E-01
 cg2d: Sum(rhs),rhsMax =  -1.92349469685382E-11  3.37497944951569E-01
 cg2d: Sum(rhs),rhsMax =  -1.93254301450452E-11  3.34998421979065E-01
 cg2d: Sum(rhs),rhsMax =  -1.94170235445768E-11  3.32408658628477E-01
 cg2d: Sum(rhs),rhsMax =  -1.95267135794097E-11  3.29715563573138E-01
 cg2d: Sum(rhs),rhsMax =  -1.96619387438091E-11  3.26885266484074E-01
 cg2d: Sum(rhs),rhsMax =  -1.97836191873080E-11  3.23862334409147E-01
 cg2d: Sum(rhs),rhsMax =  -1.99291694258363E-11  3.20807951866844E-01
 cg2d: Sum(rhs),rhsMax =  -2.01243466335654E-11  3.17609782410797E-01
 cg2d: Sum(rhs),rhsMax =  -2.02846628383213E-11  3.14281797968360E-01
 cg2d: Sum(rhs),rhsMax =  -2.04402050840713E-11  3.10804742711182E-01
 cg2d: Sum(rhs),rhsMax =  -2.06504813249353E-11  3.07315302977595E-01
 cg2d: Sum(rhs),rhsMax =  -2.07057704315616E-11  3.05575153323590E-01
 cg2d: Sum(rhs),rhsMax =  -2.07157624387833E-11  3.04370699912454E-01
 cg2d: Sum(rhs),rhsMax =  -2.07770467497426E-11  3.02832618674573E-01
 cg2d: Sum(rhs),rhsMax =  -2.08378869714920E-11  3.00953227063497E-01
 cg2d: Sum(rhs),rhsMax =  -2.09435802034363E-11  2.98741122203005E-01
 cg2d: Sum(rhs),rhsMax =  -2.10725881188978E-11  2.96170972461840E-01
 cg2d: Sum(rhs),rhsMax =  -2.12316830783266E-11  2.93263255330050E-01
 cg2d: Sum(rhs),rhsMax =  -2.14331885572960E-11  2.89968698553783E-01
 cg2d: Sum(rhs),rhsMax =  -2.16116013973533E-11  2.86334354977292E-01
 cg2d: Sum(rhs),rhsMax =  -2.18770557225412E-11  2.82345762754670E-01
 cg2d: Sum(rhs),rhsMax =  -2.21637153074994E-11  2.78005838548049E-01
 cg2d: Sum(rhs),rhsMax =  -2.24859020292456E-11  2.73314818724336E-01
 cg2d: Sum(rhs),rhsMax =  -2.23667750987033E-11  2.74232305383141E-01
 cg2d: Sum(rhs),rhsMax =  -2.18574047750053E-11  2.79821693318690E-01
 cg2d: Sum(rhs),rhsMax =  -2.13887796363110E-11  2.85094994576224E-01
 cg2d: Sum(rhs),rhsMax =  -2.09540162998678E-11  2.90038261983991E-01
 cg2d: Sum(rhs),rhsMax =  -2.05760963822854E-11  2.94620160992176E-01
 cg2d: Sum(rhs),rhsMax =  -2.02222683043374E-11  2.98937675034257E-01
 cg2d: Sum(rhs),rhsMax =  -1.99196215078246E-11  3.02969948319114E-01
 cg2d: Sum(rhs),rhsMax =  -1.96155314213797E-11  3.06627412392977E-01
 cg2d: Sum(rhs),rhsMax =  -1.93587368357839E-11  3.09971994719334E-01
 cg2d: Sum(rhs),rhsMax =  -1.90983895365093E-11  3.13009135899303E-01
 cg2d: Sum(rhs),rhsMax =  -1.88629112329863E-11  3.15726184441848E-01
 cg2d: Sum(rhs),rhsMax =  -1.86994864037615E-11  3.18110076140474E-01
 cg2d: Sum(rhs),rhsMax =  -1.85319537493456E-11  3.20259609405448E-01
 cg2d: Sum(rhs),rhsMax =  -1.83494330840972E-11  3.22092573166389E-01
 cg2d: Sum(rhs),rhsMax =  -1.82053261355009E-11  3.23672366553408E-01
 cg2d: Sum(rhs),rhsMax =  -1.81021864165132E-11  3.24978920052675E-01
 cg2d: Sum(rhs),rhsMax =  -1.79604109362685E-11  3.26003002271412E-01
 cg2d: Sum(rhs),rhsMax =  -1.78811410123103E-11  3.26776358833209E-01
 cg2d: Sum(rhs),rhsMax =  -1.77735604012241E-11  3.27286064327579E-01
 cg2d: Sum(rhs),rhsMax =  -1.77360348629918E-11  3.27532401433935E-01
 cg2d: Sum(rhs),rhsMax =  -1.76670900131626E-11  3.27527822466478E-01
 cg2d: Sum(rhs),rhsMax =  -1.76124670403510E-11  3.27353961317639E-01
 cg2d: Sum(rhs),rhsMax =  -1.76016978770122E-11  3.26930308366444E-01
 cg2d: Sum(rhs),rhsMax =  -1.75732761675818E-11  3.26270591121054E-01
 cg2d: Sum(rhs),rhsMax =  -1.75622849596380E-11  3.25392986179024E-01
 cg2d: Sum(rhs),rhsMax =  -1.75786052381000E-11  3.24286849509039E-01
 cg2d: Sum(rhs),rhsMax =  -1.76076930813451E-11  3.22984401394308E-01
 cg2d: Sum(rhs),rhsMax =  -1.75589542905641E-11  3.21508591060452E-01
 cg2d: Sum(rhs),rhsMax =  -1.75360836962568E-11  3.19862563415304E-01
 cg2d: Sum(rhs),rhsMax =  -1.75087722098510E-11  3.18063808275408E-01
 cg2d: Sum(rhs),rhsMax =  -1.74207315239983E-11  3.17464408384789E-01
 cg2d: Sum(rhs),rhsMax =  -1.72345471227686E-11  3.19132583827333E-01
 cg2d: Sum(rhs),rhsMax =  -1.70863323489812E-11  3.20768503362327E-01
 cg2d: Sum(rhs),rhsMax =  -1.68763891750245E-11  3.22372452976358E-01
 cg2d: Sum(rhs),rhsMax =  -1.66839875248570E-11  3.23944804068945E-01
 cg2d: Sum(rhs),rhsMax =  -1.65520930295315E-11  3.25485992507935E-01
 cg2d: Sum(rhs),rhsMax =  -1.63613567139009E-11  3.26996495663727E-01
 cg2d: Sum(rhs),rhsMax =  -1.62406754711242E-11  3.28476806560463E-01
 cg2d: Sum(rhs),rhsMax =  -1.60351731892661E-11  3.29927404514622E-01
 cg2d: Sum(rhs),rhsMax =  -1.58851820586392E-11  3.31348722076764E-01
 cg2d: Sum(rhs),rhsMax =  -1.57222013186242E-11  3.32741108702640E-01
 cg2d: Sum(rhs),rhsMax =  -1.55856438865953E-11  3.34104792286607E-01
 cg2d: Sum(rhs),rhsMax =  -1.54622981085595E-11  3.35439840408258E-01
 cg2d: Sum(rhs),rhsMax =  -1.53389523305236E-11  3.36746123777500E-01
 cg2d: Sum(rhs),rhsMax =  -1.51739731890643E-11  3.38023284817324E-01
 cg2d: Sum(rhs),rhsMax =  -1.50679468902126E-11  3.39270714509997E-01
 cg2d: Sum(rhs),rhsMax =  -1.49505963165097E-11  3.40487540485305E-01
 cg2d: Sum(rhs),rhsMax =  -1.48600021177003E-11  3.41672628817267E-01
 cg2d: Sum(rhs),rhsMax =  -1.47608592016013E-11  3.42824601130914E-01
 cg2d: Sum(rhs),rhsMax =  -1.46533896128176E-11  3.43941867465035E-01
 cg2d: Sum(rhs),rhsMax =  -1.45305989462940E-11  3.45022673998728E-01
 cg2d: Sum(rhs),rhsMax =  -1.44608769403476E-11  3.46065163373276E-01
 cg2d: Sum(rhs),rhsMax =  -1.43617340242486E-11  3.47067444087937E-01
 cg2d: Sum(rhs),rhsMax =  -1.42781342304943E-11  3.48027664474358E-01
 cg2d: Sum(rhs),rhsMax =  -1.41946454590425E-11  3.48944086185595E-01
 cg2d: Sum(rhs),rhsMax =  -1.40938372084065E-11  3.49815152048292E-01
 cg2d: Sum(rhs),rhsMax =  -1.40351064104038E-11  3.50639543534528E-01
 cg2d: Sum(rhs),rhsMax =  -1.39590561332170E-11  3.51416223963127E-01
 cg2d: Sum(rhs),rhsMax =  -1.38459244070077E-11  3.52144464733532E-01
 cg2d: Sum(rhs),rhsMax =  -1.37778677355982E-11  3.52823853285448E-01
 cg2d: Sum(rhs),rhsMax =  -1.36830546892952E-11  3.53454282907088E-01
 cg2d: Sum(rhs),rhsMax =  -1.36092248581576E-11  3.54035925835798E-01
 cg2d: Sum(rhs),rhsMax =  -1.35734756767647E-11  3.54569192189522E-01
 cg2d: Sum(rhs),rhsMax =  -1.34627864412096E-11  3.55054678061303E-01
 cg2d: Sum(rhs),rhsMax =  -1.34070532453734E-11  3.55493106575345E-01
 cg2d: Sum(rhs),rhsMax =  -1.33401067969885E-11  3.55885265858142E-01
 cg2d: Sum(rhs),rhsMax =  -1.32845956457572E-11  3.56231947769353E-01
 cg2d: Sum(rhs),rhsMax =  -1.32445165945683E-11  3.56533890927148E-01
(PID.TID 0000.0001)      cg2d_init_res =   6.48975901389916E-02
(PID.TID 0000.0001)      cg2d_iters(min,last) =      -1      29
(PID.TID 0000.0001)      cg2d_last_res =   6.82712899812527E-14
(PID.TID 0000.0001) // =======================================================
(PID.TID 0000.0001) // Begin MONITOR dynamic field statistics
(PID.TID 0000.0001) // =======================================================
(PID.TID 0000.0001) %MON time_tsnumber                =                  1920
(PID.TID 0000.0001) %MON time_secondsf                =   2.8800000000000E+04
(PID.TID 0000.0001) %MON dynstat_eta_max              =   3.8925339694078E-02
(PID.TID 0000.0001) %MON dynstat_eta_min              =  -3.2001527455108E-02
(PID.TID 0000.0001) %MON dynstat_eta_mean             =   5.4379752296330E-15
(PID.TID 0000.0001) %MON dynstat_eta_sd               =   2.9200028779618E-02
(PID.TID 0000.0001) %MON dynstat_eta_del2             =   2.8498060072741E-04
(PID.TID 0000.0001) %MON dynstat_uvel_max             =   1.6910574769151E+00
(PID.TID 0000.0001) %MON dynstat_uvel_min             =  -8.4975361509724E-01
(PID.TID 0000.0001) %MON dynstat_uvel_mean            =   1.6728391736002E-04
(PID.TID 0000.0001) %MON dynstat_uvel_sd              =   1.6114839592079E-01
(PID.TID 0000.0001) %MON dynstat_uvel_del2            =   7.4140933293672E-04
(PID.TID 0000.0001) %MON dynstat_vvel_max             =   0.0000000000000E+00
(PID.TID 0000.0001) %MON dynstat_vvel_min             =   0.0000000000000E+00
(PID.TID 0000.0001) %MON dynstat_vvel_mean            =   0.0000000000000E+00
(PID.TID 0000.0001) %MON dynstat_vvel_sd              =   0.0000000000000E+00
(PID.TID 0000.0001) %MON dynstat_vvel_del2            =   0.0000000000000E+00
(PID.TID 0000.0001) %MON dynstat_wvel_max             =   8.7859253431598E-02
(PID.TID 0000.0001) %MON dynstat_wvel_min             =  -4.2483978536230E-02
(PID.TID 0000.0001) %MON dynstat_wvel_mean            =  -5.7285442191377E-20
(PID.TID 0000.0001) %MON dynstat_wvel_sd              =   5.1673206493326E-03
(PID.TID 0000.0001) %MON dynstat_wvel_del2            =   9.6298036206459E-05
(PID.TID 0000.0001) %MON dynstat_theta_max            =   1.4976502386089E+01
(PID.TID 0000.0001) %MON dynstat_theta_min            =   9.9765023856469E+00
(PID.TID 0000.0001) %MON dynstat_theta_mean           =   1.2377045745991E+01
(PID.TID 0000.0001) %MON dynstat_theta_sd             =   2.4038329437251E+00
(PID.TID 0000.0001) %MON dynstat_theta_del2           =   2.3589891836715E-03
(PID.TID 0000.0001) %MON dynstat_salt_max             =   3.5000000000000E+01
(PID.TID 0000.0001) %MON dynstat_salt_min             =   3.5000000000000E+01
(PID.TID 0000.0001) %MON dynstat_salt_mean            =   3.5000000000000E+01
(PID.TID 0000.0001) %MON dynstat_salt_sd              =   3.4816594052245E-13
(PID.TID 0000.0001) %MON dynstat_salt_del2            =   0.0000000000000E+00
(PID.TID 0000.0001) %MON dynstat_sst_max              =   1.4976502385655E+01
(PID.TID 0000.0001) %MON dynstat_sst_min              =   1.4630307957436E+01
(PID.TID 0000.0001) %MON dynstat_sst_mean             =   1.4837568886442E+01
(PID.TID 0000.0001) %MON dynstat_sst_sd               =   1.6522783953543E-01
(PID.TID 0000.0001) %MON dynstat_sst_del2             =   9.1998945133971E-04
(PID.TID 0000.0001) %MON dynstat_sss_max              =   3.5000000000000E+01
(PID.TID 0000.0001) %MON dynstat_sss_min              =   3.5000000000000E+01
(PID.TID 0000.0001) %MON dynstat_sss_mean             =   3.5000000000000E+01
(PID.TID 0000.0001) %MON dynstat_sss_sd               =   3.5527136788005E-14
(PID.TID 0000.0001) %MON dynstat_sss_del2             =   0.0000000000000E+00
(PID.TID 0000.0001) %MON forcing_qnet_max             =   0.0000000000000E+00
(PID.TID 0000.0001) %MON forcing_qnet_min             =   0.0000000000000E+00
(PID.TID 0000.0001) %MON forcing_qnet_mean            =   0.0000000000000E+00
(PID.TID 0000.0001) %MON forcing_qnet_sd              =   0.0000000000000E+00
(PID.TID 0000.0001) %MON forcing_qnet_del2            =   0.0000000000000E+00
(PID.TID 0000.0001) %MON forcing_qsw_max              =   0.0000000000000E+00
(PID.TID 0000.0001) %MON forcing_qsw_min              =   0.0000000000000E+00
(PID.TID 0000.0001) %MON forcing_qsw_mean             =   0.0000000000000E+00
(PID.TID 0000.0001) %MON forcing_qsw_sd               =   0.0000000000000E+00
(PID.TID 0000.0001) %MON forcing_qsw_del2             =   0.0000000000000E+00
(PID.TID 0000.0001) %MON forcing_empmr_max            =   0.0000000000000E+00
(PID.TID 0000.0001) %MON forcing_empmr_min            =   0.0000000000000E+00
(PID.TID 0000.0001) %MON forcing_empmr_mean           =   0.0000000000000E+00
(PID.TID 0000.0001) %MON forcing_empmr_sd             =   0.0000000000000E+00
(PID.TID 0000.0001) %MON forcing_empmr_del2           =   0.0000000000000E+00
(PID.TID 0000.0001) %MON forcing_fu_max               =   0.0000000000000E+00
(PID.TID 0000.0001) %MON forcing_fu_min               =   0.0000000000000E+00
(PID.TID 0000.0001) %MON forcing_fu_mean              =   0.0000000000000E+00
(PID.TID 0000.0001) %MON forcing_fu_sd                =   0.0000000000000E+00
(PID.TID 0000.0001) %MON forcing_fu_del2              =   0.0000000000000E+00
(PID.TID 0000.0001) %MON forcing_fv_max               =   0.0000000000000E+00
(PID.TID 0000.0001) %MON forcing_fv_min               =   0.0000000000000E+00
(PID.TID 0000.0001) %MON forcing_fv_mean              =   0.0000000000000E+00
(PID.TID 0000.0001) %MON forcing_fv_sd                =   0.0000000000000E+00
(PID.TID 0000.0001) %MON forcing_fv_del2              =   0.0000000000000E+00
(PID.TID 0000.0001) %MON advcfl_uvel_max              =   8.7194752113436E-02
(PID.TID 0000.0001) %MON advcfl_vvel_max              =   0.0000000000000E+00
(PID.TID 0000.0001) %MON advcfl_wvel_max              =   5.1525272458512E-01
(PID.TID 0000.0001) %MON advcfl_W_hf_max              =   5.1919318226445E-01
(PID.TID 0000.0001) %MON pe_b_mean                    =   2.3935594932855E-05
(PID.TID 0000.0001) %MON ke_max                       =   1.0471907254123E+00
(PID.TID 0000.0001) %MON ke_mean                      =   1.3128146696285E-02
(PID.TID 0000.0001) %MON ke_vol                       =   8.5337279889550E+10
(PID.TID 0000.0001) %MON vort_r_min                   =   0.0000000000000E+00
(PID.TID 0000.0001) %MON vort_r_max                   =   0.0000000000000E+00
(PID.TID 0000.0001) %MON vort_a_mean                  =   0.0000000000000E+00
(PID.TID 0000.0001) %MON vort_a_sd                    =   0.0000000000000E+00
(PID.TID 0000.0001) %MON vort_p_mean                  =   0.0000000000000E+00
(PID.TID 0000.0001) %MON vort_p_sd                    =   0.0000000000000E+00
(PID.TID 0000.0001) %MON surfExpan_theta_mean         =   1.0973656081864E-07
(PID.TID 0000.0001) %MON surfExpan_salt_mean          =   3.2821002901564E-20
(PID.TID 0000.0001) // =======================================================
(PID.TID 0000.0001) // End MONITOR dynamic field statistics
(PID.TID 0000.0001) // =======================================================
(PID.TID 0000.0001) // =======================================================
(PID.TID 0000.0001) // Begin OBCS MONITOR field statistics
(PID.TID 0000.0001) // =======================================================
(PID.TID 0000.0001) %MON obc_E_uVel_max               =   0.0000000000000E+00
(PID.TID 0000.0001) %MON obc_E_uVel_min               =   0.0000000000000E+00
(PID.TID 0000.0001) %MON obc_E_uVel_mean              =   0.0000000000000E+00
(PID.TID 0000.0001) %MON obc_E_uVel_sd                =   0.0000000000000E+00
(PID.TID 0000.0001) %MON obc_E_uVel_Int               =   0.0000000000000E+00
(PID.TID 0000.0001) %MON obc_W_uVel_max               =   0.0000000000000E+00
(PID.TID 0000.0001) %MON obc_W_uVel_min               =   0.0000000000000E+00
(PID.TID 0000.0001) %MON obc_W_uVel_mean              =   0.0000000000000E+00
(PID.TID 0000.0001) %MON obc_W_uVel_sd                =   0.0000000000000E+00
(PID.TID 0000.0001) %MON obc_W_uVel_Int               =   0.0000000000000E+00
(PID.TID 0000.0001) // =======================================================
(PID.TID 0000.0001) // End OBCS MONITOR field statistics
(PID.TID 0000.0001) // =======================================================
 cg2d: Sum(rhs),rhsMax =  -1.32023281196325E-11  3.56791731113722E-01
 cg2d: Sum(rhs),rhsMax =  -1.31332722475008E-11  3.57005961607445E-01
 cg2d: Sum(rhs),rhsMax =  -1.30975230661079E-11  3.57176905387731E-01
 cg2d: Sum(rhs),rhsMax =  -1.30145894061684E-11  3.57304700506697E-01
 cg2d: Sum(rhs),rhsMax =  -1.30155886068906E-11  3.57389299215021E-01
 cg2d: Sum(rhs),rhsMax =  -1.29668498161095E-11  3.57430480663955E-01
 cg2d: Sum(rhs),rhsMax =  -1.29242172519639E-11  3.57427876188058E-01
 cg2d: Sum(rhs),rhsMax =  -1.29087851519216E-11  3.57381005332632E-01
 cg2d: Sum(rhs),rhsMax =  -1.28779209518370E-11  3.57289319981288E-01
 cg2d: Sum(rhs),rhsMax =  -1.28888011374784E-11  3.57152253241947E-01
 cg2d: Sum(rhs),rhsMax =  -1.29004584792369E-11  3.56969269257467E-01
 cg2d: Sum(rhs),rhsMax =  -1.28553834244372E-11  3.56739909910899E-01
 cg2d: Sum(rhs),rhsMax =  -1.28934640741818E-11  3.56463834563935E-01
 cg2d: Sum(rhs),rhsMax =  -1.29171118246063E-11  3.56140849528334E-01
 cg2d: Sum(rhs),rhsMax =  -1.28105304142423E-11  3.55770924897817E-01
 cg2d: Sum(rhs),rhsMax =  -1.28461685733328E-11  3.55354197578450E-01
 cg2d: Sum(rhs),rhsMax =  -1.28852484237996E-11  3.54890960714902E-01
 cg2d: Sum(rhs),rhsMax =  -1.28844712676823E-11  3.54381641052650E-01
 cg2d: Sum(rhs),rhsMax =  -1.29234400958467E-11  3.53826766931085E-01
 cg2d: Sum(rhs),rhsMax =  -1.29907196111390E-11  3.53226930422108E-01
 cg2d: Sum(rhs),rhsMax =  -1.30145894061684E-11  3.52582747514758E-01
 cg2d: Sum(rhs),rhsMax =  -1.30527810782155E-11  3.51894820166329E-01
 cg2d: Sum(rhs),rhsMax =  -1.30936372855217E-11  3.51163703532058E-01
 cg2d: Sum(rhs),rhsMax =  -1.31173960582487E-11  3.50389880847449E-01
 cg2d: Sum(rhs),rhsMax =  -1.32232003124955E-11  3.49573747408796E-01
 cg2d: Sum(rhs),rhsMax =  -1.32601707392155E-11  3.48715604031272E-01
 cg2d: Sum(rhs),rhsMax =  -1.33403288415934E-11  3.47815659399521E-01
 cg2d: Sum(rhs),rhsMax =  -1.33995037288059E-11  3.46874039967536E-01
 cg2d: Sum(rhs),rhsMax =  -1.33933975021705E-11  3.45890805570646E-01
 cg2d: Sum(rhs),rhsMax =  -1.34064981338611E-11  3.44865968692639E-01
 cg2d: Sum(rhs),rhsMax =  -1.34279254382363E-11  3.43799515356493E-01
 cg2d: Sum(rhs),rhsMax =  -1.34172672971999E-11  3.42691425823774E-01
 cg2d: Sum(rhs),rhsMax =  -1.35532696177165E-11  3.41541693631972E-01
 cg2d: Sum(rhs),rhsMax =  -1.36494149316491E-11  3.40350341910723E-01
 cg2d: Sum(rhs),rhsMax =  -1.37651001708150E-11  3.39117436346960E-01
 cg2d: Sum(rhs),rhsMax =  -1.38596911725131E-11  3.37843094577983E-01
 cg2d: Sum(rhs),rhsMax =  -1.39553923972358E-11  3.36527492152389E-01
 cg2d: Sum(rhs),rhsMax =  -1.40450984176255E-11  3.35170865489805E-01
 cg2d: Sum(rhs),rhsMax =  -1.41278100329600E-11  3.33773512473406E-01
 cg2d: Sum(rhs),rhsMax =  -1.42457157181752E-11  3.32335791409639E-01
 cg2d: Sum(rhs),rhsMax =  -1.43888234660494E-11  3.30858119080466E-01
 cg2d: Sum(rhs),rhsMax =  -1.45119471994803E-11  3.29340968499140E-01
 cg2d: Sum(rhs),rhsMax =  -1.46600509509653E-11  3.27784866781685E-01
 cg2d: Sum(rhs),rhsMax =  -1.48030476765371E-11  3.26190393299695E-01
 cg2d: Sum(rhs),rhsMax =  -1.49685819295087E-11  3.24558178035743E-01
 cg2d: Sum(rhs),rhsMax =  -1.51135770565247E-11  3.22888899874997E-01
 cg2d: Sum(rhs),rhsMax =  -1.52935442088165E-11  3.21183284483473E-01
 cg2d: Sum(rhs),rhsMax =  -1.54797286100461E-11  3.19442101474607E-01
 cg2d: Sum(rhs),rhsMax =  -1.56133994622110E-11  3.17666160754387E-01
 cg2d: Sum(rhs),rhsMax =  -1.58282276174759E-11  3.15856308233350E-01
 cg2d: Sum(rhs),rhsMax =  -1.59692259416033E-11  3.14013421445218E-01
 cg2d: Sum(rhs),rhsMax =  -1.59712243430477E-11  3.15081656799794E-01
 cg2d: Sum(rhs),rhsMax =  -1.58372204239754E-11  3.19511542870655E-01
 cg2d: Sum(rhs),rhsMax =  -1.56927804084717E-11  3.23595979032509E-01
 cg2d: Sum(rhs),rhsMax =  -1.56336055212591E-11  3.27352358091827E-01
 cg2d: Sum(rhs),rhsMax =  -1.55518931066467E-11  3.30789461317045E-01
 cg2d: Sum(rhs),rhsMax =  -1.54767310078796E-11  3.33891075392160E-01
 cg2d: Sum(rhs),rhsMax =  -1.54357637782709E-11  3.36689101420341E-01
 cg2d: Sum(rhs),rhsMax =  -1.53993484630632E-11  3.39166457650483E-01
 cg2d: Sum(rhs),rhsMax =  -1.53731471996821E-11  3.41360700394771E-01
 cg2d: Sum(rhs),rhsMax =  -1.53506096722822E-11  3.43218416648901E-01
 cg2d: Sum(rhs),rhsMax =  -1.53184132045681E-11  3.44794018941359E-01
 cg2d: Sum(rhs),rhsMax =  -1.53649315492999E-11  3.46095354976981E-01
 cg2d: Sum(rhs),rhsMax =  -1.53752566234289E-11  3.47098910373653E-01
 cg2d: Sum(rhs),rhsMax =  -1.54321000422897E-11  3.47852834118976E-01
 cg2d: Sum(rhs),rhsMax =  -1.55395696310734E-11  3.48403204402028E-01
 cg2d: Sum(rhs),rhsMax =  -1.55450097238941E-11  3.49458766626501E-01
 cg2d: Sum(rhs),rhsMax =  -1.56760160407998E-11  3.48974428736453E-01
 cg2d: Sum(rhs),rhsMax =  -1.57549528978507E-11  3.48752326374424E-01
 cg2d: Sum(rhs),rhsMax =  -1.58825175233801E-11  3.48169661985649E-01
 cg2d: Sum(rhs),rhsMax =  -1.60679247684925E-11  3.47441442707050E-01
 cg2d: Sum(rhs),rhsMax =  -1.62007074422377E-11  3.46155553464237E-01
 cg2d: Sum(rhs),rhsMax =  -1.63408175879454E-11  3.44754180419030E-01
 cg2d: Sum(rhs),rhsMax =  -1.64988023243495E-11  3.43256828487366E-01
 cg2d: Sum(rhs),rhsMax =  -1.65937263929550E-11  3.41565276114308E-01
 cg2d: Sum(rhs),rhsMax =  -1.67472702372606E-11  3.39672839007052E-01
 cg2d: Sum(rhs),rhsMax =  -1.68786096210738E-11  3.37577016396038E-01
 cg2d: Sum(rhs),rhsMax =  -1.70919944864067E-11  3.35314930650209E-01
 cg2d: Sum(rhs),rhsMax =  -1.72457603753173E-11  3.32831585029456E-01
 cg2d: Sum(rhs),rhsMax =  -1.74401604269292E-11  3.30168094962514E-01
 cg2d: Sum(rhs),rhsMax =  -1.76230141590850E-11  3.27337590397803E-01
 cg2d: Sum(rhs),rhsMax =  -1.78402848050041E-11  3.24435318455820E-01
 cg2d: Sum(rhs),rhsMax =  -1.80622183876267E-11  3.21342307702450E-01
 cg2d: Sum(rhs),rhsMax =  -1.83054682523220E-11  3.18055794247765E-01
 cg2d: Sum(rhs),rhsMax =  -1.85547133213504E-11  3.14568807371238E-01
 cg2d: Sum(rhs),rhsMax =  -1.88279392077106E-11  3.10996114177268E-01
 cg2d: Sum(rhs),rhsMax =  -1.91360260970441E-11  3.07249696625266E-01
 cg2d: Sum(rhs),rhsMax =  -1.92554860944938E-11  3.05789859807967E-01
 cg2d: Sum(rhs),rhsMax =  -1.93581817242716E-11  3.04734825171580E-01
 cg2d: Sum(rhs),rhsMax =  -1.95298222038787E-11  3.03398979043953E-01
 cg2d: Sum(rhs),rhsMax =  -1.97232230547684E-11  3.01770650018229E-01
 cg2d: Sum(rhs),rhsMax =  -1.98949745566779E-11  2.99836166472781E-01
 cg2d: Sum(rhs),rhsMax =  -2.01106908903625E-11  2.97567499530874E-01
 cg2d: Sum(rhs),rhsMax =  -2.03105310347951E-11  2.94959347809592E-01
 cg2d: Sum(rhs),rhsMax =  -2.05709893563721E-11  2.92019740111075E-01
 cg2d: Sum(rhs),rhsMax =  -2.08399963952388E-11  2.88748421845721E-01
 cg2d: Sum(rhs),rhsMax =  -2.11644035630343E-11  2.85146271172847E-01
 cg2d: Sum(rhs),rhsMax =  -2.15385487223330E-11  2.81213940663651E-01
 cg2d: Sum(rhs),rhsMax =  -2.17034168414898E-11  2.79590182864475E-01
 cg2d: Sum(rhs),rhsMax =  -2.11562989349545E-11  2.87809765640958E-01
 cg2d: Sum(rhs),rhsMax =  -2.06499262134230E-11  2.95692485660821E-01
 cg2d: Sum(rhs),rhsMax =  -2.01739736027662E-11  3.03274761226512E-01
 cg2d: Sum(rhs),rhsMax =  -1.97256655454225E-11  3.10504437749765E-01
 cg2d: Sum(rhs),rhsMax =  -1.93706162221474E-11  3.17424590817744E-01
 cg2d: Sum(rhs),rhsMax =  -1.90357729579205E-11  3.24019394082360E-01
 cg2d: Sum(rhs),rhsMax =  -1.87077020541437E-11  3.30250259324364E-01
 cg2d: Sum(rhs),rhsMax =  -1.84586790297203E-11  3.36038547344486E-01
 cg2d: Sum(rhs),rhsMax =  -1.82004411541925E-11  3.41543169081268E-01
 cg2d: Sum(rhs),rhsMax =  -1.79728454341443E-11  3.46737904968298E-01
 cg2d: Sum(rhs),rhsMax =  -1.77734493789217E-11  3.51600630291994E-01
 cg2d: Sum(rhs),rhsMax =  -1.75836012417108E-11  3.56111250385073E-01
 cg2d: Sum(rhs),rhsMax =  -1.74275593955997E-11  3.60261735496173E-01
 cg2d: Sum(rhs),rhsMax =  -1.73597802799463E-11  3.64097742431470E-01
 cg2d: Sum(rhs),rhsMax =  -1.73003278369777E-11  3.67634259861526E-01
 cg2d: Sum(rhs),rhsMax =  -1.73028813499343E-11  3.70835814344702E-01
 cg2d: Sum(rhs),rhsMax =  -1.72712955048837E-11  3.74027523709574E-01
 cg2d: Sum(rhs),rhsMax =  -1.72935554765274E-11  3.76424214550791E-01
 cg2d: Sum(rhs),rhsMax =  -1.72964420563915E-11  3.78626188716246E-01
 cg2d: Sum(rhs),rhsMax =  -1.73163150485323E-11  3.80609191909407E-01
 cg2d: Sum(rhs),rhsMax =  -1.73605574360636E-11  3.82321353801686E-01
 cg2d: Sum(rhs),rhsMax =  -1.73848158091516E-11  3.83912991149640E-01
 cg2d: Sum(rhs),rhsMax =  -1.74390502039046E-11  3.85099535726790E-01
 cg2d: Sum(rhs),rhsMax =  -1.75089387433047E-11  3.86019031342322E-01
 cg2d: Sum(rhs),rhsMax =  -1.75787162604024E-11  3.86660528385138E-01
 cg2d: Sum(rhs),rhsMax =  -1.76698655707241E-11  3.87202050534225E-01
 cg2d: Sum(rhs),rhsMax =  -1.77711179105700E-11  3.87251898083080E-01
 cg2d: Sum(rhs),rhsMax =  -1.78764780756069E-11  3.87190554256307E-01
 cg2d: Sum(rhs),rhsMax =  -1.79969927849299E-11  3.86965204273896E-01
 cg2d: Sum(rhs),rhsMax =  -1.81168968715895E-11  3.86392658158709E-01
 cg2d: Sum(rhs),rhsMax =  -1.82860948605423E-11  3.85588705284324E-01
 cg2d: Sum(rhs),rhsMax =  -1.84191550900437E-11  3.84503582550521E-01
 cg2d: Sum(rhs),rhsMax =  -1.85556014997701E-11  3.83298488009796E-01
 cg2d: Sum(rhs),rhsMax =  -1.87230786430348E-11  3.81931407184374E-01
 cg2d: Sum(rhs),rhsMax =  -1.88771775988528E-11  3.80420515566707E-01
 cg2d: Sum(rhs),rhsMax =  -1.90640281338972E-11  3.78771490462931E-01
 cg2d: Sum(rhs),rhsMax =  -1.92243998498043E-11  3.76951746193217E-01
 cg2d: Sum(rhs),rhsMax =  -1.94148586096787E-11  3.74891887587011E-01
 cg2d: Sum(rhs),rhsMax =  -1.96369032146038E-11  3.72657187813036E-01
 cg2d: Sum(rhs),rhsMax =  -1.98489558123072E-11  3.70187210134701E-01
 cg2d: Sum(rhs),rhsMax =  -2.00701677499637E-11  3.67524397910016E-01
 cg2d: Sum(rhs),rhsMax =  -2.03121963693320E-11  3.64698982628997E-01
 cg2d: Sum(rhs),rhsMax =  -2.05346295523157E-11  3.61688788425431E-01
 cg2d: Sum(rhs),rhsMax =  -2.07757144821130E-11  3.58543363840478E-01
 cg2d: Sum(rhs),rhsMax =  -2.10393369393103E-11  3.55224121503964E-01
 cg2d: Sum(rhs),rhsMax =  -2.13113970914947E-11  3.51712414448098E-01
 cg2d: Sum(rhs),rhsMax =  -2.15923945390273E-11  3.48076898373320E-01
 cg2d: Sum(rhs),rhsMax =  -2.18886575531485E-11  3.44373612343463E-01
 cg2d: Sum(rhs),rhsMax =  -2.21728746474525E-11  3.40556688481527E-01
 cg2d: Sum(rhs),rhsMax =  -2.24940066573254E-11  3.36702440894836E-01
 cg2d: Sum(rhs),rhsMax =  -2.28083107955968E-11  3.32745955569147E-01
 cg2d: Sum(rhs),rhsMax =  -2.31307195619479E-11  3.28680058571465E-01
 cg2d: Sum(rhs),rhsMax =  -2.34670616272581E-11  3.24597817856133E-01
 cg2d: Sum(rhs),rhsMax =  -2.38261632645731E-11  3.20533244344833E-01
 cg2d: Sum(rhs),rhsMax =  -2.41891506824743E-11  3.16421902732620E-01
 cg2d: Sum(rhs),rhsMax =  -2.45575781931962E-11  3.12248680579320E-01
 cg2d: Sum(rhs),rhsMax =  -2.49231191240540E-11  3.08065997970233E-01
 cg2d: Sum(rhs),rhsMax =  -2.53342902212239E-11  3.03932358089090E-01
 cg2d: Sum(rhs),rhsMax =  -2.57581178608746E-11  2.99724776071073E-01
 cg2d: Sum(rhs),rhsMax =  -2.51644816096075E-11  3.07622613758803E-01
 cg2d: Sum(rhs),rhsMax =  -2.45864439918364E-11  3.15340598674298E-01
 cg2d: Sum(rhs),rhsMax =  -2.40642505922040E-11  3.22718239071700E-01
 cg2d: Sum(rhs),rhsMax =  -2.35834685113900E-11  3.29768764823593E-01
 cg2d: Sum(rhs),rhsMax =  -2.31312746734602E-11  3.36504342778270E-01
 cg2d: Sum(rhs),rhsMax =  -2.27332042079809E-11  3.42921671896213E-01
 cg2d: Sum(rhs),rhsMax =  -2.24159024675430E-11  3.49012546214423E-01
 cg2d: Sum(rhs),rhsMax =  -2.20066742606662E-11  3.54770087130695E-01
 cg2d: Sum(rhs),rhsMax =  -2.16788254014944E-11  3.60216603332703E-01
 cg2d: Sum(rhs),rhsMax =  -2.12981299263504E-11  3.65309556036715E-01
 cg2d: Sum(rhs),rhsMax =  -2.10090278507380E-11  3.70078501695527E-01
 cg2d: Sum(rhs),rhsMax =  -2.07154293718759E-11  3.74528721555718E-01
 cg2d: Sum(rhs),rhsMax =  -2.04410377513398E-11  3.78624508480258E-01
 cg2d: Sum(rhs),rhsMax =  -2.02327599119201E-11  3.82412964485069E-01
 cg2d: Sum(rhs),rhsMax =  -2.00887639856262E-11  3.85911662953772E-01
 cg2d: Sum(rhs),rhsMax =  -1.99182892401950E-11  3.89044890040244E-01
 cg2d: Sum(rhs),rhsMax =  -1.97585281469514E-11  3.91830441366384E-01
 cg2d: Sum(rhs),rhsMax =  -1.96105909289201E-11  3.94392271737542E-01
 cg2d: Sum(rhs),rhsMax =  -1.94526061925160E-11  3.96683559333575E-01
 cg2d: Sum(rhs),rhsMax =  -1.92955096345315E-11  3.98651807571944E-01
 cg2d: Sum(rhs),rhsMax =  -1.91217319756021E-11  4.00295285935955E-01
 cg2d: Sum(rhs),rhsMax =  -1.89554760776645E-11  4.01598846478246E-01
 cg2d: Sum(rhs),rhsMax =  -1.88102311504679E-11  4.02636939412645E-01
 cg2d: Sum(rhs),rhsMax =  -1.87162785270090E-11  4.03475512586489E-01
 cg2d: Sum(rhs),rhsMax =  -1.86566595505866E-11  4.04061769579982E-01
 cg2d: Sum(rhs),rhsMax =  -1.86341497787623E-11  4.04403814850569E-01
 cg2d: Sum(rhs),rhsMax =  -1.85326476387360E-11  4.04540276293416E-01
 cg2d: Sum(rhs),rhsMax =  -1.84713355722010E-11  4.04397890295293E-01
 cg2d: Sum(rhs),rhsMax =  -1.84114390400225E-11  4.04045578699168E-01
 cg2d: Sum(rhs),rhsMax =  -1.83581760904161E-11  4.03416790020508E-01
 cg2d: Sum(rhs),rhsMax =  -1.82902026857334E-11  4.02596445443579E-01
 cg2d: Sum(rhs),rhsMax =  -1.83013604271309E-11  4.01572365601477E-01
 cg2d: Sum(rhs),rhsMax =  -1.84125770186228E-11  4.00356992980236E-01
 cg2d: Sum(rhs),rhsMax =  -1.85684800868557E-11  3.98957023311975E-01
 cg2d: Sum(rhs),rhsMax =  -1.87275195351333E-11  3.97355681091653E-01
 cg2d: Sum(rhs),rhsMax =  -1.87997950540364E-11  3.95595162689096E-01
 cg2d: Sum(rhs),rhsMax =  -1.88655757682454E-11  3.93676088009919E-01
 cg2d: Sum(rhs),rhsMax =  -1.89505633407805E-11  3.91593450182098E-01
 cg2d: Sum(rhs),rhsMax =  -1.90220061924151E-11  3.89342098008697E-01
 cg2d: Sum(rhs),rhsMax =  -1.91165971941132E-11  3.86911273538327E-01
 cg2d: Sum(rhs),rhsMax =  -1.92069138371664E-11  3.84295280659350E-01
 cg2d: Sum(rhs),rhsMax =  -1.92985627478492E-11  3.81545929252200E-01
 cg2d: Sum(rhs),rhsMax =  -1.93824400973597E-11  3.78644346237957E-01
 cg2d: Sum(rhs),rhsMax =  -1.94884663962114E-11  3.75561983854082E-01
 cg2d: Sum(rhs),rhsMax =  -1.96058724810655E-11  3.72320405258682E-01
 cg2d: Sum(rhs),rhsMax =  -1.97167282500743E-11  3.68984159392861E-01
 cg2d: Sum(rhs),rhsMax =  -1.98550620389426E-11  3.65509697388820E-01
 cg2d: Sum(rhs),rhsMax =  -1.99881222684439E-11  3.61861861206080E-01
 cg2d: Sum(rhs),rhsMax =  -2.01292871260250E-11  3.58042949768989E-01
 cg2d: Sum(rhs),rhsMax =  -2.03063676984527E-11  3.54101629120655E-01
 cg2d: Sum(rhs),rhsMax =  -2.04719019514243E-11  3.50111315794859E-01
 cg2d: Sum(rhs),rhsMax =  -2.06497041688181E-11  3.46056604038708E-01
 cg2d: Sum(rhs),rhsMax =  -2.08473793783526E-11  3.41912773311725E-01
 cg2d: Sum(rhs),rhsMax =  -2.10446104986772E-11  3.37679293276055E-01
 cg2d: Sum(rhs),rhsMax =  -2.12698747503737E-11  3.33387691097961E-01
 cg2d: Sum(rhs),rhsMax =  -2.15416573468019E-11  3.29052804558947E-01
 cg2d: Sum(rhs),rhsMax =  -2.18819407038495E-11  3.24656508139237E-01
 cg2d: Sum(rhs),rhsMax =  -2.20662377259373E-11  3.20241892674519E-01
 cg2d: Sum(rhs),rhsMax =  -2.22092899626603E-11  3.15834721040843E-01
 cg2d: Sum(rhs),rhsMax =  -2.23618901173950E-11  3.11467411796646E-01
 cg2d: Sum(rhs),rhsMax =  -2.26343943587892E-11  3.07079384640029E-01
 cg2d: Sum(rhs),rhsMax =  -2.29039565091682E-11  3.02704118077068E-01
 cg2d: Sum(rhs),rhsMax =  -2.31099028802362E-11  2.99625401572413E-01
 cg2d: Sum(rhs),rhsMax =  -2.25677254661605E-11  3.06339397960264E-01
 cg2d: Sum(rhs),rhsMax =  -2.19260165579271E-11  3.12730098104933E-01
 cg2d: Sum(rhs),rhsMax =  -2.13440931595699E-11  3.18813056862637E-01
 cg2d: Sum(rhs),rhsMax =  -2.08061901041390E-11  3.24586837581369E-01
 cg2d: Sum(rhs),rhsMax =  -2.02754479872169E-11  3.30010347543741E-01
 cg2d: Sum(rhs),rhsMax =  -1.98301930431910E-11  3.35132915801211E-01
 cg2d: Sum(rhs),rhsMax =  -1.94159688327034E-11  3.39967512735083E-01
 cg2d: Sum(rhs),rhsMax =  -1.90591431525888E-11  3.44437270057953E-01
 cg2d: Sum(rhs),rhsMax =  -1.86863302609197E-11  3.48599970017588E-01
 cg2d: Sum(rhs),rhsMax =  -1.83578707790844E-11  3.52493829531862E-01
 cg2d: Sum(rhs),rhsMax =  -1.80112036396451E-11  3.56105905507671E-01
 cg2d: Sum(rhs),rhsMax =  -1.77785008936837E-11  3.59353645176911E-01
 cg2d: Sum(rhs),rhsMax =  -1.74860126378462E-11  3.62294061680208E-01
 cg2d: Sum(rhs),rhsMax =  -1.72491465555424E-11  3.64969433152201E-01
 cg2d: Sum(rhs),rhsMax =  -1.69990133080944E-11  3.67351829530042E-01
 cg2d: Sum(rhs),rhsMax =  -1.67618141588832E-11  3.69468731168071E-01
 cg2d: Sum(rhs),rhsMax =  -1.65588098788305E-11  3.71326044125187E-01
 cg2d: Sum(rhs),rhsMax =  -1.63727364999033E-11  3.72899106122419E-01
 cg2d: Sum(rhs),rhsMax =  -1.61921032137968E-11  3.74191643471040E-01
 cg2d: Sum(rhs),rhsMax =  -1.60265134496740E-11  3.75220438042536E-01
 cg2d: Sum(rhs),rhsMax =  -1.58545954143108E-11  3.75989978986600E-01
 cg2d: Sum(rhs),rhsMax =  -1.57980850623574E-11  3.76546403579132E-01
 cg2d: Sum(rhs),rhsMax =  -1.57390211974473E-11  3.76908033690951E-01
 cg2d: Sum(rhs),rhsMax =  -1.57188706495504E-11  3.77049898921837E-01
 cg2d: Sum(rhs),rhsMax =  -1.56700208364668E-11  3.76949521727876E-01
 cg2d: Sum(rhs),rhsMax =  -1.56187840438804E-11  3.76540159798281E-01
 cg2d: Sum(rhs),rhsMax =  -1.56178403543095E-11  3.75890346921932E-01
 cg2d: Sum(rhs),rhsMax =  -1.55931378920116E-11  3.75039329393070E-01
 cg2d: Sum(rhs),rhsMax =  -1.55807033941358E-11  3.73991498853172E-01
 cg2d: Sum(rhs),rhsMax =  -1.55717660987875E-11  3.72738884597525E-01
 cg2d: Sum(rhs),rhsMax =  -1.56047397226189E-11  3.71306917647160E-01
 cg2d: Sum(rhs),rhsMax =  -1.56309409860000E-11  3.69646854429961E-01
 cg2d: Sum(rhs),rhsMax =  -1.56622492752945E-11  3.67813845606933E-01
 cg2d: Sum(rhs),rhsMax =  -1.57062141070696E-11  3.65830154895951E-01
 cg2d: Sum(rhs),rhsMax =  -1.57537316525236E-11  3.63708299366056E-01
 cg2d: Sum(rhs),rhsMax =  -1.58022483986997E-11  3.61405925433385E-01
 cg2d: Sum(rhs),rhsMax =  -1.58590918175605E-11  3.58955005327108E-01
 cg2d: Sum(rhs),rhsMax =  -1.59102730989957E-11  3.56351389441245E-01
 cg2d: Sum(rhs),rhsMax =  -1.59681157185787E-11  3.53574752544149E-01
 cg2d: Sum(rhs),rhsMax =  -1.60162993978474E-11  3.50686252206582E-01
 cg2d: Sum(rhs),rhsMax =  -1.61330948600380E-11  3.47653396578875E-01
 cg2d: Sum(rhs),rhsMax =  -1.62213575904957E-11  3.44493718906391E-01
 cg2d: Sum(rhs),rhsMax =  -1.63230540195514E-11  3.41202133947051E-01
 cg2d: Sum(rhs),rhsMax =  -1.64079860809352E-11  3.37762433237308E-01
 cg2d: Sum(rhs),rhsMax =  -1.65492064496675E-11  3.34193978547613E-01
 cg2d: Sum(rhs),rhsMax =  -1.66870961493260E-11  3.30509859881823E-01
 cg2d: Sum(rhs),rhsMax =  -1.68028924107944E-11  3.26823255036199E-01
 cg2d: Sum(rhs),rhsMax =  -1.69420033557799E-11  3.23015720754722E-01
 cg2d: Sum(rhs),rhsMax =  -1.70717884273586E-11  3.19084114497978E-01
 cg2d: Sum(rhs),rhsMax =  -1.72718506163960E-11  3.15034677899819E-01
 cg2d: Sum(rhs),rhsMax =  -1.73941971937097E-11  3.10881691310894E-01
 cg2d: Sum(rhs),rhsMax =  -1.75767178589581E-11  3.06719122862182E-01
 cg2d: Sum(rhs),rhsMax =  -1.77592385242065E-11  3.02518205915194E-01
 cg2d: Sum(rhs),rhsMax =  -1.78734804734404E-11  2.99050153331338E-01
 cg2d: Sum(rhs),rhsMax =  -1.79053438742471E-11  2.97549212076853E-01
 cg2d: Sum(rhs),rhsMax =  -1.79481984829977E-11  2.95762543683837E-01
 cg2d: Sum(rhs),rhsMax =  -1.79755099694034E-11  2.93687066207817E-01
 cg2d: Sum(rhs),rhsMax =  -1.80773174207616E-11  2.91331975771096E-01
 cg2d: Sum(rhs),rhsMax =  -1.81398229770480E-11  2.88689770987113E-01
 cg2d: Sum(rhs),rhsMax =  -1.82400761161716E-11  2.85759223672878E-01
 cg2d: Sum(rhs),rhsMax =  -1.83963955180388E-11  2.82532413990866E-01
 cg2d: Sum(rhs),rhsMax =  -1.85305104594136E-11  2.79023496128733E-01
 cg2d: Sum(rhs),rhsMax =  -1.87353466074569E-11  2.75217777872549E-01
 cg2d: Sum(rhs),rhsMax =  -1.89310789266983E-11  2.71640940739634E-01
 cg2d: Sum(rhs),rhsMax =  -1.84553483606464E-11  2.77175340864016E-01
 cg2d: Sum(rhs),rhsMax =  -1.80415682393686E-11  2.82366480921881E-01
 cg2d: Sum(rhs),rhsMax =  -1.76559877829163E-11  2.87273637340215E-01
 cg2d: Sum(rhs),rhsMax =  -1.72867276049260E-11  2.91875834307222E-01
 cg2d: Sum(rhs),rhsMax =  -1.69606551025936E-11  2.96187164663158E-01
 cg2d: Sum(rhs),rhsMax =  -1.66534563916798E-11  3.00230350017444E-01
 cg2d: Sum(rhs),rhsMax =  -1.63771218808506E-11  3.04023984278900E-01
 cg2d: Sum(rhs),rhsMax =  -1.60755853073624E-11  3.07547561732090E-01
 cg2d: Sum(rhs),rhsMax =  -1.58385526916049E-11  3.10775432444379E-01
 cg2d: Sum(rhs),rhsMax =  -1.56712420817939E-11  3.13743460340687E-01
 cg2d: Sum(rhs),rhsMax =  -1.54447565847704E-11  3.16542746062871E-01
 cg2d: Sum(rhs),rhsMax =  -1.52508006223684E-11  3.18947744369052E-01
 cg2d: Sum(rhs),rhsMax =  -1.50767176521072E-11  3.21089829833451E-01
 cg2d: Sum(rhs),rhsMax =  -1.49289469675296E-11  3.23054462228251E-01
 cg2d: Sum(rhs),rhsMax =  -1.48052681225863E-11  3.24707369947950E-01
 cg2d: Sum(rhs),rhsMax =  -1.46553880142619E-11  3.26141236739942E-01
 cg2d: Sum(rhs),rhsMax =  -1.45400358420034E-11  3.27328360850899E-01
 cg2d: Sum(rhs),rhsMax =  -1.44156908632453E-11  3.28275016202757E-01
 cg2d: Sum(rhs),rhsMax =  -1.43313139133738E-11  3.28997562082146E-01
 cg2d: Sum(rhs),rhsMax =  -1.42784672974017E-11  3.29487420123951E-01
 cg2d: Sum(rhs),rhsMax =  -1.41955336374622E-11  3.29939825929700E-01
 cg2d: Sum(rhs),rhsMax =  -1.41254785646083E-11  3.29972209792883E-01
 cg2d: Sum(rhs),rhsMax =  -1.40726319486362E-11  3.29804282367703E-01
 cg2d: Sum(rhs),rhsMax =  -1.40507605550511E-11  3.29456895461088E-01
 cg2d: Sum(rhs),rhsMax =  -1.40211176002936E-11  3.28919277603392E-01
 cg2d: Sum(rhs),rhsMax =  -1.40083500355104E-11  3.28185026948823E-01
 cg2d: Sum(rhs),rhsMax =  -1.39223077511019E-11  3.27264140133387E-01
 cg2d: Sum(rhs),rhsMax =  -1.38089539802877E-11  3.26161633659505E-01
 cg2d: Sum(rhs),rhsMax =  -1.37018174584114E-11  3.24887789806385E-01
 cg2d: Sum(rhs),rhsMax =  -1.37198030714103E-11  3.23492640324534E-01
 cg2d: Sum(rhs),rhsMax =  -1.35877975537824E-11  3.23462164174581E-01
 cg2d: Sum(rhs),rhsMax =  -1.33903999000040E-11  3.24910413303163E-01
 cg2d: Sum(rhs),rhsMax =  -1.31589183993697E-11  3.26324806204512E-01
 cg2d: Sum(rhs),rhsMax =  -1.29933841463981E-11  3.27705052629136E-01
 cg2d: Sum(rhs),rhsMax =  -1.27815535932996E-11  3.29050849012321E-01
 cg2d: Sum(rhs),rhsMax =  -1.26454402504805E-11  3.30361869956896E-01
 cg2d: Sum(rhs),rhsMax =  -1.25156551789019E-11  3.31637763778619E-01
 cg2d: Sum(rhs),rhsMax =  -1.23594467993371E-11  3.32878152724682E-01
 cg2d: Sum(rhs),rhsMax =  -1.22167831406728E-11  3.34082637918439E-01
 cg2d: Sum(rhs),rhsMax =  -1.20409238135721E-11  3.35250808492711E-01
 cg2d: Sum(rhs),rhsMax =  -1.19121379427156E-11  3.36382253845468E-01
 cg2d: Sum(rhs),rhsMax =  -1.17619247674838E-11  3.37476577570100E-01
 cg2d: Sum(rhs),rhsMax =  -1.16457954391080E-11  3.38533411437206E-01
 cg2d: Sum(rhs),rhsMax =  -1.14777076731798E-11  3.39552427858815E-01
 cg2d: Sum(rhs),rhsMax =  -1.13343778807007E-11  3.40533349532795E-01
 cg2d: Sum(rhs),rhsMax =  -1.12003739616284E-11  3.41475955392695E-01
 cg2d: Sum(rhs),rhsMax =  -1.10553788346124E-11  3.42380082499179E-01
 cg2d: Sum(rhs),rhsMax =  -1.09853237617585E-11  3.43245624016689E-01
 cg2d: Sum(rhs),rhsMax =  -1.09515729818099E-11  3.44072523843143E-01
 cg2d: Sum(rhs),rhsMax =  -1.09416919968908E-11  3.44860768743412E-01
 cg2d: Sum(rhs),rhsMax =  -1.08700826118024E-11  3.45610378952515E-01
 cg2d: Sum(rhs),rhsMax =  -1.08547615340626E-11  3.46321398168766E-01
 cg2d: Sum(rhs),rhsMax =  -1.08034692303249E-11  3.46993883686331E-01
 cg2d: Sum(rhs),rhsMax =  -1.07517328373774E-11  3.47627897173868E-01
 cg2d: Sum(rhs),rhsMax =  -1.06828990098506E-11  3.48223496349161E-01
 cg2d: Sum(rhs),rhsMax =  -1.06153974499534E-11  3.48780727578542E-01
 cg2d: Sum(rhs),rhsMax =  -1.05992992160964E-11  3.49299619277856E-01
 cg2d: Sum(rhs),rhsMax =  -1.05554454066237E-11  3.49780175922222E-01
 cg2d: Sum(rhs),rhsMax =  -1.05272457417982E-11  3.50222372481023E-01
 cg2d: Sum(rhs),rhsMax =  -1.05075947942623E-11  3.50626149166597E-01
 cg2d: Sum(rhs),rhsMax =  -1.04695141445177E-11  3.50991406499040E-01
 cg2d: Sum(rhs),rhsMax =  -1.04215525098539E-11  3.51318000825040E-01
 cg2d: Sum(rhs),rhsMax =  -1.04374286991060E-11  3.51605740568105E-01
 cg2d: Sum(rhs),rhsMax =  -1.04145581047987E-11  3.51854383615788E-01
 cg2d: Sum(rhs),rhsMax =  -1.03951292018678E-11  3.52063636351075E-01
 cg2d: Sum(rhs),rhsMax =  -1.04027897407377E-11  3.52233154891773E-01
 cg2d: Sum(rhs),rhsMax =  -1.03691499830916E-11  3.52362549091773E-01
 cg2d: Sum(rhs),rhsMax =  -1.03361763592602E-11  3.52451389759566E-01
 cg2d: Sum(rhs),rhsMax =  -1.03504982362779E-11  3.52499219346557E-01
 cg2d: Sum(rhs),rhsMax =  -1.03989039601515E-11  3.52505566049650E-01
 cg2d: Sum(rhs),rhsMax =  -1.04091180119781E-11  3.52469960880818E-01
 cg2d: Sum(rhs),rhsMax =  -1.04328767847051E-11  3.52391956828705E-01
 cg2d: Sum(rhs),rhsMax =  -1.04406483458774E-11  3.52271148844386E-01
 cg2d: Sum(rhs),rhsMax =  -1.04622976948576E-11  3.52260217815458E-01
 cg2d: Sum(rhs),rhsMax =  -1.04746211704310E-11  3.52233075346656E-01
 cg2d: Sum(rhs),rhsMax =  -1.04757313934556E-11  3.52151889697213E-01
 cg2d: Sum(rhs),rhsMax =  -1.04833919323255E-11  3.52016454596791E-01
 cg2d: Sum(rhs),rhsMax =  -1.04757313934556E-11  3.51826596861063E-01
 cg2d: Sum(rhs),rhsMax =  -1.04543040890803E-11  3.51582175904645E-01
 cg2d: Sum(rhs),rhsMax =  -1.05020436791392E-11  3.51283085472616E-01
 cg2d: Sum(rhs),rhsMax =  -1.05084829726820E-11  3.50929257695841E-01
 cg2d: Sum(rhs),rhsMax =  -1.05047082143983E-11  3.50520669406594E-01
 cg2d: Sum(rhs),rhsMax =  -1.05142561324101E-11  3.50057350472861E-01
 cg2d: Sum(rhs),rhsMax =  -1.05192521360209E-11  3.49539393732996E-01
 cg2d: Sum(rhs),rhsMax =  -1.05441211317725E-11  3.48966965949250E-01
 cg2d: Sum(rhs),rhsMax =  -1.05840891606590E-11  3.48340319061496E-01
 cg2d: Sum(rhs),rhsMax =  -1.06079589556884E-11  3.47659800923182E-01
 cg2d: Sum(rhs),rhsMax =  -1.06894493256959E-11  3.46925864650803E-01
 cg2d: Sum(rhs),rhsMax =  -1.06835651436654E-11  3.46139075723949E-01
 cg2d: Sum(rhs),rhsMax =  -1.07289732653726E-11  3.45300116039941E-01
 cg2d: Sum(rhs),rhsMax =  -1.07950315353378E-11  3.44409784255627E-01
 cg2d: Sum(rhs),rhsMax =  -1.08127951037318E-11  3.43468991934695E-01
 cg2d: Sum(rhs),rhsMax =  -1.08915099161777E-11  3.42478755252789E-01
 cg2d: Sum(rhs),rhsMax =  -1.09258158076386E-11  3.41440182281182E-01
 cg2d: Sum(rhs),rhsMax =  -1.09583453422601E-11  3.40354456155138E-01
 cg2d: Sum(rhs),rhsMax =  -1.09761089106541E-11  3.39222814715637E-01
 cg2d: Sum(rhs),rhsMax =  -1.10160769395407E-11  3.38046527471380E-01
 cg2d: Sum(rhs),rhsMax =  -1.10634834626921E-11  3.36826870941608E-01
 cg2d: Sum(rhs),rhsMax =  -1.11043396699984E-11  3.35565103591040E-01
 cg2d: Sum(rhs),rhsMax =  -1.11959330695299E-11  3.34262441642057E-01
 cg2d: Sum(rhs),rhsMax =  -1.12281295372441E-11  3.32920037037389E-01
 cg2d: Sum(rhs),rhsMax =  -1.13292708547874E-11  3.31538958726972E-01
 cg2d: Sum(rhs),rhsMax =  -1.13782316901734E-11  3.30120178269910E-01
 cg2d: Sum(rhs),rhsMax =  -1.14570575249218E-11  3.28759094871257E-01
 cg2d: Sum(rhs),rhsMax =  -1.15620846230513E-11  3.27487713304516E-01
 cg2d: Sum(rhs),rhsMax =  -1.16171516850727E-11  3.26190269156306E-01
 cg2d: Sum(rhs),rhsMax =  -1.17371667940347E-11  3.24866517628992E-01
 cg2d: Sum(rhs),rhsMax =  -1.18024479078827E-11  3.23516168358542E-01
 cg2d: Sum(rhs),rhsMax =  -1.19085852290368E-11  3.22138911412123E-01
 cg2d: Sum(rhs),rhsMax =  -1.20272680703692E-11  3.20734440045943E-01
 cg2d: Sum(rhs),rhsMax =  -1.21354037929677E-11  3.19302469242626E-01
 cg2d: Sum(rhs),rhsMax =  -1.22736265595336E-11  3.17842749732596E-01
 cg2d: Sum(rhs),rhsMax =  -1.24147359059634E-11  3.16355077851722E-01
 cg2d: Sum(rhs),rhsMax =  -1.25569554754179E-11  3.14839302102730E-01
 cg2d: Sum(rhs),rhsMax =  -1.26890720153483E-11  3.13295327599980E-01
 cg2d: Sum(rhs),rhsMax =  -1.28514976438510E-11  3.11723119650857E-01
 cg2d: Sum(rhs),rhsMax =  -1.29889432542996E-11  3.10122707566725E-01
 cg2d: Sum(rhs),rhsMax =  -1.31269439762605E-11  3.08494189444195E-01
 cg2d: Sum(rhs),rhsMax =  -1.33053568163177E-11  3.06837738183958E-01
 cg2d: Sum(rhs),rhsMax =  -1.34479094526796E-11  3.05153608505942E-01
 cg2d: Sum(rhs),rhsMax =  -1.36158861963054E-11  3.03442144263017E-01
 cg2d: Sum(rhs),rhsMax =  -1.38393740911624E-11  3.01703785024154E-01
 cg2d: Sum(rhs),rhsMax =  -1.40466527298599E-11  2.99939070740790E-01
 cg2d: Sum(rhs),rhsMax =  -1.42587053275633E-11  2.98148643345761E-01
 cg2d: Sum(rhs),rhsMax =  -1.44836365123524E-11  2.96333244350489E-01
 cg2d: Sum(rhs),rhsMax =  -1.46824774560628E-11  2.94493707865516E-01
 cg2d: Sum(rhs),rhsMax =  -1.49601442345215E-11  2.92630948917381E-01
 cg2d: Sum(rhs),rhsMax =  -1.51929580027854E-11  2.90745947409961E-01
 cg2d: Sum(rhs),rhsMax =  -1.53681511960713E-11  2.88839728523173E-01
 cg2d: Sum(rhs),rhsMax =  -1.55617740915659E-11  2.86913340709602E-01
 cg2d: Sum(rhs),rhsMax =  -1.57174273596183E-11  2.84967832709217E-01
 cg2d: Sum(rhs),rhsMax =  -1.59545709976783E-11  2.83004231139056E-01
 cg2d: Sum(rhs),rhsMax =  -1.61572977219748E-11  2.81023520227977E-01
 cg2d: Sum(rhs),rhsMax =  -1.59984248071510E-11  2.84918937505500E-01
 cg2d: Sum(rhs),rhsMax =  -1.58525415017152E-11  2.88957131078515E-01
 cg2d: Sum(rhs),rhsMax =  -1.57456270244438E-11  2.92732251344665E-01
 cg2d: Sum(rhs),rhsMax =  -1.56340496104690E-11  2.96279353467393E-01
 cg2d: Sum(rhs),rhsMax =  -1.55444546123817E-11  2.99610035382042E-01
 cg2d: Sum(rhs),rhsMax =  -1.54476431646344E-11  3.02711816850708E-01
 cg2d: Sum(rhs),rhsMax =  -1.53939083702426E-11  3.05600965873547E-01
 cg2d: Sum(rhs),rhsMax =  -1.53557166981955E-11  3.08272562732996E-01
 cg2d: Sum(rhs),rhsMax =  -1.53067558628095E-11  3.10705413381189E-01
 cg2d: Sum(rhs),rhsMax =  -1.53111967549080E-11  3.12920158020721E-01
 cg2d: Sum(rhs),rhsMax =  -1.52721169044412E-11  3.14949048178642E-01
 cg2d: Sum(rhs),rhsMax =  -1.52652335216885E-11  3.16781248465755E-01
 cg2d: Sum(rhs),rhsMax =  -1.52496903993438E-11  3.18435571390106E-01
 cg2d: Sum(rhs),rhsMax =  -1.52764467742372E-11  3.19899562313108E-01
 cg2d: Sum(rhs),rhsMax =  -1.53008716807790E-11  3.21179992287226E-01
 cg2d: Sum(rhs),rhsMax =  -1.52943213649337E-11  3.22275210733978E-01
 cg2d: Sum(rhs),rhsMax =  -1.53436152672271E-11  3.23223100326600E-01
 cg2d: Sum(rhs),rhsMax =  -1.54861679035889E-11  3.23992498204859E-01
 cg2d: Sum(rhs),rhsMax =  -1.55637724930102E-11  3.24579119057152E-01
 cg2d: Sum(rhs),rhsMax =  -1.56007429197302E-11  3.25006883891979E-01
 cg2d: Sum(rhs),rhsMax =  -1.57845958526082E-11  3.25269856008001E-01
 cg2d: Sum(rhs),rhsMax =  -1.59668944732516E-11  3.25371329228233E-01
 cg2d: Sum(rhs),rhsMax =  -1.61248792096558E-11  3.25307991910045E-01
 cg2d: Sum(rhs),rhsMax =  -1.62955204885407E-11  3.25073843778223E-01
 cg2d: Sum(rhs),rhsMax =  -1.64734892393881E-11  3.24690642657549E-01
 cg2d: Sum(rhs),rhsMax =  -1.66660019118581E-11  3.24165402702643E-01
 cg2d: Sum(rhs),rhsMax =  -1.68848268700117E-11  3.23514232041262E-01
 cg2d: Sum(rhs),rhsMax =  -1.70170544322445E-11  3.22723547178027E-01
 cg2d: Sum(rhs),rhsMax =  -1.71644920499148E-11  3.21815533394383E-01
 cg2d: Sum(rhs),rhsMax =  -1.72869496495309E-11  3.20813087134551E-01
 cg2d: Sum(rhs),rhsMax =  -1.74160685872948E-11  3.19729069886590E-01
 cg2d: Sum(rhs),rhsMax =  -1.75688352754833E-11  3.18543349325169E-01
 cg2d: Sum(rhs),rhsMax =  -1.77269310341899E-11  3.17279736926349E-01
 cg2d: Sum(rhs),rhsMax =  -1.78635994885212E-11  3.15886502862065E-01
 cg2d: Sum(rhs),rhsMax =  -1.80340187228012E-11  3.14408442495687E-01
 cg2d: Sum(rhs),rhsMax =  -1.82442949636652E-11  3.12828121050998E-01
 cg2d: Sum(rhs),rhsMax =  -1.83854043100951E-11  3.11136399102858E-01
 cg2d: Sum(rhs),rhsMax =  -1.85943482833295E-11  3.09337528595356E-01
 cg2d: Sum(rhs),rhsMax =  -1.87747595248311E-11  3.07449422296641E-01
 cg2d: Sum(rhs),rhsMax =  -1.89357418634017E-11  3.05475765813452E-01
 cg2d: Sum(rhs),rhsMax =  -1.92069693483177E-11  3.03412645156127E-01
 cg2d: Sum(rhs),rhsMax =  -1.93797200509493E-11  3.01265751097057E-01
 cg2d: Sum(rhs),rhsMax =  -1.95943261616094E-11  2.99052901173105E-01
 cg2d: Sum(rhs),rhsMax =  -1.97841742988203E-11  2.96775945584139E-01
 cg2d: Sum(rhs),rhsMax =  -1.99972260972459E-11  2.94432157436906E-01
 cg2d: Sum(rhs),rhsMax =  -2.02506900137678E-11  2.92049829738125E-01
 cg2d: Sum(rhs),rhsMax =  -2.04966044137223E-11  2.89636355873015E-01
 cg2d: Sum(rhs),rhsMax =  -2.07228678661409E-11  2.87205975550502E-01
 cg2d: Sum(rhs),rhsMax =  -2.09645634186018E-11  2.84737633324532E-01
 cg2d: Sum(rhs),rhsMax =  -2.12128092869079E-11  2.82256929595254E-01
 cg2d: Sum(rhs),rhsMax =  -2.14471773674063E-11  2.79764477368285E-01
 cg2d: Sum(rhs),rhsMax =  -2.17258433465872E-11  2.77262371937597E-01
 cg2d: Sum(rhs),rhsMax =  -2.19512186205861E-11  2.74765929356599E-01
 cg2d: Sum(rhs),rhsMax =  -2.21752616269555E-11  2.72312359257347E-01
 cg2d: Sum(rhs),rhsMax =  -2.24341656362981E-11  2.69861139388522E-01
 cg2d: Sum(rhs),rhsMax =  -2.26823004823018E-11  2.67402737915660E-01
 cg2d: Sum(rhs),rhsMax =  -2.28980168159865E-11  2.65418358327073E-01
 cg2d: Sum(rhs),rhsMax =  -2.24220642053297E-11  2.71741269386273E-01
 cg2d: Sum(rhs),rhsMax =  -2.19958495861761E-11  2.77817299023658E-01
 cg2d: Sum(rhs),rhsMax =  -2.15810702641761E-11  2.83662401177227E-01
 cg2d: Sum(rhs),rhsMax =  -2.12394546394989E-11  2.89269187356755E-01
 cg2d: Sum(rhs),rhsMax =  -2.09000594608710E-11  2.94636390401845E-01
(PID.TID 0000.0001)      cg2d_init_res =   8.74191718385491E-02
(PID.TID 0000.0001)      cg2d_iters(min,last) =      -1      30
(PID.TID 0000.0001)      cg2d_last_res =   3.26966078387922E-14
(PID.TID 0000.0001) // =======================================================
(PID.TID 0000.0001) // Begin MONITOR dynamic field statistics
(PID.TID 0000.0001) // =======================================================
(PID.TID 0000.0001) %MON time_tsnumber                =                  2400
(PID.TID 0000.0001) %MON time_secondsf                =   3.6000000000000E+04
(PID.TID 0000.0001) %MON dynstat_eta_max              =   1.9048925821214E-02
(PID.TID 0000.0001) %MON dynstat_eta_min              =  -3.3551229536506E-02
(PID.TID 0000.0001) %MON dynstat_eta_mean             =   7.1369332235235E-15
(PID.TID 0000.0001) %MON dynstat_eta_sd               =   1.3437712972668E-02
(PID.TID 0000.0001) %MON dynstat_eta_del2             =   3.4133515081555E-04
(PID.TID 0000.0001) %MON dynstat_uvel_max             =   1.7543127060161E+00
(PID.TID 0000.0001) %MON dynstat_uvel_min             =  -9.0415460965207E-01
(PID.TID 0000.0001) %MON dynstat_uvel_mean            =  -1.4428501201238E-03
(PID.TID 0000.0001) %MON dynstat_uvel_sd              =   1.8205746976993E-01
(PID.TID 0000.0001) %MON dynstat_uvel_del2            =   1.0182256632418E-03
(PID.TID 0000.0001) %MON dynstat_vvel_max             =   0.0000000000000E+00
(PID.TID 0000.0001) %MON dynstat_vvel_min             =   0.0000000000000E+00
(PID.TID 0000.0001) %MON dynstat_vvel_mean            =   0.0000000000000E+00
(PID.TID 0000.0001) %MON dynstat_vvel_sd              =   0.0000000000000E+00
(PID.TID 0000.0001) %MON dynstat_vvel_del2            =   0.0000000000000E+00
(PID.TID 0000.0001) %MON dynstat_wvel_max             =   7.5799219824518E-02
(PID.TID 0000.0001) %MON dynstat_wvel_min             =  -6.0582472871391E-02
(PID.TID 0000.0001) %MON dynstat_wvel_mean            =  -2.1200216235707E-21
(PID.TID 0000.0001) %MON dynstat_wvel_sd              =   6.1167789102869E-03
(PID.TID 0000.0001) %MON dynstat_wvel_del2            =   1.2952311581438E-04
(PID.TID 0000.0001) %MON dynstat_theta_max            =   1.4976502386283E+01
(PID.TID 0000.0001) %MON dynstat_theta_min            =   9.9765023856453E+00
(PID.TID 0000.0001) %MON dynstat_theta_mean           =   1.2377067396135E+01
(PID.TID 0000.0001) %MON dynstat_theta_sd             =   2.3780047577923E+00
(PID.TID 0000.0001) %MON dynstat_theta_del2           =   2.5322248611684E-03
(PID.TID 0000.0001) %MON dynstat_salt_max             =   3.5000000000000E+01
(PID.TID 0000.0001) %MON dynstat_salt_min             =   3.5000000000000E+01
(PID.TID 0000.0001) %MON dynstat_salt_mean            =   3.5000000000000E+01
(PID.TID 0000.0001) %MON dynstat_salt_sd              =   3.4816594052245E-13
(PID.TID 0000.0001) %MON dynstat_salt_del2            =   0.0000000000000E+00
(PID.TID 0000.0001) %MON dynstat_sst_max              =   1.4976502385655E+01
(PID.TID 0000.0001) %MON dynstat_sst_min              =   1.4622538740571E+01
(PID.TID 0000.0001) %MON dynstat_sst_mean             =   1.4847754544160E+01
(PID.TID 0000.0001) %MON dynstat_sst_sd               =   1.6440229355701E-01
(PID.TID 0000.0001) %MON dynstat_sst_del2             =   7.5019328256008E-04
(PID.TID 0000.0001) %MON dynstat_sss_max              =   3.5000000000000E+01
(PID.TID 0000.0001) %MON dynstat_sss_min              =   3.5000000000000E+01
(PID.TID 0000.0001) %MON dynstat_sss_mean             =   3.5000000000000E+01
(PID.TID 0000.0001) %MON dynstat_sss_sd               =   3.5527136788005E-14
(PID.TID 0000.0001) %MON dynstat_sss_del2             =   0.0000000000000E+00
(PID.TID 0000.0001) %MON forcing_qnet_max             =   0.0000000000000E+00
(PID.TID 0000.0001) %MON forcing_qnet_min             =   0.0000000000000E+00
(PID.TID 0000.0001) %MON forcing_qnet_mean            =   0.0000000000000E+00
(PID.TID 0000.0001) %MON forcing_qnet_sd              =   0.0000000000000E+00
(PID.TID 0000.0001) %MON forcing_qnet_del2            =   0.0000000000000E+00
(PID.TID 0000.0001) %MON forcing_qsw_max              =   0.0000000000000E+00
(PID.TID 0000.0001) %MON forcing_qsw_min              =   0.0000000000000E+00
(PID.TID 0000.0001) %MON forcing_qsw_mean             =   0.0000000000000E+00
(PID.TID 0000.0001) %MON forcing_qsw_sd               =   0.0000000000000E+00
(PID.TID 0000.0001) %MON forcing_qsw_del2             =   0.0000000000000E+00
(PID.TID 0000.0001) %MON forcing_empmr_max            =   0.0000000000000E+00
(PID.TID 0000.0001) %MON forcing_empmr_min            =   0.0000000000000E+00
(PID.TID 0000.0001) %MON forcing_empmr_mean           =   0.0000000000000E+00
(PID.TID 0000.0001) %MON forcing_empmr_sd             =   0.0000000000000E+00
(PID.TID 0000.0001) %MON forcing_empmr_del2           =   0.0000000000000E+00
(PID.TID 0000.0001) %MON forcing_fu_max               =   0.0000000000000E+00
(PID.TID 0000.0001) %MON forcing_fu_min               =   0.0000000000000E+00
(PID.TID 0000.0001) %MON forcing_fu_mean              =   0.0000000000000E+00
(PID.TID 0000.0001) %MON forcing_fu_sd                =   0.0000000000000E+00
(PID.TID 0000.0001) %MON forcing_fu_del2              =   0.0000000000000E+00
(PID.TID 0000.0001) %MON forcing_fv_max               =   0.0000000000000E+00
(PID.TID 0000.0001) %MON forcing_fv_min               =   0.0000000000000E+00
(PID.TID 0000.0001) %MON forcing_fv_mean              =   0.0000000000000E+00
(PID.TID 0000.0001) %MON forcing_fv_sd                =   0.0000000000000E+00
(PID.TID 0000.0001) %MON forcing_fv_del2              =   0.0000000000000E+00
(PID.TID 0000.0001) %MON advcfl_uvel_max              =   9.0785713254091E-02
(PID.TID 0000.0001) %MON advcfl_vvel_max              =   0.0000000000000E+00
(PID.TID 0000.0001) %MON advcfl_wvel_max              =   4.9054760917478E-01
(PID.TID 0000.0001) %MON advcfl_W_hf_max              =   4.9429913148881E-01
(PID.TID 0000.0001) %MON pe_b_mean                    =   5.0690711655143E-06
(PID.TID 0000.0001) %MON ke_max                       =   1.0953275474222E+00
(PID.TID 0000.0001) %MON ke_mean                      =   1.6756961097572E-02
(PID.TID 0000.0001) %MON ke_vol                       =   8.5337279889550E+10
(PID.TID 0000.0001) %MON vort_r_min                   =   0.0000000000000E+00
(PID.TID 0000.0001) %MON vort_r_max                   =   0.0000000000000E+00
(PID.TID 0000.0001) %MON vort_a_mean                  =   0.0000000000000E+00
(PID.TID 0000.0001) %MON vort_a_sd                    =   0.0000000000000E+00
(PID.TID 0000.0001) %MON vort_p_mean                  =   0.0000000000000E+00
(PID.TID 0000.0001) %MON vort_p_sd                    =   0.0000000000000E+00
(PID.TID 0000.0001) %MON surfExpan_theta_mean         =  -1.2800654164252E-06
(PID.TID 0000.0001) %MON surfExpan_salt_mean          =   8.7802002088439E-19
(PID.TID 0000.0001) // =======================================================
(PID.TID 0000.0001) // End MONITOR dynamic field statistics
(PID.TID 0000.0001) // =======================================================
(PID.TID 0000.0001) // =======================================================
(PID.TID 0000.0001) // Begin OBCS MONITOR field statistics
(PID.TID 0000.0001) // =======================================================
(PID.TID 0000.0001) %MON obc_E_uVel_max               =   0.0000000000000E+00
(PID.TID 0000.0001) %MON obc_E_uVel_min               =   0.0000000000000E+00
(PID.TID 0000.0001) %MON obc_E_uVel_mean              =   0.0000000000000E+00
(PID.TID 0000.0001) %MON obc_E_uVel_sd                =   0.0000000000000E+00
(PID.TID 0000.0001) %MON obc_E_uVel_Int               =   0.0000000000000E+00
(PID.TID 0000.0001) %MON obc_W_uVel_max               =   0.0000000000000E+00
(PID.TID 0000.0001) %MON obc_W_uVel_min               =   0.0000000000000E+00
(PID.TID 0000.0001) %MON obc_W_uVel_mean              =   0.0000000000000E+00
(PID.TID 0000.0001) %MON obc_W_uVel_sd                =   0.0000000000000E+00
(PID.TID 0000.0001) %MON obc_W_uVel_Int               =   0.0000000000000E+00
(PID.TID 0000.0001) // =======================================================
(PID.TID 0000.0001) // End OBCS MONITOR field statistics
(PID.TID 0000.0001) // =======================================================
 cg2d: Sum(rhs),rhsMax =  -2.05967465305434E-11  2.99764854929333E-01
 cg2d: Sum(rhs),rhsMax =  -2.04309902329669E-11  3.04651360096421E-01
 cg2d: Sum(rhs),rhsMax =  -2.02892147527223E-11  3.09297932105240E-01
 cg2d: Sum(rhs),rhsMax =  -2.01286765033615E-11  3.13697312563628E-01
 cg2d: Sum(rhs),rhsMax =  -2.00273686523644E-11  3.17851744923893E-01
 cg2d: Sum(rhs),rhsMax =  -1.99165128833556E-11  3.21768550698195E-01
 cg2d: Sum(rhs),rhsMax =  -1.98347449575920E-11  3.25450106644911E-01
 cg2d: Sum(rhs),rhsMax =  -1.97608596153032E-11  3.28898645763593E-01
 cg2d: Sum(rhs),rhsMax =  -1.96888616521562E-11  3.32114882756521E-01
 cg2d: Sum(rhs),rhsMax =  -1.96603844315746E-11  3.35098532995469E-01
 cg2d: Sum(rhs),rhsMax =  -1.96322402779003E-11  3.37823404809932E-01
 cg2d: Sum(rhs),rhsMax =  -1.96218041814689E-11  3.40343697398105E-01
 cg2d: Sum(rhs),rhsMax =  -1.96077598602074E-11  3.42645009245243E-01
 cg2d: Sum(rhs),rhsMax =  -1.96296312537925E-11  3.44708072785214E-01
 cg2d: Sum(rhs),rhsMax =  -1.96546112718465E-11  3.46565373137602E-01
 cg2d: Sum(rhs),rhsMax =  -1.96840321819991E-11  3.48202207034977E-01
 cg2d: Sum(rhs),rhsMax =  -1.97287186587403E-11  3.49630371663190E-01
 cg2d: Sum(rhs),rhsMax =  -1.97833416315518E-11  3.50853190545526E-01
 cg2d: Sum(rhs),rhsMax =  -1.98357996694654E-11  3.51877010987672E-01
 cg2d: Sum(rhs),rhsMax =  -1.99114058574423E-11  3.52689780535192E-01
 cg2d: Sum(rhs),rhsMax =  -1.99727456795529E-11  3.53315124400536E-01
 cg2d: Sum(rhs),rhsMax =  -2.00485739121348E-11  3.53842525517281E-01
 cg2d: Sum(rhs),rhsMax =  -2.01503258523417E-11  3.54097354541975E-01
 cg2d: Sum(rhs),rhsMax =  -2.02629579781899E-11  3.54175406110859E-01
 cg2d: Sum(rhs),rhsMax =  -2.03846384216888E-11  3.54093648292195E-01
 cg2d: Sum(rhs),rhsMax =  -2.04962713468149E-11  3.53822939931494E-01
 cg2d: Sum(rhs),rhsMax =  -2.05109262907399E-11  3.53375163869963E-01
 cg2d: Sum(rhs),rhsMax =  -2.05456207602595E-11  3.52755404776031E-01
 cg2d: Sum(rhs),rhsMax =  -2.06291095317113E-11  3.51970872692408E-01
 cg2d: Sum(rhs),rhsMax =  -2.07327488510600E-11  3.51016261079465E-01
 cg2d: Sum(rhs),rhsMax =  -2.08543737834077E-11  3.49908141325591E-01
 cg2d: Sum(rhs),rhsMax =  -2.09723904909254E-11  3.48679276221302E-01
 cg2d: Sum(rhs),rhsMax =  -2.10894635088721E-11  3.47310007633186E-01
 cg2d: Sum(rhs),rhsMax =  -2.12572737190442E-11  3.45808173596220E-01
 cg2d: Sum(rhs),rhsMax =  -2.14068207604612E-11  3.44177579636829E-01
 cg2d: Sum(rhs),rhsMax =  -2.15691908778126E-11  3.42493500236054E-01
 cg2d: Sum(rhs),rhsMax =  -2.17370565991359E-11  3.40614849834316E-01
 cg2d: Sum(rhs),rhsMax =  -2.18685070052516E-11  3.38672113183042E-01
 cg2d: Sum(rhs),rhsMax =  -2.19839146886613E-11  3.36622255994237E-01
 cg2d: Sum(rhs),rhsMax =  -2.20695128838599E-11  3.34486976879240E-01
 cg2d: Sum(rhs),rhsMax =  -2.21637708186506E-11  3.32328669818209E-01
 cg2d: Sum(rhs),rhsMax =  -2.22752372103230E-11  3.29928439653216E-01
 cg2d: Sum(rhs),rhsMax =  -2.24215646049686E-11  3.27423796426184E-01
 cg2d: Sum(rhs),rhsMax =  -2.25892637928382E-11  3.24910231739215E-01
 cg2d: Sum(rhs),rhsMax =  -2.27677876551979E-11  3.22180052989772E-01
 cg2d: Sum(rhs),rhsMax =  -2.29666285989083E-11  3.19370542126894E-01
 cg2d: Sum(rhs),rhsMax =  -2.31292207608647E-11  3.16506323350527E-01
 cg2d: Sum(rhs),rhsMax =  -2.32968089264318E-11  3.13584195869128E-01
 cg2d: Sum(rhs),rhsMax =  -2.35211294885573E-11  3.10601994629191E-01
 cg2d: Sum(rhs),rhsMax =  -2.37556641025094E-11  3.07567196348909E-01
 cg2d: Sum(rhs),rhsMax =  -2.39813169322645E-11  3.04466339845723E-01
 cg2d: Sum(rhs),rhsMax =  -2.42104669645471E-11  3.01303265643741E-01
 cg2d: Sum(rhs),rhsMax =  -2.44238518298800E-11  2.98117544770065E-01
 cg2d: Sum(rhs),rhsMax =  -2.46742071219330E-11  2.94913453867585E-01
 cg2d: Sum(rhs),rhsMax =  -2.49326670420658E-11  2.91679341543647E-01
 cg2d: Sum(rhs),rhsMax =  -2.51961784769605E-11  2.88417183751657E-01
 cg2d: Sum(rhs),rhsMax =  -2.54406495869830E-11  2.85145288861714E-01
 cg2d: Sum(rhs),rhsMax =  -2.57234233913550E-11  2.81864118860020E-01
 cg2d: Sum(rhs),rhsMax =  -2.59976484784374E-11  2.78583963736148E-01
 cg2d: Sum(rhs),rhsMax =  -2.62577737331071E-11  2.75314223506916E-01
 cg2d: Sum(rhs),rhsMax =  -2.65231170359925E-11  2.72052369812411E-01
 cg2d: Sum(rhs),rhsMax =  -2.65931721088464E-11  2.70632875110669E-01
 cg2d: Sum(rhs),rhsMax =  -2.59821608672439E-11  2.76263394556375E-01
 cg2d: Sum(rhs),rhsMax =  -2.54182785930368E-11  2.81662272743031E-01
 cg2d: Sum(rhs),rhsMax =  -2.49144593844619E-11  2.86812487915251E-01
 cg2d: Sum(rhs),rhsMax =  -2.44244069413924E-11  2.91707972523227E-01
 cg2d: Sum(rhs),rhsMax =  -2.39710473692867E-11  2.96358614301876E-01
 cg2d: Sum(rhs),rhsMax =  -2.35617081401074E-11  3.00769860566307E-01
 cg2d: Sum(rhs),rhsMax =  -2.31912267167900E-11  3.04941436452649E-01
 cg2d: Sum(rhs),rhsMax =  -2.28458363338291E-11  3.08869259077650E-01
 cg2d: Sum(rhs),rhsMax =  -2.25041651980007E-11  3.12575807100282E-01
 cg2d: Sum(rhs),rhsMax =  -2.22032392471760E-11  3.16030197638370E-01
 cg2d: Sum(rhs),rhsMax =  -2.19103069021287E-11  3.19253322484282E-01
 cg2d: Sum(rhs),rhsMax =  -2.16300310995621E-11  3.22255826298440E-01
 cg2d: Sum(rhs),rhsMax =  -2.13768447387963E-11  3.25041107425945E-01
 cg2d: Sum(rhs),rhsMax =  -2.11246020676015E-11  3.27589524973747E-01
 cg2d: Sum(rhs),rhsMax =  -2.08950079461090E-11  3.29889311312637E-01
 cg2d: Sum(rhs),rhsMax =  -2.06853978390598E-11  3.31938912501956E-01
 cg2d: Sum(rhs),rhsMax =  -2.04974925921420E-11  3.33753821402381E-01
 cg2d: Sum(rhs),rhsMax =  -2.03438932366851E-11  3.35322192611929E-01
 cg2d: Sum(rhs),rhsMax =  -2.01791916509819E-11  3.36659916550491E-01
 cg2d: Sum(rhs),rhsMax =  -2.00349736800831E-11  3.37779780392843E-01
 cg2d: Sum(rhs),rhsMax =  -1.98911997983942E-11  3.38704100325605E-01
 cg2d: Sum(rhs),rhsMax =  -1.97666327750312E-11  3.39405504225797E-01
 cg2d: Sum(rhs),rhsMax =  -1.96699323495864E-11  3.39911146002312E-01
 cg2d: Sum(rhs),rhsMax =  -1.95496951960195E-11  3.40231551423019E-01
 cg2d: Sum(rhs),rhsMax =  -1.94179117229965E-11  3.40368730934501E-01
 cg2d: Sum(rhs),rhsMax =  -1.93369209533500E-11  3.40298758717536E-01
 cg2d: Sum(rhs),rhsMax =  -1.92489357786485E-11  3.40041314806120E-01
 cg2d: Sum(rhs),rhsMax =  -1.91716642561346E-11  3.39595926627110E-01
 cg2d: Sum(rhs),rhsMax =  -1.90868432170532E-11  3.38994322625354E-01
 cg2d: Sum(rhs),rhsMax =  -1.90343851791397E-11  3.38209597843099E-01
 cg2d: Sum(rhs),rhsMax =  -1.89687154872331E-11  3.37266738450870E-01
 cg2d: Sum(rhs),rhsMax =  -1.89296356367663E-11  3.36168967066206E-01
 cg2d: Sum(rhs),rhsMax =  -1.88912219201143E-11  3.34904983651289E-01
 cg2d: Sum(rhs),rhsMax =  -1.88786763999360E-11  3.33492629155981E-01
 cg2d: Sum(rhs),rhsMax =  -1.88652982124893E-11  3.31924452886622E-01
 cg2d: Sum(rhs),rhsMax =  -1.88749016416523E-11  3.30217272886978E-01
 cg2d: Sum(rhs),rhsMax =  -1.88553617164189E-11  3.28366844894132E-01
 cg2d: Sum(rhs),rhsMax =  -1.88596915862149E-11  3.26392388980002E-01
 cg2d: Sum(rhs),rhsMax =  -1.88908333420557E-11  3.24305931051459E-01
 cg2d: Sum(rhs),rhsMax =  -1.89190330068811E-11  3.22103103307378E-01
 cg2d: Sum(rhs),rhsMax =  -1.90227833485324E-11  3.19819352478940E-01
 cg2d: Sum(rhs),rhsMax =  -1.91325844056678E-11  3.17371434883448E-01
 cg2d: Sum(rhs),rhsMax =  -1.92678095700671E-11  3.14853074955857E-01
 cg2d: Sum(rhs),rhsMax =  -1.93858262775848E-11  3.12264861425023E-01
 cg2d: Sum(rhs),rhsMax =  -1.94462224101244E-11  3.09594407398290E-01
 cg2d: Sum(rhs),rhsMax =  -1.95142790815339E-11  3.06841964672686E-01
 cg2d: Sum(rhs),rhsMax =  -1.95783389500548E-11  3.03993676277644E-01
 cg2d: Sum(rhs),rhsMax =  -1.96751503978021E-11  3.01031132752637E-01
 cg2d: Sum(rhs),rhsMax =  -1.97932781276222E-11  2.97985822771534E-01
 cg2d: Sum(rhs),rhsMax =  -1.99485983287673E-11  2.94887845979300E-01
 cg2d: Sum(rhs),rhsMax =  -2.01348937522994E-11  2.91696681662898E-01
 cg2d: Sum(rhs),rhsMax =  -2.03227434880660E-11  2.88418878043616E-01
 cg2d: Sum(rhs),rhsMax =  -2.05365724426088E-11  2.85062933074864E-01
 cg2d: Sum(rhs),rhsMax =  -2.07190931078571E-11  2.81643076888296E-01
 cg2d: Sum(rhs),rhsMax =  -2.09205985868266E-11  2.78163915397416E-01
 cg2d: Sum(rhs),rhsMax =  -2.11619610723801E-11  2.74628860709628E-01
 cg2d: Sum(rhs),rhsMax =  -2.14005480003721E-11  2.71039976241201E-01
 cg2d: Sum(rhs),rhsMax =  -2.16249240736488E-11  2.67418494351716E-01
 cg2d: Sum(rhs),rhsMax =  -2.17504902977339E-11  2.65433807817547E-01
 cg2d: Sum(rhs),rhsMax =  -2.17359463761113E-11  2.64644711604810E-01
 cg2d: Sum(rhs),rhsMax =  -2.17780238287446E-11  2.63662938375765E-01
 cg2d: Sum(rhs),rhsMax =  -2.18270956864330E-11  2.62487994571410E-01
 cg2d: Sum(rhs),rhsMax =  -2.18681739383442E-11  2.61125043900555E-01
 cg2d: Sum(rhs),rhsMax =  -2.19552154234748E-11  2.59571646422153E-01
 cg2d: Sum(rhs),rhsMax =  -2.20614637669314E-11  2.57823614100967E-01
 cg2d: Sum(rhs),rhsMax =  -2.21545004563950E-11  2.55889718997272E-01
 cg2d: Sum(rhs),rhsMax =  -2.22843965502761E-11  2.53771813549466E-01
 cg2d: Sum(rhs),rhsMax =  -2.24055218822627E-11  2.51470985464549E-01
 cg2d: Sum(rhs),rhsMax =  -2.25919283280973E-11  2.48949053101044E-01
 cg2d: Sum(rhs),rhsMax =  -2.27708962796669E-11  2.46219891804689E-01
 cg2d: Sum(rhs),rhsMax =  -2.28627117238034E-11  2.44416452362459E-01
 cg2d: Sum(rhs),rhsMax =  -2.24459340003591E-11  2.48641059748744E-01
 cg2d: Sum(rhs),rhsMax =  -2.20136131545701E-11  2.52650073365182E-01
 cg2d: Sum(rhs),rhsMax =  -2.16493489801906E-11  2.56442364273223E-01
 cg2d: Sum(rhs),rhsMax =  -2.12254658293887E-11  2.60368086897986E-01
 cg2d: Sum(rhs),rhsMax =  -2.09284811703014E-11  2.63512884438012E-01
 cg2d: Sum(rhs),rhsMax =  -2.06307193550970E-11  2.66599898198766E-01
 cg2d: Sum(rhs),rhsMax =  -2.03363992312688E-11  2.69526130426618E-01
 cg2d: Sum(rhs),rhsMax =  -2.00716110398957E-11  2.72247739600664E-01
 cg2d: Sum(rhs),rhsMax =  -1.98294713982250E-11  2.74736926027548E-01
 cg2d: Sum(rhs),rhsMax =  -1.96286320530703E-11  2.77060632625345E-01
 cg2d: Sum(rhs),rhsMax =  -1.94366744921126E-11  2.79117664049507E-01
 cg2d: Sum(rhs),rhsMax =  -1.92521554254199E-11  2.81002513322215E-01
 cg2d: Sum(rhs),rhsMax =  -1.90548687939440E-11  2.82716519437548E-01
 cg2d: Sum(rhs),rhsMax =  -1.89077642431812E-11  2.84213437601580E-01
 cg2d: Sum(rhs),rhsMax =  -1.87496684844746E-11  2.85506651110440E-01
 cg2d: Sum(rhs),rhsMax =  -1.85891302351138E-11  2.86613446116303E-01
 cg2d: Sum(rhs),rhsMax =  -1.84693371707567E-11  2.87526610292942E-01
 cg2d: Sum(rhs),rhsMax =  -1.83243420437407E-11  2.88260827392620E-01
 cg2d: Sum(rhs),rhsMax =  -1.82246440161293E-11  2.88819288610409E-01
 cg2d: Sum(rhs),rhsMax =  -1.81077375316363E-11  2.89204105820309E-01
 cg2d: Sum(rhs),rhsMax =  -1.80270243177461E-11  2.89420874530810E-01
 cg2d: Sum(rhs),rhsMax =  -1.79413151002450E-11  2.89588440248344E-01
 cg2d: Sum(rhs),rhsMax =  -1.78864700828285E-11  2.89373441432320E-01
 cg2d: Sum(rhs),rhsMax =  -1.78698167374591E-11  2.89060579167809E-01
 cg2d: Sum(rhs),rhsMax =  -1.78522752136701E-11  2.88630084438044E-01
 cg2d: Sum(rhs),rhsMax =  -1.78059789135432E-11  2.88053597252232E-01
 cg2d: Sum(rhs),rhsMax =  -1.77902137465935E-11  2.87333358802484E-01
 cg2d: Sum(rhs),rhsMax =  -1.78079773149875E-11  2.86468285338493E-01
 cg2d: Sum(rhs),rhsMax =  -1.78470571654543E-11  2.85474823981969E-01
 cg2d: Sum(rhs),rhsMax =  -1.77546866098055E-11  2.85998019815644E-01
 cg2d: Sum(rhs),rhsMax =  -1.75791603496123E-11  2.87823801222225E-01
 cg2d: Sum(rhs),rhsMax =  -1.73911995915432E-11  2.89629696530982E-01
 cg2d: Sum(rhs),rhsMax =  -1.72368785911203E-11  2.91415830692793E-01
 cg2d: Sum(rhs),rhsMax =  -1.71007652483013E-11  2.93182333050330E-01
 cg2d: Sum(rhs),rhsMax =  -1.69113612003002E-11  2.94929327056408E-01
 cg2d: Sum(rhs),rhsMax =  -1.67746927459689E-11  2.96656918408427E-01
 cg2d: Sum(rhs),rhsMax =  -1.66184843664041E-11  2.98365181890783E-01
 cg2d: Sum(rhs),rhsMax =  -1.64630531429566E-11  3.00054147471437E-01
 cg2d: Sum(rhs),rhsMax =  -1.63120628116076E-11  3.01723786398638E-01
 cg2d: Sum(rhs),rhsMax =  -1.61732849335294E-11  3.03373998175486E-01
 cg2d: Sum(rhs),rhsMax =  -1.60470525756296E-11  3.05004599346133E-01
 cg2d: Sum(rhs),rhsMax =  -1.58969504227002E-11  3.06615315003491E-01
 cg2d: Sum(rhs),rhsMax =  -1.57578394777147E-11  3.08205773821139E-01
 cg2d: Sum(rhs),rhsMax =  -1.56283874730434E-11  3.09775507220193E-01
 cg2d: Sum(rhs),rhsMax =  -1.54811718999781E-11  3.11323953008636E-01
 cg2d: Sum(rhs),rhsMax =  -1.53563828320102E-11  3.12850463487861E-01
 cg2d: Sum(rhs),rhsMax =  -1.52344803439064E-11  3.14354317633008E-01
 cg2d: Sum(rhs),rhsMax =  -1.51179069263208E-11  3.15834736557047E-01
 cg2d: Sum(rhs),rhsMax =  -1.50071066684632E-11  3.17290901110774E-01
 cg2d: Sum(rhs),rhsMax =  -1.48487888651516E-11  3.18721970203337E-01
 cg2d: Sum(rhs),rhsMax =  -1.47242218417887E-11  3.20127098297463E-01
 cg2d: Sum(rhs),rhsMax =  -1.46032075321045E-11  3.21505450573068E-01
 cg2d: Sum(rhs),rhsMax =  -1.44587675166008E-11  3.22856214474177E-01
 cg2d: Sum(rhs),rhsMax =  -1.43717260314702E-11  3.24178606743943E-01
 cg2d: Sum(rhs),rhsMax =  -1.42279521497812E-11  3.25471875574033E-01
 cg2d: Sum(rhs),rhsMax =  -1.41260336761206E-11  3.26735298092092E-01
 cg2d: Sum(rhs),rhsMax =  -1.40132350168187E-11  3.27968174017731E-01
 cg2d: Sum(rhs),rhsMax =  -1.38929978632518E-11  3.29169816864137E-01
 cg2d: Sum(rhs),rhsMax =  -1.37992950399735E-11  3.30339544484709E-01
 cg2d: Sum(rhs),rhsMax =  -1.36480826640195E-11  3.31476671007381E-01
 cg2d: Sum(rhs),rhsMax =  -1.35674804724317E-11  3.32580502223328E-01
 cg2d: Sum(rhs),rhsMax =  -1.34687816455425E-11  3.33650336277596E-01
 cg2d: Sum(rhs),rhsMax =  -1.33854038963932E-11  3.34685471043721E-01
 cg2d: Sum(rhs),rhsMax =  -1.32956978760035E-11  3.35685218873053E-01
 cg2d: Sum(rhs),rhsMax =  -1.32289734722235E-11  3.36648928541289E-01
 cg2d: Sum(rhs),rhsMax =  -1.31072930287246E-11  3.37576013247620E-01
 cg2d: Sum(rhs),rhsMax =  -1.30886412819109E-11  3.38465982560913E-01
 cg2d: Sum(rhs),rhsMax =  -1.29980470831015E-11  3.39318475374803E-01
 cg2d: Sum(rhs),rhsMax =  -1.29551924743510E-11  3.40133290353834E-01
 cg2d: Sum(rhs),rhsMax =  -1.28994592785148E-11  3.40910410133108E-01
 cg2d: Sum(rhs),rhsMax =  -1.28514976438510E-11  3.41650015743690E-01
 cg2d: Sum(rhs),rhsMax =  -1.27827748386267E-11  3.42352488391552E-01
 cg2d: Sum(rhs),rhsMax =  -1.27703403407509E-11  3.43018396773916E-01
 cg2d: Sum(rhs),rhsMax =  -1.27661214932573E-11  3.43648469469266E-01
 cg2d: Sum(rhs),rhsMax =  -1.27380328507343E-11  3.44243553435531E-01
 cg2d: Sum(rhs),rhsMax =  -1.27383659176417E-11  3.44804561118509E-01
 cg2d: Sum(rhs),rhsMax =  -1.27226007506920E-11  3.45332409931533E-01
 cg2d: Sum(rhs),rhsMax =  -1.27198251931304E-11  3.45827958763112E-01
 cg2d: Sum(rhs),rhsMax =  -1.27321486687038E-11  3.46291946590957E-01
 cg2d: Sum(rhs),rhsMax =  -1.27524657500544E-11  3.46724938175859E-01
 cg2d: Sum(rhs),rhsMax =  -1.27177157693836E-11  3.47127281189183E-01
 cg2d: Sum(rhs),rhsMax =  -1.26915145060025E-11  3.47499078067620E-01
 cg2d: Sum(rhs),rhsMax =  -1.26215704554511E-11  3.47840174514615E-01
 cg2d: Sum(rhs),rhsMax =  -1.26235688568954E-11  3.48150165041561E-01
 cg2d: Sum(rhs),rhsMax =  -1.26114674259270E-11  3.48428414439079E-01
 cg2d: Sum(rhs),rhsMax =  -1.26236798791979E-11  3.48674092755896E-01
 cg2d: Sum(rhs),rhsMax =  -1.26253452137348E-11  3.48886220375612E-01
 cg2d: Sum(rhs),rhsMax =  -1.26455512727830E-11  3.49063719207905E-01
 cg2d: Sum(rhs),rhsMax =  -1.26376686893082E-11  3.49205465882172E-01
 cg2d: Sum(rhs),rhsMax =  -1.26028076863349E-11  3.49310343123265E-01
 cg2d: Sum(rhs),rhsMax =  -1.25727206423676E-11  3.49377286127215E-01
 cg2d: Sum(rhs),rhsMax =  -1.25631727243558E-11  3.49405321631820E-01
 cg2d: Sum(rhs),rhsMax =  -1.26287869051112E-11  3.49393598367122E-01
 cg2d: Sum(rhs),rhsMax =  -1.27380328507343E-11  3.49341408548261E-01
 cg2d: Sum(rhs),rhsMax =  -1.28432819934687E-11  3.49248200926155E-01
 cg2d: Sum(rhs),rhsMax =  -1.29043442598231E-11  3.49113586553006E-01
 cg2d: Sum(rhs),rhsMax =  -1.28929089626695E-11  3.48937338795606E-01
 cg2d: Sum(rhs),rhsMax =  -1.29245503188713E-11  3.48719389222200E-01
 cg2d: Sum(rhs),rhsMax =  -1.28431709711663E-11  3.48459820818422E-01
 cg2d: Sum(rhs),rhsMax =  -1.28523858222707E-11  3.48158859610455E-01
 cg2d: Sum(rhs),rhsMax =  -1.28625998740972E-11  3.47816865273738E-01
 cg2d: Sum(rhs),rhsMax =  -1.28353994099939E-11  3.47434320785565E-01
 cg2d: Sum(rhs),rhsMax =  -1.28562716028569E-11  3.47011820743862E-01
 cg2d: Sum(rhs),rhsMax =  -1.29257715641984E-11  3.46550057709440E-01
 cg2d: Sum(rhs),rhsMax =  -1.29684041283440E-11  3.46049805888456E-01
 cg2d: Sum(rhs),rhsMax =  -1.30429000932963E-11  3.45511901662670E-01
 cg2d: Sum(rhs),rhsMax =  -1.31235022848841E-11  3.44937220855912E-01
 cg2d: Sum(rhs),rhsMax =  -1.31820110382819E-11  3.44326653113850E-01
 cg2d: Sum(rhs),rhsMax =  -1.32833744004301E-11  3.43681074266509E-01
 cg2d: Sum(rhs),rhsMax =  -1.33363320387048E-11  3.43001317936839E-01
 cg2d: Sum(rhs),rhsMax =  -1.33996147511084E-11  3.42288147877934E-01
 cg2d: Sum(rhs),rhsMax =  -1.34788846750666E-11  3.41542232533682E-01
 cg2d: Sum(rhs),rhsMax =  -1.35657041155923E-11  3.40764123139966E-01
 cg2d: Sum(rhs),rhsMax =  -1.36869404698814E-11  3.39954236376402E-01
 cg2d: Sum(rhs),rhsMax =  -1.37704292413332E-11  3.39112842227914E-01
 cg2d: Sum(rhs),rhsMax =  -1.38887790157582E-11  3.38240057408328E-01
 cg2d: Sum(rhs),rhsMax =  -1.39409594979156E-11  3.37335844499578E-01
 cg2d: Sum(rhs),rhsMax =  -1.40428779715762E-11  3.36400016894590E-01
 cg2d: Sum(rhs),rhsMax =  -1.41514577833846E-11  3.35432249676719E-01
 cg2d: Sum(rhs),rhsMax =  -1.42655887103160E-11  3.34432096658494E-01
 cg2d: Sum(rhs),rhsMax =  -1.43307588018615E-11  3.33399013845691E-01
 cg2d: Sum(rhs),rhsMax =  -1.44384504352502E-11  3.32332389495092E-01
 cg2d: Sum(rhs),rhsMax =  -1.45131684448074E-11  3.31231580624480E-01
 cg2d: Sum(rhs),rhsMax =  -1.45586875888171E-11  3.30095955286963E-01
 cg2d: Sum(rhs),rhsMax =  -1.46254119925970E-11  3.28924939174817E-01
 cg2d: Sum(rhs),rhsMax =  -1.47233336633690E-11  3.27718064270043E-01
 cg2d: Sum(rhs),rhsMax =  -1.47837297959086E-11  3.26475016459944E-01
 cg2d: Sum(rhs),rhsMax =  -1.49023016149386E-11  3.25195678461254E-01
 cg2d: Sum(rhs),rhsMax =  -1.49570356100526E-11  3.23880164210776E-01
 cg2d: Sum(rhs),rhsMax =  -1.50416346045290E-11  3.22528841200666E-01
 cg2d: Sum(rhs),rhsMax =  -1.51467727249610E-11  3.21142338098000E-01
 cg2d: Sum(rhs),rhsMax =  -1.52291512733882E-11  3.19721536326899E-01
 cg2d: Sum(rhs),rhsMax =  -1.54128931839637E-11  3.18267545943202E-01
 cg2d: Sum(rhs),rhsMax =  -1.55054857842174E-11  3.16781667855651E-01
 cg2d: Sum(rhs),rhsMax =  -1.56078483470878E-11  3.15265345966864E-01
 cg2d: Sum(rhs),rhsMax =  -1.57451829352340E-11  3.13720113861832E-01
 cg2d: Sum(rhs),rhsMax =  -1.58406621153517E-11  3.12147541071487E-01
 cg2d: Sum(rhs),rhsMax =  -1.59995350301756E-11  3.10549183606779E-01
 cg2d: Sum(rhs),rhsMax =  -1.61314295255011E-11  3.08926542451302E-01
 cg2d: Sum(rhs),rhsMax =  -1.61979318846761E-11  3.07281032202904E-01
 cg2d: Sum(rhs),rhsMax =  -1.62885260834855E-11  3.05613960347300E-01
 cg2d: Sum(rhs),rhsMax =  -1.64104285715894E-11  3.03926516051073E-01
 cg2d: Sum(rhs),rhsMax =  -1.64994684581643E-11  3.02219766175145E-01
 cg2d: Sum(rhs),rhsMax =  -1.66308078419775E-11  3.00494655644551E-01
 cg2d: Sum(rhs),rhsMax =  -1.67598157574389E-11  2.98752009446272E-01
 cg2d: Sum(rhs),rhsMax =  -1.68632885433340E-11  2.96992534294626E-01
 cg2d: Sum(rhs),rhsMax =  -1.69824154738762E-11  2.95216819197684E-01
 cg2d: Sum(rhs),rhsMax =  -1.70872205274009E-11  2.93425335480908E-01
 cg2d: Sum(rhs),rhsMax =  -1.72326597436268E-11  2.91618437950498E-01
 cg2d: Sum(rhs),rhsMax =  -1.73666636626990E-11  2.89796369528142E-01
 cg2d: Sum(rhs),rhsMax =  -1.75057746076845E-11  2.87959271687299E-01
 cg2d: Sum(rhs),rhsMax =  -1.76122449957461E-11  2.86107202341703E-01
 cg2d: Sum(rhs),rhsMax =  -1.76638703663912E-11  2.84240161605991E-01
 cg2d: Sum(rhs),rhsMax =  -1.76796355333408E-11  2.82358124319338E-01
 cg2d: Sum(rhs),rhsMax =  -1.78203007905609E-11  2.80461076720301E-01
 cg2d: Sum(rhs),rhsMax =  -1.80218062695303E-11  2.78549053510683E-01
 cg2d: Sum(rhs),rhsMax =  -1.82237558377096E-11  2.76622171005483E-01
 cg2d: Sum(rhs),rhsMax =  -1.83846271539778E-11  2.74680652270211E-01
 cg2d: Sum(rhs),rhsMax =  -1.86395343604318E-11  2.72724841082530E-01
 cg2d: Sum(rhs),rhsMax =  -1.88516979804376E-11  2.70755203066035E-01
 cg2d: Sum(rhs),rhsMax =  -1.90275573075382E-11  2.68772314164636E-01
 cg2d: Sum(rhs),rhsMax =  -1.92337257232111E-11  2.66776838437346E-01
 cg2d: Sum(rhs),rhsMax =  -1.94624316662839E-11  2.64769498644144E-01
 cg2d: Sum(rhs),rhsMax =  -1.96774818661538E-11  2.62751044017756E-01
 cg2d: Sum(rhs),rhsMax =  -1.98816518803824E-11  2.60722219833230E-01
 cg2d: Sum(rhs),rhsMax =  -2.00980343478818E-11  2.58683742881588E-01
 cg2d: Sum(rhs),rhsMax =  -2.03501659967742E-11  2.56636285830769E-01
 cg2d: Sum(rhs),rhsMax =  -2.05976347089631E-11  2.54580471918770E-01
 cg2d: Sum(rhs),rhsMax =  -2.05845340772726E-11  2.55741704489684E-01
 cg2d: Sum(rhs),rhsMax =  -2.05093719785054E-11  2.57230263006653E-01
 cg2d: Sum(rhs),rhsMax =  -2.04521954927372E-11  2.58578791313455E-01
 cg2d: Sum(rhs),rhsMax =  -2.04199990250231E-11  2.59786427211062E-01
 cg2d: Sum(rhs),rhsMax =  -2.03973504753208E-11  2.60906245768368E-01
 cg2d: Sum(rhs),rhsMax =  -2.04085637278695E-11  2.61898784609616E-01
 cg2d: Sum(rhs),rhsMax =  -2.03855821112597E-11  2.62781266964898E-01
 cg2d: Sum(rhs),rhsMax =  -2.03987937652528E-11  2.63591101552091E-01
 cg2d: Sum(rhs),rhsMax =  -2.03889127803336E-11  2.64306294680734E-01
 cg2d: Sum(rhs),rhsMax =  -2.04413153070959E-11  2.64920997552033E-01
 cg2d: Sum(rhs),rhsMax =  -2.04321004559915E-11  2.65422373613772E-01
 cg2d: Sum(rhs),rhsMax =  -2.04917194324139E-11  2.65839225169636E-01
 cg2d: Sum(rhs),rhsMax =  -2.05223615878936E-11  2.66167642064625E-01
 cg2d: Sum(rhs),rhsMax =  -2.05687689103229E-11  2.66414110969452E-01
 cg2d: Sum(rhs),rhsMax =  -2.06210604147827E-11  2.66568139674659E-01
 cg2d: Sum(rhs),rhsMax =  -2.06809014358100E-11  2.66641179596887E-01
 cg2d: Sum(rhs),rhsMax =  -2.07516226424787E-11  2.66627114621489E-01
 cg2d: Sum(rhs),rhsMax =  -2.08110195742961E-11  2.66536905999146E-01
 cg2d: Sum(rhs),rhsMax =  -2.09484651847447E-11  2.66369142292157E-01
 cg2d: Sum(rhs),rhsMax =  -2.09832151654155E-11  2.66118925025777E-01
 cg2d: Sum(rhs),rhsMax =  -2.11105577463400E-11  2.65803577005162E-01
 cg2d: Sum(rhs),rhsMax =  -2.11581863140964E-11  2.65419120171878E-01
 cg2d: Sum(rhs),rhsMax =  -2.12970752144770E-11  2.64984709200580E-01
 cg2d: Sum(rhs),rhsMax =  -2.13594697484609E-11  2.64494118653772E-01
 cg2d: Sum(rhs),rhsMax =  -2.14653850250102E-11  2.63954046595005E-01
 cg2d: Sum(rhs),rhsMax =  -2.16000550778972E-11  2.63356892983237E-01
 cg2d: Sum(rhs),rhsMax =  -2.16993090162987E-11  2.62690518857794E-01
 cg2d: Sum(rhs),rhsMax =  -2.18528528606043E-11  2.61959473516893E-01
 cg2d: Sum(rhs),rhsMax =  -2.19798623746215E-11  2.61185581478379E-01
 cg2d: Sum(rhs),rhsMax =  -2.21004325950958E-11  2.60374194821494E-01
 cg2d: Sum(rhs),rhsMax =  -2.22328822019335E-11  2.59531755163124E-01
 cg2d: Sum(rhs),rhsMax =  -2.23678853217280E-11  2.58659593748278E-01
 cg2d: Sum(rhs),rhsMax =  -2.24990026609362E-11  2.57748757535396E-01
 cg2d: Sum(rhs),rhsMax =  -2.26570984196428E-11  2.56794218592482E-01
 cg2d: Sum(rhs),rhsMax =  -2.28099761301337E-11  2.55796250249801E-01
 cg2d: Sum(rhs),rhsMax =  -2.29383179117804E-11  2.54771671309386E-01
 cg2d: Sum(rhs),rhsMax =  -2.30782060128831E-11  2.53708168536902E-01
 cg2d: Sum(rhs),rhsMax =  -2.32475150241385E-11  2.52619502117864E-01
 cg2d: Sum(rhs),rhsMax =  -2.34254837749859E-11  2.51501102872189E-01
 cg2d: Sum(rhs),rhsMax =  -2.36012320797840E-11  2.50345635151339E-01
 cg2d: Sum(rhs),rhsMax =  -2.37380115564179E-11  2.49172302311912E-01
 cg2d: Sum(rhs),rhsMax =  -2.39347430763814E-11  2.47982320749194E-01
 cg2d: Sum(rhs),rhsMax =  -2.41460185179676E-11  2.46790363573868E-01
 cg2d: Sum(rhs),rhsMax =  -2.42923459126132E-11  2.45592368230829E-01
 cg2d: Sum(rhs),rhsMax =  -2.44947395700024E-11  2.44388966083784E-01
 cg2d: Sum(rhs),rhsMax =  -2.47372122785805E-11  2.43176415523606E-01
 cg2d: Sum(rhs),rhsMax =  -2.49080756020703E-11  2.41963036753614E-01
 cg2d: Sum(rhs),rhsMax =  -2.50872655982448E-11  2.40750799348016E-01
 cg2d: Sum(rhs),rhsMax =  -2.52541321188460E-11  2.39544686258798E-01
 cg2d: Sum(rhs),rhsMax =  -2.53528309457351E-11  2.38358897239513E-01
 cg2d: Sum(rhs),rhsMax =  -2.54913867792084E-11  2.37182655645099E-01
 cg2d: Sum(rhs),rhsMax =  -2.56217269622994E-11  2.36013572964656E-01
 cg2d: Sum(rhs),rhsMax =  -2.57348586885087E-11  2.34862775205824E-01
 cg2d: Sum(rhs),rhsMax =  -2.58829624399937E-11  2.33730919471246E-01
 cg2d: Sum(rhs),rhsMax =  -2.60028665266532E-11  2.32613801682470E-01
 cg2d: Sum(rhs),rhsMax =  -2.61546340141194E-11  2.31507964486680E-01
 cg2d: Sum(rhs),rhsMax =  -2.62845301080006E-11  2.30417851700014E-01
 cg2d: Sum(rhs),rhsMax =  -2.64113175774128E-11  2.29345044433055E-01
 cg2d: Sum(rhs),rhsMax =  -2.64921418136055E-11  2.28295602609669E-01
 cg2d: Sum(rhs),rhsMax =  -2.65586441727805E-11  2.27262666805135E-01
 cg2d: Sum(rhs),rhsMax =  -2.62536659079160E-11  2.29387699173072E-01
 cg2d: Sum(rhs),rhsMax =  -2.58063570512945E-11  2.32969842469291E-01
 cg2d: Sum(rhs),rhsMax =  -2.54295473567367E-11  2.36403297205205E-01
 cg2d: Sum(rhs),rhsMax =  -2.50164333692737E-11  2.39684683858620E-01
 cg2d: Sum(rhs),rhsMax =  -2.45898856832127E-11  2.42815862821472E-01
 cg2d: Sum(rhs),rhsMax =  -2.41887621044157E-11  2.45796818484062E-01
 cg2d: Sum(rhs),rhsMax =  -2.38814523711994E-11  2.48626215961363E-01
 cg2d: Sum(rhs),rhsMax =  -2.36162200906165E-11  2.51305705865686E-01
 cg2d: Sum(rhs),rhsMax =  -2.33705277352669E-11  2.53834572549453E-01
 cg2d: Sum(rhs),rhsMax =  -2.31338281864168E-11  2.56211304927384E-01
 cg2d: Sum(rhs),rhsMax =  -2.29156693620780E-11  2.58444079996886E-01
 cg2d: Sum(rhs),rhsMax =  -2.27112773032445E-11  2.60527946670125E-01
 cg2d: Sum(rhs),rhsMax =  -2.25371388218321E-11  2.62467243735260E-01
 cg2d: Sum(rhs),rhsMax =  -2.23703278123821E-11  2.64251983898709E-01
 cg2d: Sum(rhs),rhsMax =  -2.22009077788243E-11  2.65882636063376E-01
 cg2d: Sum(rhs),rhsMax =  -2.20598539435457E-11  2.67366674849619E-01
 cg2d: Sum(rhs),rhsMax =  -2.19322338068650E-11  2.68700411922234E-01
 cg2d: Sum(rhs),rhsMax =  -2.18017826014716E-11  2.69898450061394E-01
 cg2d: Sum(rhs),rhsMax =  -2.16466289337802E-11  2.70965559068093E-01
 cg2d: Sum(rhs),rhsMax =  -2.15152340388158E-11  2.71900507075890E-01
 cg2d: Sum(rhs),rhsMax =  -2.14149253885410E-11  2.72702607025411E-01
 cg2d: Sum(rhs),rhsMax =  -2.13006834393070E-11  2.73377492042692E-01
 cg2d: Sum(rhs),rhsMax =  -2.11985984321927E-11  2.73929129444208E-01
 cg2d: Sum(rhs),rhsMax =  -2.11251571791138E-11  2.74352793754669E-01
 cg2d: Sum(rhs),rhsMax =  -2.10918504883750E-11  2.74651347100786E-01
 cg2d: Sum(rhs),rhsMax =  -2.10388928501004E-11  2.74830981636544E-01
 cg2d: Sum(rhs),rhsMax =  -2.10089168284355E-11  2.74880627195384E-01
 cg2d: Sum(rhs),rhsMax =  -2.09863793010356E-11  2.74827763065039E-01
 cg2d: Sum(rhs),rhsMax =  -2.10098605180065E-11  2.74683100474600E-01
 cg2d: Sum(rhs),rhsMax =  -2.10166328784567E-11  2.74433571462502E-01
 cg2d: Sum(rhs),rhsMax =  -2.10484407681122E-11  2.74072081936462E-01
 cg2d: Sum(rhs),rhsMax =  -2.10851336390760E-11  2.73616412031988E-01
 cg2d: Sum(rhs),rhsMax =  -2.11234918445768E-11  2.73052631584593E-01
 cg2d: Sum(rhs),rhsMax =  -2.12062034599114E-11  2.72399014653458E-01
 cg2d: Sum(rhs),rhsMax =  -2.12684869715929E-11  2.71659985078908E-01
 cg2d: Sum(rhs),rhsMax =  -2.13388751113541E-11  2.70835341782769E-01
 cg2d: Sum(rhs),rhsMax =  -2.13867812348667E-11  2.69929417911838E-01
 cg2d: Sum(rhs),rhsMax =  -2.14296358436172E-11  2.68940461983837E-01
 cg2d: Sum(rhs),rhsMax =  -2.15008011394957E-11  2.67885005417144E-01
 cg2d: Sum(rhs),rhsMax =  -2.15485407295546E-11  2.66756856405844E-01
 cg2d: Sum(rhs),rhsMax =  -2.16213158488188E-11  2.65572259913970E-01
 cg2d: Sum(rhs),rhsMax =  -2.16726636637077E-11  2.64343926251091E-01
 cg2d: Sum(rhs),rhsMax =  -2.17057483098415E-11  2.63063491122774E-01
 cg2d: Sum(rhs),rhsMax =  -2.17645346189954E-11  2.61751472061799E-01
 cg2d: Sum(rhs),rhsMax =  -2.18210449709488E-11  2.60402258734701E-01
 cg2d: Sum(rhs),rhsMax =  -2.19108620136410E-11  2.59018848806004E-01
 cg2d: Sum(rhs),rhsMax =  -2.19707585458195E-11  2.57598322539367E-01
 cg2d: Sum(rhs),rhsMax =  -2.20470308676113E-11  2.56131559589610E-01
 cg2d: Sum(rhs),rhsMax =  -2.21477280959448E-11  2.54629679053812E-01
 cg2d: Sum(rhs),rhsMax =  -2.22305507335818E-11  2.53065251925855E-01
 cg2d: Sum(rhs),rhsMax =  -2.23182028413760E-11  2.51457867195924E-01
 cg2d: Sum(rhs),rhsMax =  -2.24225082945395E-11  2.49813004237735E-01
 cg2d: Sum(rhs),rhsMax =  -2.25298668610208E-11  2.48124473091882E-01
 cg2d: Sum(rhs),rhsMax =  -2.26245133738701E-11  2.46400228480701E-01
 cg2d: Sum(rhs),rhsMax =  -2.27526331109118E-11  2.44645477186257E-01
 cg2d: Sum(rhs),rhsMax =  -2.28550511849335E-11  2.42869641517008E-01
 cg2d: Sum(rhs),rhsMax =  -2.29687380226551E-11  2.41066818805219E-01
 cg2d: Sum(rhs),rhsMax =  -2.31274999151765E-11  2.39249793179389E-01
 cg2d: Sum(rhs),rhsMax =  -2.32796004695501E-11  2.37411471607407E-01
 cg2d: Sum(rhs),rhsMax =  -2.34426922318676E-11  2.35564783433393E-01
 cg2d: Sum(rhs),rhsMax =  -2.36112240870057E-11  2.33709037811902E-01
 cg2d: Sum(rhs),rhsMax =  -2.37579955708611E-11  2.31850089078354E-01
 cg2d: Sum(rhs),rhsMax =  -2.39255282252770E-11  2.29991993315568E-01
 cg2d: Sum(rhs),rhsMax =  -2.41251463251047E-11  2.28133405935474E-01
 cg2d: Sum(rhs),rhsMax =  -2.42830200392063E-11  2.26272723570709E-01
 cg2d: Sum(rhs),rhsMax =  -2.44404496640982E-11  2.24409523573405E-01
 cg2d: Sum(rhs),rhsMax =  -2.46018760918787E-11  2.22564466688816E-01
 cg2d: Sum(rhs),rhsMax =  -2.48039366823605E-11  2.20718331551261E-01
 cg2d: Sum(rhs),rhsMax =  -2.49844589461645E-11  2.18879984228677E-01
 cg2d: Sum(rhs),rhsMax =  -2.51783038862641E-11  2.17056421405563E-01
 cg2d: Sum(rhs),rhsMax =  -2.53698173580119E-11  2.15249999946365E-01
 cg2d: Sum(rhs),rhsMax =  -2.55362397894032E-11  2.13498003037692E-01
 cg2d: Sum(rhs),rhsMax =  -2.57437404727057E-11  2.11706278802114E-01
 cg2d: Sum(rhs),rhsMax =  -2.59128274393561E-11  2.09953718846537E-01
 cg2d: Sum(rhs),rhsMax =  -2.60923505024380E-11  2.08223817787094E-01
 cg2d: Sum(rhs),rhsMax =  -2.58419952103850E-11  2.09921577348645E-01
 cg2d: Sum(rhs),rhsMax =  -2.54141152566945E-11  2.13090304190150E-01
 cg2d: Sum(rhs),rhsMax =  -2.49983367339723E-11  2.16109914359753E-01
 cg2d: Sum(rhs),rhsMax =  -2.46203057940875E-11  2.18979090196808E-01
 cg2d: Sum(rhs),rhsMax =  -2.42432740549248E-11  2.21711257470613E-01
 cg2d: Sum(rhs),rhsMax =  -2.39465114404425E-11  2.24283889002295E-01
 cg2d: Sum(rhs),rhsMax =  -2.36406449971582E-11  2.26698596059190E-01
 cg2d: Sum(rhs),rhsMax =  -2.33438823826759E-11  2.28959364632607E-01
 cg2d: Sum(rhs),rhsMax =  -2.30733210315748E-11  2.31059535904778E-01
 cg2d: Sum(rhs),rhsMax =  -2.28351781927927E-11  2.33014156833784E-01
 cg2d: Sum(rhs),rhsMax =  -2.26095808741889E-11  2.34823443399802E-01
 cg2d: Sum(rhs),rhsMax =  -2.24119611758056E-11  2.36477084226502E-01
 cg2d: Sum(rhs),rhsMax =  -2.22153406781445E-11  2.37980044311596E-01
 cg2d: Sum(rhs),rhsMax =  -2.20348184143404E-11  2.39333495761376E-01
 cg2d: Sum(rhs),rhsMax =  -2.18922657779785E-11  2.40541245030622E-01
 cg2d: Sum(rhs),rhsMax =  -2.17109663580572E-11  2.41603545676495E-01
 cg2d: Sum(rhs),rhsMax =  -2.16160422894518E-11  2.42522995682451E-01
 cg2d: Sum(rhs),rhsMax =  -2.14986917157489E-11  2.43295202250778E-01
 cg2d: Sum(rhs),rhsMax =  -2.14269713083581E-11  2.43916745825234E-01
 cg2d: Sum(rhs),rhsMax =  -2.12903028540268E-11  2.44394130006603E-01
 cg2d: Sum(rhs),rhsMax =  -2.12626583007136E-11  2.44738647329663E-01
 cg2d: Sum(rhs),rhsMax =  -2.11441975039861E-11  2.44951722563242E-01
 cg2d: Sum(rhs),rhsMax =  -2.11023420959577E-11  2.45023567800777E-01
 cg2d: Sum(rhs),rhsMax =  -2.10506057030102E-11  2.44962009648076E-01
 cg2d: Sum(rhs),rhsMax =  -2.10245154619315E-11  2.44782208763488E-01
 cg2d: Sum(rhs),rhsMax =  -2.09792183625268E-11  2.44488482546799E-01
 cg2d: Sum(rhs),rhsMax =  -2.09671169315584E-11  2.44075118221497E-01
 cg2d: Sum(rhs),rhsMax =  -2.09481321178373E-11  2.43548084564152E-01
 cg2d: Sum(rhs),rhsMax =  -2.09904316150755E-11  2.42908236441607E-01
 cg2d: Sum(rhs),rhsMax =  -2.09560147013121E-11  2.42154244676122E-01
 cg2d: Sum(rhs),rhsMax =  -2.10047534920932E-11  2.41290598843855E-01
 cg2d: Sum(rhs),rhsMax =  -2.10295114655423E-11  2.40320585653929E-01
 cg2d: Sum(rhs),rhsMax =  -2.10941264455755E-11  2.39245545445140E-01
 cg2d: Sum(rhs),rhsMax =  -2.11078932110809E-11  2.38077119133089E-01
 cg2d: Sum(rhs),rhsMax =  -2.12216910711049E-11  2.36816056858826E-01
 cg2d: Sum(rhs),rhsMax =  -2.12497797136280E-11  2.35464862996078E-01
 cg2d: Sum(rhs),rhsMax =  -2.13256079462099E-11  2.34012490073085E-01
 cg2d: Sum(rhs),rhsMax =  -2.14123163644331E-11  2.32467006663310E-01
 cg2d: Sum(rhs),rhsMax =  -2.11615169831703E-11  2.34640477016147E-01
 cg2d: Sum(rhs),rhsMax =  -2.09242623228079E-11  2.36870422929301E-01
 cg2d: Sum(rhs),rhsMax =  -2.06750172537795E-11  2.39044976077197E-01
 cg2d: Sum(rhs),rhsMax =  -2.03896899364508E-11  2.41159751222170E-01
 cg2d: Sum(rhs),rhsMax =  -2.02011740668695E-11  2.43211513548115E-01
 cg2d: Sum(rhs),rhsMax =  -1.99714689230746E-11  2.45197418097012E-01
(PID.TID 0000.0001)      cg2d_init_res =   9.18097643842166E-02
(PID.TID 0000.0001)      cg2d_iters(min,last) =      -1      30
(PID.TID 0000.0001)      cg2d_last_res =   5.56683103498941E-14
(PID.TID 0000.0001) // =======================================================
(PID.TID 0000.0001) // Begin MONITOR dynamic field statistics
(PID.TID 0000.0001) // =======================================================
(PID.TID 0000.0001) %MON time_tsnumber                =                  2880
(PID.TID 0000.0001) %MON time_secondsf                =   4.3200000000000E+04
(PID.TID 0000.0001) %MON dynstat_eta_max              =   2.4419762967537E-02
(PID.TID 0000.0001) %MON dynstat_eta_min              =  -2.4202916629586E-02
(PID.TID 0000.0001) %MON dynstat_eta_mean             =   5.6433406943987E-15
(PID.TID 0000.0001) %MON dynstat_eta_sd               =   1.7157347304893E-02
(PID.TID 0000.0001) %MON dynstat_eta_del2             =   2.4996890860684E-04
(PID.TID 0000.0001) %MON dynstat_uvel_max             =   1.5526686557409E+00
(PID.TID 0000.0001) %MON dynstat_uvel_min             =  -9.0276135549711E-01
(PID.TID 0000.0001) %MON dynstat_uvel_mean            =   1.6645025717705E-03
(PID.TID 0000.0001) %MON dynstat_uvel_sd              =   2.0104699954167E-01
(PID.TID 0000.0001) %MON dynstat_uvel_del2            =   9.3259012571557E-04
(PID.TID 0000.0001) %MON dynstat_vvel_max             =   0.0000000000000E+00
(PID.TID 0000.0001) %MON dynstat_vvel_min             =   0.0000000000000E+00
(PID.TID 0000.0001) %MON dynstat_vvel_mean            =   0.0000000000000E+00
(PID.TID 0000.0001) %MON dynstat_vvel_sd              =   0.0000000000000E+00
(PID.TID 0000.0001) %MON dynstat_vvel_del2            =   0.0000000000000E+00
(PID.TID 0000.0001) %MON dynstat_wvel_max             =   6.3443962799437E-02
(PID.TID 0000.0001) %MON dynstat_wvel_min             =  -3.4460118635262E-02
(PID.TID 0000.0001) %MON dynstat_wvel_mean            =   7.4232781511443E-20
(PID.TID 0000.0001) %MON dynstat_wvel_sd              =   5.2494901880810E-03
(PID.TID 0000.0001) %MON dynstat_wvel_del2            =   1.0050640260820E-04
(PID.TID 0000.0001) %MON dynstat_theta_max            =   1.4976502386306E+01
(PID.TID 0000.0001) %MON dynstat_theta_min            =   9.9765023856441E+00
(PID.TID 0000.0001) %MON dynstat_theta_mean           =   1.2377068367103E+01
(PID.TID 0000.0001) %MON dynstat_theta_sd             =   2.3534886268999E+00
(PID.TID 0000.0001) %MON dynstat_theta_del2           =   2.4843376343364E-03
(PID.TID 0000.0001) %MON dynstat_salt_max             =   3.5000000000000E+01
(PID.TID 0000.0001) %MON dynstat_salt_min             =   3.5000000000000E+01
(PID.TID 0000.0001) %MON dynstat_salt_mean            =   3.5000000000000E+01
(PID.TID 0000.0001) %MON dynstat_salt_sd              =   3.4816594052245E-13
(PID.TID 0000.0001) %MON dynstat_salt_del2            =   0.0000000000000E+00
(PID.TID 0000.0001) %MON dynstat_sst_max              =   1.4976502385655E+01
(PID.TID 0000.0001) %MON dynstat_sst_min              =   1.4615620763384E+01
(PID.TID 0000.0001) %MON dynstat_sst_mean             =   1.4857383264850E+01
(PID.TID 0000.0001) %MON dynstat_sst_sd               =   1.6102945977866E-01
(PID.TID 0000.0001) %MON dynstat_sst_del2             =   7.6495692144415E-04
(PID.TID 0000.0001) %MON dynstat_sss_max              =   3.5000000000000E+01
(PID.TID 0000.0001) %MON dynstat_sss_min              =   3.5000000000000E+01
(PID.TID 0000.0001) %MON dynstat_sss_mean             =   3.5000000000000E+01
(PID.TID 0000.0001) %MON dynstat_sss_sd               =   3.5527136788005E-14
(PID.TID 0000.0001) %MON dynstat_sss_del2             =   0.0000000000000E+00
(PID.TID 0000.0001) %MON forcing_qnet_max             =   0.0000000000000E+00
(PID.TID 0000.0001) %MON forcing_qnet_min             =   0.0000000000000E+00
(PID.TID 0000.0001) %MON forcing_qnet_mean            =   0.0000000000000E+00
(PID.TID 0000.0001) %MON forcing_qnet_sd              =   0.0000000000000E+00
(PID.TID 0000.0001) %MON forcing_qnet_del2            =   0.0000000000000E+00
(PID.TID 0000.0001) %MON forcing_qsw_max              =   0.0000000000000E+00
(PID.TID 0000.0001) %MON forcing_qsw_min              =   0.0000000000000E+00
(PID.TID 0000.0001) %MON forcing_qsw_mean             =   0.0000000000000E+00
(PID.TID 0000.0001) %MON forcing_qsw_sd               =   0.0000000000000E+00
(PID.TID 0000.0001) %MON forcing_qsw_del2             =   0.0000000000000E+00
(PID.TID 0000.0001) %MON forcing_empmr_max            =   0.0000000000000E+00
(PID.TID 0000.0001) %MON forcing_empmr_min            =   0.0000000000000E+00
(PID.TID 0000.0001) %MON forcing_empmr_mean           =   0.0000000000000E+00
(PID.TID 0000.0001) %MON forcing_empmr_sd             =   0.0000000000000E+00
(PID.TID 0000.0001) %MON forcing_empmr_del2           =   0.0000000000000E+00
(PID.TID 0000.0001) %MON forcing_fu_max               =   0.0000000000000E+00
(PID.TID 0000.0001) %MON forcing_fu_min               =   0.0000000000000E+00
(PID.TID 0000.0001) %MON forcing_fu_mean              =   0.0000000000000E+00
(PID.TID 0000.0001) %MON forcing_fu_sd                =   0.0000000000000E+00
(PID.TID 0000.0001) %MON forcing_fu_del2              =   0.0000000000000E+00
(PID.TID 0000.0001) %MON forcing_fv_max               =   0.0000000000000E+00
(PID.TID 0000.0001) %MON forcing_fv_min               =   0.0000000000000E+00
(PID.TID 0000.0001) %MON forcing_fv_mean              =   0.0000000000000E+00
(PID.TID 0000.0001) %MON forcing_fv_sd                =   0.0000000000000E+00
(PID.TID 0000.0001) %MON forcing_fv_del2              =   0.0000000000000E+00
(PID.TID 0000.0001) %MON advcfl_uvel_max              =   8.6946893649199E-02
(PID.TID 0000.0001) %MON advcfl_vvel_max              =   0.0000000000000E+00
(PID.TID 0000.0001) %MON advcfl_wvel_max              =   3.8109738210958E-01
(PID.TID 0000.0001) %MON advcfl_W_hf_max              =   3.8401187054264E-01
(PID.TID 0000.0001) %MON pe_b_mean                    =   8.2637648879854E-06
(PID.TID 0000.0001) %MON ke_max                       =   9.2051072432854E-01
(PID.TID 0000.0001) %MON ke_mean                      =   2.0435061015091E-02
(PID.TID 0000.0001) %MON ke_vol                       =   8.5337279889550E+10
(PID.TID 0000.0001) %MON vort_r_min                   =   0.0000000000000E+00
(PID.TID 0000.0001) %MON vort_r_max                   =   0.0000000000000E+00
(PID.TID 0000.0001) %MON vort_a_mean                  =   0.0000000000000E+00
(PID.TID 0000.0001) %MON vort_a_sd                    =   0.0000000000000E+00
(PID.TID 0000.0001) %MON vort_p_mean                  =   0.0000000000000E+00
(PID.TID 0000.0001) %MON vort_p_sd                    =   0.0000000000000E+00
(PID.TID 0000.0001) %MON surfExpan_theta_mean         =   1.3810606663794E-06
(PID.TID 0000.0001) %MON surfExpan_salt_mean          =   4.8305067532855E-18
(PID.TID 0000.0001) // =======================================================
(PID.TID 0000.0001) // End MONITOR dynamic field statistics
(PID.TID 0000.0001) // =======================================================
(PID.TID 0000.0001) // =======================================================
(PID.TID 0000.0001) // Begin OBCS MONITOR field statistics
(PID.TID 0000.0001) // =======================================================
(PID.TID 0000.0001) %MON obc_E_uVel_max               =   0.0000000000000E+00
(PID.TID 0000.0001) %MON obc_E_uVel_min               =   0.0000000000000E+00
(PID.TID 0000.0001) %MON obc_E_uVel_mean              =   0.0000000000000E+00
(PID.TID 0000.0001) %MON obc_E_uVel_sd                =   0.0000000000000E+00
(PID.TID 0000.0001) %MON obc_E_uVel_Int               =   0.0000000000000E+00
(PID.TID 0000.0001) %MON obc_W_uVel_max               =   0.0000000000000E+00
(PID.TID 0000.0001) %MON obc_W_uVel_min               =   0.0000000000000E+00
(PID.TID 0000.0001) %MON obc_W_uVel_mean              =   0.0000000000000E+00
(PID.TID 0000.0001) %MON obc_W_uVel_sd                =   0.0000000000000E+00
(PID.TID 0000.0001) %MON obc_W_uVel_Int               =   0.0000000000000E+00
(PID.TID 0000.0001) // =======================================================
(PID.TID 0000.0001) // End OBCS MONITOR field statistics
(PID.TID 0000.0001) // =======================================================
(PID.TID 0000.0001) %CHECKPOINT      2880 0000002880
 cg2d: Sum(rhs),rhsMax =  -1.97437621807239E-11  2.47112158984848E-01
 cg2d: Sum(rhs),rhsMax =  -1.95539140435130E-11  2.48950542037429E-01
 cg2d: Sum(rhs),rhsMax =  -1.93763893818755E-11  2.50708936534815E-01
 cg2d: Sum(rhs),rhsMax =  -1.92005300547748E-11  2.52382782288546E-01
 cg2d: Sum(rhs),rhsMax =  -1.90397697608091E-11  2.53969266602492E-01
 cg2d: Sum(rhs),rhsMax =  -1.88763449315843E-11  2.55463548150820E-01
 cg2d: Sum(rhs),rhsMax =  -1.86963777792926E-11  2.56863308566837E-01
 cg2d: Sum(rhs),rhsMax =  -1.85306214817160E-11  2.58163776925896E-01
 cg2d: Sum(rhs),rhsMax =  -1.83971726741561E-11  2.59365623495030E-01
 cg2d: Sum(rhs),rhsMax =  -1.82754922306572E-11  2.60467845893457E-01
 cg2d: Sum(rhs),rhsMax =  -1.81813453181690E-11  2.61468473500343E-01
 cg2d: Sum(rhs),rhsMax =  -1.80606640753922E-11  2.62366766182250E-01
 cg2d: Sum(rhs),rhsMax =  -1.79301018476963E-11  2.63163672849539E-01
 cg2d: Sum(rhs),rhsMax =  -1.78459469424297E-11  2.63857137818510E-01
 cg2d: Sum(rhs),rhsMax =  -1.77330372608253E-11  2.64446028941900E-01
 cg2d: Sum(rhs),rhsMax =  -1.76217929137579E-11  2.64927515031045E-01
 cg2d: Sum(rhs),rhsMax =  -1.75698344762054E-11  2.65291035263483E-01
 cg2d: Sum(rhs),rhsMax =  -1.74922298867841E-11  2.65538055442211E-01
 cg2d: Sum(rhs),rhsMax =  -1.74463776758671E-11  2.65667369286117E-01
 cg2d: Sum(rhs),rhsMax =  -1.73786540713650E-11  2.65680482575219E-01
 cg2d: Sum(rhs),rhsMax =  -1.73345782172873E-11  2.65579427936658E-01
 cg2d: Sum(rhs),rhsMax =  -1.73023817495732E-11  2.65353858426061E-01
 cg2d: Sum(rhs),rhsMax =  -1.72577507839833E-11  2.65004049505109E-01
 cg2d: Sum(rhs),rhsMax =  -1.71319625152933E-11  2.66041177725745E-01
 cg2d: Sum(rhs),rhsMax =  -1.69392277982183E-11  2.67876428412897E-01
 cg2d: Sum(rhs),rhsMax =  -1.67889036006841E-11  2.69697703866069E-01
 cg2d: Sum(rhs),rhsMax =  -1.66006097757077E-11  2.71504097461475E-01
 cg2d: Sum(rhs),rhsMax =  -1.64631641652591E-11  2.73294759346659E-01
 cg2d: Sum(rhs),rhsMax =  -1.63186131274529E-11  2.75068913778744E-01
 cg2d: Sum(rhs),rhsMax =  -1.61707314205728E-11  2.76825872491561E-01
 cg2d: Sum(rhs),rhsMax =  -1.60309543417725E-11  2.78565042499103E-01
 cg2d: Sum(rhs),rhsMax =  -1.58560942153940E-11  2.80285927083567E-01
 cg2d: Sum(rhs),rhsMax =  -1.57607260575787E-11  2.81988119314859E-01
 cg2d: Sum(rhs),rhsMax =  -1.56195056888464E-11  2.83671288258091E-01
 cg2d: Sum(rhs),rhsMax =  -1.54840584798421E-11  2.85335158945222E-01
 cg2d: Sum(rhs),rhsMax =  -1.53631551924605E-11  2.86979488076839E-01
 cg2d: Sum(rhs),rhsMax =  -1.52462487079674E-11  2.88604038128070E-01
 cg2d: Sum(rhs),rhsMax =  -1.51464396580536E-11  2.90208552924836E-01
 cg2d: Sum(rhs),rhsMax =  -1.49833478957362E-11  2.91792737745062E-01
 cg2d: Sum(rhs),rhsMax =  -1.48907552954824E-11  2.93356246560589E-01
 cg2d: Sum(rhs),rhsMax =  -1.47468703914910E-11  2.94898678217603E-01
 cg2d: Sum(rhs),rhsMax =  -1.46442857840157E-11  2.96419582267628E-01
 cg2d: Sum(rhs),rhsMax =  -1.45506939830398E-11  2.97918473963188E-01
 cg2d: Sum(rhs),rhsMax =  -1.44120271272641E-11  2.99394856793653E-01
 cg2d: Sum(rhs),rhsMax =  -1.43159928356340E-11  3.00848250015830E-01
 cg2d: Sum(rhs),rhsMax =  -1.41938683029252E-11  3.02278218048753E-01
 cg2d: Sum(rhs),rhsMax =  -1.41125999775227E-11  3.03684398414794E-01
 cg2d: Sum(rhs),rhsMax =  -1.40089051470227E-11  3.05066525119043E-01
 cg2d: Sum(rhs),rhsMax =  -1.38080658018680E-11  3.06424444910624E-01
 cg2d: Sum(rhs),rhsMax =  -1.35876865314799E-11  3.07758124668890E-01
 cg2d: Sum(rhs),rhsMax =  -1.33871802532326E-11  3.09067649092209E-01
 cg2d: Sum(rhs),rhsMax =  -1.32126531937615E-11  3.10353208827160E-01
 cg2d: Sum(rhs),rhsMax =  -1.29946053917251E-11  3.11615080067439E-01
 cg2d: Sum(rhs),rhsMax =  -1.28623778294923E-11  3.12853597403096E-01
 cg2d: Sum(rhs),rhsMax =  -1.26656463095287E-11  3.14069122261723E-01
 cg2d: Sum(rhs),rhsMax =  -1.24793508859966E-11  3.15262009620257E-01
 cg2d: Sum(rhs),rhsMax =  -1.23467902568564E-11  3.16432575757511E-01
 cg2d: Sum(rhs),rhsMax =  -1.21814780484897E-11  3.17581069652968E-01
 cg2d: Sum(rhs),rhsMax =  -1.20056187213891E-11  3.18707650222460E-01
 cg2d: Sum(rhs),rhsMax =  -1.18826060102606E-11  3.19812370945105E-01
 cg2d: Sum(rhs),rhsMax =  -1.16914256054201E-11  3.20895172638255E-01
 cg2d: Sum(rhs),rhsMax =  -1.15428777647253E-11  3.21955884269453E-01
 cg2d: Sum(rhs),rhsMax =  -1.13897780096295E-11  3.22994230871439E-01
 cg2d: Sum(rhs),rhsMax =  -1.12756470826980E-11  3.24009846968980E-01
 cg2d: Sum(rhs),rhsMax =  -1.11182174578062E-11  3.25002293537192E-01
 cg2d: Sum(rhs),rhsMax =  -1.09910969214866E-11  3.25971076450685E-01
 cg2d: Sum(rhs),rhsMax =  -1.08583142477414E-11  3.26915664652278E-01
 cg2d: Sum(rhs),rhsMax =  -1.07310826891194E-11  3.27835506806119E-01
 cg2d: Sum(rhs),rhsMax =  -1.06132880262066E-11  3.28730045886047E-01
 cg2d: Sum(rhs),rhsMax =  -1.04793951294369E-11  3.29598731838958E-01
 cg2d: Sum(rhs),rhsMax =  -1.03742570090049E-11  3.30441033008755E-01
 cg2d: Sum(rhs),rhsMax =  -1.02148289826687E-11  3.31256447295771E-01
 cg2d: Sum(rhs),rhsMax =  -1.01290087428652E-11  3.32044514001647E-01
 cg2d: Sum(rhs),rhsMax =  -1.00244257339455E-11  3.32804826979991E-01
 cg2d: Sum(rhs),rhsMax =  -9.87454562562107E-12  3.33537049149778E-01
 cg2d: Sum(rhs),rhsMax =  -9.72844027558040E-12  3.34240927747084E-01
 cg2d: Sum(rhs),rhsMax =  -9.62196988751884E-12  3.34916309025447E-01
 cg2d: Sum(rhs),rhsMax =  -9.50406420230365E-12  3.35563150591495E-01
 cg2d: Sum(rhs),rhsMax =  -9.44622158272068E-12  3.36181529275829E-01
 cg2d: Sum(rhs),rhsMax =  -9.31621446653708E-12  3.36771642441854E-01
 cg2d: Sum(rhs),rhsMax =  -9.18320974818698E-12  3.37333800934916E-01
 cg2d: Sum(rhs),rhsMax =  -9.11082320698142E-12  3.37868412439876E-01
 cg2d: Sum(rhs),rhsMax =  -8.99857965919182E-12  3.38375954788858E-01
 cg2d: Sum(rhs),rhsMax =  -8.90076901072234E-12  3.38856939667695E-01
 cg2d: Sum(rhs),rhsMax =  -8.77720118808156E-12  3.39311868126726E-01
 cg2d: Sum(rhs),rhsMax =  -8.67206306764956E-12  3.39741180222283E-01
 cg2d: Sum(rhs),rhsMax =  -8.58735305087066E-12  3.40145201910957E-01
 cg2d: Sum(rhs),rhsMax =  -8.51385628664048E-12  3.40524092902069E-01
 cg2d: Sum(rhs),rhsMax =  -8.41382519212175E-12  3.40877799464223E-01
 cg2d: Sum(rhs),rhsMax =  -8.31179569615870E-12  3.41206016116737E-01
 cg2d: Sum(rhs),rhsMax =  -8.24351698014425E-12  3.41508159684262E-01
 cg2d: Sum(rhs),rhsMax =  -8.13016320933002E-12  3.41783358365191E-01
 cg2d: Sum(rhs),rhsMax =  -8.11073430639908E-12  3.42030457324679E-01
 cg2d: Sum(rhs),rhsMax =  -8.15714162882841E-12  3.42248040984000E-01
 cg2d: Sum(rhs),rhsMax =  -8.15347789284715E-12  3.42434470788419E-01
 cg2d: Sum(rhs),rhsMax =  -8.11350986396064E-12  3.42587935959523E-01
 cg2d: Sum(rhs),rhsMax =  -8.08475508762285E-12  3.42706513725639E-01
 cg2d: Sum(rhs),rhsMax =  -8.09341482721493E-12  3.42788234888137E-01
 cg2d: Sum(rhs),rhsMax =  -8.09619038477649E-12  3.42831150377691E-01
 cg2d: Sum(rhs),rhsMax =  -8.14048828345904E-12  3.42833394674855E-01
 cg2d: Sum(rhs),rhsMax =  -8.15780776264319E-12  3.42793242548034E-01
 cg2d: Sum(rhs),rhsMax =  -8.25362000966834E-12  3.42709156392100E-01
 cg2d: Sum(rhs),rhsMax =  -8.28381807593814E-12  3.42579822407871E-01
 cg2d: Sum(rhs),rhsMax =  -8.31701374437444E-12  3.42404174826858E-01
 cg2d: Sum(rhs),rhsMax =  -8.38629166111104E-12  3.42181408262048E-01
 cg2d: Sum(rhs),rhsMax =  -8.37940827835837E-12  3.41910978993894E-01
 cg2d: Sum(rhs),rhsMax =  -8.37996338987068E-12  3.41592596557205E-01
 cg2d: Sum(rhs),rhsMax =  -8.40660874246169E-12  3.41226207384678E-01
 cg2d: Sum(rhs),rhsMax =  -8.45212788647132E-12  3.40811972508417E-01
 cg2d: Sum(rhs),rhsMax =  -8.48843217937656E-12  3.40350241447296E-01
 cg2d: Sum(rhs),rhsMax =  -8.54438741981767E-12  3.39841524432447E-01
 cg2d: Sum(rhs),rhsMax =  -8.56226201051413E-12  3.39286465047990E-01
 cg2d: Sum(rhs),rhsMax =  -8.60056470486370E-12  3.38685815178118E-01
 cg2d: Sum(rhs),rhsMax =  -8.64308624670684E-12  3.38040413836286E-01
 cg2d: Sum(rhs),rhsMax =  -8.64752713880534E-12  3.37351170993741E-01
 cg2d: Sum(rhs),rhsMax =  -8.68782823459924E-12  3.36619056925890E-01
 cg2d: Sum(rhs),rhsMax =  -8.70481464687600E-12  3.35845096887542E-01
 cg2d: Sum(rhs),rhsMax =  -8.71180905193114E-12  3.35030370175420E-01
 cg2d: Sum(rhs),rhsMax =  -8.70403749075876E-12  3.34176011932017E-01
 cg2d: Sum(rhs),rhsMax =  -8.75122196930533E-12  3.33283215498944E-01
 cg2d: Sum(rhs),rhsMax =  -8.75266525923735E-12  3.32353232847725E-01
 cg2d: Sum(rhs),rhsMax =  -8.74433858655266E-12  3.31387370682202E-01
 cg2d: Sum(rhs),rhsMax =  -8.77997674564313E-12  3.30386980251720E-01
 cg2d: Sum(rhs),rhsMax =  -8.78741523990811E-12  3.29353439707635E-01
 cg2d: Sum(rhs),rhsMax =  -8.77020678302642E-12  3.28288128882470E-01
 cg2d: Sum(rhs),rhsMax =  -8.76954064921165E-12  3.27192397523748E-01
 cg2d: Sum(rhs),rhsMax =  -8.76831940388456E-12  3.26067529097960E-01
 cg2d: Sum(rhs),rhsMax =  -8.77853345571111E-12  3.24914703124030E-01
 cg2d: Sum(rhs),rhsMax =  -8.82316442130104E-12  3.23734959466810E-01
 cg2d: Sum(rhs),rhsMax =  -8.86180018255800E-12  3.22529168048293E-01
 cg2d: Sum(rhs),rhsMax =  -8.87545592576089E-12  3.21298007019292E-01
 cg2d: Sum(rhs),rhsMax =  -8.87478979194611E-12  3.20041951647574E-01
 cg2d: Sum(rhs),rhsMax =  -8.91575702155478E-12  3.18761275140832E-01
 cg2d: Sum(rhs),rhsMax =  -8.93229934462170E-12  3.17456061479460E-01
 cg2d: Sum(rhs),rhsMax =  -8.94584406552212E-12  3.16126229227866E-01
 cg2d: Sum(rhs),rhsMax =  -8.98603413901355E-12  3.14771564343153E-01
 cg2d: Sum(rhs),rhsMax =  -9.04820662839256E-12  3.13391759290895E-01
 cg2d: Sum(rhs),rhsMax =  -9.10782560481493E-12  3.11986455356858E-01
 cg2d: Sum(rhs),rhsMax =  -9.16233755532403E-12  3.10555284926550E-01
 cg2d: Sum(rhs),rhsMax =  -9.24071930086257E-12  3.09097910682912E-01
 cg2d: Sum(rhs),rhsMax =  -9.28357390961310E-12  3.07614059119167E-01
 cg2d: Sum(rhs),rhsMax =  -9.33797483781973E-12  3.06103546436128E-01
 cg2d: Sum(rhs),rhsMax =  -9.37772082210131E-12  3.04566295731749E-01
 cg2d: Sum(rhs),rhsMax =  -9.46509537413931E-12  3.03002345318964E-01
 cg2d: Sum(rhs),rhsMax =  -9.54192280744337E-12  3.01411848934076E-01
 cg2d: Sum(rhs),rhsMax =  -9.61386525943908E-12  2.99795069421775E-01
 cg2d: Sum(rhs),rhsMax =  -9.68769509057665E-12  2.98152368107624E-01
 cg2d: Sum(rhs),rhsMax =  -9.74464953173992E-12  2.96484192416448E-01
 cg2d: Sum(rhs),rhsMax =  -9.82491865642032E-12  2.94791064320402E-01
 cg2d: Sum(rhs),rhsMax =  -9.87521175943584E-12  2.93073571901244E-01
 cg2d: Sum(rhs),rhsMax =  -9.95226123734483E-12  2.91332365730267E-01
 cg2d: Sum(rhs),rhsMax =  -1.00637276290172E-11  2.89568160987908E-01
 cg2d: Sum(rhs),rhsMax =  -1.01528785378946E-11  2.87781745370317E-01
 cg2d: Sum(rhs),rhsMax =  -1.02451380712409E-11  2.85973991977084E-01
 cg2d: Sum(rhs),rhsMax =  -1.03420605412907E-11  2.84145875647554E-01
 cg2d: Sum(rhs),rhsMax =  -1.04156683278234E-11  2.82298490692298E-01
 cg2d: Sum(rhs),rhsMax =  -1.05103703518239E-11  2.80433067696211E-01
 cg2d: Sum(rhs),rhsMax =  -1.06387121334706E-11  2.78550987057708E-01
 cg2d: Sum(rhs),rhsMax =  -1.07024389350840E-11  2.76653787148423E-01
 cg2d: Sum(rhs),rhsMax =  -1.08123510145219E-11  2.74743165378422E-01
 cg2d: Sum(rhs),rhsMax =  -1.09051656593806E-11  2.72820970968893E-01
 cg2d: Sum(rhs),rhsMax =  -1.10028652855476E-11  2.70889188802310E-01
 cg2d: Sum(rhs),rhsMax =  -1.11052278484181E-11  2.68949914283514E-01
 cg2d: Sum(rhs),rhsMax =  -1.12171383293003E-11  2.67005319665156E-01
 cg2d: Sum(rhs),rhsMax =  -1.12854170453147E-11  2.65057612748042E-01
 cg2d: Sum(rhs),rhsMax =  -1.14156462061032E-11  2.63108989259165E-01
 cg2d: Sum(rhs),rhsMax =  -1.15090159624742E-11  2.61161580547652E-01
 cg2d: Sum(rhs),rhsMax =  -1.15502052366878E-11  2.60386045062673E-01
 cg2d: Sum(rhs),rhsMax =  -1.15695231173163E-11  2.59937980204146E-01
 cg2d: Sum(rhs),rhsMax =  -1.16375797887258E-11  2.59401601969234E-01
 cg2d: Sum(rhs),rhsMax =  -1.16803233751739E-11  2.58778160452727E-01
 cg2d: Sum(rhs),rhsMax =  -1.17229559393195E-11  2.58064941756100E-01
 cg2d: Sum(rhs),rhsMax =  -1.18102194690550E-11  2.57258258506169E-01
 cg2d: Sum(rhs),rhsMax =  -1.18931531289945E-11  2.56356345208903E-01
 cg2d: Sum(rhs),rhsMax =  -1.19939613796305E-11  2.55357407724815E-01
 cg2d: Sum(rhs),rhsMax =  -1.20712329021444E-11  2.54259888867630E-01
 cg2d: Sum(rhs),rhsMax =  -1.21586074541824E-11  2.53060717532255E-01
 cg2d: Sum(rhs),rhsMax =  -1.22460930285229E-11  2.51764850783839E-01
 cg2d: Sum(rhs),rhsMax =  -1.23266952201107E-11  2.50364814983255E-01
 cg2d: Sum(rhs),rhsMax =  -1.24671384327257E-11  2.48852969723329E-01
 cg2d: Sum(rhs),rhsMax =  -1.25981447496315E-11  2.47234152489724E-01
 cg2d: Sum(rhs),rhsMax =  -1.27098331859088E-11  2.45507559328906E-01
 cg2d: Sum(rhs),rhsMax =  -1.28937971410892E-11  2.43669170532864E-01
 cg2d: Sum(rhs),rhsMax =  -1.30359056882412E-11  2.41715338025307E-01
 cg2d: Sum(rhs),rhsMax =  -1.31771260569735E-11  2.39642748659093E-01
 cg2d: Sum(rhs),rhsMax =  -1.33273392322053E-11  2.37454965040810E-01
 cg2d: Sum(rhs),rhsMax =  -1.34987576672074E-11  2.35145376505996E-01
 cg2d: Sum(rhs),rhsMax =  -1.36969324771030E-11  2.32723093508538E-01
 cg2d: Sum(rhs),rhsMax =  -1.39026568035661E-11  2.30182321344759E-01
 cg2d: Sum(rhs),rhsMax =  -1.40645273205564E-11  2.27520425523726E-01
 cg2d: Sum(rhs),rhsMax =  -1.42796885427288E-11  2.24737490879134E-01
 cg2d: Sum(rhs),rhsMax =  -1.44751988173653E-11  2.21833376569926E-01
 cg2d: Sum(rhs),rhsMax =  -1.47298839792143E-11  2.18809890083335E-01
 cg2d: Sum(rhs),rhsMax =  -1.50038870216918E-11  2.15666060222123E-01
 cg2d: Sum(rhs),rhsMax =  -1.52839962908047E-11  2.12405184805905E-01
 cg2d: Sum(rhs),rhsMax =  -1.56036294995943E-11  2.09033148022379E-01
 cg2d: Sum(rhs),rhsMax =  -1.59314783587661E-11  2.05544699769565E-01
 cg2d: Sum(rhs),rhsMax =  -1.60219615352730E-11  2.05013702162605E-01
 cg2d: Sum(rhs),rhsMax =  -1.57950319490396E-11  2.08770979006595E-01
 cg2d: Sum(rhs),rhsMax =  -1.54846135913544E-11  2.13624689973882E-01
 cg2d: Sum(rhs),rhsMax =  -1.52089452143400E-11  2.18409984074462E-01
 cg2d: Sum(rhs),rhsMax =  -1.49434908891521E-11  2.23082933334254E-01
 cg2d: Sum(rhs),rhsMax =  -1.46822554114578E-11  2.27579075384743E-01
 cg2d: Sum(rhs),rhsMax =  -1.44892986497780E-11  2.31950382416965E-01
 cg2d: Sum(rhs),rhsMax =  -1.42570399930264E-11  2.36165340486700E-01
 cg2d: Sum(rhs),rhsMax =  -1.40701894579820E-11  2.40179622571195E-01
 cg2d: Sum(rhs),rhsMax =  -1.39246392194536E-11  2.44048894035734E-01
 cg2d: Sum(rhs),rhsMax =  -1.37595490556919E-11  2.47670710762971E-01
 cg2d: Sum(rhs),rhsMax =  -1.36289868279960E-11  2.51045427469086E-01
 cg2d: Sum(rhs),rhsMax =  -1.35003119794419E-11  2.54340301911485E-01
 cg2d: Sum(rhs),rhsMax =  -1.34458000289328E-11  2.57361664588315E-01
 cg2d: Sum(rhs),rhsMax =  -1.33961730597321E-11  2.60212301256172E-01
 cg2d: Sum(rhs),rhsMax =  -1.33751898445666E-11  2.62829287456870E-01
 cg2d: Sum(rhs),rhsMax =  -1.33537625401914E-11  2.65164190982773E-01
 cg2d: Sum(rhs),rhsMax =  -1.33367761279146E-11  2.67312474003904E-01
 cg2d: Sum(rhs),rhsMax =  -1.33349997710752E-11  2.69224426257625E-01
 cg2d: Sum(rhs),rhsMax =  -1.33353328379826E-11  2.70883615899532E-01
 cg2d: Sum(rhs),rhsMax =  -1.33394406631737E-11  2.72334256155427E-01
 cg2d: Sum(rhs),rhsMax =  -1.33777433575233E-11  2.73481550638786E-01
 cg2d: Sum(rhs),rhsMax =  -1.34272593044216E-11  2.74362753320581E-01
 cg2d: Sum(rhs),rhsMax =  -1.34861011247267E-11  2.74852801476276E-01
 cg2d: Sum(rhs),rhsMax =  -1.35962352487695E-11  2.75242808803526E-01
 cg2d: Sum(rhs),rhsMax =  -1.37011513245966E-11  2.75396092221287E-01
 cg2d: Sum(rhs),rhsMax =  -1.37596600779943E-11  2.75314263413687E-01
 cg2d: Sum(rhs),rhsMax =  -1.38791200754440E-11  2.74942151103263E-01
 cg2d: Sum(rhs),rhsMax =  -1.39872557980425E-11  2.74322012959286E-01
 cg2d: Sum(rhs),rhsMax =  -1.41503475603599E-11  2.73375910412901E-01
 cg2d: Sum(rhs),rhsMax =  -1.42583722606560E-11  2.72279766693197E-01
 cg2d: Sum(rhs),rhsMax =  -1.43758338566613E-11  2.70961837026798E-01
 cg2d: Sum(rhs),rhsMax =  -1.45048417721227E-11  2.69330134663029E-01
 cg2d: Sum(rhs),rhsMax =  -1.46188616767517E-11  2.67505175672639E-01
 cg2d: Sum(rhs),rhsMax =  -1.47813983275569E-11  2.65438061466486E-01
 cg2d: Sum(rhs),rhsMax =  -1.49508183611147E-11  2.63229657749858E-01
 cg2d: Sum(rhs),rhsMax =  -1.51288981342645E-11  2.60774982772888E-01
 cg2d: Sum(rhs),rhsMax =  -1.53085322196489E-11  2.58102141967935E-01
 cg2d: Sum(rhs),rhsMax =  -1.55578883109797E-11  2.55247470555566E-01
 cg2d: Sum(rhs),rhsMax =  -1.57730495331521E-11  2.52207447493749E-01
 cg2d: Sum(rhs),rhsMax =  -1.59904312013737E-11  2.49647845673245E-01
 cg2d: Sum(rhs),rhsMax =  -1.61642921270300E-11  2.48579377195629E-01
 cg2d: Sum(rhs),rhsMax =  -1.63580260448271E-11  2.47398114469263E-01
 cg2d: Sum(rhs),rhsMax =  -1.65388813755385E-11  2.46135960079709E-01
 cg2d: Sum(rhs),rhsMax =  -1.67358349401070E-11  2.44807282465402E-01
 cg2d: Sum(rhs),rhsMax =  -1.69252389881080E-11  2.43415610501774E-01
 cg2d: Sum(rhs),rhsMax =  -1.71110903224303E-11  2.41958421745332E-01
 cg2d: Sum(rhs),rhsMax =  -1.73077108200914E-11  2.40439832671582E-01
 cg2d: Sum(rhs),rhsMax =  -1.75343073394174E-11  2.38855801532469E-01
 cg2d: Sum(rhs),rhsMax =  -1.77602377249286E-11  2.37216554514126E-01
 cg2d: Sum(rhs),rhsMax =  -1.79626313823178E-11  2.35511783488935E-01
 cg2d: Sum(rhs),rhsMax =  -1.81952231059768E-11  2.33752167576723E-01
 cg2d: Sum(rhs),rhsMax =  -1.83990600532979E-11  2.31937775397809E-01
 cg2d: Sum(rhs),rhsMax =  -1.86209936359205E-11  2.30071167617203E-01
 cg2d: Sum(rhs),rhsMax =  -1.88342674789510E-11  2.28154643512846E-01
 cg2d: Sum(rhs),rhsMax =  -1.90744087191774E-11  2.26196444583472E-01
 cg2d: Sum(rhs),rhsMax =  -1.93071114651389E-11  2.24167572923662E-01
 cg2d: Sum(rhs),rhsMax =  -1.95539140435130E-11  2.22081854278368E-01
 cg2d: Sum(rhs),rhsMax =  -1.97896143916410E-11  2.19951081453879E-01
 cg2d: Sum(rhs),rhsMax =  -2.00756078427844E-11  2.17785191898766E-01
 cg2d: Sum(rhs),rhsMax =  -2.03643768514894E-11  2.15579348365649E-01
 cg2d: Sum(rhs),rhsMax =  -2.06292760651650E-11  2.13332787518475E-01
 cg2d: Sum(rhs),rhsMax =  -2.08950634572602E-11  2.11046605157747E-01
 cg2d: Sum(rhs),rhsMax =  -2.11766160163052E-11  2.08809911986811E-01
 cg2d: Sum(rhs),rhsMax =  -2.13004058835509E-11  2.07999456514939E-01
 cg2d: Sum(rhs),rhsMax =  -2.14426254530053E-11  2.07107901579767E-01
 cg2d: Sum(rhs),rhsMax =  -2.15867324016017E-11  2.06131160180073E-01
 cg2d: Sum(rhs),rhsMax =  -2.17612594610728E-11  2.05067536514309E-01
 cg2d: Sum(rhs),rhsMax =  -2.19281259816739E-11  2.03914954911887E-01
 cg2d: Sum(rhs),rhsMax =  -2.21388463117478E-11  2.02672589067165E-01
 cg2d: Sum(rhs),rhsMax =  -2.23149276834533E-11  2.01591158539344E-01
 cg2d: Sum(rhs),rhsMax =  -2.24084084621268E-11  2.01473645692533E-01
 cg2d: Sum(rhs),rhsMax =  -2.24692486838762E-11  2.01161710695951E-01
 cg2d: Sum(rhs),rhsMax =  -2.25971463763130E-11  2.00608677776220E-01
 cg2d: Sum(rhs),rhsMax =  -2.25703900014196E-11  2.01049292174296E-01
 cg2d: Sum(rhs),rhsMax =  -2.21754836715604E-11  2.04977238741450E-01
 cg2d: Sum(rhs),rhsMax =  -2.17839080107751E-11  2.08772938696861E-01
 cg2d: Sum(rhs),rhsMax =  -2.14527284825294E-11  2.12444960383821E-01
 cg2d: Sum(rhs),rhsMax =  -2.11347606082768E-11  2.15981591893627E-01
 cg2d: Sum(rhs),rhsMax =  -2.06916705991489E-11  2.19389750866322E-01
 cg2d: Sum(rhs),rhsMax =  -2.03297378931211E-11  2.22673720710434E-01
 cg2d: Sum(rhs),rhsMax =  -1.99914529375178E-11  2.25821921235469E-01
 cg2d: Sum(rhs),rhsMax =  -1.96819227582523E-11  2.28832135485324E-01
 cg2d: Sum(rhs),rhsMax =  -1.93801641401592E-11  2.31711256717120E-01
 cg2d: Sum(rhs),rhsMax =  -1.91217042200265E-11  2.34450988899939E-01
 cg2d: Sum(rhs),rhsMax =  -1.88680182588996E-11  2.37051819348316E-01
 cg2d: Sum(rhs),rhsMax =  -1.86038962013413E-11  2.39519151212272E-01
 cg2d: Sum(rhs),rhsMax =  -1.83478787718627E-11  2.41850125544657E-01
 cg2d: Sum(rhs),rhsMax =  -1.81507031626893E-11  2.44042871143048E-01
 cg2d: Sum(rhs),rhsMax =  -1.79664061406015E-11  2.46095682295108E-01
 cg2d: Sum(rhs),rhsMax =  -1.77461378925159E-11  2.48011848565679E-01
 cg2d: Sum(rhs),rhsMax =  -1.75698344762054E-11  2.49792341276623E-01
 cg2d: Sum(rhs),rhsMax =  -1.74137371189431E-11  2.51442367886581E-01
 cg2d: Sum(rhs),rhsMax =  -1.73010494819437E-11  2.52953664493428E-01
 cg2d: Sum(rhs),rhsMax =  -1.72094560824121E-11  2.54331054080261E-01
 cg2d: Sum(rhs),rhsMax =  -1.71198610843248E-11  2.55575868930528E-01
 cg2d: Sum(rhs),rhsMax =  -1.70208291905283E-11  2.56690163587157E-01
 cg2d: Sum(rhs),rhsMax =  -1.69403380212430E-11  2.57673385376887E-01
 cg2d: Sum(rhs),rhsMax =  -1.68804970002157E-11  2.58526293958173E-01
 cg2d: Sum(rhs),rhsMax =  -1.68449698634277E-11  2.59247848695400E-01
 cg2d: Sum(rhs),rhsMax =  -1.68094427266396E-11  2.59839156460533E-01
 cg2d: Sum(rhs),rhsMax =  -1.68052238791461E-11  2.60304378312347E-01
 cg2d: Sum(rhs),rhsMax =  -1.68119962395963E-11  2.60648680473636E-01
 cg2d: Sum(rhs),rhsMax =  -1.68394187483045E-11  2.60874732781537E-01
 cg2d: Sum(rhs),rhsMax =  -1.68546288037419E-11  2.60988531530323E-01
 cg2d: Sum(rhs),rhsMax =  -1.68397518152119E-11  2.60991292316989E-01
 cg2d: Sum(rhs),rhsMax =  -1.67907909798259E-11  2.60885110504448E-01
 cg2d: Sum(rhs),rhsMax =  -1.67448277466065E-11  2.60669154236286E-01
 cg2d: Sum(rhs),rhsMax =  -1.67080793644914E-11  2.60344330477712E-01
 cg2d: Sum(rhs),rhsMax =  -1.66736624507280E-11  2.59913956903862E-01
 cg2d: Sum(rhs),rhsMax =  -1.66555658154266E-11  2.59375312796298E-01
 cg2d: Sum(rhs),rhsMax =  -1.66361369124957E-11  2.58728335114763E-01
 cg2d: Sum(rhs),rhsMax =  -1.66202607232435E-11  2.57968098376219E-01
 cg2d: Sum(rhs),rhsMax =  -1.66150426750278E-11  2.57112644082899E-01
 cg2d: Sum(rhs),rhsMax =  -1.66164859649598E-11  2.56160545883959E-01
 cg2d: Sum(rhs),rhsMax =  -1.66362479347981E-11  2.55115591125153E-01
 cg2d: Sum(rhs),rhsMax =  -1.66331393103292E-11  2.53979825499425E-01
 cg2d: Sum(rhs),rhsMax =  -1.66286984182307E-11  2.52753940721408E-01
 cg2d: Sum(rhs),rhsMax =  -1.66400226930818E-11  2.51437871903197E-01
 cg2d: Sum(rhs),rhsMax =  -1.66910929522146E-11  2.50029807221427E-01
 cg2d: Sum(rhs),rhsMax =  -1.67363900516193E-11  2.48510505587240E-01
 cg2d: Sum(rhs),rhsMax =  -1.67735825229443E-11  2.46950231088486E-01
 cg2d: Sum(rhs),rhsMax =  -1.67991176525106E-11  2.45298071476526E-01
 cg2d: Sum(rhs),rhsMax =  -1.68833835800797E-11  2.43559046021570E-01
 cg2d: Sum(rhs),rhsMax =  -1.69286806794844E-11  2.41751959678021E-01
 cg2d: Sum(rhs),rhsMax =  -1.69869673882772E-11  2.39872967139040E-01
 cg2d: Sum(rhs),rhsMax =  -1.70627956208591E-11  2.37926411073825E-01
 cg2d: Sum(rhs),rhsMax =  -1.71355152289721E-11  2.35911933326654E-01
 cg2d: Sum(rhs),rhsMax =  -1.72760694638896E-11  2.33839913547571E-01
 cg2d: Sum(rhs),rhsMax =  -1.73895342570063E-11  2.31707203226394E-01
 cg2d: Sum(rhs),rhsMax =  -1.75459646811760E-11  2.29521076734622E-01
 cg2d: Sum(rhs),rhsMax =  -1.76184622446840E-11  2.27887231247100E-01
 cg2d: Sum(rhs),rhsMax =  -1.75287562242943E-11  2.29126795547477E-01
 cg2d: Sum(rhs),rhsMax =  -1.74056324908634E-11  2.30303524554699E-01
 cg2d: Sum(rhs),rhsMax =  -1.73291381244667E-11  2.31416637174207E-01
 cg2d: Sum(rhs),rhsMax =  -1.71802572168644E-11  2.32465013404985E-01
 cg2d: Sum(rhs),rhsMax =  -1.71354042066696E-11  2.33448519224031E-01
 cg2d: Sum(rhs),rhsMax =  -1.70597980186926E-11  2.34366006903866E-01
 cg2d: Sum(rhs),rhsMax =  -1.69546598982606E-11  2.35217742103532E-01
 cg2d: Sum(rhs),rhsMax =  -1.68773883757467E-11  2.36002187242666E-01
 cg2d: Sum(rhs),rhsMax =  -1.67738045675492E-11  2.36717338360403E-01
 cg2d: Sum(rhs),rhsMax =  -1.67564850883650E-11  2.37361959770446E-01
 cg2d: Sum(rhs),rhsMax =  -1.67141855911268E-11  2.37931869387491E-01
 cg2d: Sum(rhs),rhsMax =  -1.66545666147044E-11  2.38421751310233E-01
 cg2d: Sum(rhs),rhsMax =  -1.66432423398533E-11  2.38832472841417E-01
 cg2d: Sum(rhs),rhsMax =  -1.66298086412553E-11  2.39165579767759E-01
 cg2d: Sum(rhs),rhsMax =  -1.66169300541696E-11  2.39424886542673E-01
 cg2d: Sum(rhs),rhsMax =  -1.66237024146199E-11  2.39611032520736E-01
 cg2d: Sum(rhs),rhsMax =  -1.66939795320786E-11  2.39720408231141E-01
 cg2d: Sum(rhs),rhsMax =  -1.66344715779587E-11  2.39748581457322E-01
 cg2d: Sum(rhs),rhsMax =  -1.65121250006450E-11  2.39695777621443E-01
 cg2d: Sum(rhs),rhsMax =  -1.64102065269844E-11  2.39551401572318E-01
 cg2d: Sum(rhs),rhsMax =  -1.63782321038752E-11  2.39310266313687E-01
 cg2d: Sum(rhs),rhsMax =  -1.63671298736290E-11  2.38982121161603E-01
 cg2d: Sum(rhs),rhsMax =  -1.63721258772398E-11  2.38559866717779E-01
 cg2d: Sum(rhs),rhsMax =  -1.63565827548950E-11  2.38041253718739E-01
 cg2d: Sum(rhs),rhsMax =  -1.63937752262200E-11  2.37425280583751E-01
 cg2d: Sum(rhs),rhsMax =  -1.63921098916830E-11  2.36711823235860E-01
 cg2d: Sum(rhs),rhsMax =  -1.64107616384968E-11  2.35898709894683E-01
 cg2d: Sum(rhs),rhsMax =  -1.64244173816996E-11  2.35326167354103E-01
 cg2d: Sum(rhs),rhsMax =  -1.62503344114384E-11  2.37074368192878E-01
 cg2d: Sum(rhs),rhsMax =  -1.61389790420685E-11  2.38819844967860E-01
 cg2d: Sum(rhs),rhsMax =  -1.60100821489095E-11  2.40562170992466E-01
 cg2d: Sum(rhs),rhsMax =  -1.58465462973822E-11  2.42300885334860E-01
 cg2d: Sum(rhs),rhsMax =  -1.56858970257190E-11  2.44035495953928E-01
 cg2d: Sum(rhs),rhsMax =  -1.55371271404192E-11  2.45765485580474E-01
 cg2d: Sum(rhs),rhsMax =  -1.53933532587303E-11  2.47490320232265E-01
 cg2d: Sum(rhs),rhsMax =  -1.52563517374915E-11  2.49209459906604E-01
 cg2d: Sum(rhs),rhsMax =  -1.50741641391505E-11  2.50922370743831E-01
 cg2d: Sum(rhs),rhsMax =  -1.48663303889407E-11  2.52628537833436E-01
 cg2d: Sum(rhs),rhsMax =  -1.47279966000724E-11  2.54327477835443E-01
 cg2d: Sum(rhs),rhsMax =  -1.45554679420457E-11  2.56018750674035E-01
 cg2d: Sum(rhs),rhsMax =  -1.44062539675360E-11  2.57701969671856E-01
 cg2d: Sum(rhs),rhsMax =  -1.42361678001635E-11  2.59376809581174E-01
 cg2d: Sum(rhs),rhsMax =  -1.40728539932411E-11  2.61043012007103E-01
 cg2d: Sum(rhs),rhsMax =  -1.39400713194959E-11  2.62700387719778E-01
 cg2d: Sum(rhs),rhsMax =  -1.37574396319451E-11  2.64348815362285E-01
 cg2d: Sum(rhs),rhsMax =  -1.36104461034847E-11  2.65988236142366E-01
 cg2d: Sum(rhs),rhsMax =  -1.34376954008530E-11  2.67618644304221E-01
 cg2d: Sum(rhs),rhsMax =  -1.33035804594783E-11  2.69240073535578E-01
 cg2d: Sum(rhs),rhsMax =  -1.31530342173392E-11  2.70852579949480E-01
 cg2d: Sum(rhs),rhsMax =  -1.30174759860324E-11  2.72456222815001E-01
 cg2d: Sum(rhs),rhsMax =  -1.28599353388381E-11  2.74051044686735E-01
 cg2d: Sum(rhs),rhsMax =  -1.27347021816604E-11  2.75637052882553E-01
 cg2d: Sum(rhs),rhsMax =  -1.25898180769468E-11  2.77214204290038E-01
 cg2d: Sum(rhs),rhsMax =  -1.24418253477643E-11  2.78782395201737E-01
 cg2d: Sum(rhs),rhsMax =  -1.23235865956417E-11  2.80341457308961E-01
 cg2d: Sum(rhs),rhsMax =  -1.22313270622953E-11  2.81891160205101E-01
 cg2d: Sum(rhs),rhsMax =  -1.20841114892301E-11  2.83431219886326E-01
 cg2d: Sum(rhs),rhsMax =  -1.19784182572857E-11  2.84961311929568E-01
 cg2d: Sum(rhs),rhsMax =  -1.18415277583495E-11  2.86481087400370E-01
 cg2d: Sum(rhs),rhsMax =  -1.17176268688013E-11  2.87990189184630E-01
 cg2d: Sum(rhs),rhsMax =  -1.16249232462451E-11  2.89488266386779E-01
 cg2d: Sum(rhs),rhsMax =  -1.14963594199935E-11  2.90974984680218E-01
 cg2d: Sum(rhs),rhsMax =  -1.14098730463752E-11  2.92450030981382E-01
 cg2d: Sum(rhs),rhsMax =  -1.13284936986702E-11  2.93913111469704E-01
 cg2d: Sum(rhs),rhsMax =  -1.11854969730985E-11  2.95363942707944E-01
 cg2d: Sum(rhs),rhsMax =  -1.10784714735246E-11  2.96802236352734E-01
 cg2d: Sum(rhs),rhsMax =  -1.09977582596343E-11  2.98227678618895E-01
 cg2d: Sum(rhs),rhsMax =  -1.09241504731017E-11  2.99639906222581E-01
 cg2d: Sum(rhs),rhsMax =  -1.07771569446413E-11  3.01038480938405E-01
 cg2d: Sum(rhs),rhsMax =  -1.07207576149904E-11  3.02422865133023E-01
 cg2d: Sum(rhs),rhsMax =  -1.06159525614657E-11  3.03792400657337E-01
 cg2d: Sum(rhs),rhsMax =  -1.05527808713646E-11  3.05146293275962E-01
 cg2d: Sum(rhs),rhsMax =  -1.04120045918421E-11  3.06483604385811E-01
 cg2d: Sum(rhs),rhsMax =  -1.03428376974080E-11  3.07803251148592E-01
 cg2d: Sum(rhs),rhsMax =  -1.02692299108753E-11  3.09104015385806E-01
 cg2d: Sum(rhs),rhsMax =  -1.01887387415900E-11  3.10384560738542E-01
 cg2d: Sum(rhs),rhsMax =  -1.01972874588796E-11  3.11643456777504E-01
 cg2d: Sum(rhs),rhsMax =  -1.02433617144015E-11  3.12879208066922E-01
 cg2d: Sum(rhs),rhsMax =  -1.03246300398041E-11  3.14090285733321E-01
 cg2d: Sum(rhs),rhsMax =  -1.04074526774411E-11  3.15275158930855E-01
 cg2d: Sum(rhs),rhsMax =  -1.04770636610851E-11  3.16432323751155E-01
 cg2d: Sum(rhs),rhsMax =  -1.05533359828769E-11  3.17560327572272E-01
 cg2d: Sum(rhs),rhsMax =  -1.06438191593838E-11  3.18657787510667E-01
 cg2d: Sum(rhs),rhsMax =  -1.06537001443030E-11  3.19723402434422E-01
 cg2d: Sum(rhs),rhsMax =  -1.07346354027982E-11  3.20755958804270E-01
 cg2d: Sum(rhs),rhsMax =  -1.08211217764165E-11  3.21754331325792E-01
 cg2d: Sum(rhs),rhsMax =  -1.08716369240369E-11  3.22717479935367E-01
 cg2d: Sum(rhs),rhsMax =  -1.08361097872489E-11  3.23644444947803E-01
 cg2d: Sum(rhs),rhsMax =  -1.07519548819823E-11  3.24534342242194E-01
 cg2d: Sum(rhs),rhsMax =  -1.06359365759090E-11  3.25386360164012E-01
 cg2d: Sum(rhs),rhsMax =  -1.05171427122741E-11  3.26199759413189E-01
 cg2d: Sum(rhs),rhsMax =  -1.04546371559877E-11  3.26973876629292E-01
 cg2d: Sum(rhs),rhsMax =  -1.04015684954106E-11  3.27708131749020E-01
 cg2d: Sum(rhs),rhsMax =  -1.03733688305852E-11  3.28402038577649E-01
 cg2d: Sum(rhs),rhsMax =  -1.03339559132110E-11  3.29055217461362E-01
 cg2d: Sum(rhs),rhsMax =  -1.03940189788432E-11  3.29667408537156E-01
 cg2d: Sum(rhs),rhsMax =  -1.04475317286301E-11  3.30238483817205E-01
 cg2d: Sum(rhs),rhsMax =  -1.05355724144829E-11  3.30768456357041E-01
 cg2d: Sum(rhs),rhsMax =  -1.05092601287993E-11  3.31257484956358E-01
 cg2d: Sum(rhs),rhsMax =  -1.05406794403962E-11  3.31705873218134E-01
 cg2d: Sum(rhs),rhsMax =  -1.05100372849165E-11  3.32114062297351E-01
 cg2d: Sum(rhs),rhsMax =  -1.04692920999128E-11  3.32482617244525E-01
 cg2d: Sum(rhs),rhsMax =  -1.04426467473218E-11  3.32812207428882E-01
 cg2d: Sum(rhs),rhsMax =  -1.05040420805835E-11  3.33103582052078E-01
 cg2d: Sum(rhs),rhsMax =  -1.06739062033512E-11  3.33357542187424E-01
 cg2d: Sum(rhs),rhsMax =  -1.07743813870798E-11  3.33574911065997E-01
 cg2d: Sum(rhs),rhsMax =  -1.09035003248437E-11  3.33756504459933E-01
 cg2d: Sum(rhs),rhsMax =  -1.09728892638827E-11  3.33903102980245E-01
 cg2d: Sum(rhs),rhsMax =  -1.10444986489711E-11  3.34015427922240E-01
 cg2d: Sum(rhs),rhsMax =  -1.10038644862698E-11  3.34094121979311E-01
 cg2d: Sum(rhs),rhsMax =  -1.09221520716574E-11  3.34139735738438E-01
 cg2d: Sum(rhs),rhsMax =  -1.09153797112072E-11  3.34152720406800E-01
 cg2d: Sum(rhs),rhsMax =  -1.09298126105273E-11  3.34133426738153E-01
 cg2d: Sum(rhs),rhsMax =  -1.09173781126515E-11  3.34082109669051E-01
 cg2d: Sum(rhs),rhsMax =  -1.09354747479529E-11  3.33998937772184E-01
 cg2d: Sum(rhs),rhsMax =  -1.09249276292189E-11  3.33884006316644E-01
 cg2d: Sum(rhs),rhsMax =  -1.08554276678774E-11  3.33737352516308E-01
 cg2d: Sum(rhs),rhsMax =  -1.08056896763742E-11  3.33558971465063E-01
 cg2d: Sum(rhs),rhsMax =  -1.08605346937907E-11  3.33348831310965E-01
 cg2d: Sum(rhs),rhsMax =  -1.09251496738239E-11  3.33106886410387E-01
 cg2d: Sum(rhs),rhsMax =  -1.09721121077655E-11  3.32833087514578E-01
 cg2d: Sum(rhs),rhsMax =  -1.10259579244598E-11  3.32527388447730E-01
 cg2d: Sum(rhs),rhsMax =  -1.10853548562773E-11  3.32189749196380E-01
 cg2d: Sum(rhs),rhsMax =  -1.11270992420032E-11  3.31820135793348E-01
 cg2d: Sum(rhs),rhsMax =  -1.11857190177034E-11  3.31418517789590E-01
 cg2d: Sum(rhs),rhsMax =  -1.12597708934459E-11  3.30984864412133E-01
 cg2d: Sum(rhs),rhsMax =  -1.13687947944641E-11  3.30519140665133E-01
 cg2d: Sum(rhs),rhsMax =  -1.14189768751771E-11  3.30021304621895E-01
 cg2d: Sum(rhs),rhsMax =  -1.14748210933158E-11  3.29491306978046E-01
 cg2d: Sum(rhs),rhsMax =  -1.15526477273420E-11  3.28929093612634E-01
 cg2d: Sum(rhs),rhsMax =  -1.16339160527446E-11  3.28334611476906E-01
 cg2d: Sum(rhs),rhsMax =  -1.16928688953521E-11  3.27707817656896E-01
 cg2d: Sum(rhs),rhsMax =  -1.17972298596669E-11  3.27048691000016E-01
 cg2d: Sum(rhs),rhsMax =  -1.18742793375759E-11  3.26357245320376E-01
 cg2d: Sum(rhs),rhsMax =  -1.19243503959865E-11  3.25633542955777E-01
 cg2d: Sum(rhs),rhsMax =  -1.20260468250422E-11  3.24877707375771E-01
 cg2d: Sum(rhs),rhsMax =  -1.20921050950074E-11  3.24089933644970E-01
 cg2d: Sum(rhs),rhsMax =  -1.21720411527804E-11  3.23270495810838E-01
 cg2d: Sum(rhs),rhsMax =  -1.22535315227879E-11  3.22419750665520E-01
 cg2d: Sum(rhs),rhsMax =  -1.23268062424131E-11  3.21538137761108E-01
 cg2d: Sum(rhs),rhsMax =  -1.24198429318767E-11  3.20626175961657E-01
 cg2d: Sum(rhs),rhsMax =  -1.24822374658606E-11  3.19684457122195E-01
 cg2d: Sum(rhs),rhsMax =  -1.25736088207873E-11  3.18713637643636E-01
 cg2d: Sum(rhs),rhsMax =  -1.26730848037937E-11  3.17714428642400E-01
 cg2d: Sum(rhs),rhsMax =  -1.27740040767321E-11  3.16687585312021E-01
 cg2d: Sum(rhs),rhsMax =  -1.28868027360340E-11  3.15633895792520E-01
 cg2d: Sum(rhs),rhsMax =  -1.29758426226090E-11  3.14554169577794E-01
 cg2d: Sum(rhs),rhsMax =  -1.30920829732872E-11  3.13449225263798E-01
 cg2d: Sum(rhs),rhsMax =  -1.31895605548493E-11  3.12319877340206E-01
 cg2d: Sum(rhs),rhsMax =  -1.33136834890024E-11  3.11166921794104E-01
 cg2d: Sum(rhs),rhsMax =  -1.34456890066303E-11  3.09991120524164E-01
(PID.TID 0000.0001)      cg2d_init_res =   7.49740142505713E-02
(PID.TID 0000.0001)      cg2d_iters(min,last) =      -1      29
(PID.TID 0000.0001)      cg2d_last_res =   8.54994668158196E-14
(PID.TID 0000.0001) // =======================================================
(PID.TID 0000.0001) // Begin MONITOR dynamic field statistics
(PID.TID 0000.0001) // =======================================================
(PID.TID 0000.0001) %MON time_tsnumber                =                  3360
(PID.TID 0000.0001) %MON time_secondsf                =   5.0400000000000E+04
(PID.TID 0000.0001) %MON dynstat_eta_max              =   3.3834490403458E-02
(PID.TID 0000.0001) %MON dynstat_eta_min              =  -2.7020408749639E-02
(PID.TID 0000.0001) %MON dynstat_eta_mean             =   4.8512523955861E-15
(PID.TID 0000.0001) %MON dynstat_eta_sd               =   2.2287330018823E-02
(PID.TID 0000.0001) %MON dynstat_eta_del2             =   2.9054658807218E-04
(PID.TID 0000.0001) %MON dynstat_uvel_max             =   1.5592515775667E+00
(PID.TID 0000.0001) %MON dynstat_uvel_min             =  -7.3333290213264E-01
(PID.TID 0000.0001) %MON dynstat_uvel_mean            =  -1.0047547291933E-03
(PID.TID 0000.0001) %MON dynstat_uvel_sd              =   2.2192841106449E-01
(PID.TID 0000.0001) %MON dynstat_uvel_del2            =   1.0232496354192E-03
(PID.TID 0000.0001) %MON dynstat_vvel_max             =   0.0000000000000E+00
(PID.TID 0000.0001) %MON dynstat_vvel_min             =   0.0000000000000E+00
(PID.TID 0000.0001) %MON dynstat_vvel_mean            =   0.0000000000000E+00
(PID.TID 0000.0001) %MON dynstat_vvel_sd              =   0.0000000000000E+00
(PID.TID 0000.0001) %MON dynstat_vvel_del2            =   0.0000000000000E+00
(PID.TID 0000.0001) %MON dynstat_wvel_max             =   6.1498091720475E-02
(PID.TID 0000.0001) %MON dynstat_wvel_min             =  -4.4970638945927E-02
(PID.TID 0000.0001) %MON dynstat_wvel_mean            =   5.6144331464940E-20
(PID.TID 0000.0001) %MON dynstat_wvel_sd              =   5.4573234354011E-03
(PID.TID 0000.0001) %MON dynstat_wvel_del2            =   1.1395267197444E-04
(PID.TID 0000.0001) %MON dynstat_theta_max            =   1.4976502386380E+01
(PID.TID 0000.0001) %MON dynstat_theta_min            =   9.9765023856432E+00
(PID.TID 0000.0001) %MON dynstat_theta_mean           =   1.2377028849156E+01
(PID.TID 0000.0001) %MON dynstat_theta_sd             =   2.3315635612672E+00
(PID.TID 0000.0001) %MON dynstat_theta_del2           =   2.5603428936832E-03
(PID.TID 0000.0001) %MON dynstat_salt_max             =   3.5000000000000E+01
(PID.TID 0000.0001) %MON dynstat_salt_min             =   3.5000000000000E+01
(PID.TID 0000.0001) %MON dynstat_salt_mean            =   3.5000000000000E+01
(PID.TID 0000.0001) %MON dynstat_salt_sd              =   3.4816594052245E-13
(PID.TID 0000.0001) %MON dynstat_salt_del2            =   0.0000000000000E+00
(PID.TID 0000.0001) %MON dynstat_sst_max              =   1.4976502385655E+01
(PID.TID 0000.0001) %MON dynstat_sst_min              =   1.4608867630334E+01
(PID.TID 0000.0001) %MON dynstat_sst_mean             =   1.4866762094438E+01
(PID.TID 0000.0001) %MON dynstat_sst_sd               =   1.5575115131176E-01
(PID.TID 0000.0001) %MON dynstat_sst_del2             =   7.8189149399252E-04
(PID.TID 0000.0001) %MON dynstat_sss_max              =   3.5000000000000E+01
(PID.TID 0000.0001) %MON dynstat_sss_min              =   3.5000000000000E+01
(PID.TID 0000.0001) %MON dynstat_sss_mean             =   3.5000000000000E+01
(PID.TID 0000.0001) %MON dynstat_sss_sd               =   3.5527136788005E-14
(PID.TID 0000.0001) %MON dynstat_sss_del2             =   0.0000000000000E+00
(PID.TID 0000.0001) %MON forcing_qnet_max             =   0.0000000000000E+00
(PID.TID 0000.0001) %MON forcing_qnet_min             =   0.0000000000000E+00
(PID.TID 0000.0001) %MON forcing_qnet_mean            =   0.0000000000000E+00
(PID.TID 0000.0001) %MON forcing_qnet_sd              =   0.0000000000000E+00
(PID.TID 0000.0001) %MON forcing_qnet_del2            =   0.0000000000000E+00
(PID.TID 0000.0001) %MON forcing_qsw_max              =   0.0000000000000E+00
(PID.TID 0000.0001) %MON forcing_qsw_min              =   0.0000000000000E+00
(PID.TID 0000.0001) %MON forcing_qsw_mean             =   0.0000000000000E+00
(PID.TID 0000.0001) %MON forcing_qsw_sd               =   0.0000000000000E+00
(PID.TID 0000.0001) %MON forcing_qsw_del2             =   0.0000000000000E+00
(PID.TID 0000.0001) %MON forcing_empmr_max            =   0.0000000000000E+00
(PID.TID 0000.0001) %MON forcing_empmr_min            =   0.0000000000000E+00
(PID.TID 0000.0001) %MON forcing_empmr_mean           =   0.0000000000000E+00
(PID.TID 0000.0001) %MON forcing_empmr_sd             =   0.0000000000000E+00
(PID.TID 0000.0001) %MON forcing_empmr_del2           =   0.0000000000000E+00
(PID.TID 0000.0001) %MON forcing_fu_max               =   0.0000000000000E+00
(PID.TID 0000.0001) %MON forcing_fu_min               =   0.0000000000000E+00
(PID.TID 0000.0001) %MON forcing_fu_mean              =   0.0000000000000E+00
(PID.TID 0000.0001) %MON forcing_fu_sd                =   0.0000000000000E+00
(PID.TID 0000.0001) %MON forcing_fu_del2              =   0.0000000000000E+00
(PID.TID 0000.0001) %MON forcing_fv_max               =   0.0000000000000E+00
(PID.TID 0000.0001) %MON forcing_fv_min               =   0.0000000000000E+00
(PID.TID 0000.0001) %MON forcing_fv_mean              =   0.0000000000000E+00
(PID.TID 0000.0001) %MON forcing_fv_sd                =   0.0000000000000E+00
(PID.TID 0000.0001) %MON forcing_fv_del2              =   0.0000000000000E+00
(PID.TID 0000.0001) %MON advcfl_uvel_max              =   8.7315526455547E-02
(PID.TID 0000.0001) %MON advcfl_vvel_max              =   0.0000000000000E+00
(PID.TID 0000.0001) %MON advcfl_wvel_max              =   4.0381591714999E-01
(PID.TID 0000.0001) %MON advcfl_W_hf_max              =   4.0690414833412E-01
(PID.TID 0000.0001) %MON pe_b_mean                    =   1.3944204888687E-05
(PID.TID 0000.0001) %MON ke_max                       =   9.8683330229902E-01
(PID.TID 0000.0001) %MON ke_mean                      =   2.4899216902082E-02
(PID.TID 0000.0001) %MON ke_vol                       =   8.5337279889550E+10
(PID.TID 0000.0001) %MON vort_r_min                   =   0.0000000000000E+00
(PID.TID 0000.0001) %MON vort_r_max                   =   0.0000000000000E+00
(PID.TID 0000.0001) %MON vort_a_mean                  =   0.0000000000000E+00
(PID.TID 0000.0001) %MON vort_a_sd                    =   0.0000000000000E+00
(PID.TID 0000.0001) %MON vort_p_mean                  =   0.0000000000000E+00
(PID.TID 0000.0001) %MON vort_p_sd                    =   0.0000000000000E+00
(PID.TID 0000.0001) %MON surfExpan_theta_mean         =  -7.6138799752299E-07
(PID.TID 0000.0001) %MON surfExpan_salt_mean          =   5.1773386279191E-18
(PID.TID 0000.0001) // =======================================================
(PID.TID 0000.0001) // End MONITOR dynamic field statistics
(PID.TID 0000.0001) // =======================================================
(PID.TID 0000.0001) // =======================================================
(PID.TID 0000.0001) // Begin OBCS MONITOR field statistics
(PID.TID 0000.0001) // =======================================================
(PID.TID 0000.0001) %MON obc_E_uVel_max               =   0.0000000000000E+00
(PID.TID 0000.0001) %MON obc_E_uVel_min               =   0.0000000000000E+00
(PID.TID 0000.0001) %MON obc_E_uVel_mean              =   0.0000000000000E+00
(PID.TID 0000.0001) %MON obc_E_uVel_sd                =   0.0000000000000E+00
(PID.TID 0000.0001) %MON obc_E_uVel_Int               =   0.0000000000000E+00
(PID.TID 0000.0001) %MON obc_W_uVel_max               =   0.0000000000000E+00
(PID.TID 0000.0001) %MON obc_W_uVel_min               =   0.0000000000000E+00
(PID.TID 0000.0001) %MON obc_W_uVel_mean              =   0.0000000000000E+00
(PID.TID 0000.0001) %MON obc_W_uVel_sd                =   0.0000000000000E+00
(PID.TID 0000.0001) %MON obc_W_uVel_Int               =   0.0000000000000E+00
(PID.TID 0000.0001) // =======================================================
(PID.TID 0000.0001) // End OBCS MONITOR field statistics
(PID.TID 0000.0001) // =======================================================
 cg2d: Sum(rhs),rhsMax =  -1.35658151378948E-11  3.08793184914614E-01
 cg2d: Sum(rhs),rhsMax =  -1.37354572160575E-11  3.07573759316444E-01
 cg2d: Sum(rhs),rhsMax =  -1.38776767855120E-11  3.06333405541269E-01
 cg2d: Sum(rhs),rhsMax =  -1.39711575641854E-11  3.05072589711613E-01
 cg2d: Sum(rhs),rhsMax =  -1.41279210552625E-11  3.03791672875401E-01
 cg2d: Sum(rhs),rhsMax =  -1.42884593046233E-11  3.02490906663715E-01
 cg2d: Sum(rhs),rhsMax =  -1.44444456395831E-11  3.01170434967360E-01
 cg2d: Sum(rhs),rhsMax =  -1.45862211198278E-11  2.99830302175940E-01
 cg2d: Sum(rhs),rhsMax =  -1.47428735886024E-11  2.98470468023213E-01
 cg2d: Sum(rhs),rhsMax =  -1.47890588664268E-11  2.97090828573990E-01
 cg2d: Sum(rhs),rhsMax =  -1.48744350170205E-11  2.95691242417175E-01
 cg2d: Sum(rhs),rhsMax =  -1.49473766697383E-11  2.94271560726383E-01
 cg2d: Sum(rhs),rhsMax =  -1.50468526527447E-11  2.92831659528197E-01
 cg2d: Sum(rhs),rhsMax =  -1.51154644356666E-11  2.91371472284943E-01
 cg2d: Sum(rhs),rhsMax =  -1.51869627984524E-11  2.89891020760526E-01
 cg2d: Sum(rhs),rhsMax =  -1.52733381497683E-11  2.88390442106061E-01
 cg2d: Sum(rhs),rhsMax =  -1.53517198953068E-11  2.86870010194455E-01
 cg2d: Sum(rhs),rhsMax =  -1.54145585185006E-11  2.85330149467970E-01
 cg2d: Sum(rhs),rhsMax =  -1.55233603749139E-11  2.83771439951738E-01
 cg2d: Sum(rhs),rhsMax =  -1.56040735888041E-11  2.82194612625956E-01
 cg2d: Sum(rhs),rhsMax =  -1.56966661890579E-11  2.80600535017190E-01
 cg2d: Sum(rhs),rhsMax =  -1.57778234921579E-11  2.78990187621347E-01
 cg2d: Sum(rhs),rhsMax =  -1.58850710363367E-11  2.77364632546553E-01
 cg2d: Sum(rhs),rhsMax =  -1.59983137848485E-11  2.75724976490809E-01
 cg2d: Sum(rhs),rhsMax =  -1.61310964585937E-11  2.74072330769753E-01
 cg2d: Sum(rhs),rhsMax =  -1.62130309178110E-11  2.72407771509795E-01
 cg2d: Sum(rhs),rhsMax =  -1.63172808598233E-11  2.70732303257509E-01
 cg2d: Sum(rhs),rhsMax =  -1.64508406896857E-11  2.69046829082974E-01
 cg2d: Sum(rhs),rhsMax =  -1.60672586346777E-11  2.76005622889581E-01
 cg2d: Sum(rhs),rhsMax =  -1.56249457816671E-11  2.83682946842663E-01
 cg2d: Sum(rhs),rhsMax =  -1.52743373504904E-11  2.90923679559727E-01
 cg2d: Sum(rhs),rhsMax =  -1.49621426359658E-11  2.97710050625101E-01
 cg2d: Sum(rhs),rhsMax =  -1.46745948725879E-11  3.03811420627218E-01
 cg2d: Sum(rhs),rhsMax =  -1.44151357517330E-11  3.09422023398840E-01
 cg2d: Sum(rhs),rhsMax =  -1.42094114252700E-11  3.14458303579424E-01
 cg2d: Sum(rhs),rhsMax =  -1.40386591240826E-11  3.18857695822366E-01
 cg2d: Sum(rhs),rhsMax =  -1.38908884395050E-11  3.22294404389022E-01
 cg2d: Sum(rhs),rhsMax =  -1.38267175486817E-11  3.25286980526476E-01
 cg2d: Sum(rhs),rhsMax =  -1.38610234401426E-11  3.27659395379990E-01
 cg2d: Sum(rhs),rhsMax =  -1.39001032906094E-11  3.29434976175613E-01
 cg2d: Sum(rhs),rhsMax =  -1.39422917655452E-11  3.30626267938214E-01
 cg2d: Sum(rhs),rhsMax =  -1.39992462067084E-11  3.31188499512091E-01
 cg2d: Sum(rhs),rhsMax =  -1.40956135652459E-11  3.30944843073315E-01
 cg2d: Sum(rhs),rhsMax =  -1.42463818519900E-11  3.29779918285767E-01
 cg2d: Sum(rhs),rhsMax =  -1.44571021820639E-11  3.27729217496572E-01
 cg2d: Sum(rhs),rhsMax =  -1.47312162468438E-11  3.24900061154685E-01
 cg2d: Sum(rhs),rhsMax =  -1.49834589180387E-11  3.21835691763457E-01
 cg2d: Sum(rhs),rhsMax =  -1.52325929647645E-11  3.17518322303225E-01
 cg2d: Sum(rhs),rhsMax =  -1.54671830898678E-11  3.12889916827919E-01
 cg2d: Sum(rhs),rhsMax =  -1.57538426748260E-11  3.07789674361299E-01
 cg2d: Sum(rhs),rhsMax =  -1.60972346563426E-11  3.01985513732561E-01
 cg2d: Sum(rhs),rhsMax =  -1.64510627342906E-11  2.95747222055722E-01
 cg2d: Sum(rhs),rhsMax =  -1.68717262383211E-11  2.88855069536797E-01
 cg2d: Sum(rhs),rhsMax =  -1.73577818785020E-11  2.81691374894662E-01
 cg2d: Sum(rhs),rhsMax =  -1.78937975547910E-11  2.74101838028457E-01
 cg2d: Sum(rhs),rhsMax =  -1.84504633793381E-11  2.66120642295614E-01
 cg2d: Sum(rhs),rhsMax =  -1.89720461563070E-11  2.58909763966425E-01
 cg2d: Sum(rhs),rhsMax =  -1.97166727389231E-11  2.49482600107023E-01
 cg2d: Sum(rhs),rhsMax =  -2.05678807319032E-11  2.39369562147247E-01
 cg2d: Sum(rhs),rhsMax =  -2.15529816216531E-11  2.28931074784904E-01
 cg2d: Sum(rhs),rhsMax =  -2.24563700967906E-11  2.20005188815448E-01
 cg2d: Sum(rhs),rhsMax =  -2.27577956479763E-11  2.17294976592478E-01
 cg2d: Sum(rhs),rhsMax =  -2.31318297849725E-11  2.14494078030793E-01
 cg2d: Sum(rhs),rhsMax =  -2.34646746477551E-11  2.11604699065882E-01
 cg2d: Sum(rhs),rhsMax =  -2.38539188401887E-11  2.08627808627240E-01
 cg2d: Sum(rhs),rhsMax =  -2.42603714895040E-11  2.05562884133929E-01
 cg2d: Sum(rhs),rhsMax =  -2.41959785540757E-11  2.06472372143218E-01
 cg2d: Sum(rhs),rhsMax =  -2.41752173835152E-11  2.07300517016525E-01
 cg2d: Sum(rhs),rhsMax =  -2.38078445846668E-11  2.10825175675629E-01
 cg2d: Sum(rhs),rhsMax =  -2.34807728816122E-11  2.14250612021295E-01
 cg2d: Sum(rhs),rhsMax =  -2.32114327758381E-11  2.17565708869335E-01
 cg2d: Sum(rhs),rhsMax =  -2.29373187110582E-11  2.20771818292610E-01
 cg2d: Sum(rhs),rhsMax =  -2.26531016167542E-11  2.23868949292413E-01
 cg2d: Sum(rhs),rhsMax =  -2.24255058967060E-11  2.26852066714345E-01
 cg2d: Sum(rhs),rhsMax =  -2.21811458089860E-11  2.29721160323488E-01
 cg2d: Sum(rhs),rhsMax =  -2.19647633414866E-11  2.32474550844598E-01
 cg2d: Sum(rhs),rhsMax =  -2.17581508366038E-11  2.35113190725576E-01
 cg2d: Sum(rhs),rhsMax =  -2.15594209151959E-11  2.37638320440728E-01
 cg2d: Sum(rhs),rhsMax =  -2.13632445067446E-11  2.40057103421868E-01
 cg2d: Sum(rhs),rhsMax =  -2.11903827818105E-11  2.42370830213405E-01
 cg2d: Sum(rhs),rhsMax =  -2.10710338066633E-11  2.44580909467942E-01
 cg2d: Sum(rhs),rhsMax =  -2.09331441070049E-11  2.46683634323762E-01
 cg2d: Sum(rhs),rhsMax =  -2.07833750209829E-11  2.48683181759243E-01
 cg2d: Sum(rhs),rhsMax =  -2.06346051356832E-11  2.50582520861126E-01
 cg2d: Sum(rhs),rhsMax =  -2.05059302871291E-11  2.52383465068871E-01
 cg2d: Sum(rhs),rhsMax =  -2.03790317954144E-11  2.54086152116667E-01
 cg2d: Sum(rhs),rhsMax =  -2.03014272059931E-11  2.55691638554407E-01
 cg2d: Sum(rhs),rhsMax =  -2.01864081006420E-11  2.57199328247877E-01
 cg2d: Sum(rhs),rhsMax =  -2.01351157969043E-11  2.58607649563768E-01
 cg2d: Sum(rhs),rhsMax =  -2.00449656873047E-11  2.59913363183477E-01
 cg2d: Sum(rhs),rhsMax =  -1.99585903359889E-11  2.61121094886132E-01
 cg2d: Sum(rhs),rhsMax =  -1.99038563408749E-11  2.62235381887328E-01
 cg2d: Sum(rhs),rhsMax =  -1.98572269738406E-11  2.63256867709998E-01
 cg2d: Sum(rhs),rhsMax =  -1.97917238153877E-11  2.64183943732997E-01
 cg2d: Sum(rhs),rhsMax =  -1.97700744664076E-11  2.65021577201637E-01
 cg2d: Sum(rhs),rhsMax =  -1.97264427015398E-11  2.65769901019673E-01
 cg2d: Sum(rhs),rhsMax =  -1.97003524604611E-11  2.66426958778015E-01
 cg2d: Sum(rhs),rhsMax =  -1.96781479999686E-11  2.66993697024875E-01
 cg2d: Sum(rhs),rhsMax =  -1.96503924243530E-11  2.67471175466689E-01
 cg2d: Sum(rhs),rhsMax =  -1.96606064761795E-11  2.67858555942882E-01
 cg2d: Sum(rhs),rhsMax =  -1.96579419409204E-11  2.68159173833011E-01
 cg2d: Sum(rhs),rhsMax =  -1.96422877962732E-11  2.68375335412414E-01
 cg2d: Sum(rhs),rhsMax =  -1.97568628124145E-11  2.68499782172379E-01
 cg2d: Sum(rhs),rhsMax =  -1.98541183493717E-11  2.68535557759532E-01
 cg2d: Sum(rhs),rhsMax =  -1.99789074173395E-11  2.68493036306712E-01
 cg2d: Sum(rhs),rhsMax =  -2.00802707794878E-11  2.68374102649582E-01
 cg2d: Sum(rhs),rhsMax =  -2.01771932495376E-11  2.68176413199904E-01
 cg2d: Sum(rhs),rhsMax =  -2.03038696966473E-11  2.67892109391211E-01
 cg2d: Sum(rhs),rhsMax =  -2.04252170732389E-11  2.67527261184412E-01
 cg2d: Sum(rhs),rhsMax =  -2.05406802677999E-11  2.67082242949239E-01
 cg2d: Sum(rhs),rhsMax =  -2.06615835551816E-11  2.66565744843615E-01
 cg2d: Sum(rhs),rhsMax =  -2.07959205411612E-11  2.65977990311990E-01
 cg2d: Sum(rhs),rhsMax =  -2.09342543300295E-11  2.65319323238170E-01
 cg2d: Sum(rhs),rhsMax =  -2.10793604793480E-11  2.64597602988170E-01
 cg2d: Sum(rhs),rhsMax =  -2.12093675955316E-11  2.63814661976736E-01
 cg2d: Sum(rhs),rhsMax =  -2.13683515326579E-11  2.62978951003017E-01
 cg2d: Sum(rhs),rhsMax =  -2.15387707669379E-11  2.62078443873126E-01
 cg2d: Sum(rhs),rhsMax =  -2.17004192393233E-11  2.61115184482220E-01
 cg2d: Sum(rhs),rhsMax =  -2.18861595513431E-11  2.60092607189157E-01
 cg2d: Sum(rhs),rhsMax =  -2.19887441588185E-11  2.59012477635487E-01
 cg2d: Sum(rhs),rhsMax =  -2.20907736547815E-11  2.57876509184005E-01
 cg2d: Sum(rhs),rhsMax =  -2.22074580946696E-11  2.56687896549056E-01
 cg2d: Sum(rhs),rhsMax =  -2.23635554519319E-11  2.55447663231586E-01
 cg2d: Sum(rhs),rhsMax =  -2.25301999279282E-11  2.54155614507972E-01
 cg2d: Sum(rhs),rhsMax =  -2.26993979168810E-11  2.52811615280304E-01
 cg2d: Sum(rhs),rhsMax =  -2.28873586749501E-11  2.51414676516265E-01
 cg2d: Sum(rhs),rhsMax =  -2.30858665517530E-11  2.49967807174820E-01
 cg2d: Sum(rhs),rhsMax =  -2.32464048011138E-11  2.48467097933862E-01
 cg2d: Sum(rhs),rhsMax =  -2.34324781800410E-11  2.46914017604916E-01
 cg2d: Sum(rhs),rhsMax =  -2.36441977108370E-11  2.45312601316050E-01
 cg2d: Sum(rhs),rhsMax =  -2.38562503085404E-11  2.43666407996459E-01
 cg2d: Sum(rhs),rhsMax =  -2.40608644119789E-11  2.41979452966150E-01
 cg2d: Sum(rhs),rhsMax =  -2.42641462477877E-11  2.40253593051959E-01
 cg2d: Sum(rhs),rhsMax =  -2.44897435663916E-11  2.38492193030215E-01
 cg2d: Sum(rhs),rhsMax =  -2.47040166101442E-11  2.36701904194371E-01
 cg2d: Sum(rhs),rhsMax =  -2.49249509920446E-11  2.34887849853115E-01
 cg2d: Sum(rhs),rhsMax =  -2.51454412847352E-11  2.33034479631078E-01
 cg2d: Sum(rhs),rhsMax =  -2.53682630457774E-11  2.31154320422266E-01
 cg2d: Sum(rhs),rhsMax =  -2.55967469442453E-11  2.29254634620172E-01
 cg2d: Sum(rhs),rhsMax =  -2.57792676094937E-11  2.27331128860313E-01
 cg2d: Sum(rhs),rhsMax =  -2.59987587014621E-11  2.25386298966890E-01
 cg2d: Sum(rhs),rhsMax =  -2.62231347747388E-11  2.23422056925803E-01
 cg2d: Sum(rhs),rhsMax =  -2.64692712192982E-11  2.21441768667142E-01
 cg2d: Sum(rhs),rhsMax =  -2.67412758603314E-11  2.19450623634798E-01
 cg2d: Sum(rhs),rhsMax =  -2.70119482337350E-11  2.17455860316573E-01
 cg2d: Sum(rhs),rhsMax =  -2.72660782840717E-11  2.15478717743388E-01
 cg2d: Sum(rhs),rhsMax =  -2.75731659726830E-11  2.13436241273283E-01
 cg2d: Sum(rhs),rhsMax =  -2.76837441859357E-11  2.12711215762460E-01
 cg2d: Sum(rhs),rhsMax =  -2.72775135812253E-11  2.16118886599000E-01
 cg2d: Sum(rhs),rhsMax =  -2.68784994261750E-11  2.19565168270663E-01
 cg2d: Sum(rhs),rhsMax =  -2.65480970540466E-11  2.22671557056404E-01
 cg2d: Sum(rhs),rhsMax =  -2.62397881201082E-11  2.25720847615081E-01
 cg2d: Sum(rhs),rhsMax =  -2.59195997998063E-11  2.28774563782897E-01
 cg2d: Sum(rhs),rhsMax =  -2.56586973890194E-11  2.31500459204142E-01
 cg2d: Sum(rhs),rhsMax =  -2.53912446623872E-11  2.34080811569229E-01
 cg2d: Sum(rhs),rhsMax =  -2.51492160430189E-11  2.36582628913849E-01
 cg2d: Sum(rhs),rhsMax =  -2.49401610474820E-11  2.38938871844240E-01
 cg2d: Sum(rhs),rhsMax =  -2.47430964606110E-11  2.41154905927410E-01
 cg2d: Sum(rhs),rhsMax =  -2.45622411298996E-11  2.43189874157074E-01
 cg2d: Sum(rhs),rhsMax =  -2.43888242934531E-11  2.45056536132699E-01
 cg2d: Sum(rhs),rhsMax =  -2.42584841103621E-11  2.46753993592220E-01
 cg2d: Sum(rhs),rhsMax =  -2.41104913811796E-11  2.48273944316049E-01
 cg2d: Sum(rhs),rhsMax =  -2.39595010498306E-11  2.49635097920777E-01
 cg2d: Sum(rhs),rhsMax =  -2.38047359601978E-11  2.50817106979347E-01
 cg2d: Sum(rhs),rhsMax =  -2.36696218181009E-11  2.51863551035689E-01
 cg2d: Sum(rhs),rhsMax =  -2.35375052781706E-11  2.52716880071968E-01
 cg2d: Sum(rhs),rhsMax =  -2.33858488130068E-11  2.53580451951479E-01
 cg2d: Sum(rhs),rhsMax =  -2.32588392989896E-11  2.53945037466143E-01
 cg2d: Sum(rhs),rhsMax =  -2.31947794304688E-11  2.54109933717468E-01
 cg2d: Sum(rhs),rhsMax =  -2.31364927216759E-11  2.54364983970900E-01
 cg2d: Sum(rhs),rhsMax =  -2.30123697875229E-11  2.55097834464447E-01
 cg2d: Sum(rhs),rhsMax =  -2.30366836717621E-11  2.54365287439943E-01
 cg2d: Sum(rhs),rhsMax =  -2.30709895632231E-11  2.53129146867028E-01
 cg2d: Sum(rhs),rhsMax =  -2.29618546399024E-11  2.53633456572378E-01
 cg2d: Sum(rhs),rhsMax =  -2.28210783603799E-11  2.54512937973200E-01
 cg2d: Sum(rhs),rhsMax =  -2.26784147017156E-11  2.55288320417912E-01
 cg2d: Sum(rhs),rhsMax =  -2.25338636639094E-11  2.55972606318594E-01
 cg2d: Sum(rhs),rhsMax =  -2.23820961764432E-11  2.56561217834027E-01
 cg2d: Sum(rhs),rhsMax =  -2.22475371458586E-11  2.57045595648318E-01
 cg2d: Sum(rhs),rhsMax =  -2.21471729844325E-11  2.57420025562090E-01
 cg2d: Sum(rhs),rhsMax =  -2.21110907361322E-11  2.57682558433138E-01
 cg2d: Sum(rhs),rhsMax =  -2.19868567796766E-11  2.57840336129637E-01
 cg2d: Sum(rhs),rhsMax =  -2.18846052391086E-11  2.57904321787444E-01
 cg2d: Sum(rhs),rhsMax =  -2.17943441072066E-11  2.57878064246372E-01
 cg2d: Sum(rhs),rhsMax =  -2.17046380868169E-11  2.57754414629719E-01
 cg2d: Sum(rhs),rhsMax =  -2.16142659326124E-11  2.57526022521394E-01
 cg2d: Sum(rhs),rhsMax =  -2.15403250791724E-11  2.57193184009025E-01
 cg2d: Sum(rhs),rhsMax =  -2.15045758977794E-11  2.56664920379541E-01
 cg2d: Sum(rhs),rhsMax =  -2.15226725330808E-11  2.56156243482811E-01
 cg2d: Sum(rhs),rhsMax =  -2.15102380352050E-11  2.55569617325644E-01
 cg2d: Sum(rhs),rhsMax =  -2.14678275156643E-11  2.54875150773700E-01
 cg2d: Sum(rhs),rhsMax =  -2.15071294107361E-11  2.54072128444577E-01
 cg2d: Sum(rhs),rhsMax =  -2.14545048393688E-11  2.53173661392463E-01
 cg2d: Sum(rhs),rhsMax =  -2.14969153589095E-11  2.52190231654529E-01
 cg2d: Sum(rhs),rhsMax =  -2.14692708055964E-11  2.51125254451308E-01
 cg2d: Sum(rhs),rhsMax =  -2.14621653782388E-11  2.49981013794573E-01
 cg2d: Sum(rhs),rhsMax =  -2.14416262522832E-11  2.48759954070213E-01
 cg2d: Sum(rhs),rhsMax =  -2.14509521256900E-11  2.47463480196659E-01
 cg2d: Sum(rhs),rhsMax =  -2.14375184270921E-11  2.46084567250962E-01
 cg2d: Sum(rhs),rhsMax =  -2.14516182595048E-11  2.44642781893497E-01
 cg2d: Sum(rhs),rhsMax =  -2.14306350443394E-11  2.43122530176548E-01
 cg2d: Sum(rhs),rhsMax =  -2.14566142631156E-11  2.41544091279117E-01
 cg2d: Sum(rhs),rhsMax =  -2.15545359338876E-11  2.39917178776497E-01
 cg2d: Sum(rhs),rhsMax =  -2.15634177180846E-11  2.38234184668170E-01
 cg2d: Sum(rhs),rhsMax =  -2.16748841097569E-11  2.36483422883775E-01
 cg2d: Sum(rhs),rhsMax =  -2.17744711150658E-11  2.34658154239112E-01
 cg2d: Sum(rhs),rhsMax =  -2.18698392728811E-11  2.32767134279822E-01
 cg2d: Sum(rhs),rhsMax =  -2.17554863013447E-11  2.33817669779180E-01
 cg2d: Sum(rhs),rhsMax =  -2.15656381641338E-11  2.35228230493379E-01
 cg2d: Sum(rhs),rhsMax =  -2.13772333168549E-11  2.36579990785674E-01
 cg2d: Sum(rhs),rhsMax =  -2.12130313315129E-11  2.37870644182710E-01
 cg2d: Sum(rhs),rhsMax =  -2.10781392340209E-11  2.39102323102708E-01
 cg2d: Sum(rhs),rhsMax =  -2.08690842384840E-11  2.40279299094969E-01
 cg2d: Sum(rhs),rhsMax =  -2.07583950029289E-11  2.41404628676156E-01
 cg2d: Sum(rhs),rhsMax =  -2.05870875902292E-11  2.42477290828886E-01
 cg2d: Sum(rhs),rhsMax =  -2.04778416446061E-11  2.43486535498217E-01
 cg2d: Sum(rhs),rhsMax =  -2.03238537110906E-11  2.44423710024747E-01
 cg2d: Sum(rhs),rhsMax =  -2.01849648107100E-11  2.45282932599045E-01
 cg2d: Sum(rhs),rhsMax =  -2.00587324528101E-11  2.46064982956518E-01
 cg2d: Sum(rhs),rhsMax =  -1.99266159128797E-11  2.46772895011557E-01
 cg2d: Sum(rhs),rhsMax =  -1.98252525507314E-11  2.47409006592553E-01
 cg2d: Sum(rhs),rhsMax =  -1.97265537238422E-11  2.47973205665021E-01
 cg2d: Sum(rhs),rhsMax =  -1.96737071078701E-11  2.48467821230150E-01
 cg2d: Sum(rhs),rhsMax =  -1.95592431140312E-11  2.48888712296276E-01
 cg2d: Sum(rhs),rhsMax =  -1.94452232094022E-11  2.49234734148315E-01
 cg2d: Sum(rhs),rhsMax =  -1.93932647718498E-11  2.49504034023256E-01
 cg2d: Sum(rhs),rhsMax =  -1.93423055350195E-11  2.49693971392139E-01
 cg2d: Sum(rhs),rhsMax =  -1.92806881571528E-11  2.49801575130105E-01
 cg2d: Sum(rhs),rhsMax =  -1.92253990505264E-11  2.49827354255994E-01
 cg2d: Sum(rhs),rhsMax =  -1.91643367841721E-11  2.49768772598918E-01
 cg2d: Sum(rhs),rhsMax =  -1.91300308927111E-11  2.49626769982368E-01
 cg2d: Sum(rhs),rhsMax =  -1.90838456148867E-11  2.49402531922709E-01
 cg2d: Sum(rhs),rhsMax =  -1.90579774184130E-11  2.49093443154130E-01
 cg2d: Sum(rhs),rhsMax =  -1.90334414895688E-11  2.48693506105582E-01
 cg2d: Sum(rhs),rhsMax =  -1.89794846505720E-11  2.48237098420299E-01
 cg2d: Sum(rhs),rhsMax =  -1.87954096730891E-11  2.50006498003475E-01
 cg2d: Sum(rhs),rhsMax =  -1.86288762193954E-11  2.51771358380494E-01
 cg2d: Sum(rhs),rhsMax =  -1.83940640496871E-11  2.53530435089123E-01
 cg2d: Sum(rhs),rhsMax =  -1.82081016930624E-11  2.55282608770741E-01
 cg2d: Sum(rhs),rhsMax =  -1.80268022731411E-11  2.57026890183046E-01
 cg2d: Sum(rhs),rhsMax =  -1.78616010870769E-11  2.58762409564284E-01
 cg2d: Sum(rhs),rhsMax =  -1.76739733959153E-11  2.60488392709648E-01
 cg2d: Sum(rhs),rhsMax =  -1.75185421724677E-11  2.62204127917286E-01
 cg2d: Sum(rhs),rhsMax =  -1.73229208755288E-11  2.63908929207094E-01
 cg2d: Sum(rhs),rhsMax =  -1.71627156930754E-11  2.65602101681938E-01
 cg2d: Sum(rhs),rhsMax =  -1.70121694509362E-11  2.67282914463288E-01
 cg2d: Sum(rhs),rhsMax =  -1.68480784878966E-11  2.68950585314356E-01
 cg2d: Sum(rhs),rhsMax =  -1.66847646809742E-11  2.70604279054330E-01
 cg2d: Sum(rhs),rhsMax =  -1.65462088475010E-11  2.72243119505968E-01
 cg2d: Sum(rhs),rhsMax =  -1.63798974384122E-11  2.73866212432307E-01
 cg2d: Sum(rhs),rhsMax =  -1.62236890588474E-11  2.75472675130687E-01
 cg2d: Sum(rhs),rhsMax =  -1.60984559016697E-11  2.77061667389857E-01
 cg2d: Sum(rhs),rhsMax =  -1.59261492882479E-11  2.78632418531983E-01
 cg2d: Sum(rhs),rhsMax =  -1.57713841986151E-11  2.80184246205997E-01
 cg2d: Sum(rhs),rhsMax =  -1.56743507062629E-11  2.81716564237928E-01
 cg2d: Sum(rhs),rhsMax =  -1.55090384978962E-11  2.83228878822586E-01
 cg2d: Sum(rhs),rhsMax =  -1.53870249874899E-11  2.84720774269304E-01
 cg2d: Sum(rhs),rhsMax =  -1.52887702498106E-11  2.86191891052207E-01
 cg2d: Sum(rhs),rhsMax =  -1.51607615350713E-11  2.87641899836374E-01
 cg2d: Sum(rhs),rhsMax =  -1.50264245490916E-11  2.89070475372952E-01
 cg2d: Sum(rhs),rhsMax =  -1.49100731761109E-11  2.90477273738109E-01
 cg2d: Sum(rhs),rhsMax =  -1.48041578995617E-11  2.91861915501589E-01
 cg2d: Sum(rhs),rhsMax =  -1.46471723638797E-11  2.93223976282224E-01
 cg2d: Sum(rhs),rhsMax =  -1.45273792995226E-11  2.94562985018773E-01
 cg2d: Sum(rhs),rhsMax =  -1.44445566618856E-11  2.95878429350799E-01
 cg2d: Sum(rhs),rhsMax =  -1.42371670008856E-11  2.97169766880356E-01
 cg2d: Sum(rhs),rhsMax =  -1.40116807045843E-11  2.98436440787439E-01
 cg2d: Sum(rhs),rhsMax =  -1.37980737946464E-11  2.99677898226117E-01
 cg2d: Sum(rhs),rhsMax =  -1.35831346170789E-11  3.00893610003470E-01
 cg2d: Sum(rhs),rhsMax =  -1.33807409596898E-11  3.02083090102939E-01
 cg2d: Sum(rhs),rhsMax =  -1.31739064102021E-11  3.03245913568881E-01
 cg2d: Sum(rhs),rhsMax =  -1.29778410240533E-11  3.04381731117609E-01
 cg2d: Sum(rhs),rhsMax =  -1.28154153955506E-11  3.05490278674825E-01
 cg2d: Sum(rhs),rhsMax =  -1.26445520720608E-11  3.06571380018883E-01
 cg2d: Sum(rhs),rhsMax =  -1.24528165557081E-11  3.07624941001802E-01
 cg2d: Sum(rhs),rhsMax =  -1.22618581954725E-11  3.08650934532739E-01
 cg2d: Sum(rhs),rhsMax =  -1.20989884777600E-11  3.09649376634420E-01
 cg2d: Sum(rhs),rhsMax =  -1.18992593556300E-11  3.10620295278520E-01
 cg2d: Sum(rhs),rhsMax =  -1.17376108832445E-11  3.11563695116627E-01
 cg2d: Sum(rhs),rhsMax =  -1.16472387290401E-11  3.12479522345032E-01
 cg2d: Sum(rhs),rhsMax =  -1.15727427640877E-11  3.13367634501129E-01
 cg2d: Sum(rhs),rhsMax =  -1.14998011113698E-11  3.14227779817733E-01
 cg2d: Sum(rhs),rhsMax =  -1.13268283641332E-11  3.15059589836653E-01
 cg2d: Sum(rhs),rhsMax =  -1.11840536831664E-11  3.15862587429693E-01
 cg2d: Sum(rhs),rhsMax =  -1.10231823668983E-11  3.16636210430745E-01
 cg2d: Sum(rhs),rhsMax =  -1.08576481139266E-11  3.17379849037423E-01
 cg2d: Sum(rhs),rhsMax =  -1.07073239163924E-11  3.18092893280566E-01
 cg2d: Sum(rhs),rhsMax =  -1.05850883613812E-11  3.18774785423086E-01
 cg2d: Sum(rhs),rhsMax =  -1.04636299624872E-11  3.19425071305739E-01
 cg2d: Sum(rhs),rhsMax =  -1.03255182182238E-11  3.20043444505600E-01
 cg2d: Sum(rhs),rhsMax =  -1.01835206933742E-11  3.20629777746377E-01
 cg2d: Sum(rhs),rhsMax =  -1.00677244319058E-11  3.21184137266910E-01
 cg2d: Sum(rhs),rhsMax =  -9.94149207400596E-12  3.21706777713336E-01
 cg2d: Sum(rhs),rhsMax =  -1.00268682245996E-11  3.22198117390711E-01
 cg2d: Sum(rhs),rhsMax =  -9.97868454533091E-12  3.22658696130723E-01
 cg2d: Sum(rhs),rhsMax =  -9.95548088411624E-12  3.23089120283070E-01
 cg2d: Sum(rhs),rhsMax =  -9.91962068042085E-12  3.23490001081824E-01
 cg2d: Sum(rhs),rhsMax =  -9.88553683356486E-12  3.23861893583569E-01
 cg2d: Sum(rhs),rhsMax =  -9.85245218743103E-12  3.24205243341464E-01
 cg2d: Sum(rhs),rhsMax =  -9.82836034779666E-12  3.24520346949630E-01
 cg2d: Sum(rhs),rhsMax =  -9.70523661436573E-12  3.24807330721905E-01
 cg2d: Sum(rhs),rhsMax =  -9.61575263858094E-12  3.25066149364400E-01
 cg2d: Sum(rhs),rhsMax =  -9.45910016980633E-12  3.25296603956293E-01
 cg2d: Sum(rhs),rhsMax =  -9.31377197588290E-12  3.25498376267711E-01
 cg2d: Sum(rhs),rhsMax =  -9.21418497057402E-12  3.25671074743148E-01
 cg2d: Sum(rhs),rhsMax =  -9.15556519487382E-12  3.25814286558162E-01
 cg2d: Sum(rhs),rhsMax =  -9.17366183017521E-12  3.25927630056527E-01
 cg2d: Sum(rhs),rhsMax =  -9.16544617979298E-12  3.26010802495214E-01
 cg2d: Sum(rhs),rhsMax =  -9.09816666450070E-12  3.26063619167737E-01
 cg2d: Sum(rhs),rhsMax =  -9.02300456573357E-12  3.26086041401792E-01
 cg2d: Sum(rhs),rhsMax =  -8.98414675987169E-12  3.26078192401943E-01
 cg2d: Sum(rhs),rhsMax =  -8.89077700350072E-12  3.26040361243721E-01
 cg2d: Sum(rhs),rhsMax =  -8.84747830554033E-12  3.25972996392385E-01
 cg2d: Sum(rhs),rhsMax =  -8.80084893850608E-12  3.25876690844180E-01
 cg2d: Sum(rhs),rhsMax =  -8.75044481318810E-12  3.25752161340559E-01
 cg2d: Sum(rhs),rhsMax =  -8.72490968362172E-12  3.25600224088736E-01
 cg2d: Sum(rhs),rhsMax =  -8.66484661798950E-12  3.25421769066661E-01
 cg2d: Sum(rhs),rhsMax =  -8.66995364390277E-12  3.25217734363291E-01
 cg2d: Sum(rhs),rhsMax =  -8.65796323523682E-12  3.24989081216674E-01
 cg2d: Sum(rhs),rhsMax =  -8.69193605979035E-12  3.24736769618854E-01
 cg2d: Sum(rhs),rhsMax =  -8.69204708209281E-12  3.24461733742718E-01
 cg2d: Sum(rhs),rhsMax =  -8.67106386692740E-12  3.24164856187035E-01
 cg2d: Sum(rhs),rhsMax =  -8.61877236246755E-12  3.23846940245293E-01
 cg2d: Sum(rhs),rhsMax =  -8.58313420337709E-12  3.23508680083780E-01
 cg2d: Sum(rhs),rhsMax =  -8.52728998523844E-12  3.23150629730028E-01
 cg2d: Sum(rhs),rhsMax =  -8.51851922334390E-12  3.22773172869464E-01
 cg2d: Sum(rhs),rhsMax =  -8.57958148969828E-12  3.22376496310552E-01
 cg2d: Sum(rhs),rhsMax =  -8.71880345698628E-12  3.21960570322258E-01
 cg2d: Sum(rhs),rhsMax =  -8.73712213689259E-12  3.21525138710400E-01
 cg2d: Sum(rhs),rhsMax =  -8.77464767512492E-12  3.21069720503804E-01
 cg2d: Sum(rhs),rhsMax =  -8.80262529534548E-12  3.20593623679003E-01
 cg2d: Sum(rhs),rhsMax =  -8.79318839963616E-12  3.20095969807818E-01
 cg2d: Sum(rhs),rhsMax =  -8.79862849245683E-12  3.19575727239697E-01
 cg2d: Sum(rhs),rhsMax =  -8.84159412350982E-12  3.19031749720256E-01
 cg2d: Sum(rhs),rhsMax =  -8.88522588837759E-12  3.18462817317904E-01
 cg2d: Sum(rhs),rhsMax =  -8.87467876964365E-12  3.17867677100431E-01
 cg2d: Sum(rhs),rhsMax =  -8.92208529279515E-12  3.17245081927284E-01
 cg2d: Sum(rhs),rhsMax =  -8.99402774479086E-12  3.16593826680198E-01
 cg2d: Sum(rhs),rhsMax =  -9.03199737223304E-12  3.15912781956344E-01
 cg2d: Sum(rhs),rhsMax =  -9.07951491768699E-12  3.15200925528272E-01
 cg2d: Sum(rhs),rhsMax =  -9.14046616173891E-12  3.14457371732891E-01
 cg2d: Sum(rhs),rhsMax =  -9.21041021229030E-12  3.13681398534898E-01
 cg2d: Sum(rhs),rhsMax =  -9.30422405787112E-12  3.12872471548760E-01
 cg2d: Sum(rhs),rhsMax =  -9.37117050625602E-12  3.12030264020394E-01
 cg2d: Sum(rhs),rhsMax =  -9.42235178769124E-12  3.11154671800014E-01
 cg2d: Sum(rhs),rhsMax =  -9.52704581891339E-12  3.10245822682623E-01
 cg2d: Sum(rhs),rhsMax =  -9.63573665302420E-12  3.09304080024717E-01
 cg2d: Sum(rhs),rhsMax =  -9.71756008993907E-12  3.08330041058781E-01
 cg2d: Sum(rhs),rhsMax =  -9.84756720612268E-12  3.07324530614328E-01
 cg2d: Sum(rhs),rhsMax =  -9.97424365323241E-12  3.06288590886003E-01
 cg2d: Sum(rhs),rhsMax =  -1.01170183341992E-11  3.05223467465152E-01
 cg2d: Sum(rhs),rhsMax =  -1.01958441689476E-11  3.04130591207784E-01
 cg2d: Sum(rhs),rhsMax =  -1.01344488356858E-11  3.03011554883327E-01
 cg2d: Sum(rhs),rhsMax =  -1.01263442076061E-11  3.01868083195221E-01
 cg2d: Sum(rhs),rhsMax =  -1.02075015107062E-11  3.00701994887758E-01
 cg2d: Sum(rhs),rhsMax =  -1.02401420676301E-11  2.99515156330581E-01
 cg2d: Sum(rhs),rhsMax =  -1.03457242772720E-11  2.98309427124976E-01
 cg2d: Sum(rhs),rhsMax =  -1.03831387932019E-11  2.97086599689029E-01
 cg2d: Sum(rhs),rhsMax =  -1.04483088847473E-11  2.95848336155536E-01
 cg2d: Sum(rhs),rhsMax =  -1.05042641251885E-11  2.94596106958811E-01
 cg2d: Sum(rhs),rhsMax =  -1.05068176381451E-11  2.93331135968387E-01
 cg2d: Sum(rhs),rhsMax =  -1.05595532318148E-11  2.92054356847091E-01
 cg2d: Sum(rhs),rhsMax =  -1.06451514270134E-11  2.90766384502835E-01
 cg2d: Sum(rhs),rhsMax =  -1.07839293050915E-11  2.89467504217025E-01
 cg2d: Sum(rhs),rhsMax =  -1.09433573314277E-11  2.88157679483532E-01
 cg2d: Sum(rhs),rhsMax =  -1.11540776615016E-11  2.86836578008344E-01
 cg2d: Sum(rhs),rhsMax =  -1.13402620627312E-11  2.85503613894637E-01
 cg2d: Sum(rhs),rhsMax =  -1.15475407014287E-11  2.84158002904274E-01
 cg2d: Sum(rhs),rhsMax =  -1.17185150472210E-11  2.82798826912794E-01
 cg2d: Sum(rhs),rhsMax =  -1.19227960837520E-11  2.81425103275750E-01
 cg2d: Sum(rhs),rhsMax =  -1.19994014724512E-11  2.80035854779491E-01
 cg2d: Sum(rhs),rhsMax =  -1.20257137581348E-11  2.78630176120391E-01
 cg2d: Sum(rhs),rhsMax =  -1.20851106899522E-11  2.77207293394942E-01
 cg2d: Sum(rhs),rhsMax =  -1.21319621015914E-11  2.75766613834082E-01
 cg2d: Sum(rhs),rhsMax =  -1.22789556300518E-11  2.74307763914831E-01
 cg2d: Sum(rhs),rhsMax =  -1.24188437311545E-11  2.72830614956394E-01
 cg2d: Sum(rhs),rhsMax =  -1.25155441565994E-11  2.71335296272971E-01
 cg2d: Sum(rhs),rhsMax =  -1.26636479080844E-11  2.69822196823947E-01
 cg2d: Sum(rhs),rhsMax =  -1.27611254896465E-11  2.68291956989893E-01
 cg2d: Sum(rhs),rhsMax =  -1.28873578475464E-11  2.66745452538762E-01
 cg2d: Sum(rhs),rhsMax =  -1.29656285707824E-11  2.65183772982529E-01
 cg2d: Sum(rhs),rhsMax =  -1.31118449431256E-11  2.63608196345513E-01
 cg2d: Sum(rhs),rhsMax =  -1.32543975794874E-11  2.62020161901652E-01
 cg2d: Sum(rhs),rhsMax =  -1.33701938409558E-11  2.60421241771008E-01
 cg2d: Sum(rhs),rhsMax =  -1.34608990620677E-11  2.58813111530359E-01
 cg2d: Sum(rhs),rhsMax =  -1.35313982241314E-11  2.57197519361249E-01
 cg2d: Sum(rhs),rhsMax =  -1.34854349909119E-11  2.56803410168121E-01
 cg2d: Sum(rhs),rhsMax =  -1.35407240975383E-11  2.56794178305175E-01
 cg2d: Sum(rhs),rhsMax =  -1.36151090401881E-11  2.56731636259565E-01
 cg2d: Sum(rhs),rhsMax =  -1.36836098008075E-11  2.56614183297237E-01
 cg2d: Sum(rhs),rhsMax =  -1.37517774945195E-11  2.56440535205037E-01
 cg2d: Sum(rhs),rhsMax =  -1.38652422876362E-11  2.56209808817267E-01
 cg2d: Sum(rhs),rhsMax =  -1.39221967287995E-11  2.55920818101001E-01
 cg2d: Sum(rhs),rhsMax =  -1.40156775074729E-11  2.55571229177323E-01
 cg2d: Sum(rhs),rhsMax =  -1.40456535291378E-11  2.55159901612431E-01
 cg2d: Sum(rhs),rhsMax =  -1.41587852553471E-11  2.54685002465865E-01
 cg2d: Sum(rhs),rhsMax =  -1.42301725958305E-11  2.54144907908169E-01
 cg2d: Sum(rhs),rhsMax =  -1.43384193407314E-11  2.53537460516195E-01
 cg2d: Sum(rhs),rhsMax =  -1.44383394129477E-11  2.52859971841815E-01
 cg2d: Sum(rhs),rhsMax =  -1.45085055081040E-11  2.52110327105529E-01
 cg2d: Sum(rhs),rhsMax =  -1.46831435898775E-11  2.51287755382085E-01
 cg2d: Sum(rhs),rhsMax =  -1.47989398513459E-11  2.50394070079212E-01
 cg2d: Sum(rhs),rhsMax =  -1.49000811688893E-11  2.49429732994745E-01
 cg2d: Sum(rhs),rhsMax =  -1.50015555533400E-11  2.48393824865498E-01
 cg2d: Sum(rhs),rhsMax =  -1.50969237111553E-11  2.47285509303825E-01
 cg2d: Sum(rhs),rhsMax =  -1.52237111805675E-11  2.46102381669158E-01
 cg2d: Sum(rhs),rhsMax =  -1.54043444666740E-11  2.44842531269007E-01
 cg2d: Sum(rhs),rhsMax =  -1.55411239433079E-11  2.43503641210963E-01
 cg2d: Sum(rhs),rhsMax =  -1.57112101106804E-11  2.42087416483808E-01
 cg2d: Sum(rhs),rhsMax =  -1.58904001068549E-11  2.40591925579736E-01
 cg2d: Sum(rhs),rhsMax =  -1.60449431518828E-11  2.39019616676415E-01
 cg2d: Sum(rhs),rhsMax =  -1.62346802667912E-11  2.37375954330118E-01
 cg2d: Sum(rhs),rhsMax =  -1.64367408572730E-11  2.35654025045334E-01
 cg2d: Sum(rhs),rhsMax =  -1.66249236599469E-11  2.33852316422328E-01
 cg2d: Sum(rhs),rhsMax =  -1.68614011641921E-11  2.31970066883158E-01
 cg2d: Sum(rhs),rhsMax =  -1.70525815690326E-11  2.30005692235924E-01
 cg2d: Sum(rhs),rhsMax =  -1.72702963041615E-11  2.27958059474968E-01
 cg2d: Sum(rhs),rhsMax =  -1.75174319494431E-11  2.25826893181804E-01
 cg2d: Sum(rhs),rhsMax =  -1.77700076875453E-11  2.23611976987326E-01
 cg2d: Sum(rhs),rhsMax =  -1.79884995787916E-11  2.21318927930690E-01
 cg2d: Sum(rhs),rhsMax =  -1.82630577327814E-11  2.18940546619838E-01
 cg2d: Sum(rhs),rhsMax =  -1.84786630441636E-11  2.16476627251921E-01
 cg2d: Sum(rhs),rhsMax =  -1.87614368485356E-11  2.13931592442382E-01
 cg2d: Sum(rhs),rhsMax =  -1.90645277342583E-11  2.11306206392775E-01
 cg2d: Sum(rhs),rhsMax =  -1.94267935071935E-11  2.08599532046384E-01
 cg2d: Sum(rhs),rhsMax =  -1.97823979419809E-11  2.05810747779057E-01
 cg2d: Sum(rhs),rhsMax =  -2.01291205925713E-11  2.02936322878355E-01
 cg2d: Sum(rhs),rhsMax =  -2.00174321562940E-11  2.04715873721717E-01
 cg2d: Sum(rhs),rhsMax =  -1.97301064375210E-11  2.08571072706466E-01
 cg2d: Sum(rhs),rhsMax =  -1.94553262389263E-11  2.12317954125357E-01
 cg2d: Sum(rhs),rhsMax =  -1.91915372482754E-11  2.15953596131468E-01
 cg2d: Sum(rhs),rhsMax =  -1.89647186843445E-11  2.19476270415799E-01
 cg2d: Sum(rhs),rhsMax =  -1.87354576297594E-11  2.22889272518557E-01
 cg2d: Sum(rhs),rhsMax =  -1.85038651068226E-11  2.26194448837677E-01
 cg2d: Sum(rhs),rhsMax =  -1.83184578617102E-11  2.29389454469168E-01
 cg2d: Sum(rhs),rhsMax =  -1.81289427914066E-11  2.32469286106750E-01
 cg2d: Sum(rhs),rhsMax =  -1.79519732412814E-11  2.35432587754810E-01
 cg2d: Sum(rhs),rhsMax =  -1.77868830775196E-11  2.38278686795049E-01
 cg2d: Sum(rhs),rhsMax =  -1.76136882856781E-11  2.41009809716215E-01
 cg2d: Sum(rhs),rhsMax =  -1.74701364485941E-11  2.43629610321734E-01
 cg2d: Sum(rhs),rhsMax =  -1.73537850756134E-11  2.46139119628171E-01
 cg2d: Sum(rhs),rhsMax =  -1.72475367321567E-11  2.48537369657879E-01
 cg2d: Sum(rhs),rhsMax =  -1.71191949505101E-11  2.50819501041663E-01
 cg2d: Sum(rhs),rhsMax =  -1.70221614581578E-11  2.52980465174565E-01
 cg2d: Sum(rhs),rhsMax =  -1.69153580031889E-11  2.55021735801675E-01
 cg2d: Sum(rhs),rhsMax =  -1.68174363324169E-11  2.56945565042416E-01
 cg2d: Sum(rhs),rhsMax =  -1.67971192510663E-11  2.58752996310290E-01
 cg2d: Sum(rhs),rhsMax =  -1.67926783589678E-11  2.60444561410843E-01
 cg2d: Sum(rhs),rhsMax =  -1.67701408315679E-11  2.62021146499937E-01
 cg2d: Sum(rhs),rhsMax =  -1.67603708689512E-11  2.63481628870054E-01
 cg2d: Sum(rhs),rhsMax =  -1.67297287134716E-11  2.64824995614633E-01
 cg2d: Sum(rhs),rhsMax =  -1.67059699407446E-11  2.66052817761286E-01
 cg2d: Sum(rhs),rhsMax =  -1.66706648485615E-11  2.67169884635031E-01
 cg2d: Sum(rhs),rhsMax =  -1.65932823037451E-11  2.68176722917560E-01
 cg2d: Sum(rhs),rhsMax =  -1.65235602977987E-11  2.69072563873096E-01
 cg2d: Sum(rhs),rhsMax =  -1.64234181809775E-11  2.69859014712497E-01
 cg2d: Sum(rhs),rhsMax =  -1.63371538519641E-11  2.70539122819671E-01
 cg2d: Sum(rhs),rhsMax =  -1.62317936869272E-11  2.71117429538961E-01
 cg2d: Sum(rhs),rhsMax =  -1.61489710492901E-11  2.71596602241407E-01
 cg2d: Sum(rhs),rhsMax =  -1.60645940994186E-11  2.71978971916263E-01
 cg2d: Sum(rhs),rhsMax =  -1.60036428553667E-11  2.72265197652174E-01
 cg2d: Sum(rhs),rhsMax =  -1.59742219452141E-11  2.72453381952873E-01
 cg2d: Sum(rhs),rhsMax =  -1.59720014991649E-11  2.72545135041066E-01
 cg2d: Sum(rhs),rhsMax =  -1.59547930422832E-11  2.72544503976616E-01
 cg2d: Sum(rhs),rhsMax =  -1.59701141200230E-11  2.72453950466317E-01
 cg2d: Sum(rhs),rhsMax =  -1.59977586733362E-11  2.72272455130863E-01
 cg2d: Sum(rhs),rhsMax =  -1.60377267022227E-11  2.71995426152144E-01
 cg2d: Sum(rhs),rhsMax =  -1.60600421850177E-11  2.71622951986609E-01
 cg2d: Sum(rhs),rhsMax =  -1.60800261994609E-11  2.71159047618996E-01
 cg2d: Sum(rhs),rhsMax =  -1.60488289324690E-11  2.70611486135147E-01
 cg2d: Sum(rhs),rhsMax =  -1.60160773532425E-11  2.69986932490618E-01
 cg2d: Sum(rhs),rhsMax =  -1.59945390265648E-11  2.69285728111089E-01
 cg2d: Sum(rhs),rhsMax =  -1.59495749940675E-11  2.68507148241538E-01
 cg2d: Sum(rhs),rhsMax =  -1.59291468904144E-11  2.67649185689394E-01
 cg2d: Sum(rhs),rhsMax =  -1.59445789904566E-11  2.66709888442144E-01
 cg2d: Sum(rhs),rhsMax =  -1.59370294738892E-11  2.65693398243766E-01
 cg2d: Sum(rhs),rhsMax =  -1.59414703659877E-11  2.64604527505373E-01
 cg2d: Sum(rhs),rhsMax =  -1.59493529494625E-11  2.63449198611018E-01
 cg2d: Sum(rhs),rhsMax =  -1.59703361646280E-11  2.62233940772748E-01
 cg2d: Sum(rhs),rhsMax =  -1.60071955690455E-11  2.60957139285536E-01
(PID.TID 0000.0001)      cg2d_init_res =   9.31777941584641E-02
(PID.TID 0000.0001)      cg2d_iters(min,last) =      -1      29
(PID.TID 0000.0001)      cg2d_last_res =   5.83460265347907E-14
(PID.TID 0000.0001) // =======================================================
(PID.TID 0000.0001) // Begin MONITOR dynamic field statistics
(PID.TID 0000.0001) // =======================================================
(PID.TID 0000.0001) %MON time_tsnumber                =                  3840
(PID.TID 0000.0001) %MON time_secondsf                =   5.7600000000000E+04
(PID.TID 0000.0001) %MON dynstat_eta_max              =   1.7409422149651E-02
(PID.TID 0000.0001) %MON dynstat_eta_min              =  -2.5017448353307E-02
(PID.TID 0000.0001) %MON dynstat_eta_mean             =   4.8177627950458E-15
(PID.TID 0000.0001) %MON dynstat_eta_sd               =   1.0993993443361E-02
(PID.TID 0000.0001) %MON dynstat_eta_del2             =   2.9548737163726E-04
(PID.TID 0000.0001) %MON dynstat_uvel_max             =   1.6356576097301E+00
(PID.TID 0000.0001) %MON dynstat_uvel_min             =  -7.2157170814794E-01
(PID.TID 0000.0001) %MON dynstat_uvel_mean            =  -1.9088533627525E-04
(PID.TID 0000.0001) %MON dynstat_uvel_sd              =   2.4052984135180E-01
(PID.TID 0000.0001) %MON dynstat_uvel_del2            =   1.0439280032138E-03
(PID.TID 0000.0001) %MON dynstat_vvel_max             =   0.0000000000000E+00
(PID.TID 0000.0001) %MON dynstat_vvel_min             =   0.0000000000000E+00
(PID.TID 0000.0001) %MON dynstat_vvel_mean            =   0.0000000000000E+00
(PID.TID 0000.0001) %MON dynstat_vvel_sd              =   0.0000000000000E+00
(PID.TID 0000.0001) %MON dynstat_vvel_del2            =   0.0000000000000E+00
(PID.TID 0000.0001) %MON dynstat_wvel_max             =   5.3302972659971E-02
(PID.TID 0000.0001) %MON dynstat_wvel_min             =  -4.0108157257236E-02
(PID.TID 0000.0001) %MON dynstat_wvel_mean            =   3.7830172336371E-20
(PID.TID 0000.0001) %MON dynstat_wvel_sd              =   5.5264824444236E-03
(PID.TID 0000.0001) %MON dynstat_wvel_del2            =   1.1551372811470E-04
(PID.TID 0000.0001) %MON dynstat_theta_max            =   1.4976502385993E+01
(PID.TID 0000.0001) %MON dynstat_theta_min            =   9.9765023856425E+00
(PID.TID 0000.0001) %MON dynstat_theta_mean           =   1.2377054914691E+01
(PID.TID 0000.0001) %MON dynstat_theta_sd             =   2.3054022495341E+00
(PID.TID 0000.0001) %MON dynstat_theta_del2           =   2.7754987997496E-03
(PID.TID 0000.0001) %MON dynstat_salt_max             =   3.5000000000000E+01
(PID.TID 0000.0001) %MON dynstat_salt_min             =   3.5000000000000E+01
(PID.TID 0000.0001) %MON dynstat_salt_mean            =   3.5000000000000E+01
(PID.TID 0000.0001) %MON dynstat_salt_sd              =   3.4816594052245E-13
(PID.TID 0000.0001) %MON dynstat_salt_del2            =   0.0000000000000E+00
(PID.TID 0000.0001) %MON dynstat_sst_max              =   1.4976502385655E+01
(PID.TID 0000.0001) %MON dynstat_sst_min              =   1.4601664216585E+01
(PID.TID 0000.0001) %MON dynstat_sst_mean             =   1.4877570125018E+01
(PID.TID 0000.0001) %MON dynstat_sst_sd               =   1.5005051236114E-01
(PID.TID 0000.0001) %MON dynstat_sst_del2             =   7.0708742948553E-04
(PID.TID 0000.0001) %MON dynstat_sss_max              =   3.5000000000000E+01
(PID.TID 0000.0001) %MON dynstat_sss_min              =   3.5000000000000E+01
(PID.TID 0000.0001) %MON dynstat_sss_mean             =   3.5000000000000E+01
(PID.TID 0000.0001) %MON dynstat_sss_sd               =   3.5527136788005E-14
(PID.TID 0000.0001) %MON dynstat_sss_del2             =   0.0000000000000E+00
(PID.TID 0000.0001) %MON forcing_qnet_max             =   0.0000000000000E+00
(PID.TID 0000.0001) %MON forcing_qnet_min             =   0.0000000000000E+00
(PID.TID 0000.0001) %MON forcing_qnet_mean            =   0.0000000000000E+00
(PID.TID 0000.0001) %MON forcing_qnet_sd              =   0.0000000000000E+00
(PID.TID 0000.0001) %MON forcing_qnet_del2            =   0.0000000000000E+00
(PID.TID 0000.0001) %MON forcing_qsw_max              =   0.0000000000000E+00
(PID.TID 0000.0001) %MON forcing_qsw_min              =   0.0000000000000E+00
(PID.TID 0000.0001) %MON forcing_qsw_mean             =   0.0000000000000E+00
(PID.TID 0000.0001) %MON forcing_qsw_sd               =   0.0000000000000E+00
(PID.TID 0000.0001) %MON forcing_qsw_del2             =   0.0000000000000E+00
(PID.TID 0000.0001) %MON forcing_empmr_max            =   0.0000000000000E+00
(PID.TID 0000.0001) %MON forcing_empmr_min            =   0.0000000000000E+00
(PID.TID 0000.0001) %MON forcing_empmr_mean           =   0.0000000000000E+00
(PID.TID 0000.0001) %MON forcing_empmr_sd             =   0.0000000000000E+00
(PID.TID 0000.0001) %MON forcing_empmr_del2           =   0.0000000000000E+00
(PID.TID 0000.0001) %MON forcing_fu_max               =   0.0000000000000E+00
(PID.TID 0000.0001) %MON forcing_fu_min               =   0.0000000000000E+00
(PID.TID 0000.0001) %MON forcing_fu_mean              =   0.0000000000000E+00
(PID.TID 0000.0001) %MON forcing_fu_sd                =   0.0000000000000E+00
(PID.TID 0000.0001) %MON forcing_fu_del2              =   0.0000000000000E+00
(PID.TID 0000.0001) %MON forcing_fv_max               =   0.0000000000000E+00
(PID.TID 0000.0001) %MON forcing_fv_min               =   0.0000000000000E+00
(PID.TID 0000.0001) %MON forcing_fv_mean              =   0.0000000000000E+00
(PID.TID 0000.0001) %MON forcing_fv_sd                =   0.0000000000000E+00
(PID.TID 0000.0001) %MON forcing_fv_del2              =   0.0000000000000E+00
(PID.TID 0000.0001) %MON advcfl_uvel_max              =   8.3228604368619E-02
(PID.TID 0000.0001) %MON advcfl_vvel_max              =   0.0000000000000E+00
(PID.TID 0000.0001) %MON advcfl_wvel_max              =   3.4101732457442E-01
(PID.TID 0000.0001) %MON advcfl_W_hf_max              =   3.4362529590826E-01
(PID.TID 0000.0001) %MON pe_b_mean                    =   3.3930371511000E-06
(PID.TID 0000.0001) %MON ke_max                       =   1.1372545647050E+00
(PID.TID 0000.0001) %MON ke_mean                      =   2.9247529142406E-02
(PID.TID 0000.0001) %MON ke_vol                       =   8.5337279889550E+10
(PID.TID 0000.0001) %MON vort_r_min                   =   0.0000000000000E+00
(PID.TID 0000.0001) %MON vort_r_max                   =   0.0000000000000E+00
(PID.TID 0000.0001) %MON vort_a_mean                  =   0.0000000000000E+00
(PID.TID 0000.0001) %MON vort_a_sd                    =   0.0000000000000E+00
(PID.TID 0000.0001) %MON vort_p_mean                  =   0.0000000000000E+00
(PID.TID 0000.0001) %MON vort_p_sd                    =   0.0000000000000E+00
(PID.TID 0000.0001) %MON surfExpan_theta_mean         =  -1.3618264654967E-07
(PID.TID 0000.0001) %MON surfExpan_salt_mean          =   1.7747782739218E-18
(PID.TID 0000.0001) // =======================================================
(PID.TID 0000.0001) // End MONITOR dynamic field statistics
(PID.TID 0000.0001) // =======================================================
(PID.TID 0000.0001) // =======================================================
(PID.TID 0000.0001) // Begin OBCS MONITOR field statistics
(PID.TID 0000.0001) // =======================================================
(PID.TID 0000.0001) %MON obc_E_uVel_max               =   0.0000000000000E+00
(PID.TID 0000.0001) %MON obc_E_uVel_min               =   0.0000000000000E+00
(PID.TID 0000.0001) %MON obc_E_uVel_mean              =   0.0000000000000E+00
(PID.TID 0000.0001) %MON obc_E_uVel_sd                =   0.0000000000000E+00
(PID.TID 0000.0001) %MON obc_E_uVel_Int               =   0.0000000000000E+00
(PID.TID 0000.0001) %MON obc_W_uVel_max               =   0.0000000000000E+00
(PID.TID 0000.0001) %MON obc_W_uVel_min               =   0.0000000000000E+00
(PID.TID 0000.0001) %MON obc_W_uVel_mean              =   0.0000000000000E+00
(PID.TID 0000.0001) %MON obc_W_uVel_sd                =   0.0000000000000E+00
(PID.TID 0000.0001) %MON obc_W_uVel_Int               =   0.0000000000000E+00
(PID.TID 0000.0001) // =======================================================
(PID.TID 0000.0001) // End OBCS MONITOR field statistics
(PID.TID 0000.0001) // =======================================================
 cg2d: Sum(rhs),rhsMax =  -1.60670365900728E-11  2.59617910763266E-01
 cg2d: Sum(rhs),rhsMax =  -1.61087809757987E-11  2.58215376369331E-01
 cg2d: Sum(rhs),rhsMax =  -1.61500812723148E-11  2.56743520327526E-01
 cg2d: Sum(rhs),rhsMax =  -1.61897162342939E-11  2.55206376227830E-01
 cg2d: Sum(rhs),rhsMax =  -1.62394542257971E-11  2.53608766345399E-01
 cg2d: Sum(rhs),rhsMax =  -1.63045132950401E-11  2.51956453179631E-01
 cg2d: Sum(rhs),rhsMax =  -1.63921098916830E-11  2.50251479798533E-01
 cg2d: Sum(rhs),rhsMax =  -1.64787072876038E-11  2.48492666661968E-01
 cg2d: Sum(rhs),rhsMax =  -1.65512048511118E-11  2.46679254846796E-01
 cg2d: Sum(rhs),rhsMax =  -1.66420210945262E-11  2.44818125268123E-01
 cg2d: Sum(rhs),rhsMax =  -1.67051927846273E-11  2.42901495179052E-01
 cg2d: Sum(rhs),rhsMax =  -1.67805769279994E-11  2.40928266545367E-01
 cg2d: Sum(rhs),rhsMax =  -1.68579594728158E-11  2.38902813370181E-01
 cg2d: Sum(rhs),rhsMax =  -1.69544378536557E-11  2.36830545643053E-01
 cg2d: Sum(rhs),rhsMax =  -1.70705671820315E-11  2.34719520092950E-01
 cg2d: Sum(rhs),rhsMax =  -1.71437308793543E-11  2.32572476493770E-01
 cg2d: Sum(rhs),rhsMax =  -1.72034608780791E-11  2.30384705989442E-01
 cg2d: Sum(rhs),rhsMax =  -1.72849512480866E-11  2.28156332235617E-01
 cg2d: Sum(rhs),rhsMax =  -1.73542291648232E-11  2.25888320454859E-01
 cg2d: Sum(rhs),rhsMax =  -1.74514847017804E-11  2.23576935485558E-01
 cg2d: Sum(rhs),rhsMax =  -1.75249814660106E-11  2.21225695801992E-01
 cg2d: Sum(rhs),rhsMax =  -1.76282322073007E-11  2.18839651933081E-01
 cg2d: Sum(rhs),rhsMax =  -1.77421410896272E-11  2.16423679528788E-01
 cg2d: Sum(rhs),rhsMax =  -1.78771442094217E-11  2.13978741367840E-01
 cg2d: Sum(rhs),rhsMax =  -1.79897208241186E-11  2.11505739469319E-01
 cg2d: Sum(rhs),rhsMax =  -1.81895609685512E-11  2.09008752404553E-01
 cg2d: Sum(rhs),rhsMax =  -1.84204873576732E-11  2.06488878685478E-01
 cg2d: Sum(rhs),rhsMax =  -1.86145543423777E-11  2.03946079957304E-01
 cg2d: Sum(rhs),rhsMax =  -1.87905246917808E-11  2.01519197196539E-01
 cg2d: Sum(rhs),rhsMax =  -1.88477011775490E-11  2.00427991590771E-01
 cg2d: Sum(rhs),rhsMax =  -1.88942195222808E-11  1.99269339967008E-01
 cg2d: Sum(rhs),rhsMax =  -1.90049087578359E-11  1.98042814787485E-01
 cg2d: Sum(rhs),rhsMax =  -1.86682891367695E-11  2.01093946880754E-01
 cg2d: Sum(rhs),rhsMax =  -1.83324466718204E-11  2.04587304386903E-01
 cg2d: Sum(rhs),rhsMax =  -1.79890546903039E-11  2.08162011960410E-01
 cg2d: Sum(rhs),rhsMax =  -1.75007786040737E-11  2.13208720742760E-01
 cg2d: Sum(rhs),rhsMax =  -1.71369585189041E-11  2.17873042106297E-01
 cg2d: Sum(rhs),rhsMax =  -1.67872382661471E-11  2.22184047416684E-01
 cg2d: Sum(rhs),rhsMax =  -1.64600555407901E-11  2.26028233747832E-01
 cg2d: Sum(rhs),rhsMax =  -1.61882729443619E-11  2.29477957247838E-01
 cg2d: Sum(rhs),rhsMax =  -1.59559032653078E-11  2.32497282997443E-01
 cg2d: Sum(rhs),rhsMax =  -1.57781565590653E-11  2.34922056258591E-01
 cg2d: Sum(rhs),rhsMax =  -1.56309409860000E-11  2.36971801542443E-01
 cg2d: Sum(rhs),rhsMax =  -1.55083723640814E-11  2.38550081503756E-01
 cg2d: Sum(rhs),rhsMax =  -1.53966839278041E-11  2.39676349698955E-01
 cg2d: Sum(rhs),rhsMax =  -1.53249635204133E-11  2.40377386500551E-01
 cg2d: Sum(rhs),rhsMax =  -1.52903245620450E-11  2.40616158446681E-01
 cg2d: Sum(rhs),rhsMax =  -1.51650914048673E-11  2.42054781555905E-01
 cg2d: Sum(rhs),rhsMax =  -1.50467416304423E-11  2.43910258987312E-01
 cg2d: Sum(rhs),rhsMax =  -1.48995260573770E-11  2.45653563502905E-01
 cg2d: Sum(rhs),rhsMax =  -1.47920564685933E-11  2.47279954081812E-01
 cg2d: Sum(rhs),rhsMax =  -1.46775924747544E-11  2.48785127401813E-01
 cg2d: Sum(rhs),rhsMax =  -1.45709000420879E-11  2.50169904045124E-01
 cg2d: Sum(rhs),rhsMax =  -1.44824152670253E-11  2.51437368434242E-01
 cg2d: Sum(rhs),rhsMax =  -1.44000367185981E-11  2.52590321742728E-01
 cg2d: Sum(rhs),rhsMax =  -1.43367540061945E-11  2.53633016255860E-01
 cg2d: Sum(rhs),rhsMax =  -1.42704736916244E-11  2.54567357735029E-01
 cg2d: Sum(rhs),rhsMax =  -1.41863187863578E-11  2.55395252445081E-01
 cg2d: Sum(rhs),rhsMax =  -1.41338052372930E-11  2.56119055974939E-01
 cg2d: Sum(rhs),rhsMax =  -1.41011646803690E-11  2.56740275820428E-01
 cg2d: Sum(rhs),rhsMax =  -1.40502054435387E-11  2.57256135580061E-01
 cg2d: Sum(rhs),rhsMax =  -1.40008005189429E-11  2.57665865634356E-01
 cg2d: Sum(rhs),rhsMax =  -1.39477318583658E-11  2.57966874273862E-01
 cg2d: Sum(rhs),rhsMax =  -1.39287470446448E-11  2.58166453317689E-01
 cg2d: Sum(rhs),rhsMax =  -1.39269706878054E-11  2.58268881331697E-01
 cg2d: Sum(rhs),rhsMax =  -1.38705713581544E-11  2.58272410754827E-01
 cg2d: Sum(rhs),rhsMax =  -1.38243860803300E-11  2.58176500335615E-01
 cg2d: Sum(rhs),rhsMax =  -1.38115074932443E-11  2.57975750335165E-01
 cg2d: Sum(rhs),rhsMax =  -1.37985178838562E-11  2.57674063035018E-01
 cg2d: Sum(rhs),rhsMax =  -1.37969635716217E-11  2.57273086769566E-01
 cg2d: Sum(rhs),rhsMax =  -1.37936329025479E-11  2.56777066432426E-01
 cg2d: Sum(rhs),rhsMax =  -1.37817535161844E-11  2.56189857227085E-01
 cg2d: Sum(rhs),rhsMax =  -1.38073996680532E-11  2.55509051502264E-01
 cg2d: Sum(rhs),rhsMax =  -1.38068445565409E-11  2.54736291458368E-01
 cg2d: Sum(rhs),rhsMax =  -1.38435929386560E-11  2.53871265689991E-01
 cg2d: Sum(rhs),rhsMax =  -1.38576927710687E-11  2.52918313189300E-01
 cg2d: Sum(rhs),rhsMax =  -1.38924427517395E-11  2.51878020912302E-01
 cg2d: Sum(rhs),rhsMax =  -1.39337430482556E-11  2.50750705127550E-01
 cg2d: Sum(rhs),rhsMax =  -1.39698252965559E-11  2.49541822774926E-01
 cg2d: Sum(rhs),rhsMax =  -1.40132350168187E-11  2.48253576622715E-01
 cg2d: Sum(rhs),rhsMax =  -1.40617517629948E-11  2.46875655490668E-01
 cg2d: Sum(rhs),rhsMax =  -1.40948364091287E-11  2.45421068402051E-01
 cg2d: Sum(rhs),rhsMax =  -1.41344713711078E-11  2.43888092121601E-01
 cg2d: Sum(rhs),rhsMax =  -1.42146294734857E-11  2.42277835694578E-01
 cg2d: Sum(rhs),rhsMax =  -1.42612588405200E-11  2.40588644293244E-01
 cg2d: Sum(rhs),rhsMax =  -1.42659217772234E-11  2.39960442891429E-01
 cg2d: Sum(rhs),rhsMax =  -1.41727740654574E-11  2.41618675044786E-01
 cg2d: Sum(rhs),rhsMax =  -1.40655265212786E-11  2.43239600726214E-01
 cg2d: Sum(rhs),rhsMax =  -1.39305234014842E-11  2.44821285209899E-01
 cg2d: Sum(rhs),rhsMax =  -1.37949651701774E-11  2.46363020830006E-01
 cg2d: Sum(rhs),rhsMax =  -1.36940458972390E-11  2.47862435971936E-01
 cg2d: Sum(rhs),rhsMax =  -1.36149980178857E-11  2.49316165668984E-01
 cg2d: Sum(rhs),rhsMax =  -1.34775524074371E-11  2.50720564340887E-01
 cg2d: Sum(rhs),rhsMax =  -1.33678623726041E-11  2.52073254708272E-01
 cg2d: Sum(rhs),rhsMax =  -1.32663879881534E-11  2.53373123477583E-01
 cg2d: Sum(rhs),rhsMax =  -1.32057698110088E-11  2.54617972749651E-01
 cg2d: Sum(rhs),rhsMax =  -1.30820909660656E-11  2.55807533835960E-01
 cg2d: Sum(rhs),rhsMax =  -1.29940502802128E-11  2.56942557533713E-01
 cg2d: Sum(rhs),rhsMax =  -1.29224408951245E-11  2.58022714331802E-01
 cg2d: Sum(rhs),rhsMax =  -1.28312915848028E-11  2.59045755153600E-01
 cg2d: Sum(rhs),rhsMax =  -1.27265975535806E-11  2.60009498052528E-01
 cg2d: Sum(rhs),rhsMax =  -1.26715304915592E-11  2.60910920422505E-01
 cg2d: Sum(rhs),rhsMax =  -1.25405241746535E-11  2.61747860327248E-01
 cg2d: Sum(rhs),rhsMax =  -1.24281696045614E-11  2.62519204353344E-01
 cg2d: Sum(rhs),rhsMax =  -1.23837606835764E-11  2.63223453973873E-01
 cg2d: Sum(rhs),rhsMax =  -1.23744348101695E-11  2.63858961545400E-01
 cg2d: Sum(rhs),rhsMax =  -1.23734356094474E-11  2.64425235206977E-01
 cg2d: Sum(rhs),rhsMax =  -1.24436017046037E-11  2.64921214283736E-01
 cg2d: Sum(rhs),rhsMax =  -1.24894539155207E-11  2.65347281551793E-01
 cg2d: Sum(rhs),rhsMax =  -1.25153221119945E-11  2.65700025354026E-01
 cg2d: Sum(rhs),rhsMax =  -1.26236798791979E-11  2.65977249588230E-01
 cg2d: Sum(rhs),rhsMax =  -1.27096111413039E-11  2.66178094868897E-01
 cg2d: Sum(rhs),rhsMax =  -1.27475807687460E-11  2.66295677458471E-01
 cg2d: Sum(rhs),rhsMax =  -1.27797772364602E-11  2.67592680581724E-01
 cg2d: Sum(rhs),rhsMax =  -1.27007293571069E-11  2.69083243446557E-01
 cg2d: Sum(rhs),rhsMax =  -1.26540999900726E-11  2.70567030606179E-01
 cg2d: Sum(rhs),rhsMax =  -1.26166854741427E-11  2.72043138674126E-01
 cg2d: Sum(rhs),rhsMax =  -1.25319754573638E-11  2.73510541116843E-01
 cg2d: Sum(rhs),rhsMax =  -1.24864563133542E-11  2.74968113910539E-01
 cg2d: Sum(rhs),rhsMax =  -1.24622534514174E-11  2.76414667739559E-01
 cg2d: Sum(rhs),rhsMax =  -1.24162902181979E-11  2.77848984122991E-01
 cg2d: Sum(rhs),rhsMax =  -1.22960530646310E-11  2.79269852172380E-01
 cg2d: Sum(rhs),rhsMax =  -1.21901377880818E-11  2.80676102499042E-01
 cg2d: Sum(rhs),rhsMax =  -1.20329302077948E-11  2.82066635165897E-01
 cg2d: Sum(rhs),rhsMax =  -1.18981491326053E-11  2.83440439459244E-01
 cg2d: Sum(rhs),rhsMax =  -1.17960086143398E-11  2.84796604472727E-01
 cg2d: Sum(rhs),rhsMax =  -1.16600062938232E-11  2.86134320810359E-01
 cg2d: Sum(rhs),rhsMax =  -1.15762954777665E-11  2.87452874878043E-01
 cg2d: Sum(rhs),rhsMax =  -1.14560583241996E-11  2.88751638044611E-01
 cg2d: Sum(rhs),rhsMax =  -1.13633547016434E-11  2.90030053309917E-01
 cg2d: Sum(rhs),rhsMax =  -1.12624354287050E-11  2.91287622022581E-01
 cg2d: Sum(rhs),rhsMax =  -1.11418652082307E-11  2.92523892735405E-01
 cg2d: Sum(rhs),rhsMax =  -1.10558229238222E-11  2.93738453610886E-01
 cg2d: Sum(rhs),rhsMax =  -1.09551256954887E-11  2.94930929033355E-01
 cg2d: Sum(rhs),rhsMax =  -1.08574260693217E-11  2.96100980359439E-01
 cg2d: Sum(rhs),rhsMax =  -1.07419628747607E-11  2.97248310117553E-01
 cg2d: Sum(rhs),rhsMax =  -1.06222808327061E-11  2.98372668493982E-01
 cg2d: Sum(rhs),rhsMax =  -1.05550013174138E-11  2.99473860649443E-01
 cg2d: Sum(rhs),rhsMax =  -1.04763975272704E-11  3.00551753324362E-01
 cg2d: Sum(rhs),rhsMax =  -1.04489750185621E-11  3.01606279333198E-01
 cg2d: Sum(rhs),rhsMax =  -1.03855812838560E-11  3.02637438910214E-01
 cg2d: Sum(rhs),rhsMax =  -1.03361763592602E-11  3.03645297397443E-01
 cg2d: Sum(rhs),rhsMax =  -1.02705621785049E-11  3.04629979355732E-01
 cg2d: Sum(rhs),rhsMax =  -1.02010622171633E-11  3.05591659695795E-01
 cg2d: Sum(rhs),rhsMax =  -1.01676445041221E-11  3.06530552740721E-01
 cg2d: Sum(rhs),rhsMax =  -1.01119113082859E-11  3.07446900173038E-01
 cg2d: Sum(rhs),rhsMax =  -1.00753849707758E-11  3.08340958607296E-01
 cg2d: Sum(rhs),rhsMax =  -1.00167651950755E-11  3.09212987177192E-01
 cg2d: Sum(rhs),rhsMax =  -9.95281634885714E-12  3.10063235210930E-01
 cg2d: Sum(rhs),rhsMax =  -9.94371252005521E-12  3.10891929968202E-01
 cg2d: Sum(rhs),rhsMax =  -9.91484672141496E-12  3.11699264636965E-01
 cg2d: Sum(rhs),rhsMax =  -9.87399051410875E-12  3.12485387326627E-01
 cg2d: Sum(rhs),rhsMax =  -9.83779724350597E-12  3.13250392496377E-01
 cg2d: Sum(rhs),rhsMax =  -9.78161995845994E-12  3.13994316864317E-01
 cg2d: Sum(rhs),rhsMax =  -9.72522062880898E-12  3.14717142058561E-01
 cg2d: Sum(rhs),rhsMax =  -9.70223901219924E-12  3.15418805855556E-01
 cg2d: Sum(rhs),rhsMax =  -9.67215196823190E-12  3.16099222709771E-01
 cg2d: Sum(rhs),rhsMax =  -9.59410328960075E-12  3.16758312522058E-01
 cg2d: Sum(rhs),rhsMax =  -9.57178780680579E-12  3.17396034538231E-01
 cg2d: Sum(rhs),rhsMax =  -9.54447632040001E-12  3.18012421381839E-01
 cg2d: Sum(rhs),rhsMax =  -9.46309697269498E-12  3.18607607014775E-01
 cg2d: Sum(rhs),rhsMax =  -9.46498435183685E-12  3.19181842302426E-01
 cg2d: Sum(rhs),rhsMax =  -9.50783896058738E-12  3.19735493035379E-01
 cg2d: Sum(rhs),rhsMax =  -9.54769596717142E-12  3.20269017630725E-01
 cg2d: Sum(rhs),rhsMax =  -9.68636282294710E-12  3.20782924907198E-01
 cg2d: Sum(rhs),rhsMax =  -9.80349135204506E-12  3.21277715683467E-01
 cg2d: Sum(rhs),rhsMax =  -9.97224525178808E-12  3.21753814794737E-01
 cg2d: Sum(rhs),rhsMax =  -1.01767483329240E-11  3.22211501862565E-01
 cg2d: Sum(rhs),rhsMax =  -1.02434727367040E-11  3.22650849438322E-01
 cg2d: Sum(rhs),rhsMax =  -1.02766684051403E-11  3.23071675960941E-01
 cg2d: Sum(rhs),rhsMax =  -1.02987618433303E-11  3.23473518646178E-01
 cg2d: Sum(rhs),rhsMax =  -1.03377306714947E-11  3.23855628515900E-01
 cg2d: Sum(rhs),rhsMax =  -1.03095310066692E-11  3.24216986919016E-01
 cg2d: Sum(rhs),rhsMax =  -1.03915764881890E-11  3.24556340632588E-01
 cg2d: Sum(rhs),rhsMax =  -1.04753983265482E-11  3.24872251275648E-01
 cg2d: Sum(rhs),rhsMax =  -1.05714326181783E-11  3.25163154346162E-01
 cg2d: Sum(rhs),rhsMax =  -1.07240882840642E-11  3.25427423478564E-01
 cg2d: Sum(rhs),rhsMax =  -1.08373310325760E-11  3.25663436148274E-01
 cg2d: Sum(rhs),rhsMax =  -1.09372511047923E-11  3.25869637655204E-01
 cg2d: Sum(rhs),rhsMax =  -1.09625641897537E-11  3.26044600567110E-01
 cg2d: Sum(rhs),rhsMax =  -1.09853237617585E-11  3.26187076866620E-01
 cg2d: Sum(rhs),rhsMax =  -1.10110809359298E-11  3.26296039991615E-01
 cg2d: Sum(rhs),rhsMax =  -1.10653708418340E-11  3.26370714073458E-01
 cg2d: Sum(rhs),rhsMax =  -1.11054498930230E-11  3.26410588240512E-01
 cg2d: Sum(rhs),rhsMax =  -1.11320952456140E-11  3.26415415012147E-01
 cg2d: Sum(rhs),rhsMax =  -1.12962972309560E-11  3.26385193493106E-01
 cg2d: Sum(rhs),rhsMax =  -1.13065112827826E-11  3.26320139997200E-01
 cg2d: Sum(rhs),rhsMax =  -1.12853060230123E-11  3.26220650433998E-01
 cg2d: Sum(rhs),rhsMax =  -1.14852571897472E-11  3.26087259805989E-01
 cg2d: Sum(rhs),rhsMax =  -1.17265086529983E-11  3.25920604132437E-01
 cg2d: Sum(rhs),rhsMax =  -1.19472209902938E-11  3.25721388933596E-01
 cg2d: Sum(rhs),rhsMax =  -1.21085363957718E-11  3.25490366276674E-01
 cg2d: Sum(rhs),rhsMax =  -1.21782584017183E-11  3.25228319784436E-01
 cg2d: Sum(rhs),rhsMax =  -1.22514220990411E-11  3.24936054587613E-01
 cg2d: Sum(rhs),rhsMax =  -1.23200338819629E-11  3.24614387611328E-01
 cg2d: Sum(rhs),rhsMax =  -1.23798749029902E-11  3.24264133292870E-01
 cg2d: Sum(rhs),rhsMax =  -1.24239507570678E-11  3.23886080987200E-01
 cg2d: Sum(rhs),rhsMax =  -1.25052190824704E-11  3.23480962710079E-01
 cg2d: Sum(rhs),rhsMax =  -1.27415855644131E-11  3.23049412949624E-01
 cg2d: Sum(rhs),rhsMax =  -1.28055344106315E-11  3.22591925298232E-01
 cg2d: Sum(rhs),rhsMax =  -1.28321797632225E-11  3.22108812854413E-01
 cg2d: Sum(rhs),rhsMax =  -1.28445032387958E-11  3.21600180127097E-01
 cg2d: Sum(rhs),rhsMax =  -1.29158905792792E-11  3.21065913272264E-01
 cg2d: Sum(rhs),rhsMax =  -1.29356525491175E-11  3.20505693020883E-01
 cg2d: Sum(rhs),rhsMax =  -1.29950494809350E-11  3.19919031098031E-01
 cg2d: Sum(rhs),rhsMax =  -1.30344623983092E-11  3.19305327015114E-01
 cg2d: Sum(rhs),rhsMax =  -1.31380462065067E-11  3.18663938647657E-01
 cg2d: Sum(rhs),rhsMax =  -1.31816779713745E-11  3.17994257689186E-01
 cg2d: Sum(rhs),rhsMax =  -1.32496236204815E-11  3.17295780331924E-01
 cg2d: Sum(rhs),rhsMax =  -1.33357769271925E-11  3.16568164451120E-01
 cg2d: Sum(rhs),rhsMax =  -1.33647537481352E-11  3.15811266896606E-01
 cg2d: Sum(rhs),rhsMax =  -1.34815492103257E-11  3.15025157694463E-01
 cg2d: Sum(rhs),rhsMax =  -1.35133015888300E-11  3.14210111385234E-01
 cg2d: Sum(rhs),rhsMax =  -1.35522704169944E-11  3.13366578762474E-01
 cg2d: Sum(rhs),rhsMax =  -1.36228806013605E-11  3.12495144481788E-01
 cg2d: Sum(rhs),rhsMax =  -1.36611832957101E-11  3.11596477174894E-01
 cg2d: Sum(rhs),rhsMax =  -1.36266553596442E-11  3.10671278844663E-01
 cg2d: Sum(rhs),rhsMax =  -1.36438638165259E-11  3.09720239622764E-01
 cg2d: Sum(rhs),rhsMax =  -1.37622135909510E-11  3.08744002706971E-01
 cg2d: Sum(rhs),rhsMax =  -1.38810074545859E-11  3.07743142718729E-01
 cg2d: Sum(rhs),rhsMax =  -1.40323308528423E-11  3.06718159032475E-01
 cg2d: Sum(rhs),rhsMax =  -1.41699985078958E-11  3.05669483955467E-01
 cg2d: Sum(rhs),rhsMax =  -1.43229872406891E-11  3.04597504064576E-01
 cg2d: Sum(rhs),rhsMax =  -1.44626532971870E-11  3.03502591612012E-01
 cg2d: Sum(rhs),rhsMax =  -1.45981005061913E-11  3.02385141796721E-01
 cg2d: Sum(rhs),rhsMax =  -1.47262202432330E-11  3.01245610991421E-01
 cg2d: Sum(rhs),rhsMax =  -1.48419054823989E-11  3.00084550848503E-01
 cg2d: Sum(rhs),rhsMax =  -1.49794621151500E-11  2.98902633668848E-01
 cg2d: Sum(rhs),rhsMax =  -1.50988110902972E-11  2.97700665502867E-01
 cg2d: Sum(rhs),rhsMax =  -1.53015378145938E-11  2.96479585041028E-01
 cg2d: Sum(rhs),rhsMax =  -1.54000145968780E-11  2.95240448207910E-01
 cg2d: Sum(rhs),rhsMax =  -1.55346846497650E-11  2.93984400194724E-01
 cg2d: Sum(rhs),rhsMax =  -1.56724633271210E-11  2.92712638141576E-01
 cg2d: Sum(rhs),rhsMax =  -1.58172364095321E-11  2.91426368571807E-01
 cg2d: Sum(rhs),rhsMax =  -1.59464663695985E-11  2.90126763870506E-01
 cg2d: Sum(rhs),rhsMax =  -1.60951252325958E-11  2.88814921621747E-01
 cg2d: Sum(rhs),rhsMax =  -1.62375668466552E-11  2.87491829645326E-01
 cg2d: Sum(rhs),rhsMax =  -1.63693503196782E-11  2.86158338366190E-01
 cg2d: Sum(rhs),rhsMax =  -1.64869229379860E-11  2.84815140995945E-01
 cg2d: Sum(rhs),rhsMax =  -1.66947566881959E-11  2.83462761148747E-01
 cg2d: Sum(rhs),rhsMax =  -1.68240976705647E-11  2.82101547096264E-01
 cg2d: Sum(rhs),rhsMax =  -1.69660951954143E-11  2.80731671900810E-01
 cg2d: Sum(rhs),rhsMax =  -1.70664593568404E-11  2.79353139037258E-01
 cg2d: Sum(rhs),rhsMax =  -1.71984648744683E-11  2.77965793615345E-01
 cg2d: Sum(rhs),rhsMax =  -1.73626668598104E-11  2.76569339701473E-01
 cg2d: Sum(rhs),rhsMax =  -1.75170988825357E-11  2.75163364302809E-01
 cg2d: Sum(rhs),rhsMax =  -1.76776371318965E-11  2.73747368199586E-01
 cg2d: Sum(rhs),rhsMax =  -1.78280723517332E-11  2.72320803008386E-01
 cg2d: Sum(rhs),rhsMax =  -1.80073733702102E-11  2.70883112780567E-01
 cg2d: Sum(rhs),rhsMax =  -1.81329395942953E-11  2.69433777340935E-01
 cg2d: Sum(rhs),rhsMax =  -1.83072446091614E-11  2.67972353751050E-01
 cg2d: Sum(rhs),rhsMax =  -1.84625648103065E-11  2.66498512005695E-01
 cg2d: Sum(rhs),rhsMax =  -1.86188842121737E-11  2.65012061502509E-01
 cg2d: Sum(rhs),rhsMax =  -1.87856397104724E-11  2.63512965970774E-01
 cg2d: Sum(rhs),rhsMax =  -1.89437354691790E-11  2.62001346241585E-01
 cg2d: Sum(rhs),rhsMax =  -1.90837345925843E-11  2.60477472174610E-01
 cg2d: Sum(rhs),rhsMax =  -1.92547089383766E-11  2.58941746823277E-01
 cg2d: Sum(rhs),rhsMax =  -1.94255722618664E-11  2.57394687113019E-01
 cg2d: Sum(rhs),rhsMax =  -1.96046512357384E-11  2.55836905609827E-01
 cg2d: Sum(rhs),rhsMax =  -1.97547533886677E-11  2.54269097229072E-01
 cg2d: Sum(rhs),rhsMax =  -1.99160687941458E-11  2.52692033067765E-01
 cg2d: Sum(rhs),rhsMax =  -2.01012539946532E-11  2.51106561262507E-01
 cg2d: Sum(rhs),rhsMax =  -2.02829975037844E-11  2.49513612386726E-01
 cg2d: Sum(rhs),rhsMax =  -2.04554151395087E-11  2.47914204984787E-01
 cg2d: Sum(rhs),rhsMax =  -2.06299421989797E-11  2.46309445911967E-01
 cg2d: Sum(rhs),rhsMax =  -2.07851513778223E-11  2.44700520520129E-01
 cg2d: Sum(rhs),rhsMax =  -2.09386952221280E-11  2.43088669412861E-01
 cg2d: Sum(rhs),rhsMax =  -2.10788053678357E-11  2.41475151183548E-01
 cg2d: Sum(rhs),rhsMax =  -2.12863060511381E-11  2.39861193680010E-01
 cg2d: Sum(rhs),rhsMax =  -2.14741557869047E-11  2.38247939220114E-01
 cg2d: Sum(rhs),rhsMax =  -2.15614193166402E-11  2.37537161756685E-01
 cg2d: Sum(rhs),rhsMax =  -2.16044959699957E-11  2.37489342317912E-01
 cg2d: Sum(rhs),rhsMax =  -2.16204831815503E-11  2.37416757185333E-01
 cg2d: Sum(rhs),rhsMax =  -2.16930917673608E-11  2.37315468976546E-01
 cg2d: Sum(rhs),rhsMax =  -2.17567075466718E-11  2.37181548495884E-01
 cg2d: Sum(rhs),rhsMax =  -2.18041140698233E-11  2.37011706776098E-01
 cg2d: Sum(rhs),rhsMax =  -2.18332019130685E-11  2.36803366032086E-01
 cg2d: Sum(rhs),rhsMax =  -2.18801643470101E-11  2.36555065296577E-01
 cg2d: Sum(rhs),rhsMax =  -2.19222417996434E-11  2.36266147301509E-01
 cg2d: Sum(rhs),rhsMax =  -2.19902984710529E-11  2.35936677447385E-01
 cg2d: Sum(rhs),rhsMax =  -2.20722329302703E-11  2.35565375864420E-01
 cg2d: Sum(rhs),rhsMax =  -2.21418439139143E-11  2.35150678297229E-01
 cg2d: Sum(rhs),rhsMax =  -2.22265539306932E-11  2.34694306326538E-01
 cg2d: Sum(rhs),rhsMax =  -2.23010498956455E-11  2.34200058982187E-01
 cg2d: Sum(rhs),rhsMax =  -2.23879803584737E-11  2.33671085226420E-01
 cg2d: Sum(rhs),rhsMax =  -2.24700258399935E-11  2.33107617011449E-01
 cg2d: Sum(rhs),rhsMax =  -2.25925944619121E-11  2.32508384818702E-01
 cg2d: Sum(rhs),rhsMax =  -2.26773044786910E-11  2.31870040257943E-01
 cg2d: Sum(rhs),rhsMax =  -2.27663443652659E-11  2.31189030589903E-01
 cg2d: Sum(rhs),rhsMax =  -2.28478347352734E-11  2.30462898140597E-01
 cg2d: Sum(rhs),rhsMax =  -2.29637420190443E-11  2.29690450813676E-01
 cg2d: Sum(rhs),rhsMax =  -2.30839791726112E-11  2.28872697896541E-01
 cg2d: Sum(rhs),rhsMax =  -2.31786811966117E-11  2.28010424843603E-01
 cg2d: Sum(rhs),rhsMax =  -2.32956987034072E-11  2.27097826411872E-01
 cg2d: Sum(rhs),rhsMax =  -2.34315900016213E-11  2.26137693663682E-01
 cg2d: Sum(rhs),rhsMax =  -2.36080044402343E-11  2.25139229879328E-01
 cg2d: Sum(rhs),rhsMax =  -2.37351249765538E-11  2.24107781634638E-01
 cg2d: Sum(rhs),rhsMax =  -2.39015474079451E-11  2.23041014823427E-01
 cg2d: Sum(rhs),rhsMax =  -2.40790720695827E-11  2.21933801753748E-01
 cg2d: Sum(rhs),rhsMax =  -2.42541542405661E-11  2.20782233894838E-01
 cg2d: Sum(rhs),rhsMax =  -2.43906006502925E-11  2.20098982804363E-01
 cg2d: Sum(rhs),rhsMax =  -2.44727571541148E-11  2.19602734640801E-01
 cg2d: Sum(rhs),rhsMax =  -2.45681253119301E-11  2.19009205595687E-01
 cg2d: Sum(rhs),rhsMax =  -2.46900278000339E-11  2.18344842587869E-01
 cg2d: Sum(rhs),rhsMax =  -2.48273623881801E-11  2.17585774719681E-01
 cg2d: Sum(rhs),rhsMax =  -2.49943399310837E-11  2.16733896997974E-01
 cg2d: Sum(rhs),rhsMax =  -2.51725307265360E-11  2.15899049318300E-01
 cg2d: Sum(rhs),rhsMax =  -2.53304044406377E-11  2.14900302662505E-01
 cg2d: Sum(rhs),rhsMax =  -2.54962717605167E-11  2.13766971139275E-01
 cg2d: Sum(rhs),rhsMax =  -2.56982213286960E-11  2.12583039836366E-01
 cg2d: Sum(rhs),rhsMax =  -2.58821852838764E-11  2.11351052232327E-01
 cg2d: Sum(rhs),rhsMax =  -2.60936827700675E-11  2.10094053940474E-01
 cg2d: Sum(rhs),rhsMax =  -2.63380428577875E-11  2.08711362640042E-01
 cg2d: Sum(rhs),rhsMax =  -2.65446553626703E-11  2.07271040326208E-01
 cg2d: Sum(rhs),rhsMax =  -2.68345345943999E-11  2.05735691046711E-01
 cg2d: Sum(rhs),rhsMax =  -2.70531375079486E-11  2.04176966174462E-01
 cg2d: Sum(rhs),rhsMax =  -2.73236988590497E-11  2.02520996883396E-01
 cg2d: Sum(rhs),rhsMax =  -2.76020317713233E-11  2.00811530404040E-01
 cg2d: Sum(rhs),rhsMax =  -2.79246625822793E-11  1.99026032914686E-01
 cg2d: Sum(rhs),rhsMax =  -2.82464052148157E-11  1.97255571464845E-01
 cg2d: Sum(rhs),rhsMax =  -2.85528267696122E-11  1.95380674641246E-01
 cg2d: Sum(rhs),rhsMax =  -2.89018808885544E-11  1.93432848733418E-01
 cg2d: Sum(rhs),rhsMax =  -2.86601853360935E-11  1.95438366194253E-01
 cg2d: Sum(rhs),rhsMax =  -2.82158740816385E-11  1.98810433358226E-01
 cg2d: Sum(rhs),rhsMax =  -2.78199685510572E-11  2.02069272086087E-01
 cg2d: Sum(rhs),rhsMax =  -2.74402722766354E-11  2.05230631970622E-01
 cg2d: Sum(rhs),rhsMax =  -2.71443978405728E-11  2.08303574374937E-01
 cg2d: Sum(rhs),rhsMax =  -2.68517430512816E-11  2.11295993793040E-01
 cg2d: Sum(rhs),rhsMax =  -2.65849564584641E-11  2.14204672409955E-01
 cg2d: Sum(rhs),rhsMax =  -2.63202792893935E-11  2.17024371558260E-01
 cg2d: Sum(rhs),rhsMax =  -2.61012322866350E-11  2.19749879853320E-01
 cg2d: Sum(rhs),rhsMax =  -2.58990606738507E-11  2.22381026053753E-01
 cg2d: Sum(rhs),rhsMax =  -2.57137644510408E-11  2.24919119662738E-01
 cg2d: Sum(rhs),rhsMax =  -2.55317988973047E-11  2.27360110242487E-01
 cg2d: Sum(rhs),rhsMax =  -2.53778109637892E-11  2.29706775833039E-01
 cg2d: Sum(rhs),rhsMax =  -2.51944021201211E-11  2.31959440106239E-01
 cg2d: Sum(rhs),rhsMax =  -2.50592879780243E-11  2.34118376137613E-01
 cg2d: Sum(rhs),rhsMax =  -2.49439358057657E-11  2.36180512701573E-01
 cg2d: Sum(rhs),rhsMax =  -2.48261411428530E-11  2.38144894596373E-01
 cg2d: Sum(rhs),rhsMax =  -2.47073472792181E-11  2.40017269243534E-01
 cg2d: Sum(rhs),rhsMax =  -2.46183073926431E-11  2.41788232723513E-01
 cg2d: Sum(rhs),rhsMax =  -2.45463649406474E-11  2.43460971259661E-01
 cg2d: Sum(rhs),rhsMax =  -2.44801956483798E-11  2.45035845325115E-01
 cg2d: Sum(rhs),rhsMax =  -2.44011477690265E-11  2.46519177041715E-01
 cg2d: Sum(rhs),rhsMax =  -2.43116637932417E-11  2.47902589592468E-01
 cg2d: Sum(rhs),rhsMax =  -2.42436071218322E-11  2.49182393309480E-01
 cg2d: Sum(rhs),rhsMax =  -2.41627828856394E-11  2.50369831251964E-01
 cg2d: Sum(rhs),rhsMax =  -2.41013875523777E-11  2.51455702272170E-01
 cg2d: Sum(rhs),rhsMax =  -2.40519826277819E-11  2.52444926770335E-01
 cg2d: Sum(rhs),rhsMax =  -2.40065745060747E-11  2.53338235521136E-01
 cg2d: Sum(rhs),rhsMax =  -2.39508413102385E-11  2.54137574704261E-01
 cg2d: Sum(rhs),rhsMax =  -2.39298580950731E-11  2.54838278764023E-01
 cg2d: Sum(rhs),rhsMax =  -2.38820074827117E-11  2.55442581906496E-01
 cg2d: Sum(rhs),rhsMax =  -2.38913333561186E-11  2.55960156569762E-01
 cg2d: Sum(rhs),rhsMax =  -2.36431985101149E-11  2.56375883882723E-01
 cg2d: Sum(rhs),rhsMax =  -2.35919062063772E-11  2.56696400656744E-01
 cg2d: Sum(rhs),rhsMax =  -2.35564900918916E-11  2.56927306122973E-01
 cg2d: Sum(rhs),rhsMax =  -2.35318431407450E-11  2.57069320099983E-01
 cg2d: Sum(rhs),rhsMax =  -2.33785213410442E-11  2.57120264390392E-01
 cg2d: Sum(rhs),rhsMax =  -2.32710517522605E-11  2.57083517068586E-01
 cg2d: Sum(rhs),rhsMax =  -2.33093544466101E-11  2.56960054620781E-01
 cg2d: Sum(rhs),rhsMax =  -2.33866259691240E-11  2.56750925852312E-01
 cg2d: Sum(rhs),rhsMax =  -2.34622321571010E-11  2.56471475639086E-01
 cg2d: Sum(rhs),rhsMax =  -2.35675923221379E-11  2.56095446669940E-01
 cg2d: Sum(rhs),rhsMax =  -2.36621833238360E-11  2.55632318030048E-01
 cg2d: Sum(rhs),rhsMax =  -2.36128894215426E-11  2.55091858611838E-01
 cg2d: Sum(rhs),rhsMax =  -2.36946018361550E-11  2.54472134262405E-01
 cg2d: Sum(rhs),rhsMax =  -2.38292718890420E-11  2.53775951395163E-01
 cg2d: Sum(rhs),rhsMax =  -2.39387398792701E-11  2.53007661714101E-01
 cg2d: Sum(rhs),rhsMax =  -2.40552022745533E-11  2.52174132658953E-01
 cg2d: Sum(rhs),rhsMax =  -2.42058595389949E-11  2.51268624155080E-01
 cg2d: Sum(rhs),rhsMax =  -2.43606246286276E-11  2.50296063328878E-01
 cg2d: Sum(rhs),rhsMax =  -2.45218290118032E-11  2.49254134866035E-01
 cg2d: Sum(rhs),rhsMax =  -2.46604958675789E-11  2.48147041567200E-01
 cg2d: Sum(rhs),rhsMax =  -2.48119302881378E-11  2.47008998075673E-01
 cg2d: Sum(rhs),rhsMax =  -2.49600340396228E-11  2.45791115964593E-01
 cg2d: Sum(rhs),rhsMax =  -2.51220155789156E-11  2.44487163619757E-01
 cg2d: Sum(rhs),rhsMax =  -2.52384779741988E-11  2.43116021178499E-01
 cg2d: Sum(rhs),rhsMax =  -2.53850274134493E-11  2.41728390757549E-01
 cg2d: Sum(rhs),rhsMax =  -2.55382381908476E-11  2.40242522697622E-01
 cg2d: Sum(rhs),rhsMax =  -2.57874832598759E-11  2.38701032140055E-01
 cg2d: Sum(rhs),rhsMax =  -2.60562682541376E-11  2.37113120802569E-01
 cg2d: Sum(rhs),rhsMax =  -2.63369326347629E-11  2.35479994730040E-01
 cg2d: Sum(rhs),rhsMax =  -2.66466848586333E-11  2.33799677597684E-01
 cg2d: Sum(rhs),rhsMax =  -2.69477773429116E-11  2.32072826470327E-01
 cg2d: Sum(rhs),rhsMax =  -2.72076805529764E-11  2.30295479749938E-01
 cg2d: Sum(rhs),rhsMax =  -2.74585909565417E-11  2.28488042311021E-01
 cg2d: Sum(rhs),rhsMax =  -2.77238232371246E-11  2.26633516997697E-01
 cg2d: Sum(rhs),rhsMax =  -2.79722911500357E-11  2.24731872534361E-01
 cg2d: Sum(rhs),rhsMax =  -2.79395395708093E-11  2.25286348892522E-01
 cg2d: Sum(rhs),rhsMax =  -2.78188583280325E-11  2.26564778067851E-01
 cg2d: Sum(rhs),rhsMax =  -2.77287082184330E-11  2.27907017256089E-01
 cg2d: Sum(rhs),rhsMax =  -2.76653144837269E-11  2.29088447037129E-01
 cg2d: Sum(rhs),rhsMax =  -2.76478839822403E-11  2.30197436074940E-01
 cg2d: Sum(rhs),rhsMax =  -2.76267897447724E-11  2.31135552217554E-01
 cg2d: Sum(rhs),rhsMax =  -2.75555134265915E-11  2.32083203770067E-01
 cg2d: Sum(rhs),rhsMax =  -2.74777978148677E-11  2.32978974298090E-01
 cg2d: Sum(rhs),rhsMax =  -2.74011924261686E-11  2.33782176553347E-01
 cg2d: Sum(rhs),rhsMax =  -2.73652212001707E-11  2.34554679310170E-01
 cg2d: Sum(rhs),rhsMax =  -2.73612243972821E-11  2.35194461353372E-01
 cg2d: Sum(rhs),rhsMax =  -2.74084088758286E-11  2.35686156775363E-01
 cg2d: Sum(rhs),rhsMax =  -2.74874567551819E-11  2.36109375254621E-01
 cg2d: Sum(rhs),rhsMax =  -2.75535150251471E-11  2.36488323131301E-01
 cg2d: Sum(rhs),rhsMax =  -2.76197953397173E-11  2.36762553606166E-01
 cg2d: Sum(rhs),rhsMax =  -2.76773048923928E-11  2.36959027578966E-01
 cg2d: Sum(rhs),rhsMax =  -2.77411427163088E-11  2.37079671566989E-01
 cg2d: Sum(rhs),rhsMax =  -2.78442824352965E-11  2.37153324340114E-01
 cg2d: Sum(rhs),rhsMax =  -2.79852807594239E-11  2.37165222450579E-01
 cg2d: Sum(rhs),rhsMax =  -2.81212830799404E-11  2.37073569368023E-01
 cg2d: Sum(rhs),rhsMax =  -2.81868972606958E-11  2.36912570097261E-01
 cg2d: Sum(rhs),rhsMax =  -2.82159851039410E-11  2.36697510670134E-01
 cg2d: Sum(rhs),rhsMax =  -2.82517342853339E-11  2.36423677520044E-01
 cg2d: Sum(rhs),rhsMax =  -2.82154299924287E-11  2.36090791422021E-01
 cg2d: Sum(rhs),rhsMax =  -2.82169843046631E-11  2.35753839214336E-01
 cg2d: Sum(rhs),rhsMax =  -2.82163181708484E-11  2.35301539660173E-01
 cg2d: Sum(rhs),rhsMax =  -2.82232015536010E-11  2.34838414895497E-01
 cg2d: Sum(rhs),rhsMax =  -2.82666112738639E-11  2.34323793082961E-01
 cg2d: Sum(rhs),rhsMax =  -2.83594259187225E-11  2.33759812053894E-01
 cg2d: Sum(rhs),rhsMax =  -2.85513834796802E-11  2.33159479659463E-01
 cg2d: Sum(rhs),rhsMax =  -2.87977419688445E-11  2.32493846026190E-01
 cg2d: Sum(rhs),rhsMax =  -2.89991364255116E-11  2.31787919177373E-01
 cg2d: Sum(rhs),rhsMax =  -2.91551227604714E-11  2.31056791054638E-01
 cg2d: Sum(rhs),rhsMax =  -2.92252888556277E-11  2.30298342768049E-01
 cg2d: Sum(rhs),rhsMax =  -2.92444957139537E-11  2.29528807610691E-01
 cg2d: Sum(rhs),rhsMax =  -2.94165802827706E-11  2.28703278916090E-01
 cg2d: Sum(rhs),rhsMax =  -2.95873325839580E-11  2.27861941823053E-01
 cg2d: Sum(rhs),rhsMax =  -2.97286639749927E-11  2.26991945033815E-01
 cg2d: Sum(rhs),rhsMax =  -2.99031910344638E-11  2.26081313981818E-01
 cg2d: Sum(rhs),rhsMax =  -2.98793212394344E-11  2.26591002776616E-01
 cg2d: Sum(rhs),rhsMax =  -2.95571345176882E-11  2.28624883870243E-01
 cg2d: Sum(rhs),rhsMax =  -2.92362800635715E-11  2.30617316965294E-01
 cg2d: Sum(rhs),rhsMax =  -2.89369639361325E-11  2.32517197242739E-01
 cg2d: Sum(rhs),rhsMax =  -2.86688450756856E-11  2.34393047149958E-01
 cg2d: Sum(rhs),rhsMax =  -2.85607093530871E-11  2.36228770585082E-01
 cg2d: Sum(rhs),rhsMax =  -2.84888779233938E-11  2.38018756316863E-01
 cg2d: Sum(rhs),rhsMax =  -2.83886247842702E-11  2.39747539424278E-01
 cg2d: Sum(rhs),rhsMax =  -2.82432965903467E-11  2.41441442505159E-01
 cg2d: Sum(rhs),rhsMax =  -2.79701817262890E-11  2.43065758442183E-01
 cg2d: Sum(rhs),rhsMax =  -2.77192713227237E-11  2.44595236906145E-01
 cg2d: Sum(rhs),rhsMax =  -2.74381628528886E-11  2.46125945848514E-01
 cg2d: Sum(rhs),rhsMax =  -2.71898059622799E-11  2.47596683817427E-01
 cg2d: Sum(rhs),rhsMax =  -2.68932653924026E-11  2.49029568211811E-01
 cg2d: Sum(rhs),rhsMax =  -2.66638933155150E-11  2.50388647769868E-01
 cg2d: Sum(rhs),rhsMax =  -2.64079869083389E-11  2.51699560195267E-01
 cg2d: Sum(rhs),rhsMax =  -2.61765054077046E-11  2.52963781679564E-01
 cg2d: Sum(rhs),rhsMax =  -2.59436916394407E-11  2.54146195377676E-01
 cg2d: Sum(rhs),rhsMax =  -2.57518451007854E-11  2.55285533699275E-01
 cg2d: Sum(rhs),rhsMax =  -2.55744314614503E-11  2.56385924856346E-01
 cg2d: Sum(rhs),rhsMax =  -2.53786991422089E-11  2.57411011117045E-01
 cg2d: Sum(rhs),rhsMax =  -2.52605714123888E-11  2.58385271229674E-01
 cg2d: Sum(rhs),rhsMax =  -2.50779397248380E-11  2.59322318011012E-01
 cg2d: Sum(rhs),rhsMax =  -2.49870124591212E-11  2.60095909792215E-01
 cg2d: Sum(rhs),rhsMax =  -2.48524534285366E-11  2.60896725764220E-01
 cg2d: Sum(rhs),rhsMax =  -2.47500908656662E-11  2.61646233008122E-01
 cg2d: Sum(rhs),rhsMax =  -2.46348497157101E-11  2.62368178316472E-01
 cg2d: Sum(rhs),rhsMax =  -2.45345965765864E-11  2.63009916069289E-01
 cg2d: Sum(rhs),rhsMax =  -2.44441134000795E-11  2.63586221742093E-01
 cg2d: Sum(rhs),rhsMax =  -2.43660647214483E-11  2.63975801074627E-01
 cg2d: Sum(rhs),rhsMax =  -2.42963427155019E-11  2.64395092599022E-01
 cg2d: Sum(rhs),rhsMax =  -2.41789921417990E-11  2.64812484031534E-01
 cg2d: Sum(rhs),rhsMax =  -2.40910624782487E-11  2.65193090735096E-01
 cg2d: Sum(rhs),rhsMax =  -2.40146791341544E-11  2.65485935916818E-01
 cg2d: Sum(rhs),rhsMax =  -2.39601671836454E-11  2.65672064162537E-01
 cg2d: Sum(rhs),rhsMax =  -2.38663533380645E-11  2.65852883944061E-01
 cg2d: Sum(rhs),rhsMax =  -2.37677655334778E-11  2.65900849848028E-01
 cg2d: Sum(rhs),rhsMax =  -2.37037056649569E-11  2.65965198412611E-01
 cg2d: Sum(rhs),rhsMax =  -2.35202968212889E-11  2.67167057863963E-01
 cg2d: Sum(rhs),rhsMax =  -2.33253416581647E-11  2.68482014896369E-01
 cg2d: Sum(rhs),rhsMax =  -2.31727970145812E-11  2.69788997848867E-01
 cg2d: Sum(rhs),rhsMax =  -2.29941621299190E-11  2.71088080290846E-01
 cg2d: Sum(rhs),rhsMax =  -2.27824425991230E-11  2.72379278887218E-01
 cg2d: Sum(rhs),rhsMax =  -2.26320073792863E-11  2.73662553424428E-01
 cg2d: Sum(rhs),rhsMax =  -2.24721352637403E-11  2.74937810805426E-01
 cg2d: Sum(rhs),rhsMax =  -2.22584173314999E-11  2.76204912488637E-01
 cg2d: Sum(rhs),rhsMax =  -2.20858886734732E-11  2.77463684489927E-01
 cg2d: Sum(rhs),rhsMax =  -2.18784990124732E-11  2.78713928821643E-01
 cg2d: Sum(rhs),rhsMax =  -2.17371676214384E-11  2.79955435125837E-01
 cg2d: Sum(rhs),rhsMax =  -2.15328865849074E-11  2.81187991271724E-01
 cg2d: Sum(rhs),rhsMax =  -2.13777884283672E-11  2.82411391819932E-01
 cg2d: Sum(rhs),rhsMax =  -2.12455608661344E-11  2.83625443487636E-01
(PID.TID 0000.0001)      cg2d_init_res =   8.10841909924980E-02
(PID.TID 0000.0001)      cg2d_iters(min,last) =      -1      29
(PID.TID 0000.0001)      cg2d_last_res =   6.51022446901422E-14
(PID.TID 0000.0001) // =======================================================
(PID.TID 0000.0001) // Begin MONITOR dynamic field statistics
(PID.TID 0000.0001) // =======================================================
(PID.TID 0000.0001) %MON time_tsnumber                =                  4320
(PID.TID 0000.0001) %MON time_secondsf                =   6.4800000000000E+04
(PID.TID 0000.0001) %MON dynstat_eta_max              =   3.1061203653809E-02
(PID.TID 0000.0001) %MON dynstat_eta_min              =  -2.4822289581719E-02
(PID.TID 0000.0001) %MON dynstat_eta_mean             =   6.9359020739115E-15
(PID.TID 0000.0001) %MON dynstat_eta_sd               =   1.8142568805986E-02
(PID.TID 0000.0001) %MON dynstat_eta_del2             =   3.3615244460290E-04
(PID.TID 0000.0001) %MON dynstat_uvel_max             =   1.7658583220485E+00
(PID.TID 0000.0001) %MON dynstat_uvel_min             =  -9.1668691024452E-01
(PID.TID 0000.0001) %MON dynstat_uvel_mean            =   9.8317520214311E-04
(PID.TID 0000.0001) %MON dynstat_uvel_sd              =   2.5603286394308E-01
(PID.TID 0000.0001) %MON dynstat_uvel_del2            =   1.0879956277917E-03
(PID.TID 0000.0001) %MON dynstat_vvel_max             =   0.0000000000000E+00
(PID.TID 0000.0001) %MON dynstat_vvel_min             =   0.0000000000000E+00
(PID.TID 0000.0001) %MON dynstat_vvel_mean            =   0.0000000000000E+00
(PID.TID 0000.0001) %MON dynstat_vvel_sd              =   0.0000000000000E+00
(PID.TID 0000.0001) %MON dynstat_vvel_del2            =   0.0000000000000E+00
(PID.TID 0000.0001) %MON dynstat_wvel_max             =   5.1304591005960E-02
(PID.TID 0000.0001) %MON dynstat_wvel_min             =  -3.7787541706299E-02
(PID.TID 0000.0001) %MON dynstat_wvel_mean            =  -1.1327731347376E-19
(PID.TID 0000.0001) %MON dynstat_wvel_sd              =   5.7656133981878E-03
(PID.TID 0000.0001) %MON dynstat_wvel_del2            =   1.0807594479046E-04
(PID.TID 0000.0001) %MON dynstat_theta_max            =   1.4976502386006E+01
(PID.TID 0000.0001) %MON dynstat_theta_min            =   9.9765023856420E+00
(PID.TID 0000.0001) %MON dynstat_theta_mean           =   1.2377029458852E+01
(PID.TID 0000.0001) %MON dynstat_theta_sd             =   2.2781438396786E+00
(PID.TID 0000.0001) %MON dynstat_theta_del2           =   2.8753963565295E-03
(PID.TID 0000.0001) %MON dynstat_salt_max             =   3.5000000000000E+01
(PID.TID 0000.0001) %MON dynstat_salt_min             =   3.5000000000000E+01
(PID.TID 0000.0001) %MON dynstat_salt_mean            =   3.5000000000000E+01
(PID.TID 0000.0001) %MON dynstat_salt_sd              =   3.4816594052245E-13
(PID.TID 0000.0001) %MON dynstat_salt_del2            =   0.0000000000000E+00
(PID.TID 0000.0001) %MON dynstat_sst_max              =   1.4976502385655E+01
(PID.TID 0000.0001) %MON dynstat_sst_min              =   1.4595202472792E+01
(PID.TID 0000.0001) %MON dynstat_sst_mean             =   1.4887881662535E+01
(PID.TID 0000.0001) %MON dynstat_sst_sd               =   1.4193374698360E-01
(PID.TID 0000.0001) %MON dynstat_sst_del2             =   1.4635562702194E-03
(PID.TID 0000.0001) %MON dynstat_sss_max              =   3.5000000000000E+01
(PID.TID 0000.0001) %MON dynstat_sss_min              =   3.5000000000000E+01
(PID.TID 0000.0001) %MON dynstat_sss_mean             =   3.5000000000000E+01
(PID.TID 0000.0001) %MON dynstat_sss_sd               =   3.5527136788005E-14
(PID.TID 0000.0001) %MON dynstat_sss_del2             =   0.0000000000000E+00
(PID.TID 0000.0001) %MON forcing_qnet_max             =   0.0000000000000E+00
(PID.TID 0000.0001) %MON forcing_qnet_min             =   0.0000000000000E+00
(PID.TID 0000.0001) %MON forcing_qnet_mean            =   0.0000000000000E+00
(PID.TID 0000.0001) %MON forcing_qnet_sd              =   0.0000000000000E+00
(PID.TID 0000.0001) %MON forcing_qnet_del2            =   0.0000000000000E+00
(PID.TID 0000.0001) %MON forcing_qsw_max              =   0.0000000000000E+00
(PID.TID 0000.0001) %MON forcing_qsw_min              =   0.0000000000000E+00
(PID.TID 0000.0001) %MON forcing_qsw_mean             =   0.0000000000000E+00
(PID.TID 0000.0001) %MON forcing_qsw_sd               =   0.0000000000000E+00
(PID.TID 0000.0001) %MON forcing_qsw_del2             =   0.0000000000000E+00
(PID.TID 0000.0001) %MON forcing_empmr_max            =   0.0000000000000E+00
(PID.TID 0000.0001) %MON forcing_empmr_min            =   0.0000000000000E+00
(PID.TID 0000.0001) %MON forcing_empmr_mean           =   0.0000000000000E+00
(PID.TID 0000.0001) %MON forcing_empmr_sd             =   0.0000000000000E+00
(PID.TID 0000.0001) %MON forcing_empmr_del2           =   0.0000000000000E+00
(PID.TID 0000.0001) %MON forcing_fu_max               =   0.0000000000000E+00
(PID.TID 0000.0001) %MON forcing_fu_min               =   0.0000000000000E+00
(PID.TID 0000.0001) %MON forcing_fu_mean              =   0.0000000000000E+00
(PID.TID 0000.0001) %MON forcing_fu_sd                =   0.0000000000000E+00
(PID.TID 0000.0001) %MON forcing_fu_del2              =   0.0000000000000E+00
(PID.TID 0000.0001) %MON forcing_fv_max               =   0.0000000000000E+00
(PID.TID 0000.0001) %MON forcing_fv_min               =   0.0000000000000E+00
(PID.TID 0000.0001) %MON forcing_fv_mean              =   0.0000000000000E+00
(PID.TID 0000.0001) %MON forcing_fv_sd                =   0.0000000000000E+00
(PID.TID 0000.0001) %MON forcing_fv_del2              =   0.0000000000000E+00
(PID.TID 0000.0001) %MON advcfl_uvel_max              =   8.4690650208487E-02
(PID.TID 0000.0001) %MON advcfl_vvel_max              =   0.0000000000000E+00
(PID.TID 0000.0001) %MON advcfl_wvel_max              =   3.0684330227506E-01
(PID.TID 0000.0001) %MON advcfl_W_hf_max              =   3.0918992363019E-01
(PID.TID 0000.0001) %MON pe_b_mean                    =   9.2400692328322E-06
(PID.TID 0000.0001) %MON ke_max                       =   1.0987066898337E+00
(PID.TID 0000.0001) %MON ke_mean                      =   3.3139718235357E-02
(PID.TID 0000.0001) %MON ke_vol                       =   8.5337279889550E+10
(PID.TID 0000.0001) %MON vort_r_min                   =   0.0000000000000E+00
(PID.TID 0000.0001) %MON vort_r_max                   =   0.0000000000000E+00
(PID.TID 0000.0001) %MON vort_a_mean                  =   0.0000000000000E+00
(PID.TID 0000.0001) %MON vort_a_sd                    =   0.0000000000000E+00
(PID.TID 0000.0001) %MON vort_p_mean                  =   0.0000000000000E+00
(PID.TID 0000.0001) %MON vort_p_sd                    =   0.0000000000000E+00
(PID.TID 0000.0001) %MON surfExpan_theta_mean         =   5.9581508140421E-07
(PID.TID 0000.0001) %MON surfExpan_salt_mean          =  -3.6307943493517E-18
(PID.TID 0000.0001) // =======================================================
(PID.TID 0000.0001) // End MONITOR dynamic field statistics
(PID.TID 0000.0001) // =======================================================
(PID.TID 0000.0001) // =======================================================
(PID.TID 0000.0001) // Begin OBCS MONITOR field statistics
(PID.TID 0000.0001) // =======================================================
(PID.TID 0000.0001) %MON obc_E_uVel_max               =   0.0000000000000E+00
(PID.TID 0000.0001) %MON obc_E_uVel_min               =   0.0000000000000E+00
(PID.TID 0000.0001) %MON obc_E_uVel_mean              =   0.0000000000000E+00
(PID.TID 0000.0001) %MON obc_E_uVel_sd                =   0.0000000000000E+00
(PID.TID 0000.0001) %MON obc_E_uVel_Int               =   0.0000000000000E+00
(PID.TID 0000.0001) %MON obc_W_uVel_max               =   0.0000000000000E+00
(PID.TID 0000.0001) %MON obc_W_uVel_min               =   0.0000000000000E+00
(PID.TID 0000.0001) %MON obc_W_uVel_mean              =   0.0000000000000E+00
(PID.TID 0000.0001) %MON obc_W_uVel_sd                =   0.0000000000000E+00
(PID.TID 0000.0001) %MON obc_W_uVel_Int               =   0.0000000000000E+00
(PID.TID 0000.0001) // =======================================================
(PID.TID 0000.0001) // End OBCS MONITOR field statistics
(PID.TID 0000.0001) // =======================================================
(PID.TID 0000.0001) %CHECKPOINT      4320 0000004320
 cg2d: Sum(rhs),rhsMax =  -2.10632622454909E-11  2.84829967048978E-01
 cg2d: Sum(rhs),rhsMax =  -2.09169348508453E-11  2.86024795436938E-01
 cg2d: Sum(rhs),rhsMax =  -2.07949213404390E-11  2.87209768137428E-01
 cg2d: Sum(rhs),rhsMax =  -2.06843431271864E-11  2.88384722252800E-01
 cg2d: Sum(rhs),rhsMax =  -2.06454853213245E-11  2.89549480846928E-01
 cg2d: Sum(rhs),rhsMax =  -2.05681027765081E-11  2.90703839373382E-01
 cg2d: Sum(rhs),rhsMax =  -2.05909733708154E-11  2.91847551148952E-01
 cg2d: Sum(rhs),rhsMax =  -2.05504502304166E-11  2.92980312975282E-01
 cg2d: Sum(rhs),rhsMax =  -2.04984917928641E-11  2.94101752111628E-01
 cg2d: Sum(rhs),rhsMax =  -2.04450900653796E-11  2.95211415806833E-01
 cg2d: Sum(rhs),rhsMax =  -2.03663752529337E-11  2.96308764434885E-01
 cg2d: Sum(rhs),rhsMax =  -2.02685646044642E-11  2.97393168891503E-01
 cg2d: Sum(rhs),rhsMax =  -2.02039496244311E-11  2.98463912308129E-01
 cg2d: Sum(rhs),rhsMax =  -2.02545757943540E-11  2.99520195423654E-01
 cg2d: Sum(rhs),rhsMax =  -2.03621564054401E-11  3.00561144302381E-01
 cg2d: Sum(rhs),rhsMax =  -2.03158601053133E-11  3.01585818708207E-01
 cg2d: Sum(rhs),rhsMax =  -2.02049488251532E-11  3.02593219503283E-01
 cg2d: Sum(rhs),rhsMax =  -2.00723881960130E-11  3.03582293982680E-01
 cg2d: Sum(rhs),rhsMax =  -1.99665839417662E-11  3.04551938983722E-01
 cg2d: Sum(rhs),rhsMax =  -1.98615568436367E-11  3.05501002687098E-01
 cg2d: Sum(rhs),rhsMax =  -1.97273308799595E-11  3.06428286960199E-01
 cg2d: Sum(rhs),rhsMax =  -1.96489491344209E-11  3.07332552610522E-01
 cg2d: Sum(rhs),rhsMax =  -1.95724547680243E-11  3.08212529856779E-01
 cg2d: Sum(rhs),rhsMax =  -1.95051752527320E-11  3.09066935680106E-01
 cg2d: Sum(rhs),rhsMax =  -1.94511073914327E-11  3.09894498630906E-01
 cg2d: Sum(rhs),rhsMax =  -1.94525506813648E-11  3.10693990383761E-01
 cg2d: Sum(rhs),rhsMax =  -1.94307903100821E-11  3.11464262126009E-01
 cg2d: Sum(rhs),rhsMax =  -1.93915994373128E-11  3.12204282959484E-01
 cg2d: Sum(rhs),rhsMax =  -1.94192439906260E-11  3.12913177014182E-01
 cg2d: Sum(rhs),rhsMax =  -1.93978166862507E-11  3.13590255927124E-01
 cg2d: Sum(rhs),rhsMax =  -1.93532967429633E-11  3.14235043648868E-01
 cg2d: Sum(rhs),rhsMax =  -1.93517424307288E-11  3.14847291083235E-01
 cg2d: Sum(rhs),rhsMax =  -1.93668414638637E-11  3.15426978737530E-01
 cg2d: Sum(rhs),rhsMax =  -1.92990068370591E-11  3.15974306308571E-01
 cg2d: Sum(rhs),rhsMax =  -1.93052240859970E-11  3.16489668958805E-01
 cg2d: Sum(rhs),rhsMax =  -1.92659221909253E-11  3.16973620978192E-01
 cg2d: Sum(rhs),rhsMax =  -1.92718063729558E-11  3.17426828589614E-01
 cg2d: Sum(rhs),rhsMax =  -1.92433846635254E-11  3.17850014779218E-01
 cg2d: Sum(rhs),rhsMax =  -1.92481586225313E-11  3.18243900077008E-01
 cg2d: Sum(rhs),rhsMax =  -1.91913152036705E-11  3.18609143978524E-01
 cg2d: Sum(rhs),rhsMax =  -1.91555660222775E-11  3.18946291988487E-01
 cg2d: Sum(rhs),rhsMax =  -1.91241467106806E-11  3.19255732954139E-01
 cg2d: Sum(rhs),rhsMax =  -1.90798488119981E-11  3.19537670432103E-01
 cg2d: Sum(rhs),rhsMax =  -1.90873983285655E-11  3.19792110422422E-01
 cg2d: Sum(rhs),rhsMax =  -1.90253368614890E-11  3.20018866133427E-01
 cg2d: Sum(rhs),rhsMax =  -1.90245597053718E-11  3.20217578778980E-01
 cg2d: Sum(rhs),rhsMax =  -1.89834814534606E-11  3.20387751997484E-01
 cg2d: Sum(rhs),rhsMax =  -1.89646076620420E-11  3.20528796482658E-01
 cg2d: Sum(rhs),rhsMax =  -1.89596116584312E-11  3.20640080888511E-01
 cg2d: Sum(rhs),rhsMax =  -1.90026883117866E-11  3.20720984976204E-01
 cg2d: Sum(rhs),rhsMax =  -1.89839255426705E-11  3.20770951200655E-01
 cg2d: Sum(rhs),rhsMax =  -1.90241156161619E-11  3.20789531355954E-01
 cg2d: Sum(rhs),rhsMax =  -1.90254478837915E-11  3.20776425394286E-01
 cg2d: Sum(rhs),rhsMax =  -1.90281124190506E-11  3.20731510039072E-01
 cg2d: Sum(rhs),rhsMax =  -1.90454318982347E-11  3.20654855333767E-01
 cg2d: Sum(rhs),rhsMax =  -1.90630844443263E-11  3.20546727868433E-01
 cg2d: Sum(rhs),rhsMax =  -1.90830684587695E-11  3.20407580199039E-01
 cg2d: Sum(rhs),rhsMax =  -1.91370252977663E-11  3.20238026986586E-01
 cg2d: Sum(rhs),rhsMax =  -1.91706650554124E-11  3.20038809622798E-01
 cg2d: Sum(rhs),rhsMax =  -1.92400539944515E-11  3.19810752450078E-01
 cg2d: Sum(rhs),rhsMax =  -1.92807991794552E-11  3.19554714889629E-01
 cg2d: Sum(rhs),rhsMax =  -1.93682847537957E-11  3.19271544567773E-01
 cg2d: Sum(rhs),rhsMax =  -1.94070315373551E-11  3.18962036610031E-01
 cg2d: Sum(rhs),rhsMax =  -1.94710914058760E-11  3.18626903515696E-01
 cg2d: Sum(rhs),rhsMax =  -1.95568006233771E-11  3.18266758489249E-01
 cg2d: Sum(rhs),rhsMax =  -1.96007654551522E-11  3.17882113055426E-01
 cg2d: Sum(rhs),rhsMax =  -1.96639371452534E-11  3.17473387638675E-01
 cg2d: Sum(rhs),rhsMax =  -1.97439842253289E-11  3.17040931998604E-01
 cg2d: Sum(rhs),rhsMax =  -1.98129290751581E-11  3.16585051338125E-01
 cg2d: Sum(rhs),rhsMax =  -1.98556726616061E-11  3.16106033698819E-01
 cg2d: Sum(rhs),rhsMax =  -1.98697724940189E-11  3.15604174849781E-01
 cg2d: Sum(rhs),rhsMax =  -1.99856797777898E-11  3.15079797987284E-01
 cg2d: Sum(rhs),rhsMax =  -2.00505168024279E-11  3.14533266823897E-01
 cg2d: Sum(rhs),rhsMax =  -2.01614280825879E-11  3.13964991718648E-01
 cg2d: Sum(rhs),rhsMax =  -2.02561301065884E-11  3.13375429178570E-01
 cg2d: Sum(rhs),rhsMax =  -2.03461691938855E-11  3.12765075320648E-01
 cg2d: Sum(rhs),rhsMax =  -2.04612993215392E-11  3.12134453857038E-01
 cg2d: Sum(rhs),rhsMax =  -2.05573336131692E-11  3.11484099080768E-01
 cg2d: Sum(rhs),rhsMax =  -2.06369366040349E-11  3.10814534404258E-01
 cg2d: Sum(rhs),rhsMax =  -2.07487360626146E-11  3.10126247370708E-01
 cg2d: Sum(rhs),rhsMax =  -2.08235650944744E-11  3.09419662713159E-01
 cg2d: Sum(rhs),rhsMax =  -2.09384731775231E-11  3.08695115834946E-01
 cg2d: Sum(rhs),rhsMax =  -2.10578221526703E-11  3.07952829790372E-01
 cg2d: Sum(rhs),rhsMax =  -2.11664019644786E-11  3.07192899194105E-01
 cg2d: Sum(rhs),rhsMax =  -2.12893036533046E-11  3.06415284274699E-01
 cg2d: Sum(rhs),rhsMax =  -2.14155360112045E-11  3.05619817423208E-01
 cg2d: Sum(rhs),rhsMax =  -2.15262252467596E-11  3.04806223137262E-01
 cg2d: Sum(rhs),rhsMax =  -2.16260342966734E-11  3.03974150439673E-01
 cg2d: Sum(rhs),rhsMax =  -2.17607043495605E-11  3.03123214982839E-01
 cg2d: Sum(rhs),rhsMax =  -2.19146922830760E-11  3.02253046498048E-01
 cg2d: Sum(rhs),rhsMax =  -2.20545803841787E-11  3.01363336327788E-01
 cg2d: Sum(rhs),rhsMax =  -2.21812568312885E-11  3.00453879680683E-01
 cg2d: Sum(rhs),rhsMax =  -2.23383533892729E-11  2.99524607990213E-01
 cg2d: Sum(rhs),rhsMax =  -2.24957830141648E-11  2.98575608176482E-01
 cg2d: Sum(rhs),rhsMax =  -2.26652030477226E-11  2.97607127402933E-01
 cg2d: Sum(rhs),rhsMax =  -2.28429497539651E-11  2.96619563726617E-01
 cg2d: Sum(rhs),rhsMax =  -2.29839480780925E-11  2.95613444539302E-01
 cg2d: Sum(rhs),rhsMax =  -2.31414887252868E-11  2.94589395684217E-01
 cg2d: Sum(rhs),rhsMax =  -2.32763808227787E-11  2.93548104564488E-01
 cg2d: Sum(rhs),rhsMax =  -2.34755548333965E-11  2.92490280530016E-01
 cg2d: Sum(rhs),rhsMax =  -2.36579644763424E-11  2.91416615514208E-01
 cg2d: Sum(rhs),rhsMax =  -2.37897479493654E-11  2.90327747463636E-01
 cg2d: Sum(rhs),rhsMax =  -2.39659403433734E-11  2.89224228670182E-01
 cg2d: Sum(rhs),rhsMax =  -2.41588971050533E-11  2.88106500698618E-01
 cg2d: Sum(rhs),rhsMax =  -2.42914577341935E-11  2.86974877164021E-01
 cg2d: Sum(rhs),rhsMax =  -2.44652076375473E-11  2.85829535107968E-01
 cg2d: Sum(rhs),rhsMax =  -2.46197506825752E-11  2.84670515148252E-01
 cg2d: Sum(rhs),rhsMax =  -2.47762921290473E-11  2.83497729995231E-01
 cg2d: Sum(rhs),rhsMax =  -2.49693599130296E-11  2.82310980439481E-01
 cg2d: Sum(rhs),rhsMax =  -2.51363374559332E-11  2.81109977608287E-01
 cg2d: Sum(rhs),rhsMax =  -2.53177478981570E-11  2.79894370186353E-01
 cg2d: Sum(rhs),rhsMax =  -2.54655185827346E-11  2.78663775335259E-01
 cg2d: Sum(rhs),rhsMax =  -2.56398235976008E-11  2.77417812099319E-01
 cg2d: Sum(rhs),rhsMax =  -2.58164600808186E-11  2.76156136020956E-01
 cg2d: Sum(rhs),rhsMax =  -2.59913202071971E-11  2.74878473441064E-01
 cg2d: Sum(rhs),rhsMax =  -2.61961563552404E-11  2.73584653573872E-01
 cg2d: Sum(rhs),rhsMax =  -2.63774557751617E-11  2.72274636073628E-01
 cg2d: Sum(rhs),rhsMax =  -2.65881761052356E-11  2.70948531656399E-01
 cg2d: Sum(rhs),rhsMax =  -2.67617039639845E-11  2.69606613578711E-01
 cg2d: Sum(rhs),rhsMax =  -2.69704258926140E-11  2.68249318473905E-01
 cg2d: Sum(rhs),rhsMax =  -2.71728195500032E-11  2.66877236132941E-01
 cg2d: Sum(rhs),rhsMax =  -2.73778777426514E-11  2.65491089091202E-01
 cg2d: Sum(rhs),rhsMax =  -2.75747202849175E-11  2.64091704089473E-01
 cg2d: Sum(rhs),rhsMax =  -2.77921019531391E-11  2.62679978381171E-01
 cg2d: Sum(rhs),rhsMax =  -2.79980483242070E-11  2.61256844314965E-01
 cg2d: Sum(rhs),rhsMax =  -2.82200929291321E-11  2.59823235607602E-01
 cg2d: Sum(rhs),rhsMax =  -2.84418044671497E-11  2.58380058315614E-01
 cg2d: Sum(rhs),rhsMax =  -2.86568546670196E-11  2.56928168853961E-01
 cg2d: Sum(rhs),rhsMax =  -2.88781221158274E-11  2.55468360631962E-01
 cg2d: Sum(rhs),rhsMax =  -2.91312529654419E-11  2.54001360076791E-01
 cg2d: Sum(rhs),rhsMax =  -2.93882695956427E-11  2.52527832027369E-01
 cg2d: Sum(rhs),rhsMax =  -2.96376256869735E-11  2.51048393697050E-01
 cg2d: Sum(rhs),rhsMax =  -2.99400504388814E-11  2.49563635604839E-01
 cg2d: Sum(rhs),rhsMax =  -3.02295966037036E-11  2.48074147080873E-01
 cg2d: Sum(rhs),rhsMax =  -3.04332115064199E-11  2.46580543248155E-01
 cg2d: Sum(rhs),rhsMax =  -3.06163983054830E-11  2.45083489921876E-01
 cg2d: Sum(rhs),rhsMax =  -3.07499581353454E-11  2.43583722832560E-01
 cg2d: Sum(rhs),rhsMax =  -3.07981418146142E-11  2.42082058113245E-01
 cg2d: Sum(rhs),rhsMax =  -3.08834069429054E-11  2.40579392122580E-01
 cg2d: Sum(rhs),rhsMax =  -3.09896552863620E-11  2.39076690267986E-01
 cg2d: Sum(rhs),rhsMax =  -3.11297654320697E-11  2.37574966247277E-01
 cg2d: Sum(rhs),rhsMax =  -3.12585513029262E-11  2.36075254652464E-01
 cg2d: Sum(rhs),rhsMax =  -3.13933323781157E-11  2.34578580809970E-01
 cg2d: Sum(rhs),rhsMax =  -3.15611980994390E-11  2.33085931848760E-01
 cg2d: Sum(rhs),rhsMax =  -3.18179926850348E-11  2.31598232301476E-01
 cg2d: Sum(rhs),rhsMax =  -3.20434789813362E-11  2.30116326292193E-01
 cg2d: Sum(rhs),rhsMax =  -3.22900595151054E-11  2.28640966935926E-01
 cg2d: Sum(rhs),rhsMax =  -3.25419691193929E-11  2.27172812374303E-01
 cg2d: Sum(rhs),rhsMax =  -3.27999849503158E-11  2.25712427185686E-01
 cg2d: Sum(rhs),rhsMax =  -3.30611094057076E-11  2.24260287818232E-01
 cg2d: Sum(rhs),rhsMax =  -3.33174599020936E-11  2.22816791067253E-01
 cg2d: Sum(rhs),rhsMax =  -3.35932393014104E-11  2.21382265171991E-01
 cg2d: Sum(rhs),rhsMax =  -3.38449268610930E-11  2.19956983527318E-01
 cg2d: Sum(rhs),rhsMax =  -3.41298100892118E-11  2.18541181067754E-01
 cg2d: Sum(rhs),rhsMax =  -3.43804984481721E-11  2.17135073030669E-01
 cg2d: Sum(rhs),rhsMax =  -3.46407347251443E-11  2.15738875174133E-01
 cg2d: Sum(rhs),rhsMax =  -3.48867601474012E-11  2.14352823871950E-01
 cg2d: Sum(rhs),rhsMax =  -3.49908990671111E-11  2.12977194113574E-01
 cg2d: Sum(rhs),rhsMax =  -3.50997009235243E-11  2.11612313485457E-01
 cg2d: Sum(rhs),rhsMax =  -3.51928486352904E-11  2.10258570718067E-01
 cg2d: Sum(rhs),rhsMax =  -3.53373996730966E-11  2.08916418187666E-01
 cg2d: Sum(rhs),rhsMax =  -3.54893892051678E-11  2.07586368591100E-01
 cg2d: Sum(rhs),rhsMax =  -3.56576990157009E-11  2.06268986591602E-01
 cg2d: Sum(rhs),rhsMax =  -3.58414409262764E-11  2.04964876400510E-01
 cg2d: Sum(rhs),rhsMax =  -3.60222962569878E-11  2.03674666024796E-01
 cg2d: Sum(rhs),rhsMax =  -3.61504159940296E-11  2.02398988455510E-01
 cg2d: Sum(rhs),rhsMax =  -3.62943008980210E-11  2.01138459679835E-01
 cg2d: Sum(rhs),rhsMax =  -3.64296370847228E-11  1.99893653345813E-01
 cg2d: Sum(rhs),rhsMax =  -3.66364716342105E-11  1.98665072358997E-01
 cg2d: Sum(rhs),rhsMax =  -3.68775010528566E-11  1.97453118631913E-01
 cg2d: Sum(rhs),rhsMax =  -3.71470632032356E-11  1.96258063438473E-01
 cg2d: Sum(rhs),rhsMax =  -3.71672692622838E-11  1.96286487951702E-01
 cg2d: Sum(rhs),rhsMax =  -3.69358987839519E-11  1.97976809789040E-01
 cg2d: Sum(rhs),rhsMax =  -3.67167407588909E-11  1.99607746102054E-01
 cg2d: Sum(rhs),rhsMax =  -3.64634988869739E-11  2.01183928955922E-01
 cg2d: Sum(rhs),rhsMax =  -3.62498919770360E-11  2.02676175534891E-01
 cg2d: Sum(rhs),rhsMax =  -3.60693697132319E-11  2.04121837838587E-01
 cg2d: Sum(rhs),rhsMax =  -3.58666429889354E-11  2.05545335540332E-01
 cg2d: Sum(rhs),rhsMax =  -3.57243123971784E-11  2.06911008645950E-01
 cg2d: Sum(rhs),rhsMax =  -3.55795393147673E-11  2.08180439811055E-01
 cg2d: Sum(rhs),rhsMax =  -3.54566376259413E-11  2.09358284865527E-01
 cg2d: Sum(rhs),rhsMax =  -3.53355122939547E-11  2.10472542319576E-01
 cg2d: Sum(rhs),rhsMax =  -3.52247120360971E-11  2.11535984051018E-01
 cg2d: Sum(rhs),rhsMax =  -3.51372264617567E-11  2.12559287091888E-01
 cg2d: Sum(rhs),rhsMax =  -3.50666162773905E-11  2.13504466490836E-01
 cg2d: Sum(rhs),rhsMax =  -3.49795747922599E-11  2.14425058959621E-01
 cg2d: Sum(rhs),rhsMax =  -3.49104078978257E-11  2.15293655863088E-01
 cg2d: Sum(rhs),rhsMax =  -3.48724382703836E-11  2.16099438118062E-01
 cg2d: Sum(rhs),rhsMax =  -3.48466810962123E-11  2.16839506693165E-01
 cg2d: Sum(rhs),rhsMax =  -3.47998296845731E-11  2.17523125876298E-01
 cg2d: Sum(rhs),rhsMax =  -3.47883943874194E-11  2.18150079328193E-01
 cg2d: Sum(rhs),rhsMax =  -3.47865070082776E-11  2.18720589437813E-01
 cg2d: Sum(rhs),rhsMax =  -3.47629702801555E-11  2.19220046392464E-01
 cg2d: Sum(rhs),rhsMax =  -3.47440964887369E-11  2.19676735708076E-01
 cg2d: Sum(rhs),rhsMax =  -3.47734063765870E-11  2.20072029253353E-01
 cg2d: Sum(rhs),rhsMax =  -3.47346595930276E-11  2.20404224354348E-01
 cg2d: Sum(rhs),rhsMax =  -3.47002426792642E-11  2.20680571248458E-01
 cg2d: Sum(rhs),rhsMax =  -3.46452866395452E-11  2.20897599123882E-01
 cg2d: Sum(rhs),rhsMax =  -3.45501405263349E-11  2.21035440370814E-01
 cg2d: Sum(rhs),rhsMax =  -3.44588801937107E-11  2.21124773446351E-01
 cg2d: Sum(rhs),rhsMax =  -3.43659545265496E-11  2.21145942479088E-01
 cg2d: Sum(rhs),rhsMax =  -3.42962325206031E-11  2.21109691272051E-01
 cg2d: Sum(rhs),rhsMax =  -3.42281758491936E-11  2.21015457677618E-01
 cg2d: Sum(rhs),rhsMax =  -3.41591199770619E-11  2.20930110739767E-01
 cg2d: Sum(rhs),rhsMax =  -3.40638628415491E-11  2.20929914689410E-01
 cg2d: Sum(rhs),rhsMax =  -3.39728245535298E-11  2.20873456932938E-01
 cg2d: Sum(rhs),rhsMax =  -3.39271943872177E-11  2.20769892767138E-01
 cg2d: Sum(rhs),rhsMax =  -3.38953309864110E-11  2.20613474386405E-01
 cg2d: Sum(rhs),rhsMax =  -3.38274963596064E-11  2.20407733375313E-01
 cg2d: Sum(rhs),rhsMax =  -3.34237082455502E-11  2.22174412132159E-01
 cg2d: Sum(rhs),rhsMax =  -3.29921645558784E-11  2.24607225300967E-01
 cg2d: Sum(rhs),rhsMax =  -3.25628413122558E-11  2.26997921840952E-01
 cg2d: Sum(rhs),rhsMax =  -3.21619397780637E-11  2.29361907453638E-01
 cg2d: Sum(rhs),rhsMax =  -3.17771364777286E-11  2.31696748350347E-01
 cg2d: Sum(rhs),rhsMax =  -3.13725712075552E-11  2.34003029935137E-01
 cg2d: Sum(rhs),rhsMax =  -3.10240722001254E-11  2.36282494938600E-01
 cg2d: Sum(rhs),rhsMax =  -3.07160963330944E-11  2.38525104620375E-01
 cg2d: Sum(rhs),rhsMax =  -3.03784775113058E-11  2.40746031457457E-01
 cg2d: Sum(rhs),rhsMax =  -3.00801605845891E-11  2.42933159836198E-01
 cg2d: Sum(rhs),rhsMax =  -2.98241431551105E-11  2.45130372062882E-01
 cg2d: Sum(rhs),rhsMax =  -2.95443669529050E-11  2.47258386811398E-01
 cg2d: Sum(rhs),rhsMax =  -2.92587065686689E-11  2.49334391072454E-01
 cg2d: Sum(rhs),rhsMax =  -2.89831492139569E-11  2.51378476868508E-01
 cg2d: Sum(rhs),rhsMax =  -2.87249113384291E-11  2.53383356374778E-01
 cg2d: Sum(rhs),rhsMax =  -2.84600121247536E-11  2.55344511288128E-01
 cg2d: Sum(rhs),rhsMax =  -2.82092127434908E-11  2.57261755009189E-01
 cg2d: Sum(rhs),rhsMax =  -2.79681833248446E-11  2.59138014354630E-01
 cg2d: Sum(rhs),rhsMax =  -2.77260436831739E-11  2.60982197200016E-01
 cg2d: Sum(rhs),rhsMax =  -2.73990830024218E-11  2.62776262152279E-01
 cg2d: Sum(rhs),rhsMax =  -2.71794808881509E-11  2.64533861199901E-01
 cg2d: Sum(rhs),rhsMax =  -2.69708699818239E-11  2.66246123697778E-01
 cg2d: Sum(rhs),rhsMax =  -2.67784683316563E-11  2.67911356532274E-01
 cg2d: Sum(rhs),rhsMax =  -2.65957256218030E-11  2.69531166185612E-01
 cg2d: Sum(rhs),rhsMax =  -2.64246402537083E-11  2.71093435977916E-01
 cg2d: Sum(rhs),rhsMax =  -2.62566635100825E-11  2.72608234294294E-01
 cg2d: Sum(rhs),rhsMax =  -2.61449750738052E-11  2.74079596284426E-01
 cg2d: Sum(rhs),rhsMax =  -2.60387267303486E-11  2.75488628294834E-01
 cg2d: Sum(rhs),rhsMax =  -2.59112731271216E-11  2.76840493641815E-01
 cg2d: Sum(rhs),rhsMax =  -2.58332244484905E-11  2.78139509063375E-01
 cg2d: Sum(rhs),rhsMax =  -2.57487364763165E-11  2.79404170800756E-01
 cg2d: Sum(rhs),rhsMax =  -2.57088794697324E-11  2.80599445536878E-01
 cg2d: Sum(rhs),rhsMax =  -2.56613619242785E-11  2.81721858088912E-01
 cg2d: Sum(rhs),rhsMax =  -2.55914178737271E-11  2.82785022553677E-01
 cg2d: Sum(rhs),rhsMax =  -2.55392373915697E-11  2.83794744793486E-01
 cg2d: Sum(rhs),rhsMax =  -2.55033771878743E-11  2.84740813867051E-01
 cg2d: Sum(rhs),rhsMax =  -2.54457566128963E-11  2.85656686729241E-01
 cg2d: Sum(rhs),rhsMax =  -2.54148924128117E-11  2.86492723359538E-01
 cg2d: Sum(rhs),rhsMax =  -2.53778109637892E-11  2.87256001539055E-01
 cg2d: Sum(rhs),rhsMax =  -2.53388421356249E-11  2.87910095941135E-01
 cg2d: Sum(rhs),rhsMax =  -2.52948773038497E-11  2.88514472849091E-01
 cg2d: Sum(rhs),rhsMax =  -2.52532439404263E-11  2.89063786141657E-01
 cg2d: Sum(rhs),rhsMax =  -2.52144971568669E-11  2.89563265767326E-01
 cg2d: Sum(rhs),rhsMax =  -2.51783038862641E-11  2.89936641598049E-01
 cg2d: Sum(rhs),rhsMax =  -2.51553222696543E-11  2.90166234078387E-01
 cg2d: Sum(rhs),rhsMax =  -2.51288989616683E-11  2.90312991345781E-01
 cg2d: Sum(rhs),rhsMax =  -2.50967024939541E-11  2.90456341742572E-01
 cg2d: Sum(rhs),rhsMax =  -2.50504061938273E-11  2.90449074063066E-01
 cg2d: Sum(rhs),rhsMax =  -2.50237608412363E-11  2.90436408153082E-01
 cg2d: Sum(rhs),rhsMax =  -2.50118814548728E-11  2.90207815295439E-01
 cg2d: Sum(rhs),rhsMax =  -2.49771314742020E-11  2.90015544181191E-01
 cg2d: Sum(rhs),rhsMax =  -2.49846809907694E-11  2.89541975977690E-01
 cg2d: Sum(rhs),rhsMax =  -2.49857912137941E-11  2.89220398314407E-01
 cg2d: Sum(rhs),rhsMax =  -2.50495180154076E-11  2.88610434466439E-01
 cg2d: Sum(rhs),rhsMax =  -2.50895970665965E-11  2.88072746405892E-01
 cg2d: Sum(rhs),rhsMax =  -2.51132448170210E-11  2.87542291519395E-01
 cg2d: Sum(rhs),rhsMax =  -2.51616505408947E-11  2.86695655051970E-01
 cg2d: Sum(rhs),rhsMax =  -2.51952902985408E-11  2.85957768096302E-01
 cg2d: Sum(rhs),rhsMax =  -2.52048382165526E-11  2.85225315799492E-01
 cg2d: Sum(rhs),rhsMax =  -2.52291521007919E-11  2.84403211062640E-01
 cg2d: Sum(rhs),rhsMax =  -2.52639020814627E-11  2.83240464742008E-01
 cg2d: Sum(rhs),rhsMax =  -2.52881049433995E-11  2.82185034102538E-01
 cg2d: Sum(rhs),rhsMax =  -2.53246312809097E-11  2.81151696957292E-01
 cg2d: Sum(rhs),rhsMax =  -2.53796983429311E-11  2.79726747687300E-01
 cg2d: Sum(rhs),rhsMax =  -2.54599674676115E-11  2.78473558134293E-01
 cg2d: Sum(rhs),rhsMax =  -2.55554466477292E-11  2.77260305907904E-01
 cg2d: Sum(rhs),rhsMax =  -2.56330512371505E-11  2.76098935713453E-01
 cg2d: Sum(rhs),rhsMax =  -2.57722732044385E-11  2.74383239212438E-01
 cg2d: Sum(rhs),rhsMax =  -2.58558729981928E-11  2.72765548024978E-01
 cg2d: Sum(rhs),rhsMax =  -2.59958721215980E-11  2.71284190702088E-01
 cg2d: Sum(rhs),rhsMax =  -2.61042298888015E-11  2.69770763103872E-01
 cg2d: Sum(rhs),rhsMax =  -2.62669885842115E-11  2.67908470249975E-01
 cg2d: Sum(rhs),rhsMax =  -2.63757904406248E-11  2.66092335528749E-01
 cg2d: Sum(rhs),rhsMax =  -2.64754884682361E-11  2.64298612212402E-01
 cg2d: Sum(rhs),rhsMax =  -2.66306976470787E-11  2.62541214143280E-01
 cg2d: Sum(rhs),rhsMax =  -2.67847966028967E-11  2.60733079937934E-01
 cg2d: Sum(rhs),rhsMax =  -2.69828603904898E-11  2.58510116559039E-01
 cg2d: Sum(rhs),rhsMax =  -2.71573874499609E-11  2.56513731559418E-01
 cg2d: Sum(rhs),rhsMax =  -2.73013833762548E-11  2.54584317235459E-01
 cg2d: Sum(rhs),rhsMax =  -2.74205103067970E-11  2.52627615866152E-01
 cg2d: Sum(rhs),rhsMax =  -2.75599543186900E-11  2.50535275948564E-01
 cg2d: Sum(rhs),rhsMax =  -2.77400324932842E-11  2.48298830804008E-01
 cg2d: Sum(rhs),rhsMax =  -2.78835843303682E-11  2.46026309106264E-01
 cg2d: Sum(rhs),rhsMax =  -2.80723222445545E-11  2.43806607759376E-01
 cg2d: Sum(rhs),rhsMax =  -2.82658341177466E-11  2.41230040705487E-01
 cg2d: Sum(rhs),rhsMax =  -2.85248491493917E-11  2.38787438916812E-01
 cg2d: Sum(rhs),rhsMax =  -2.88007395710110E-11  2.36345737218575E-01
 cg2d: Sum(rhs),rhsMax =  -2.90485413501074E-11  2.33874995045951E-01
 cg2d: Sum(rhs),rhsMax =  -2.93216562141652E-11  2.31396157448374E-01
 cg2d: Sum(rhs),rhsMax =  -2.96378477315784E-11  2.28898245429162E-01
 cg2d: Sum(rhs),rhsMax =  -2.99182900675987E-11  2.26354046587258E-01
 cg2d: Sum(rhs),rhsMax =  -3.02374791871785E-11  2.23736215695369E-01
 cg2d: Sum(rhs),rhsMax =  -3.05655500909552E-11  2.21102996341653E-01
 cg2d: Sum(rhs),rhsMax =  -3.08812975191586E-11  2.18442188187976E-01
 cg2d: Sum(rhs),rhsMax =  -3.08910674817753E-11  2.18067007435244E-01
 cg2d: Sum(rhs),rhsMax =  -3.06750180811832E-11  2.19391244744215E-01
 cg2d: Sum(rhs),rhsMax =  -3.04540836992828E-11  2.20726371106285E-01
 cg2d: Sum(rhs),rhsMax =  -3.01979552475018E-11  2.22072961086481E-01
 cg2d: Sum(rhs),rhsMax =  -2.99643643231207E-11  2.23431496740237E-01
 cg2d: Sum(rhs),rhsMax =  -2.97255553505238E-11  2.24802314460246E-01
 cg2d: Sum(rhs),rhsMax =  -2.95168334218943E-11  2.26185560279835E-01
 cg2d: Sum(rhs),rhsMax =  -2.92917912148027E-11  2.27581160691055E-01
 cg2d: Sum(rhs),rhsMax =  -2.90969470739810E-11  2.28988813880011E-01
 cg2d: Sum(rhs),rhsMax =  -2.88523649416561E-11  2.30408002970171E-01
 cg2d: Sum(rhs),rhsMax =  -2.86100032553804E-11  2.31838029107069E-01
 cg2d: Sum(rhs),rhsMax =  -2.84220424973114E-11  2.33278058846128E-01
 cg2d: Sum(rhs),rhsMax =  -2.81922263312140E-11  2.34727178046601E-01
 cg2d: Sum(rhs),rhsMax =  -2.79699596816840E-11  2.36184443765671E-01
 cg2d: Sum(rhs),rhsMax =  -2.77701195372515E-11  2.37648926538892E-01
 cg2d: Sum(rhs),rhsMax =  -2.75697242813067E-11  2.39119737611382E-01
 cg2d: Sum(rhs),rhsMax =  -2.73718825383185E-11  2.40596038585338E-01
 cg2d: Sum(rhs),rhsMax =  -2.71402900153817E-11  2.42077033934875E-01
 cg2d: Sum(rhs),rhsMax =  -2.69866351487735E-11  2.43561949364159E-01
 cg2d: Sum(rhs),rhsMax =  -2.67755817517923E-11  2.45050000713626E-01
 cg2d: Sum(rhs),rhsMax =  -2.65986122016670E-11  2.46540358958753E-01
 cg2d: Sum(rhs),rhsMax =  -2.63523647348052E-11  2.48032116898820E-01
 cg2d: Sum(rhs),rhsMax =  -2.61789478983587E-11  2.49524262600486E-01
 cg2d: Sum(rhs),rhsMax =  -2.60114152439428E-11  2.51015663737053E-01
 cg2d: Sum(rhs),rhsMax =  -2.58221222182442E-11  2.52505065766052E-01
 cg2d: Sum(rhs),rhsMax =  -2.56475951587731E-11  2.53991105444034E-01
 cg2d: Sum(rhs),rhsMax =  -2.54858356640852E-11  2.55472339476716E-01
 cg2d: Sum(rhs),rhsMax =  -2.53153054075028E-11  2.56947286177026E-01
 cg2d: Sum(rhs),rhsMax =  -2.51738629941656E-11  2.58414476006055E-01
 cg2d: Sum(rhs),rhsMax =  -2.50255371980757E-11  2.59872505107556E-01
 cg2d: Sum(rhs),rhsMax =  -2.48596698781967E-11  2.61320084830701E-01
 cg2d: Sum(rhs),rhsMax =  -2.46596076891592E-11  2.62756080180738E-01
 cg2d: Sum(rhs),rhsMax =  -2.45209408333835E-11  2.64179531401417E-01
 cg2d: Sum(rhs),rhsMax =  -2.43477460415420E-11  2.65589655444650E-01
 cg2d: Sum(rhs),rhsMax =  -2.41947573087486E-11  2.66985827537709E-01
 cg2d: Sum(rhs),rhsMax =  -2.40248931859810E-11  2.68367546727134E-01
 cg2d: Sum(rhs),rhsMax =  -2.38902231330940E-11  2.69734392325344E-01
 cg2d: Sum(rhs),rhsMax =  -2.36939357023402E-11  2.71085979853201E-01
 cg2d: Sum(rhs),rhsMax =  -2.34888775096920E-11  2.72421924904405E-01
 cg2d: Sum(rhs),rhsMax =  -2.32924790566358E-11  2.73741821349576E-01
 cg2d: Sum(rhs),rhsMax =  -2.31189511978869E-11  2.75045236912450E-01
 cg2d: Sum(rhs),rhsMax =  -2.29177787858248E-11  2.76331725202758E-01
 cg2d: Sum(rhs),rhsMax =  -2.27752261494629E-11  2.77600849727343E-01
 cg2d: Sum(rhs),rhsMax =  -2.26006990899918E-11  2.78852213046814E-01
 cg2d: Sum(rhs),rhsMax =  -2.24444907104271E-11  2.80085483583958E-01
 cg2d: Sum(rhs),rhsMax =  -2.22949436690101E-11  2.81300413654077E-01
 cg2d: Sum(rhs),rhsMax =  -2.21325180405074E-11  2.82496844675033E-01
 cg2d: Sum(rhs),rhsMax =  -2.19750884156156E-11  2.83674698533751E-01
 cg2d: Sum(rhs),rhsMax =  -2.18465245893640E-11  2.84833956970565E-01
 cg2d: Sum(rhs),rhsMax =  -2.17047491091193E-11  2.85974632974682E-01
 cg2d: Sum(rhs),rhsMax =  -2.15443218820610E-11  2.87096739243377E-01
 cg2d: Sum(rhs),rhsMax =  -2.14351869587404E-11  2.88200258758749E-01
 cg2d: Sum(rhs),rhsMax =  -2.12811990252249E-11  2.89285121742245E-01
 cg2d: Sum(rhs),rhsMax =  -2.11538564443003E-11  2.90351192013463E-01
 cg2d: Sum(rhs),rhsMax =  -2.10547135282013E-11  2.91398264395030E-01
 cg2d: Sum(rhs),rhsMax =  -2.09166017839379E-11  2.92426073411344E-01
 cg2d: Sum(rhs),rhsMax =  -2.07937000951119E-11  2.93434312144208E-01
 cg2d: Sum(rhs),rhsMax =  -2.06551442616387E-11  2.94422658734145E-01
 cg2d: Sum(rhs),rhsMax =  -2.05517824980461E-11  2.95390806752890E-01
 cg2d: Sum(rhs),rhsMax =  -2.04429806416329E-11  2.96338494768070E-01
 cg2d: Sum(rhs),rhsMax =  -2.03389527442255E-11  2.97265530208170E-01
 cg2d: Sum(rhs),rhsMax =  -2.02430294748979E-11  2.98171803379921E-01
 cg2d: Sum(rhs),rhsMax =  -2.01915151265553E-11  2.99057289222370E-01
 cg2d: Sum(rhs),rhsMax =  -2.00903738090119E-11  2.99922036807118E-01
 cg2d: Sum(rhs),rhsMax =  -2.00197636246457E-11  3.00766149135221E-01
 cg2d: Sum(rhs),rhsMax =  -1.99241734222255E-11  3.01589757749998E-01
 cg2d: Sum(rhs),rhsMax =  -1.98203675694231E-11  3.02392997516735E-01
 cg2d: Sum(rhs),rhsMax =  -1.97649674404943E-11  3.03175986372958E-01
 cg2d: Sum(rhs),rhsMax =  -1.96854754719311E-11  3.03938813092105E-01
 cg2d: Sum(rhs),rhsMax =  -1.95929938939798E-11  3.04681533644742E-01
 cg2d: Sum(rhs),rhsMax =  -1.95100602340403E-11  3.05404174280004E-01
 cg2d: Sum(rhs),rhsMax =  -1.93974836193433E-11  3.06106737648286E-01
 cg2d: Sum(rhs),rhsMax =  -1.93490778954697E-11  3.06789207595523E-01
 cg2d: Sum(rhs),rhsMax =  -1.92599269865923E-11  3.07451548823312E-01
 cg2d: Sum(rhs),rhsMax =  -1.91601179366785E-11  3.08093699259158E-01
 cg2d: Sum(rhs),rhsMax =  -1.91161531049033E-11  3.08715555299481E-01
 cg2d: Sum(rhs),rhsMax =  -1.90291116197727E-11  3.09316952505569E-01
 cg2d: Sum(rhs),rhsMax =  -1.89793736282695E-11  3.09897646238456E-01
 cg2d: Sum(rhs),rhsMax =  -1.88310478321796E-11  3.10457297577018E-01
 cg2d: Sum(rhs),rhsMax =  -1.87893034464537E-11  3.10995469337217E-01
 cg2d: Sum(rhs),rhsMax =  -1.87224680203713E-11  3.11511635077256E-01
 cg2d: Sum(rhs),rhsMax =  -1.86248794165067E-11  3.12005200995944E-01
 cg2d: Sum(rhs),rhsMax =  -1.85439441580115E-11  3.12475537331417E-01
 cg2d: Sum(rhs),rhsMax =  -1.84807724679104E-11  3.12922013169805E-01
 cg2d: Sum(rhs),rhsMax =  -1.84263715397037E-11  3.13344027342931E-01
 cg2d: Sum(rhs),rhsMax =  -1.83623116711829E-11  3.13741028837202E-01
 cg2d: Sum(rhs),rhsMax =  -1.83184578617102E-11  3.14112522786517E-01
 cg2d: Sum(rhs),rhsMax =  -1.82877046839280E-11  3.14458062008174E-01
 cg2d: Sum(rhs),rhsMax =  -1.82518444802326E-11  3.14777228067190E-01
 cg2d: Sum(rhs),rhsMax =  -1.81824555411936E-11  3.15069608846327E-01
 cg2d: Sum(rhs),rhsMax =  -1.81586967684666E-11  3.15334780683348E-01
 cg2d: Sum(rhs),rhsMax =  -1.80891968071251E-11  3.15572302017692E-01
 cg2d: Sum(rhs),rhsMax =  -1.80800929783231E-11  3.15781722521054E-01
 cg2d: Sum(rhs),rhsMax =  -1.80122583515185E-11  3.15962607730997E-01
 cg2d: Sum(rhs),rhsMax =  -1.79704029434902E-11  3.16114575337256E-01
 cg2d: Sum(rhs),rhsMax =  -1.80863102272610E-11  3.16237336444865E-01
 cg2d: Sum(rhs),rhsMax =  -1.81137327359693E-11  3.16330733951201E-01
 cg2d: Sum(rhs),rhsMax =  -1.81009651711861E-11  3.16394770749991E-01
 cg2d: Sum(rhs),rhsMax =  -1.80636616775587E-11  3.16429622511126E-01
 cg2d: Sum(rhs),rhsMax =  -1.80914172531743E-11  3.16435632696458E-01
 cg2d: Sum(rhs),rhsMax =  -1.81017423273033E-11  3.16413290580396E-01
 cg2d: Sum(rhs),rhsMax =  -1.81031856172353E-11  3.16363195749857E-01
 cg2d: Sum(rhs),rhsMax =  -1.80492287782386E-11  3.16286014452618E-01
 cg2d: Sum(rhs),rhsMax =  -1.80754300416197E-11  3.16182434070416E-01
 cg2d: Sum(rhs),rhsMax =  -1.80834236473970E-11  3.16053121936322E-01
 cg2d: Sum(rhs),rhsMax =  -1.80842008035142E-11  3.15898693834988E-01
 cg2d: Sum(rhs),rhsMax =  -1.81209491856293E-11  3.15719695987144E-01
 cg2d: Sum(rhs),rhsMax =  -1.81484827166400E-11  3.15516602272741E-01
 cg2d: Sum(rhs),rhsMax =  -1.82079906707600E-11  3.15289826035203E-01
 cg2d: Sum(rhs),rhsMax =  -1.81878956340142E-11  3.15039743252080E-01
 cg2d: Sum(rhs),rhsMax =  -1.81500370288745E-11  3.14766721524763E-01
 cg2d: Sum(rhs),rhsMax =  -1.81489268058499E-11  3.14471147754301E-01
 cg2d: Sum(rhs),rhsMax =  -1.81634707274725E-11  3.14153447087755E-01
 cg2d: Sum(rhs),rhsMax =  -1.81636927720774E-11  3.13814087112099E-01
 cg2d: Sum(rhs),rhsMax =  -1.81998860426802E-11  3.13453564302472E-01
 cg2d: Sum(rhs),rhsMax =  -1.81958892397915E-11  3.13072373838084E-01
 cg2d: Sum(rhs),rhsMax =  -1.82351911348633E-11  3.12670968085898E-01
 cg2d: Sum(rhs),rhsMax =  -1.82210913024505E-11  3.12249712171935E-01
 cg2d: Sum(rhs),rhsMax =  -1.82474035881341E-11  3.11808846196797E-01
 cg2d: Sum(rhs),rhsMax =  -1.82409642945913E-11  3.11348462447608E-01
 cg2d: Sum(rhs),rhsMax =  -1.82399650938692E-11  3.10868502746333E-01
 cg2d: Sum(rhs),rhsMax =  -1.82467374543194E-11  3.10368776764739E-01
 cg2d: Sum(rhs),rhsMax =  -1.82407422499864E-11  3.09848997904053E-01
 cg2d: Sum(rhs),rhsMax =  -1.82517334579302E-11  3.09308830236793E-01
 cg2d: Sum(rhs),rhsMax =  -1.82402981607765E-11  3.08747938662190E-01
 cg2d: Sum(rhs),rhsMax =  -1.82552861716090E-11  3.08166034893041E-01
 cg2d: Sum(rhs),rhsMax =  -1.83227877315062E-11  3.07562913736273E-01
 cg2d: Sum(rhs),rhsMax =  -1.83998372094152E-11  3.06938476648114E-01
 cg2d: Sum(rhs),rhsMax =  -1.84702253491764E-11  3.06292742035834E-01
 cg2d: Sum(rhs),rhsMax =  -1.85762516480281E-11  3.05625843751669E-01
 cg2d: Sum(rhs),rhsMax =  -1.86993753814590E-11  3.04938020482626E-01
 cg2d: Sum(rhs),rhsMax =  -1.88319360105993E-11  3.04229599319884E-01
 cg2d: Sum(rhs),rhsMax =  -1.89250837223653E-11  3.03500976834702E-01
 cg2d: Sum(rhs),rhsMax =  -1.90344406902909E-11  3.02752600615776E-01
 cg2d: Sum(rhs),rhsMax =  -1.91650029179868E-11  3.01984953493066E-01
 cg2d: Sum(rhs),rhsMax =  -1.92549309829815E-11  3.01198541623654E-01
 cg2d: Sum(rhs),rhsMax =  -1.93439708695564E-11  3.00393886354894E-01
 cg2d: Sum(rhs),rhsMax =  -1.94783078555361E-11  2.99571518545243E-01
 cg2d: Sum(rhs),rhsMax =  -1.95830018867582E-11  2.98731973145504E-01
 cg2d: Sum(rhs),rhsMax =  -1.97024618842079E-11  2.97875781632135E-01
 cg2d: Sum(rhs),rhsMax =  -1.98240313054043E-11  2.97003460479640E-01
 cg2d: Sum(rhs),rhsMax =  -1.99289473812314E-11  2.96115495138858E-01
 cg2d: Sum(rhs),rhsMax =  -2.00719441068031E-11  2.95212320585236E-01
 cg2d: Sum(rhs),rhsMax =  -2.01836325430804E-11  2.94294300928799E-01
 cg2d: Sum(rhs),rhsMax =  -2.03145278376837E-11  2.93361711402715E-01
 cg2d: Sum(rhs),rhsMax =  -2.04526395819471E-11  2.92414726037393E-01
 cg2d: Sum(rhs),rhsMax =  -2.05786498952421E-11  2.91453413507835E-01
 cg2d: Sum(rhs),rhsMax =  -2.07395212115102E-11  2.90477742258608E-01
 cg2d: Sum(rhs),rhsMax =  -2.08981720817292E-11  2.89487594423351E-01
 cg2d: Sum(rhs),rhsMax =  -2.09935402395445E-11  2.88482786623421E-01
 cg2d: Sum(rhs),rhsMax =  -2.11725081911140E-11  2.87463094727184E-01
 cg2d: Sum(rhs),rhsMax =  -2.13435935592088E-11  2.86428279231471E-01
 cg2d: Sum(rhs),rhsMax =  -2.14989137603538E-11  2.85378108127041E-01
 cg2d: Sum(rhs),rhsMax =  -2.16419104859256E-11  2.84312374872066E-01
 cg2d: Sum(rhs),rhsMax =  -2.18380868943768E-11  2.83230910286228E-01
 cg2d: Sum(rhs),rhsMax =  -2.20063967049100E-11  2.82133588590305E-01
 cg2d: Sum(rhs),rhsMax =  -2.21594964600058E-11  2.81020329191726E-01
 cg2d: Sum(rhs),rhsMax =  -2.23420171252542E-11  2.79891096858737E-01
 cg2d: Sum(rhs),rhsMax =  -2.25447438495507E-11  2.78745903350351E-01
 cg2d: Sum(rhs),rhsMax =  -2.27076135672633E-11  2.77584813177886E-01
 cg2d: Sum(rhs),rhsMax =  -2.28486118913906E-11  2.76407954938806E-01
 cg2d: Sum(rhs),rhsMax =  -2.30273577983553E-11  2.75215537787568E-01
 cg2d: Sum(rhs),rhsMax =  -2.32177610470785E-11  2.74007870525198E-01
 cg2d: Sum(rhs),rhsMax =  -2.33706387575694E-11  2.72785379078883E-01
 cg2d: Sum(rhs),rhsMax =  -2.35818031768531E-11  2.71548617368045E-01
 cg2d: Sum(rhs),rhsMax =  -2.37798669644462E-11  2.70298267065336E-01
 cg2d: Sum(rhs),rhsMax =  -2.39724906592187E-11  2.69035123548206E-01
 cg2d: Sum(rhs),rhsMax =  -2.41459074956651E-11  2.67760067986352E-01
 cg2d: Sum(rhs),rhsMax =  -2.43253195364446E-11  2.66474028318294E-01
 cg2d: Sum(rhs),rhsMax =  -2.45385933794751E-11  2.65177934069830E-01
 cg2d: Sum(rhs),rhsMax =  -2.47594167390730E-11  2.63872670991173E-01
 cg2d: Sum(rhs),rhsMax =  -2.49661402662582E-11  2.62559041161922E-01
 cg2d: Sum(rhs),rhsMax =  -2.51836329567823E-11  2.61237732786944E-01
 cg2d: Sum(rhs),rhsMax =  -2.53868037702887E-11  2.59909301939026E-01
 cg2d: Sum(rhs),rhsMax =  -2.55943044535911E-11  2.58574166624749E-01
 cg2d: Sum(rhs),rhsMax =  -2.57984744678197E-11  2.57232612222051E-01
 cg2d: Sum(rhs),rhsMax =  -2.59952059877833E-11  2.55884806715260E-01
(PID.TID 0000.0001)      cg2d_init_res =   7.38851228751231E-02
(PID.TID 0000.0001)      cg2d_iters(min,last) =      -1      29
(PID.TID 0000.0001)      cg2d_last_res =   6.17930619686516E-14
(PID.TID 0000.0001) // =======================================================
(PID.TID 0000.0001) // Begin MONITOR dynamic field statistics
(PID.TID 0000.0001) // =======================================================
(PID.TID 0000.0001) %MON time_tsnumber                =                  4800
(PID.TID 0000.0001) %MON time_secondsf                =   7.2000000000000E+04
(PID.TID 0000.0001) %MON dynstat_eta_max              =   2.7927372908869E-02
(PID.TID 0000.0001) %MON dynstat_eta_min              =  -2.0795357565452E-02
(PID.TID 0000.0001) %MON dynstat_eta_mean             =   7.7150809736332E-15
(PID.TID 0000.0001) %MON dynstat_eta_sd               =   1.4612216533750E-02
(PID.TID 0000.0001) %MON dynstat_eta_del2             =   2.8036699299547E-04
(PID.TID 0000.0001) %MON dynstat_uvel_max             =   1.3180427340227E+00
(PID.TID 0000.0001) %MON dynstat_uvel_min             =  -7.2932129402872E-01
(PID.TID 0000.0001) %MON dynstat_uvel_mean            =  -1.1826464262564E-03
(PID.TID 0000.0001) %MON dynstat_uvel_sd              =   2.6671741096302E-01
(PID.TID 0000.0001) %MON dynstat_uvel_del2            =   1.0587939588050E-03
(PID.TID 0000.0001) %MON dynstat_vvel_max             =   0.0000000000000E+00
(PID.TID 0000.0001) %MON dynstat_vvel_min             =   0.0000000000000E+00
(PID.TID 0000.0001) %MON dynstat_vvel_mean            =   0.0000000000000E+00
(PID.TID 0000.0001) %MON dynstat_vvel_sd              =   0.0000000000000E+00
(PID.TID 0000.0001) %MON dynstat_vvel_del2            =   0.0000000000000E+00
(PID.TID 0000.0001) %MON dynstat_wvel_max             =   3.9171198182740E-02
(PID.TID 0000.0001) %MON dynstat_wvel_min             =  -3.0861673346507E-02
(PID.TID 0000.0001) %MON dynstat_wvel_mean            =  -2.2446727405616E-20
(PID.TID 0000.0001) %MON dynstat_wvel_sd              =   5.4147380247806E-03
(PID.TID 0000.0001) %MON dynstat_wvel_del2            =   1.1151097407254E-04
(PID.TID 0000.0001) %MON dynstat_theta_max            =   1.4976502386244E+01
(PID.TID 0000.0001) %MON dynstat_theta_min            =   9.9765023856418E+00
(PID.TID 0000.0001) %MON dynstat_theta_mean           =   1.2377010128420E+01
(PID.TID 0000.0001) %MON dynstat_theta_sd             =   2.2507838469804E+00
(PID.TID 0000.0001) %MON dynstat_theta_del2           =   2.4934858838725E-03
(PID.TID 0000.0001) %MON dynstat_salt_max             =   3.5000000000000E+01
(PID.TID 0000.0001) %MON dynstat_salt_min             =   3.5000000000000E+01
(PID.TID 0000.0001) %MON dynstat_salt_mean            =   3.5000000000000E+01
(PID.TID 0000.0001) %MON dynstat_salt_sd              =   3.4816594052245E-13
(PID.TID 0000.0001) %MON dynstat_salt_del2            =   0.0000000000000E+00
(PID.TID 0000.0001) %MON dynstat_sst_max              =   1.4976502385655E+01
(PID.TID 0000.0001) %MON dynstat_sst_min              =   1.4588608645144E+01
(PID.TID 0000.0001) %MON dynstat_sst_mean             =   1.4899167991982E+01
(PID.TID 0000.0001) %MON dynstat_sst_sd               =   1.3077465754762E-01
(PID.TID 0000.0001) %MON dynstat_sst_del2             =   8.2333482234644E-04
(PID.TID 0000.0001) %MON dynstat_sss_max              =   3.5000000000000E+01
(PID.TID 0000.0001) %MON dynstat_sss_min              =   3.5000000000000E+01
(PID.TID 0000.0001) %MON dynstat_sss_mean             =   3.5000000000000E+01
(PID.TID 0000.0001) %MON dynstat_sss_sd               =   3.5527136788005E-14
(PID.TID 0000.0001) %MON dynstat_sss_del2             =   0.0000000000000E+00
(PID.TID 0000.0001) %MON forcing_qnet_max             =   0.0000000000000E+00
(PID.TID 0000.0001) %MON forcing_qnet_min             =   0.0000000000000E+00
(PID.TID 0000.0001) %MON forcing_qnet_mean            =   0.0000000000000E+00
(PID.TID 0000.0001) %MON forcing_qnet_sd              =   0.0000000000000E+00
(PID.TID 0000.0001) %MON forcing_qnet_del2            =   0.0000000000000E+00
(PID.TID 0000.0001) %MON forcing_qsw_max              =   0.0000000000000E+00
(PID.TID 0000.0001) %MON forcing_qsw_min              =   0.0000000000000E+00
(PID.TID 0000.0001) %MON forcing_qsw_mean             =   0.0000000000000E+00
(PID.TID 0000.0001) %MON forcing_qsw_sd               =   0.0000000000000E+00
(PID.TID 0000.0001) %MON forcing_qsw_del2             =   0.0000000000000E+00
(PID.TID 0000.0001) %MON forcing_empmr_max            =   0.0000000000000E+00
(PID.TID 0000.0001) %MON forcing_empmr_min            =   0.0000000000000E+00
(PID.TID 0000.0001) %MON forcing_empmr_mean           =   0.0000000000000E+00
(PID.TID 0000.0001) %MON forcing_empmr_sd             =   0.0000000000000E+00
(PID.TID 0000.0001) %MON forcing_empmr_del2           =   0.0000000000000E+00
(PID.TID 0000.0001) %MON forcing_fu_max               =   0.0000000000000E+00
(PID.TID 0000.0001) %MON forcing_fu_min               =   0.0000000000000E+00
(PID.TID 0000.0001) %MON forcing_fu_mean              =   0.0000000000000E+00
(PID.TID 0000.0001) %MON forcing_fu_sd                =   0.0000000000000E+00
(PID.TID 0000.0001) %MON forcing_fu_del2              =   0.0000000000000E+00
(PID.TID 0000.0001) %MON forcing_fv_max               =   0.0000000000000E+00
(PID.TID 0000.0001) %MON forcing_fv_min               =   0.0000000000000E+00
(PID.TID 0000.0001) %MON forcing_fv_mean              =   0.0000000000000E+00
(PID.TID 0000.0001) %MON forcing_fv_sd                =   0.0000000000000E+00
(PID.TID 0000.0001) %MON forcing_fv_del2              =   0.0000000000000E+00
(PID.TID 0000.0001) %MON advcfl_uvel_max              =   7.6803342067193E-02
(PID.TID 0000.0001) %MON advcfl_vvel_max              =   0.0000000000000E+00
(PID.TID 0000.0001) %MON advcfl_wvel_max              =   2.4764717701586E-01
(PID.TID 0000.0001) %MON advcfl_W_hf_max              =   2.4954108882626E-01
(PID.TID 0000.0001) %MON pe_b_mean                    =   5.9939051488108E-06
(PID.TID 0000.0001) %MON ke_max                       =   7.1161564765539E-01
(PID.TID 0000.0001) %MON ke_mean                      =   3.5963524871282E-02
(PID.TID 0000.0001) %MON ke_vol                       =   8.5337279889550E+10
(PID.TID 0000.0001) %MON vort_r_min                   =   0.0000000000000E+00
(PID.TID 0000.0001) %MON vort_r_max                   =   0.0000000000000E+00
(PID.TID 0000.0001) %MON vort_a_mean                  =   0.0000000000000E+00
(PID.TID 0000.0001) %MON vort_a_sd                    =   0.0000000000000E+00
(PID.TID 0000.0001) %MON vort_p_mean                  =   0.0000000000000E+00
(PID.TID 0000.0001) %MON vort_p_sd                    =   0.0000000000000E+00
(PID.TID 0000.0001) %MON surfExpan_theta_mean         =  -6.5155584867134E-07
(PID.TID 0000.0001) %MON surfExpan_salt_mean          =   3.9385203481877E-19
(PID.TID 0000.0001) // =======================================================
(PID.TID 0000.0001) // End MONITOR dynamic field statistics
(PID.TID 0000.0001) // =======================================================
(PID.TID 0000.0001) // =======================================================
(PID.TID 0000.0001) // Begin OBCS MONITOR field statistics
(PID.TID 0000.0001) // =======================================================
(PID.TID 0000.0001) %MON obc_E_uVel_max               =   0.0000000000000E+00
(PID.TID 0000.0001) %MON obc_E_uVel_min               =   0.0000000000000E+00
(PID.TID 0000.0001) %MON obc_E_uVel_mean              =   0.0000000000000E+00
(PID.TID 0000.0001) %MON obc_E_uVel_sd                =   0.0000000000000E+00
(PID.TID 0000.0001) %MON obc_E_uVel_Int               =   0.0000000000000E+00
(PID.TID 0000.0001) %MON obc_W_uVel_max               =   0.0000000000000E+00
(PID.TID 0000.0001) %MON obc_W_uVel_min               =   0.0000000000000E+00
(PID.TID 0000.0001) %MON obc_W_uVel_mean              =   0.0000000000000E+00
(PID.TID 0000.0001) %MON obc_W_uVel_sd                =   0.0000000000000E+00
(PID.TID 0000.0001) %MON obc_W_uVel_Int               =   0.0000000000000E+00
(PID.TID 0000.0001) // =======================================================
(PID.TID 0000.0001) // End OBCS MONITOR field statistics
(PID.TID 0000.0001) // =======================================================
 cg2d: Sum(rhs),rhsMax =  -2.61782817645440E-11  2.54530824077936E-01
 cg2d: Sum(rhs),rhsMax =  -2.63095101260546E-11  2.53170674280880E-01
 cg2d: Sum(rhs),rhsMax =  -2.63912225406671E-11  2.51804338386834E-01
 cg2d: Sum(rhs),rhsMax =  -2.64759325574460E-11  2.50431806852037E-01
 cg2d: Sum(rhs),rhsMax =  -2.65143462740980E-11  2.49053118542368E-01
 cg2d: Sum(rhs),rhsMax =  -2.65995003800867E-11  2.47668397341747E-01
 cg2d: Sum(rhs),rhsMax =  -2.66477950816579E-11  2.46277882911207E-01
 cg2d: Sum(rhs),rhsMax =  -2.67265098941039E-11  2.44881952399277E-01
 cg2d: Sum(rhs),rhsMax =  -2.67814659338228E-11  2.43481130770062E-01
 cg2d: Sum(rhs),rhsMax =  -2.68713939988174E-11  2.42076088752954E-01
 cg2d: Sum(rhs),rhsMax =  -2.70103939215005E-11  2.40667628928485E-01
 cg2d: Sum(rhs),rhsMax =  -2.71789257766386E-11  2.39256661822302E-01
 cg2d: Sum(rhs),rhsMax =  -2.73971956232799E-11  2.37844174842289E-01
 cg2d: Sum(rhs),rhsMax =  -2.76091371986809E-11  2.36431197362885E-01
 cg2d: Sum(rhs),rhsMax =  -2.78347345172847E-11  2.35018765263241E-01
 cg2d: Sum(rhs),rhsMax =  -2.80762080251407E-11  2.33607887858233E-01
 cg2d: Sum(rhs),rhsMax =  -2.83332246553414E-11  2.32199519529774E-01
 cg2d: Sum(rhs),rhsMax =  -2.85590440185501E-11  2.30794537561714E-01
 cg2d: Sum(rhs),rhsMax =  -2.87988521918692E-11  2.29393726794998E-01
 cg2d: Sum(rhs),rhsMax =  -2.90505397515517E-11  2.27997770864650E-01
 cg2d: Sum(rhs),rhsMax =  -2.92865731665870E-11  2.26607249098861E-01
 cg2d: Sum(rhs),rhsMax =  -2.95129476413081E-11  2.25222637789516E-01
 cg2d: Sum(rhs),rhsMax =  -2.97516455916025E-11  2.23844314554840E-01
 cg2d: Sum(rhs),rhsMax =  -2.99974489692545E-11  2.22472564866250E-01
 cg2d: Sum(rhs),rhsMax =  -3.02191605072721E-11  2.21107590340415E-01
 cg2d: Sum(rhs),rhsMax =  -3.04682945539980E-11  2.19749518870576E-01
 cg2d: Sum(rhs),rhsMax =  -3.07281977640628E-11  2.18398416871103E-01
 cg2d: Sum(rhs),rhsMax =  -3.09743342086222E-11  2.17054303721841E-01
 cg2d: Sum(rhs),rhsMax =  -3.11745074199621E-11  2.15717167960692E-01
 cg2d: Sum(rhs),rhsMax =  -3.13858938838507E-11  2.14386984066479E-01
 cg2d: Sum(rhs),rhsMax =  -3.16072723549610E-11  2.13063728073048E-01
 cg2d: Sum(rhs),rhsMax =  -3.18562953793844E-11  2.11747390046898E-01
 cg2d: Sum(rhs),rhsMax =  -3.21064286268324E-11  2.10437981863371E-01
 cg2d: Sum(rhs),rhsMax =  -3.23201465590728E-11  2.09135539807955E-01
 cg2d: Sum(rhs),rhsMax =  -3.25731663863849E-11  2.07840123186352E-01
 cg2d: Sum(rhs),rhsMax =  -3.27967653035444E-11  2.06551811994478E-01
 cg2d: Sum(rhs),rhsMax =  -3.29830607270765E-11  2.05270708216864E-01
 cg2d: Sum(rhs),rhsMax =  -3.31683569498864E-11  2.03996945835898E-01
 cg2d: Sum(rhs),rhsMax =  -3.33565397525604E-11  2.02730713604830E-01
 cg2d: Sum(rhs),rhsMax =  -3.35590444322520E-11  2.01472291884672E-01
 cg2d: Sum(rhs),rhsMax =  -3.37490035917654E-11  2.00222100742843E-01
 cg2d: Sum(rhs),rhsMax =  -3.39653860592648E-11  1.98980752012608E-01
 cg2d: Sum(rhs),rhsMax =  -3.42008643627878E-11  1.97749094447125E-01
 cg2d: Sum(rhs),rhsMax =  -3.44339001756566E-11  1.96528239775530E-01
 cg2d: Sum(rhs),rhsMax =  -3.46709327914141E-11  1.95319559194845E-01
 cg2d: Sum(rhs),rhsMax =  -3.49030804258632E-11  1.94124644579221E-01
 cg2d: Sum(rhs),rhsMax =  -3.52063933561908E-11  1.92945235496424E-01
 cg2d: Sum(rhs),rhsMax =  -3.54929419188466E-11  1.91783120336385E-01
 cg2d: Sum(rhs),rhsMax =  -3.57273099993449E-11  1.90640025615514E-01
 cg2d: Sum(rhs),rhsMax =  -3.60124152720687E-11  1.89517510315832E-01
 cg2d: Sum(rhs),rhsMax =  -3.62964103217678E-11  1.88416881244982E-01
 cg2d: Sum(rhs),rhsMax =  -3.66028318765643E-11  1.87339141146339E-01
 cg2d: Sum(rhs),rhsMax =  -3.68833852348871E-11  1.86284974801695E-01
 cg2d: Sum(rhs),rhsMax =  -3.65540930857833E-11  1.88295479284802E-01
 cg2d: Sum(rhs),rhsMax =  -3.62982977009096E-11  1.90023116242044E-01
 cg2d: Sum(rhs),rhsMax =  -3.61036756046929E-11  1.91362764566777E-01
 cg2d: Sum(rhs),rhsMax =  -3.59685614625960E-11  1.92311195549998E-01
 cg2d: Sum(rhs),rhsMax =  -3.58472140860044E-11  1.92848054378256E-01
 cg2d: Sum(rhs),rhsMax =  -3.58298946068203E-11  1.92931632725836E-01
 cg2d: Sum(rhs),rhsMax =  -3.58526541788251E-11  1.92560503844411E-01
 cg2d: Sum(rhs),rhsMax =  -3.59401397531656E-11  1.91712546565055E-01
 cg2d: Sum(rhs),rhsMax =  -3.61215501953893E-11  1.90369357324043E-01
 cg2d: Sum(rhs),rhsMax =  -3.63971075501013E-11  1.88551129896965E-01
 cg2d: Sum(rhs),rhsMax =  -3.62936347642062E-11  1.88623436643590E-01
 cg2d: Sum(rhs),rhsMax =  -3.60215191008706E-11  1.89625034996814E-01
 cg2d: Sum(rhs),rhsMax =  -3.57254226202031E-11  1.90579272700483E-01
 cg2d: Sum(rhs),rhsMax =  -3.54369866784054E-11  1.91480096921191E-01
 cg2d: Sum(rhs),rhsMax =  -3.50816042882229E-11  1.92888008463492E-01
 cg2d: Sum(rhs),rhsMax =  -3.39214212274896E-11  1.99090411410413E-01
 cg2d: Sum(rhs),rhsMax =  -3.29271054866354E-11  2.04596828781225E-01
 cg2d: Sum(rhs),rhsMax =  -3.20955484411911E-11  2.09268253807960E-01
 cg2d: Sum(rhs),rhsMax =  -3.14215320429412E-11  2.13264450189805E-01
 cg2d: Sum(rhs),rhsMax =  -3.08860714781645E-11  2.16415586103183E-01
 cg2d: Sum(rhs),rhsMax =  -3.04744007806335E-11  2.18885330709995E-01
 cg2d: Sum(rhs),rhsMax =  -3.01767499877315E-11  2.20642614653318E-01
 cg2d: Sum(rhs),rhsMax =  -2.99726909958054E-11  2.21655541316476E-01
 cg2d: Sum(rhs),rhsMax =  -2.98839841761378E-11  2.21908532300879E-01
 cg2d: Sum(rhs),rhsMax =  -2.99044122797909E-11  2.21478999936892E-01
 cg2d: Sum(rhs),rhsMax =  -3.00076630210810E-11  2.20374626938006E-01
 cg2d: Sum(rhs),rhsMax =  -3.02085023662357E-11  2.18597001986216E-01
 cg2d: Sum(rhs),rhsMax =  -3.05158120994520E-11  2.16179672940343E-01
 cg2d: Sum(rhs),rhsMax =  -3.09378078711120E-11  2.13085589768589E-01
 cg2d: Sum(rhs),rhsMax =  -3.14354098307490E-11  2.09433775703164E-01
 cg2d: Sum(rhs),rhsMax =  -3.20758974936552E-11  2.05087384206793E-01
 cg2d: Sum(rhs),rhsMax =  -3.28457261389303E-11  2.00255629233854E-01
 cg2d: Sum(rhs),rhsMax =  -3.31131788655625E-11  1.98737536424785E-01
 cg2d: Sum(rhs),rhsMax =  -3.30331317854871E-11  1.98645223213793E-01
 cg2d: Sum(rhs),rhsMax =  -3.30538929560475E-11  1.98505659109995E-01
 cg2d: Sum(rhs),rhsMax =  -3.30947491633538E-11  1.98321850150111E-01
 cg2d: Sum(rhs),rhsMax =  -3.31475957793259E-11  1.98096094140318E-01
 cg2d: Sum(rhs),rhsMax =  -3.31932259456380E-11  1.97832084683249E-01
 cg2d: Sum(rhs),rhsMax =  -3.32410765579993E-11  1.97527932112206E-01
 cg2d: Sum(rhs),rhsMax =  -3.32887051257558E-11  1.97183731484507E-01
 cg2d: Sum(rhs),rhsMax =  -3.33644223360352E-11  1.96789350537881E-01
 cg2d: Sum(rhs),rhsMax =  -3.34325900297472E-11  1.96360886317363E-01
 cg2d: Sum(rhs),rhsMax =  -3.35060867939774E-11  1.95893695961196E-01
 cg2d: Sum(rhs),rhsMax =  -3.35703687071032E-11  1.95385856272029E-01
 cg2d: Sum(rhs),rhsMax =  -3.36548566792771E-11  1.94838460622399E-01
 cg2d: Sum(rhs),rhsMax =  -3.37436745212472E-11  1.94253189435254E-01
 cg2d: Sum(rhs),rhsMax =  -3.38324923632172E-11  1.93630177620223E-01
 cg2d: Sum(rhs),rhsMax =  -3.39236416735389E-11  1.92968971372241E-01
 cg2d: Sum(rhs),rhsMax =  -3.39730465981347E-11  1.92270146817810E-01
 cg2d: Sum(rhs),rhsMax =  -3.29039018254207E-11  1.98046800218715E-01
 cg2d: Sum(rhs),rhsMax =  -3.15086845503743E-11  2.06427059756631E-01
 cg2d: Sum(rhs),rhsMax =  -3.02835534427004E-11  2.14190155115272E-01
 cg2d: Sum(rhs),rhsMax =  -2.93537416595768E-11  2.20745834341914E-01
 cg2d: Sum(rhs),rhsMax =  -2.84594570132413E-11  2.27135912446797E-01
 cg2d: Sum(rhs),rhsMax =  -2.77020628658420E-11  2.32866157551211E-01
 cg2d: Sum(rhs),rhsMax =  -2.70622413367505E-11  2.37893582974698E-01
 cg2d: Sum(rhs),rhsMax =  -2.65113486719315E-11  2.42234128425136E-01
 cg2d: Sum(rhs),rhsMax =  -2.60467203361259E-11  2.45873214753435E-01
 cg2d: Sum(rhs),rhsMax =  -2.57064369790783E-11  2.48796673786340E-01
 cg2d: Sum(rhs),rhsMax =  -2.54273269106875E-11  2.51008283016774E-01
 cg2d: Sum(rhs),rhsMax =  -2.52337040151929E-11  2.52520655127843E-01
 cg2d: Sum(rhs),rhsMax =  -2.51177967314220E-11  2.53224606142205E-01
 cg2d: Sum(rhs),rhsMax =  -2.50481857477780E-11  2.53476615603967E-01
 cg2d: Sum(rhs),rhsMax =  -2.50631737586104E-11  2.52878687305748E-01
 cg2d: Sum(rhs),rhsMax =  -2.51464404854573E-11  2.51673729316516E-01
 cg2d: Sum(rhs),rhsMax =  -2.53129739391511E-11  2.49828156429442E-01
 cg2d: Sum(rhs),rhsMax =  -2.55366838786131E-11  2.47321548686198E-01
 cg2d: Sum(rhs),rhsMax =  -2.58236765304787E-11  2.44255131807103E-01
 cg2d: Sum(rhs),rhsMax =  -2.62165844588935E-11  2.40596417305979E-01
 cg2d: Sum(rhs),rhsMax =  -2.66704436313603E-11  2.36330364737147E-01
 cg2d: Sum(rhs),rhsMax =  -2.72026845493656E-11  2.31550262091835E-01
 cg2d: Sum(rhs),rhsMax =  -2.78151945920513E-11  2.26305796709191E-01
 cg2d: Sum(rhs),rhsMax =  -2.85300671976074E-11  2.20496540670677E-01
 cg2d: Sum(rhs),rhsMax =  -2.93223223479799E-11  2.14303670777062E-01
 cg2d: Sum(rhs),rhsMax =  -3.02190494849697E-11  2.07696523436513E-01
 cg2d: Sum(rhs),rhsMax =  -3.11826120480418E-11  2.00835812282229E-01
 cg2d: Sum(rhs),rhsMax =  -3.19027027018137E-11  1.96142578823322E-01
 cg2d: Sum(rhs),rhsMax =  -3.18398640786199E-11  1.96199154316468E-01
 cg2d: Sum(rhs),rhsMax =  -3.18165493951028E-11  1.96242934081996E-01
 cg2d: Sum(rhs),rhsMax =  -3.17476045452736E-11  1.96273085290816E-01
 cg2d: Sum(rhs),rhsMax =  -3.16876525019438E-11  1.96289160694684E-01
 cg2d: Sum(rhs),rhsMax =  -3.16463522054278E-11  1.96291055372582E-01
 cg2d: Sum(rhs),rhsMax =  -3.15973913700418E-11  1.96278579019658E-01
 cg2d: Sum(rhs),rhsMax =  -3.15369952375022E-11  1.96251296293332E-01
 cg2d: Sum(rhs),rhsMax =  -3.14663850531360E-11  1.96208317428113E-01
 cg2d: Sum(rhs),rhsMax =  -3.14147596824910E-11  1.96149193069277E-01
 cg2d: Sum(rhs),rhsMax =  -3.13474801671987E-11  1.96074665095889E-01
 cg2d: Sum(rhs),rhsMax =  -3.13229442383545E-11  1.95985627531105E-01
 cg2d: Sum(rhs),rhsMax =  -3.12507797417538E-11  1.95882069178232E-01
 cg2d: Sum(rhs),rhsMax =  -3.12020409509728E-11  1.95763255983755E-01
 cg2d: Sum(rhs),rhsMax =  -3.11352055248904E-11  1.95627850157646E-01
 cg2d: Sum(rhs),rhsMax =  -3.10779180168197E-11  1.95473868466018E-01
 cg2d: Sum(rhs),rhsMax =  -3.10288461591313E-11  1.95299408803439E-01
 cg2d: Sum(rhs),rhsMax =  -3.09771097661837E-11  1.95103784088343E-01
 cg2d: Sum(rhs),rhsMax =  -3.09320347113839E-11  1.94888488099231E-01
 cg2d: Sum(rhs),rhsMax =  -3.09111625185210E-11  1.94655780413186E-01
 cg2d: Sum(rhs),rhsMax =  -3.09228198602796E-11  1.94406342196781E-01
 cg2d: Sum(rhs),rhsMax =  -3.09531289488518E-11  1.94139001669321E-01
 cg2d: Sum(rhs),rhsMax =  -3.09566816625306E-11  1.93851251447636E-01
 cg2d: Sum(rhs),rhsMax =  -3.08865155673743E-11  1.93540962488583E-01
 cg2d: Sum(rhs),rhsMax =  -3.07174286007239E-11  1.94297772612179E-01
 cg2d: Sum(rhs),rhsMax =  -3.04299918596485E-11  1.95448854951846E-01
 cg2d: Sum(rhs),rhsMax =  -3.01405567171287E-11  1.96617362712235E-01
 cg2d: Sum(rhs),rhsMax =  -2.98133739917716E-11  1.97802851531820E-01
 cg2d: Sum(rhs),rhsMax =  -2.95374835701523E-11  1.99004884203980E-01
 cg2d: Sum(rhs),rhsMax =  -2.92279533908868E-11  2.00223035848005E-01
 cg2d: Sum(rhs),rhsMax =  -2.89521739915699E-11  2.01456889683698E-01
 cg2d: Sum(rhs),rhsMax =  -2.87107004837139E-11  2.02706027087043E-01
 cg2d: Sum(rhs),rhsMax =  -2.84285928131567E-11  2.03970016241787E-01
 cg2d: Sum(rhs),rhsMax =  -2.81114020950213E-11  2.05248403042319E-01
 cg2d: Sum(rhs),rhsMax =  -2.77996514697065E-11  2.06540706251645E-01
 cg2d: Sum(rhs),rhsMax =  -2.75534040028447E-11  2.07846416895702E-01
 cg2d: Sum(rhs),rhsMax =  -2.72667444178865E-11  2.09165000192158E-01
 cg2d: Sum(rhs),rhsMax =  -2.69990696466493E-11  2.10495897500999E-01
 cg2d: Sum(rhs),rhsMax =  -2.67253996710792E-11  2.11838526012599E-01
 cg2d: Sum(rhs),rhsMax =  -2.64388511084235E-11  2.13192274926600E-01
 cg2d: Sum(rhs),rhsMax =  -2.61766164300070E-11  2.14556498228112E-01
 cg2d: Sum(rhs),rhsMax =  -2.59553489811992E-11  2.15930505303204E-01
 cg2d: Sum(rhs),rhsMax =  -2.56707988199878E-11  2.17313551191876E-01
 cg2d: Sum(rhs),rhsMax =  -2.54009036027014E-11  2.18704828172699E-01
 cg2d: Sum(rhs),rhsMax =  -2.51260123818042E-11  2.20103459786550E-01
 cg2d: Sum(rhs),rhsMax =  -2.48726594875848E-11  2.21508497655981E-01
 cg2d: Sum(rhs),rhsMax =  -2.46144216120570E-11  2.22918920860226E-01
 cg2d: Sum(rhs),rhsMax =  -2.43733921934108E-11  2.24333637402837E-01
 cg2d: Sum(rhs),rhsMax =  -2.41116016042042E-11  2.25751487545493E-01
 cg2d: Sum(rhs),rhsMax =  -2.38513653272321E-11  2.27171249440934E-01
 cg2d: Sum(rhs),rhsMax =  -2.36288766330972E-11  2.28591648432928E-01
 cg2d: Sum(rhs),rhsMax =  -2.34089414519190E-11  2.30011372337420E-01
 cg2d: Sum(rhs),rhsMax =  -2.31575869591438E-11  2.31429095592844E-01
 cg2d: Sum(rhs),rhsMax =  -2.29042340649244E-11  2.32843514919555E-01
 cg2d: Sum(rhs),rhsMax =  -2.27016183629303E-11  2.34253397690578E-01
 cg2d: Sum(rhs),rhsMax =  -2.25531815445379E-11  2.35657641515461E-01
 cg2d: Sum(rhs),rhsMax =  -2.24416041305631E-11  2.37055339978524E-01
 cg2d: Sum(rhs),rhsMax =  -2.24413820859581E-11  2.38445845951005E-01
 cg2d: Sum(rhs),rhsMax =  -2.24530394277167E-11  2.39828821595338E-01
 cg2d: Sum(rhs),rhsMax =  -2.24616991673088E-11  2.41204264156712E-01
 cg2d: Sum(rhs),rhsMax =  -2.24855689623382E-11  2.42572499381773E-01
 cg2d: Sum(rhs),rhsMax =  -2.24512630708773E-11  2.43934139561785E-01
 cg2d: Sum(rhs),rhsMax =  -2.23163709733853E-11  2.45290009602496E-01
 cg2d: Sum(rhs),rhsMax =  -2.21260787469646E-11  2.46641050554256E-01
 cg2d: Sum(rhs),rhsMax =  -2.18793871908929E-11  2.47988214148551E-01
 cg2d: Sum(rhs),rhsMax =  -2.16807682917874E-11  2.49332363106045E-01
 cg2d: Sum(rhs),rhsMax =  -2.14599449321895E-11  2.50674190165029E-01
 cg2d: Sum(rhs),rhsMax =  -2.12441175762024E-11  2.52014164578498E-01
 cg2d: Sum(rhs),rhsMax =  -2.10087502949818E-11  2.53352509397645E-01
 cg2d: Sum(rhs),rhsMax =  -2.08069117491050E-11  2.54689207472639E-01
 cg2d: Sum(rhs),rhsMax =  -2.05920835938400E-11  2.56024029823634E-01
 cg2d: Sum(rhs),rhsMax =  -2.04094519062892E-11  2.57356577541369E-01
 cg2d: Sum(rhs),rhsMax =  -2.02262651072260E-11  2.58686327913618E-01
 cg2d: Sum(rhs),rhsMax =  -2.00260918958861E-11  2.60012676895326E-01
 cg2d: Sum(rhs),rhsMax =  -1.98219218816575E-11  2.61334972862717E-01
 cg2d: Sum(rhs),rhsMax =  -1.95946592285168E-11  2.62652540052388E-01
 cg2d: Sum(rhs),rhsMax =  -1.93853821883749E-11  2.63964693250298E-01
 cg2d: Sum(rhs),rhsMax =  -1.91825444417759E-11  2.65270747255220E-01
 cg2d: Sum(rhs),rhsMax =  -1.89473992051603E-11  2.66570024801375E-01
 cg2d: Sum(rhs),rhsMax =  -1.87562188003199E-11  2.67861864973360E-01
 cg2d: Sum(rhs),rhsMax =  -1.85494952731347E-11  2.69145631364876E-01
 cg2d: Sum(rhs),rhsMax =  -1.83676407417011E-11  2.70420716533680E-01
 cg2d: Sum(rhs),rhsMax =  -1.81802350951443E-11  2.71686538000335E-01
 cg2d: Sum(rhs),rhsMax =  -1.80141457306604E-11  2.72942521992016E-01
 cg2d: Sum(rhs),rhsMax =  -1.78317360877145E-11  2.74188074340553E-01
 cg2d: Sum(rhs),rhsMax =  -1.76556547160089E-11  2.75422542449291E-01
 cg2d: Sum(rhs),rhsMax =  -1.75074399422215E-11  2.76645176458836E-01
 cg2d: Sum(rhs),rhsMax =  -1.73897563016112E-11  2.77855100054204E-01
 cg2d: Sum(rhs),rhsMax =  -1.73520087187740E-11  2.79051300759063E-01
 cg2d: Sum(rhs),rhsMax =  -1.73406844439228E-11  2.80232646044039E-01
 cg2d: Sum(rhs),rhsMax =  -1.73530079194961E-11  2.81397926102624E-01
 cg2d: Sum(rhs),rhsMax =  -1.73416836446449E-11  2.82545918277863E-01
 cg2d: Sum(rhs),rhsMax =  -1.72853953372964E-11  2.83675463430821E-01
 cg2d: Sum(rhs),rhsMax =  -1.72140079968131E-11  2.84785542111432E-01
 cg2d: Sum(rhs),rhsMax =  -1.71381797642312E-11  2.85875338566949E-01
 cg2d: Sum(rhs),rhsMax =  -1.70372604912927E-11  2.86944283064999E-01
 cg2d: Sum(rhs),rhsMax =  -1.69320113485583E-11  2.87992066967630E-01
 cg2d: Sum(rhs),rhsMax =  -1.68591807181429E-11  2.89018629613021E-01
 cg2d: Sum(rhs),rhsMax =  -1.67903468906161E-11  2.90024120569407E-01
 cg2d: Sum(rhs),rhsMax =  -1.66787694766413E-11  2.91008844570067E-01
 cg2d: Sum(rhs),rhsMax =  -1.65765179360733E-11  2.91973198851722E-01
 cg2d: Sum(rhs),rhsMax =  -1.64961377890904E-11  2.92917613227825E-01
 cg2d: Sum(rhs),rhsMax =  -1.63802305053196E-11  2.93842501781264E-01
 cg2d: Sum(rhs),rhsMax =  -1.62900803957200E-11  2.94748231732236E-01
 cg2d: Sum(rhs),rhsMax =  -1.62381219581675E-11  2.95635110560598E-01
 cg2d: Sum(rhs),rhsMax =  -1.61913815688308E-11  2.96503388046049E-01
 cg2d: Sum(rhs),rhsMax =  -1.61349822391799E-11  2.97353266862081E-01
 cg2d: Sum(rhs),rhsMax =  -1.60963464779229E-11  2.98184914659334E-01
 cg2d: Sum(rhs),rhsMax =  -1.60006452532002E-11  2.98998472320195E-01
 cg2d: Sum(rhs),rhsMax =  -1.59166013702361E-11  2.99794056439995E-01
 cg2d: Sum(rhs),rhsMax =  -1.58020263540948E-11  3.00571757625409E-01
 cg2d: Sum(rhs),rhsMax =  -1.57182045157356E-11  3.01331638385759E-01
 cg2d: Sum(rhs),rhsMax =  -1.55997437190081E-11  3.02073734318244E-01
 cg2d: Sum(rhs),rhsMax =  -1.54876111935209E-11  3.02798060045801E-01
 cg2d: Sum(rhs),rhsMax =  -1.53783652478978E-11  3.03504618018669E-01
 cg2d: Sum(rhs),rhsMax =  -1.52909906958598E-11  3.04193405416714E-01
 cg2d: Sum(rhs),rhsMax =  -1.52016177423775E-11  3.04864413410981E-01
 cg2d: Sum(rhs),rhsMax =  -1.50947032651061E-11  3.05517614616146E-01
 cg2d: Sum(rhs),rhsMax =  -1.50202073001537E-11  3.06152938294725E-01
 cg2d: Sum(rhs),rhsMax =  -1.49152912243267E-11  3.06770237451615E-01
 cg2d: Sum(rhs),rhsMax =  -1.48470125083122E-11  3.07369255671447E-01
 cg2d: Sum(rhs),rhsMax =  -1.47801770822298E-11  3.07949602944650E-01
 cg2d: Sum(rhs),rhsMax =  -1.46920253740745E-11  3.08510748160514E-01
 cg2d: Sum(rhs),rhsMax =  -1.46176404314247E-11  3.09052031841016E-01
 cg2d: Sum(rhs),rhsMax =  -1.45522482952742E-11  3.09572697391354E-01
 cg2d: Sum(rhs),rhsMax =  -1.44685374792175E-11  3.10071934437642E-01
 cg2d: Sum(rhs),rhsMax =  -1.43862699530928E-11  3.10548925303005E-01
 cg2d: Sum(rhs),rhsMax =  -1.43061118507148E-11  3.11002886176189E-01
 cg2d: Sum(rhs),rhsMax =  -1.41989753288385E-11  3.11433097821462E-01
 cg2d: Sum(rhs),rhsMax =  -1.41271438991453E-11  3.11838925528375E-01
 cg2d: Sum(rhs),rhsMax =  -1.40616407406924E-11  3.12219832574039E-01
 cg2d: Sum(rhs),rhsMax =  -1.40291112060709E-11  3.12575393984698E-01
 cg2d: Sum(rhs),rhsMax =  -1.40210065779911E-11  3.12905316754603E-01
 cg2d: Sum(rhs),rhsMax =  -1.39799283260800E-11  3.13209468965648E-01
 cg2d: Sum(rhs),rhsMax =  -1.39612765792663E-11  3.13487914694208E-01
 cg2d: Sum(rhs),rhsMax =  -1.39663836051795E-11  3.13740946228845E-01
 cg2d: Sum(rhs),rhsMax =  -1.40110145707695E-11  3.13969102069552E-01
 cg2d: Sum(rhs),rhsMax =  -1.40174538643123E-11  3.14173159844762E-01
 cg2d: Sum(rhs),rhsMax =  -1.40357725442186E-11  3.14354097810506E-01
 cg2d: Sum(rhs),rhsMax =  -1.40060185671587E-11  3.14513025761818E-01
 cg2d: Sum(rhs),rhsMax =  -1.40205624887813E-11  3.14651093800955E-01
 cg2d: Sum(rhs),rhsMax =  -1.39919187347459E-11  3.14769393085826E-01
 cg2d: Sum(rhs),rhsMax =  -1.40131239945163E-11  3.14868864683214E-01
 cg2d: Sum(rhs),rhsMax =  -1.40114586599793E-11  3.14950230461514E-01
 cg2d: Sum(rhs),rhsMax =  -1.40431000161811E-11  3.15013954413401E-01
 cg2d: Sum(rhs),rhsMax =  -1.40403244586196E-11  3.15060235721670E-01
 cg2d: Sum(rhs),rhsMax =  -1.40129019499113E-11  3.15089028397359E-01
 cg2d: Sum(rhs),rhsMax =  -1.40432110384836E-11  3.15100078140362E-01
 cg2d: Sum(rhs),rhsMax =  -1.40041311880168E-11  3.15092966004391E-01
 cg2d: Sum(rhs),rhsMax =  -1.39759315231913E-11  3.15067150263067E-01
 cg2d: Sum(rhs),rhsMax =  -1.39737110771421E-11  3.15022001538428E-01
 cg2d: Sum(rhs),rhsMax =  -1.39126488107877E-11  3.14956830366846E-01
 cg2d: Sum(rhs),rhsMax =  -1.38593581056057E-11  3.14870909641310E-01
 cg2d: Sum(rhs),rhsMax =  -1.38710154473642E-11  3.14763495936780E-01
 cg2d: Sum(rhs),rhsMax =  -1.38085098910778E-11  3.14633853362644E-01
 cg2d: Sum(rhs),rhsMax =  -1.37695410629135E-11  3.14481281648763E-01
 cg2d: Sum(rhs),rhsMax =  -1.37205802275275E-11  3.14305147440891E-01
 cg2d: Sum(rhs),rhsMax =  -1.36813893547583E-11  3.14104915221732E-01
 cg2d: Sum(rhs),rhsMax =  -1.36516353776983E-11  3.13880172756733E-01
 cg2d: Sum(rhs),rhsMax =  -1.36003430739606E-11  3.13630646019678E-01
 cg2d: Sum(rhs),rhsMax =  -1.36078925905281E-11  3.13356200215844E-01
 cg2d: Sum(rhs),rhsMax =  -1.36110012149970E-11  3.13056826321345E-01
 cg2d: Sum(rhs),rhsMax =  -1.36046729437567E-11  3.12732615688715E-01
 cg2d: Sum(rhs),rhsMax =  -1.35949029811400E-11  3.12383727863734E-01
 cg2d: Sum(rhs),rhsMax =  -1.36236577574778E-11  3.12010358173608E-01
 cg2d: Sum(rhs),rhsMax =  -1.36162192632128E-11  3.11612711626556E-01
 cg2d: Sum(rhs),rhsMax =  -1.36496369762540E-11  3.11190988327989E-01
 cg2d: Sum(rhs),rhsMax =  -1.36513023107909E-11  3.10745383316100E-01
 cg2d: Sum(rhs),rhsMax =  -1.36689548568825E-11  3.10276100855466E-01
 cg2d: Sum(rhs),rhsMax =  -1.37019284807138E-11  3.09783380186320E-01
 cg2d: Sum(rhs),rhsMax =  -1.37267974764654E-11  3.09267526914373E-01
 cg2d: Sum(rhs),rhsMax =  -1.37571065650377E-11  3.08728942148599E-01
 cg2d: Sum(rhs),rhsMax =  -1.37712063974504E-11  3.08168140761664E-01
 cg2d: Sum(rhs),rhsMax =  -1.38283828832186E-11  3.07585751309741E-01
 cg2d: Sum(rhs),rhsMax =  -1.38553613027170E-11  3.06982493409271E-01
 cg2d: Sum(rhs),rhsMax =  -1.38929978632518E-11  3.06359133322168E-01
 cg2d: Sum(rhs),rhsMax =  -1.39094291640163E-11  3.05716424068158E-01
 cg2d: Sum(rhs),rhsMax =  -1.39418476763353E-11  3.05055041042335E-01
 cg2d: Sum(rhs),rhsMax =  -1.39803724152898E-11  3.04375526383992E-01
 cg2d: Sum(rhs),rhsMax =  -1.40178979535222E-11  3.03678254316734E-01
 cg2d: Sum(rhs),rhsMax =  -1.40375489010580E-11  3.02963425413004E-01
 cg2d: Sum(rhs),rhsMax =  -1.40504274881437E-11  3.02231091280932E-01
 cg2d: Sum(rhs),rhsMax =  -1.40749634169879E-11  3.01481204262813E-01
 cg2d: Sum(rhs),rhsMax =  -1.41150424681769E-11  3.00713681237054E-01
 cg2d: Sum(rhs),rhsMax =  -1.41375799955767E-11  2.99928467940779E-01
 cg2d: Sum(rhs),rhsMax =  -1.41900935446415E-11  2.99125590932421E-01
 cg2d: Sum(rhs),rhsMax =  -1.42248435253123E-11  2.98305187984706E-01
 cg2d: Sum(rhs),rhsMax =  -1.42746925391180E-11  2.97467513170420E-01
 cg2d: Sum(rhs),rhsMax =  -1.43205447500350E-11  2.96612918656858E-01
 cg2d: Sum(rhs),rhsMax =  -1.43590694889895E-11  2.95741819849271E-01
 cg2d: Sum(rhs),rhsMax =  -1.44093625920050E-11  2.94854653081571E-01
 cg2d: Sum(rhs),rhsMax =  -1.44434464388610E-11  2.93951835255313E-01
 cg2d: Sum(rhs),rhsMax =  -1.44952938541110E-11  2.93033733006449E-01
 cg2d: Sum(rhs),rhsMax =  -1.45672363061067E-11  2.92100645895938E-01
 cg2d: Sum(rhs),rhsMax =  -1.45818912500317E-11  2.91152804704465E-01
 cg2d: Sum(rhs),rhsMax =  -1.46420653379664E-11  2.90190382997173E-01
 cg2d: Sum(rhs),rhsMax =  -1.46769263409396E-11  2.89213518254409E-01
 cg2d: Sum(rhs),rhsMax =  -1.47256651317207E-11  2.88222338196565E-01
 cg2d: Sum(rhs),rhsMax =  -1.47968304275992E-11  2.87216988260111E-01
 cg2d: Sum(rhs),rhsMax =  -1.48612233630274E-11  2.86197657066093E-01
 cg2d: Sum(rhs),rhsMax =  -1.49481538258556E-11  2.85164597670948E-01
 cg2d: Sum(rhs),rhsMax =  -1.50162104972651E-11  2.84118143048029E-01
 cg2d: Sum(rhs),rhsMax =  -1.51121337665927E-11  2.83058714511583E-01
 cg2d: Sum(rhs),rhsMax =  -1.51988421848159E-11  2.81986821807301E-01
 cg2d: Sum(rhs),rhsMax =  -1.53046464390627E-11  2.80903053645886E-01
 cg2d: Sum(rhs),rhsMax =  -1.54006807306928E-11  2.79808057836703E-01
 cg2d: Sum(rhs),rhsMax =  -1.55183643713031E-11  2.78702511053163E-01
 cg2d: Sum(rhs),rhsMax =  -1.56449297961103E-11  2.77587079624793E-01
 cg2d: Sum(rhs),rhsMax =  -1.57455160021414E-11  2.76462374446147E-01
 cg2d: Sum(rhs),rhsMax =  -1.58713042708314E-11  2.75328904852420E-01
 cg2d: Sum(rhs),rhsMax =  -1.59620094919433E-11  2.74187037780184E-01
 cg2d: Sum(rhs),rhsMax =  -1.60570445828512E-11  2.73036969275135E-01
 cg2d: Sum(rhs),rhsMax =  -1.61909374796210E-11  2.71878714959082E-01
 cg2d: Sum(rhs),rhsMax =  -1.63000724029416E-11  2.70712124056334E-01
 cg2d: Sum(rhs),rhsMax =  -1.64342983666188E-11  2.69536917946800E-01
 cg2d: Sum(rhs),rhsMax =  -1.65552016540005E-11  2.68352749414242E-01
 cg2d: Sum(rhs),rhsMax =  -1.66964220227328E-11  2.67159273814447E-01
 cg2d: Sum(rhs),rhsMax =  -1.68254299381942E-11  2.65956219689165E-01
 cg2d: Sum(rhs),rhsMax =  -1.69544378536557E-11  2.64743445221314E-01
 cg2d: Sum(rhs),rhsMax =  -1.70993219583693E-11  2.63520969103555E-01
 cg2d: Sum(rhs),rhsMax =  -1.72203362680534E-11  2.62288969653620E-01
 cg2d: Sum(rhs),rhsMax =  -1.73402403547129E-11  2.61047753129005E-01
 cg2d: Sum(rhs),rhsMax =  -1.75057746076845E-11  2.59797699283953E-01
 cg2d: Sum(rhs),rhsMax =  -1.76322290101893E-11  2.58539197333844E-01
 cg2d: Sum(rhs),rhsMax =  -1.77536874090833E-11  2.57272587292765E-01
 cg2d: Sum(rhs),rhsMax =  -1.79100068109506E-11  2.55998119777652E-01
 cg2d: Sum(rhs),rhsMax =  -1.80584436293429E-11  2.54715942531204E-01
 cg2d: Sum(rhs),rhsMax =  -1.82054371578033E-11  2.53426115560806E-01
 cg2d: Sum(rhs),rhsMax =  -1.83562054445474E-11  2.52128650618024E-01
 cg2d: Sum(rhs),rhsMax =  -1.84254833612840E-11  2.51443522918437E-01
 cg2d: Sum(rhs),rhsMax =  -1.85211845860067E-11  2.50873463862912E-01
 cg2d: Sum(rhs),rhsMax =  -1.86233251042722E-11  2.50288157225327E-01
 cg2d: Sum(rhs),rhsMax =  -1.87179161059703E-11  2.49686244156188E-01
 cg2d: Sum(rhs),rhsMax =  -1.88319360105993E-11  2.49066932778699E-01
 cg2d: Sum(rhs),rhsMax =  -1.89219750978964E-11  2.48430447135504E-01
 cg2d: Sum(rhs),rhsMax =  -1.90670812472149E-11  2.47777689492738E-01
 cg2d: Sum(rhs),rhsMax =  -1.92077465044349E-11  2.47109201862612E-01
 cg2d: Sum(rhs),rhsMax =  -1.93370874868037E-11  2.46425012583691E-01
 cg2d: Sum(rhs),rhsMax =  -1.94695370936415E-11  2.45725526118511E-01
 cg2d: Sum(rhs),rhsMax =  -1.95700122773701E-11  2.45011719800910E-01
 cg2d: Sum(rhs),rhsMax =  -1.97079019770285E-11  2.44284659126684E-01
 cg2d: Sum(rhs),rhsMax =  -1.98542293716741E-11  2.43544560201222E-01
 cg2d: Sum(rhs),rhsMax =  -1.99955607627089E-11  2.42790770724475E-01
 cg2d: Sum(rhs),rhsMax =  -2.01290095702689E-11  2.42022087111149E-01
 cg2d: Sum(rhs),rhsMax =  -2.02659000692051E-11  2.41237377562392E-01
 cg2d: Sum(rhs),rhsMax =  -2.04184447127886E-11  2.40435988139534E-01
 cg2d: Sum(rhs),rhsMax =  -2.05807593189888E-11  2.39617965247227E-01
 cg2d: Sum(rhs),rhsMax =  -2.07295292042886E-11  2.38783463838078E-01
 cg2d: Sum(rhs),rhsMax =  -2.08836281601066E-11  2.37931886481130E-01
 cg2d: Sum(rhs),rhsMax =  -2.10784723009283E-11  2.37062273639612E-01
 cg2d: Sum(rhs),rhsMax =  -2.12075912386922E-11  2.36174174017520E-01
 cg2d: Sum(rhs),rhsMax =  -2.13651318858865E-11  2.35268141827702E-01
 cg2d: Sum(rhs),rhsMax =  -2.14950279797677E-11  2.34345470867673E-01
 cg2d: Sum(rhs),rhsMax =  -2.12658779474850E-11  2.37741789977193E-01
 cg2d: Sum(rhs),rhsMax =  -2.08391082168191E-11  2.43614940787233E-01
 cg2d: Sum(rhs),rhsMax =  -2.04645189683106E-11  2.48656122908193E-01
 cg2d: Sum(rhs),rhsMax =  -2.01980654424005E-11  2.52855700138767E-01
 cg2d: Sum(rhs),rhsMax =  -1.99885663576538E-11  2.56248995805729E-01
 cg2d: Sum(rhs),rhsMax =  -1.98535632378594E-11  2.58737604640706E-01
 cg2d: Sum(rhs),rhsMax =  -1.97938332391345E-11  2.60402799562589E-01
 cg2d: Sum(rhs),rhsMax =  -1.98362437586752E-11  2.61046420887641E-01
 cg2d: Sum(rhs),rhsMax =  -1.99414929014097E-11  2.60899483326231E-01
 cg2d: Sum(rhs),rhsMax =  -2.01298977486886E-11  2.59861042181078E-01
 cg2d: Sum(rhs),rhsMax =  -2.04065653264252E-11  2.57493198581375E-01
 cg2d: Sum(rhs),rhsMax =  -2.07260875129123E-11  2.54841742508914E-01
 cg2d: Sum(rhs),rhsMax =  -2.11373141212334E-11  2.51191287701214E-01
 cg2d: Sum(rhs),rhsMax =  -2.16482387571659E-11  2.46549302914654E-01
 cg2d: Sum(rhs),rhsMax =  -2.21654916643388E-11  2.41288234422348E-01
 cg2d: Sum(rhs),rhsMax =  -2.27753371717654E-11  2.35240837412615E-01
 cg2d: Sum(rhs),rhsMax =  -2.34845476398959E-11  2.28936753221510E-01
 cg2d: Sum(rhs),rhsMax =  -2.43219888673707E-11  2.21452845449919E-01
 cg2d: Sum(rhs),rhsMax =  -2.52877718764921E-11  2.13430027115094E-01
 cg2d: Sum(rhs),rhsMax =  -2.55094834145098E-11  2.12147251387016E-01
 cg2d: Sum(rhs),rhsMax =  -2.57279753057560E-11  2.10844810514170E-01
 cg2d: Sum(rhs),rhsMax =  -2.59456900408850E-11  2.09523990037731E-01
 cg2d: Sum(rhs),rhsMax =  -2.61641819321312E-11  2.08185459923692E-01
 cg2d: Sum(rhs),rhsMax =  -2.63961075219754E-11  2.06828782599262E-01
 cg2d: Sum(rhs),rhsMax =  -2.66263677772827E-11  2.05453430062218E-01
 cg2d: Sum(rhs),rhsMax =  -2.68999267305503E-11  2.04058785562423E-01
 cg2d: Sum(rhs),rhsMax =  -2.71536126916772E-11  2.02644690015743E-01
 cg2d: Sum(rhs),rhsMax =  -2.74149591916739E-11  2.01211125023151E-01
 cg2d: Sum(rhs),rhsMax =  -2.76750844463436E-11  1.99758508639039E-01
 cg2d: Sum(rhs),rhsMax =  -2.79499756672408E-11  1.98287065292472E-01
 cg2d: Sum(rhs),rhsMax =  -2.82065482082317E-11  1.96796495252874E-01
 cg2d: Sum(rhs),rhsMax =  -2.84663403959939E-11  1.95286596989632E-01
 cg2d: Sum(rhs),rhsMax =  -2.76464406923083E-11  2.01317263378897E-01
 cg2d: Sum(rhs),rhsMax =  -2.68391975311033E-11  2.07916470096651E-01
 cg2d: Sum(rhs),rhsMax =  -2.61464183637372E-11  2.13775769298329E-01
 cg2d: Sum(rhs),rhsMax =  -2.55694354578395E-11  2.18895633760101E-01
 cg2d: Sum(rhs),rhsMax =  -2.51183518429343E-11  2.23264087968402E-01
 cg2d: Sum(rhs),rhsMax =  -2.47548648246720E-11  2.26816792956891E-01
 cg2d: Sum(rhs),rhsMax =  -2.45582443270109E-11  2.29542548022464E-01
 cg2d: Sum(rhs),rhsMax =  -2.44532172288814E-11  2.31703612754949E-01
 cg2d: Sum(rhs),rhsMax =  -2.44925191239531E-11  2.32688627546863E-01
 cg2d: Sum(rhs),rhsMax =  -2.46137554782422E-11  2.32807652911048E-01
 cg2d: Sum(rhs),rhsMax =  -2.47656339880109E-11  2.32339949272087E-01
 cg2d: Sum(rhs),rhsMax =  -2.50117704325703E-11  2.30968233082599E-01
 cg2d: Sum(rhs),rhsMax =  -2.53669307781479E-11  2.28771428432889E-01
 cg2d: Sum(rhs),rhsMax =  -2.58026933153133E-11  2.25735721850000E-01
 cg2d: Sum(rhs),rhsMax =  -2.63492561103362E-11  2.22132450114946E-01
 cg2d: Sum(rhs),rhsMax =  -2.69803068775332E-11  2.17808865047282E-01
 cg2d: Sum(rhs),rhsMax =  -2.76698663981279E-11  2.13082620142457E-01
 cg2d: Sum(rhs),rhsMax =  -2.84834378305732E-11  2.07679048270296E-01
 cg2d: Sum(rhs),rhsMax =  -2.94022584057529E-11  2.01809658213658E-01
 cg2d: Sum(rhs),rhsMax =  -3.04741787360285E-11  1.95310799667562E-01
 cg2d: Sum(rhs),rhsMax =  -3.17049719811280E-11  1.88316792550456E-01
 cg2d: Sum(rhs),rhsMax =  -3.31080718396493E-11  1.80932808929490E-01
 cg2d: Sum(rhs),rhsMax =  -3.42968986544179E-11  1.74717017143515E-01
 cg2d: Sum(rhs),rhsMax =  -3.43683970172037E-11  1.74398059944415E-01
 cg2d: Sum(rhs),rhsMax =  -3.44655415318584E-11  1.74095929734750E-01
 cg2d: Sum(rhs),rhsMax =  -3.45412587421379E-11  1.73810170739997E-01
 cg2d: Sum(rhs),rhsMax =  -3.46227491121454E-11  1.73540278443309E-01
 cg2d: Sum(rhs),rhsMax =  -3.45943274027150E-11  1.73787696905143E-01
 cg2d: Sum(rhs),rhsMax =  -3.43700623517407E-11  1.75139029034786E-01
 cg2d: Sum(rhs),rhsMax =  -3.41323636021684E-11  1.76433467318333E-01
 cg2d: Sum(rhs),rhsMax =  -3.39067662835646E-11  1.77670079366379E-01
 cg2d: Sum(rhs),rhsMax =  -3.38150618617306E-11  1.78850036208030E-01
 cg2d: Sum(rhs),rhsMax =  -3.37216921053596E-11  1.79973470535180E-01
 cg2d: Sum(rhs),rhsMax =  -3.36393135569324E-11  1.81040808012324E-01
 cg2d: Sum(rhs),rhsMax =  -3.35742544876894E-11  1.82052413046436E-01
 cg2d: Sum(rhs),rhsMax =  -3.35269589868403E-11  1.83008576107224E-01
 cg2d: Sum(rhs),rhsMax =  -3.34643424082515E-11  1.83910215624540E-01
 cg2d: Sum(rhs),rhsMax =  -3.34448024830181E-11  1.84757571888084E-01
 cg2d: Sum(rhs),rhsMax =  -3.33965077814469E-11  1.85551011632711E-01
 cg2d: Sum(rhs),rhsMax =  -3.33156835452542E-11  1.86290902457691E-01
 cg2d: Sum(rhs),rhsMax =  -3.31767946448736E-11  1.86977679825662E-01
 cg2d: Sum(rhs),rhsMax =  -3.30325766739747E-11  1.87612058125831E-01
 cg2d: Sum(rhs),rhsMax =  -3.29424265643752E-11  1.88194628821793E-01
 cg2d: Sum(rhs),rhsMax =  -3.28571614360840E-11  1.88725923413185E-01
 cg2d: Sum(rhs),rhsMax =  -3.27577964753800E-11  1.89206407342176E-01
 cg2d: Sum(rhs),rhsMax =  -3.26841886888474E-11  1.89636385712985E-01
 cg2d: Sum(rhs),rhsMax =  -3.26184634857896E-11  1.90016610064413E-01
 cg2d: Sum(rhs),rhsMax =  -3.25540705503613E-11  1.90346411534469E-01
 cg2d: Sum(rhs),rhsMax =  -3.25222071495546E-11  1.90625885849915E-01
 cg2d: Sum(rhs),rhsMax =  -3.24820170760631E-11  1.90855592082710E-01
 cg2d: Sum(rhs),rhsMax =  -3.24317239730476E-11  1.91036010925583E-01
 cg2d: Sum(rhs),rhsMax =  -3.24070770219009E-11  1.91167298969470E-01
 cg2d: Sum(rhs),rhsMax =  -3.24180682298447E-11  1.91249597537255E-01
 cg2d: Sum(rhs),rhsMax =  -3.23958637693522E-11  1.91283073883519E-01
 cg2d: Sum(rhs),rhsMax =  -3.23746585095819E-11  1.91407991387358E-01
 cg2d: Sum(rhs),rhsMax =  -3.22226689775107E-11  1.92229554524485E-01
 cg2d: Sum(rhs),rhsMax =  -3.20865556346916E-11  1.93059272391068E-01
 cg2d: Sum(rhs),rhsMax =  -3.18989279435300E-11  1.93897009362364E-01
 cg2d: Sum(rhs),rhsMax =  -3.18777226837597E-11  1.94742933758679E-01
 cg2d: Sum(rhs),rhsMax =  -3.17725845633277E-11  1.95597794782707E-01
 cg2d: Sum(rhs),rhsMax =  -3.16405790456997E-11  1.96462542815297E-01
 cg2d: Sum(rhs),rhsMax =  -3.15244497173239E-11  1.97338058281497E-01
 cg2d: Sum(rhs),rhsMax =  -3.13914449989738E-11  1.98224550360653E-01
 cg2d: Sum(rhs),rhsMax =  -3.12671000202158E-11  1.99121457587182E-01
 cg2d: Sum(rhs),rhsMax =  -3.11268788522057E-11  2.00027473822670E-01
 cg2d: Sum(rhs),rhsMax =  -3.10043102302870E-11  2.00940967997557E-01
(PID.TID 0000.0001)      cg2d_init_res =   7.10265626783144E-02
(PID.TID 0000.0001)      cg2d_iters(min,last) =      -1      29
(PID.TID 0000.0001)      cg2d_last_res =   5.30450224348000E-14
(PID.TID 0000.0001) // =======================================================
(PID.TID 0000.0001) // Begin MONITOR dynamic field statistics
(PID.TID 0000.0001) // =======================================================
(PID.TID 0000.0001) %MON time_tsnumber                =                  5280
(PID.TID 0000.0001) %MON time_secondsf                =   7.9200000000000E+04
(PID.TID 0000.0001) %MON dynstat_eta_max              =   1.9984974048575E-02
(PID.TID 0000.0001) %MON dynstat_eta_min              =  -1.6873935802326E-02
(PID.TID 0000.0001) %MON dynstat_eta_mean             =   7.2036629676169E-15
(PID.TID 0000.0001) %MON dynstat_eta_sd               =   9.7495642080475E-03
(PID.TID 0000.0001) %MON dynstat_eta_del2             =   2.2583822788558E-04
(PID.TID 0000.0001) %MON dynstat_uvel_max             =   1.3553445519841E+00
(PID.TID 0000.0001) %MON dynstat_uvel_min             =  -7.8688890490640E-01
(PID.TID 0000.0001) %MON dynstat_uvel_mean            =   4.6198211056990E-04
(PID.TID 0000.0001) %MON dynstat_uvel_sd              =   2.8205504477367E-01
(PID.TID 0000.0001) %MON dynstat_uvel_del2            =   9.9351775566070E-04
(PID.TID 0000.0001) %MON dynstat_vvel_max             =   0.0000000000000E+00
(PID.TID 0000.0001) %MON dynstat_vvel_min             =   0.0000000000000E+00
(PID.TID 0000.0001) %MON dynstat_vvel_mean            =   0.0000000000000E+00
(PID.TID 0000.0001) %MON dynstat_vvel_sd              =   0.0000000000000E+00
(PID.TID 0000.0001) %MON dynstat_vvel_del2            =   0.0000000000000E+00
(PID.TID 0000.0001) %MON dynstat_wvel_max             =   4.0761213814556E-02
(PID.TID 0000.0001) %MON dynstat_wvel_min             =  -2.9065992194915E-02
(PID.TID 0000.0001) %MON dynstat_wvel_mean            =  -1.1835884866833E-20
(PID.TID 0000.0001) %MON dynstat_wvel_sd              =   4.5820266847740E-03
(PID.TID 0000.0001) %MON dynstat_wvel_del2            =   7.8833265029131E-05
(PID.TID 0000.0001) %MON dynstat_theta_max            =   1.4976502385863E+01
(PID.TID 0000.0001) %MON dynstat_theta_min            =   9.9765023856417E+00
(PID.TID 0000.0001) %MON dynstat_theta_mean           =   1.2377021637142E+01
(PID.TID 0000.0001) %MON dynstat_theta_sd             =   2.2262707402332E+00
(PID.TID 0000.0001) %MON dynstat_theta_del2           =   2.2730631798676E-03
(PID.TID 0000.0001) %MON dynstat_salt_max             =   3.5000000000000E+01
(PID.TID 0000.0001) %MON dynstat_salt_min             =   3.5000000000000E+01
(PID.TID 0000.0001) %MON dynstat_salt_mean            =   3.5000000000000E+01
(PID.TID 0000.0001) %MON dynstat_salt_sd              =   3.4816594052245E-13
(PID.TID 0000.0001) %MON dynstat_salt_del2            =   0.0000000000000E+00
(PID.TID 0000.0001) %MON dynstat_sst_max              =   1.4976502385655E+01
(PID.TID 0000.0001) %MON dynstat_sst_min              =   1.4583536509924E+01
(PID.TID 0000.0001) %MON dynstat_sst_mean             =   1.4910979726253E+01
(PID.TID 0000.0001) %MON dynstat_sst_sd               =   1.1545372926521E-01
(PID.TID 0000.0001) %MON dynstat_sst_del2             =   8.2764174499290E-04
(PID.TID 0000.0001) %MON dynstat_sss_max              =   3.5000000000000E+01
(PID.TID 0000.0001) %MON dynstat_sss_min              =   3.5000000000000E+01
(PID.TID 0000.0001) %MON dynstat_sss_mean             =   3.5000000000000E+01
(PID.TID 0000.0001) %MON dynstat_sss_sd               =   3.5527136788005E-14
(PID.TID 0000.0001) %MON dynstat_sss_del2             =   0.0000000000000E+00
(PID.TID 0000.0001) %MON forcing_qnet_max             =   0.0000000000000E+00
(PID.TID 0000.0001) %MON forcing_qnet_min             =   0.0000000000000E+00
(PID.TID 0000.0001) %MON forcing_qnet_mean            =   0.0000000000000E+00
(PID.TID 0000.0001) %MON forcing_qnet_sd              =   0.0000000000000E+00
(PID.TID 0000.0001) %MON forcing_qnet_del2            =   0.0000000000000E+00
(PID.TID 0000.0001) %MON forcing_qsw_max              =   0.0000000000000E+00
(PID.TID 0000.0001) %MON forcing_qsw_min              =   0.0000000000000E+00
(PID.TID 0000.0001) %MON forcing_qsw_mean             =   0.0000000000000E+00
(PID.TID 0000.0001) %MON forcing_qsw_sd               =   0.0000000000000E+00
(PID.TID 0000.0001) %MON forcing_qsw_del2             =   0.0000000000000E+00
(PID.TID 0000.0001) %MON forcing_empmr_max            =   0.0000000000000E+00
(PID.TID 0000.0001) %MON forcing_empmr_min            =   0.0000000000000E+00
(PID.TID 0000.0001) %MON forcing_empmr_mean           =   0.0000000000000E+00
(PID.TID 0000.0001) %MON forcing_empmr_sd             =   0.0000000000000E+00
(PID.TID 0000.0001) %MON forcing_empmr_del2           =   0.0000000000000E+00
(PID.TID 0000.0001) %MON forcing_fu_max               =   0.0000000000000E+00
(PID.TID 0000.0001) %MON forcing_fu_min               =   0.0000000000000E+00
(PID.TID 0000.0001) %MON forcing_fu_mean              =   0.0000000000000E+00
(PID.TID 0000.0001) %MON forcing_fu_sd                =   0.0000000000000E+00
(PID.TID 0000.0001) %MON forcing_fu_del2              =   0.0000000000000E+00
(PID.TID 0000.0001) %MON forcing_fv_max               =   0.0000000000000E+00
(PID.TID 0000.0001) %MON forcing_fv_min               =   0.0000000000000E+00
(PID.TID 0000.0001) %MON forcing_fv_mean              =   0.0000000000000E+00
(PID.TID 0000.0001) %MON forcing_fv_sd                =   0.0000000000000E+00
(PID.TID 0000.0001) %MON forcing_fv_del2              =   0.0000000000000E+00
(PID.TID 0000.0001) %MON advcfl_uvel_max              =   8.0720085784654E-02
(PID.TID 0000.0001) %MON advcfl_vvel_max              =   0.0000000000000E+00
(PID.TID 0000.0001) %MON advcfl_wvel_max              =   2.8092781993258E-01
(PID.TID 0000.0001) %MON advcfl_W_hf_max              =   2.8307624949456E-01
(PID.TID 0000.0001) %MON pe_b_mean                    =   2.6683824470999E-06
(PID.TID 0000.0001) %MON ke_max                       =   8.7511039152941E-01
(PID.TID 0000.0001) %MON ke_mean                      =   4.0217946120629E-02
(PID.TID 0000.0001) %MON ke_vol                       =   8.5337279889550E+10
(PID.TID 0000.0001) %MON vort_r_min                   =   0.0000000000000E+00
(PID.TID 0000.0001) %MON vort_r_max                   =   0.0000000000000E+00
(PID.TID 0000.0001) %MON vort_a_mean                  =   0.0000000000000E+00
(PID.TID 0000.0001) %MON vort_a_sd                    =   0.0000000000000E+00
(PID.TID 0000.0001) %MON vort_p_mean                  =   0.0000000000000E+00
(PID.TID 0000.0001) %MON vort_p_sd                    =   0.0000000000000E+00
(PID.TID 0000.0001) %MON surfExpan_theta_mean         =   1.7680943392133E-07
(PID.TID 0000.0001) %MON surfExpan_salt_mean          =  -1.6936568589488E-18
(PID.TID 0000.0001) // =======================================================
(PID.TID 0000.0001) // End MONITOR dynamic field statistics
(PID.TID 0000.0001) // =======================================================
(PID.TID 0000.0001) // =======================================================
(PID.TID 0000.0001) // Begin OBCS MONITOR field statistics
(PID.TID 0000.0001) // =======================================================
(PID.TID 0000.0001) %MON obc_E_uVel_max               =   0.0000000000000E+00
(PID.TID 0000.0001) %MON obc_E_uVel_min               =   0.0000000000000E+00
(PID.TID 0000.0001) %MON obc_E_uVel_mean              =   0.0000000000000E+00
(PID.TID 0000.0001) %MON obc_E_uVel_sd                =   0.0000000000000E+00
(PID.TID 0000.0001) %MON obc_E_uVel_Int               =   0.0000000000000E+00
(PID.TID 0000.0001) %MON obc_W_uVel_max               =   0.0000000000000E+00
(PID.TID 0000.0001) %MON obc_W_uVel_min               =   0.0000000000000E+00
(PID.TID 0000.0001) %MON obc_W_uVel_mean              =   0.0000000000000E+00
(PID.TID 0000.0001) %MON obc_W_uVel_sd                =   0.0000000000000E+00
(PID.TID 0000.0001) %MON obc_W_uVel_Int               =   0.0000000000000E+00
(PID.TID 0000.0001) // =======================================================
(PID.TID 0000.0001) // End OBCS MONITOR field statistics
(PID.TID 0000.0001) // =======================================================
 cg2d: Sum(rhs),rhsMax =  -3.08709724450296E-11  2.01860319411392E-01
 cg2d: Sum(rhs),rhsMax =  -3.07155412215820E-11  2.02784177200008E-01
 cg2d: Sum(rhs),rhsMax =  -3.05686587154241E-11  2.03711381797816E-01
 cg2d: Sum(rhs),rhsMax =  -3.04128944250692E-11  2.04641016371394E-01
 cg2d: Sum(rhs),rhsMax =  -3.02944336283417E-11  2.05572244995484E-01
 cg2d: Sum(rhs),rhsMax =  -3.01347835574006E-11  2.06504204459551E-01
 cg2d: Sum(rhs),rhsMax =  -3.00008906606308E-11  2.07435767626559E-01
 cg2d: Sum(rhs),rhsMax =  -2.98695512768177E-11  2.08365791376793E-01
 cg2d: Sum(rhs),rhsMax =  -2.97377678037947E-11  2.09293204432162E-01
 cg2d: Sum(rhs),rhsMax =  -2.96316304826405E-11  2.10217045367354E-01
 cg2d: Sum(rhs),rhsMax =  -2.95439228636951E-11  2.11136429140518E-01
 cg2d: Sum(rhs),rhsMax =  -2.94270163792021E-11  2.12050475012545E-01
 cg2d: Sum(rhs),rhsMax =  -2.92940116608520E-11  2.12958190400136E-01
 cg2d: Sum(rhs),rhsMax =  -2.91184854006588E-11  2.13858592412622E-01
 cg2d: Sum(rhs),rhsMax =  -2.89187562785287E-11  2.14750600784055E-01
 cg2d: Sum(rhs),rhsMax =  -2.86943802052519E-11  2.15633102359681E-01
 cg2d: Sum(rhs),rhsMax =  -2.84821055629436E-11  2.16505215629332E-01
 cg2d: Sum(rhs),rhsMax =  -2.82489587277723E-11  2.17366045145263E-01
 cg2d: Sum(rhs),rhsMax =  -2.80525602747161E-11  2.18214789470508E-01
 cg2d: Sum(rhs),rhsMax =  -2.78845835310904E-11  2.19050754990354E-01
 cg2d: Sum(rhs),rhsMax =  -2.76605405247210E-11  2.19873284830336E-01
 cg2d: Sum(rhs),rhsMax =  -2.74569256220047E-11  2.20681906938350E-01
 cg2d: Sum(rhs),rhsMax =  -2.72483147156777E-11  2.21476450941976E-01
 cg2d: Sum(rhs),rhsMax =  -2.70405919877703E-11  2.22257054625475E-01
 cg2d: Sum(rhs),rhsMax =  -2.68309818807211E-11  2.23023893193054E-01
 cg2d: Sum(rhs),rhsMax =  -2.66376920521338E-11  2.23777188091999E-01
 cg2d: Sum(rhs),rhsMax =  -2.64509525393919E-11  2.24517365433239E-01
 cg2d: Sum(rhs),rhsMax =  -2.62707633424952E-11  2.25244486710659E-01
 cg2d: Sum(rhs),rhsMax =  -2.60709231980627E-11  2.25958006519353E-01
 cg2d: Sum(rhs),rhsMax =  -2.58667531838341E-11  2.26656846355020E-01
 cg2d: Sum(rhs),rhsMax =  -2.56591414782292E-11  2.27340120943330E-01
 cg2d: Sum(rhs),rhsMax =  -2.54385401632362E-11  2.28007266854144E-01
 cg2d: Sum(rhs),rhsMax =  -2.52776688469680E-11  2.28657733826870E-01
 cg2d: Sum(rhs),rhsMax =  -2.50848231075906E-11  2.29290802807281E-01
 cg2d: Sum(rhs),rhsMax =  -2.48986387063610E-11  2.29905751449517E-01
 cg2d: Sum(rhs),rhsMax =  -2.47044606993541E-11  2.30501957729571E-01
 cg2d: Sum(rhs),rhsMax =  -2.45127251830013E-11  2.31078840037089E-01
 cg2d: Sum(rhs),rhsMax =  -2.43458586624001E-11  2.31635458404730E-01
 cg2d: Sum(rhs),rhsMax =  -2.42211806167347E-11  2.32170788895280E-01
 cg2d: Sum(rhs),rhsMax =  -2.40643061033552E-11  2.32682860147757E-01
 cg2d: Sum(rhs),rhsMax =  -2.39052111439264E-11  2.33169604711469E-01
 cg2d: Sum(rhs),rhsMax =  -2.37843078565447E-11  2.33629113742592E-01
 cg2d: Sum(rhs),rhsMax =  -2.36881625426122E-11  2.34060132567807E-01
 cg2d: Sum(rhs),rhsMax =  -2.36335395698006E-11  2.34461992371037E-01
 cg2d: Sum(rhs),rhsMax =  -2.36131114661475E-11  2.34833701098278E-01
 cg2d: Sum(rhs),rhsMax =  -2.35446107055282E-11  2.35174353967488E-01
 cg2d: Sum(rhs),rhsMax =  -2.34103847418510E-11  2.35483482845644E-01
 cg2d: Sum(rhs),rhsMax =  -2.32520669385394E-11  2.35761015329654E-01
 cg2d: Sum(rhs),rhsMax =  -2.30727659200625E-11  2.36007180348879E-01
 cg2d: Sum(rhs),rhsMax =  -2.28931318346781E-11  2.36221870116915E-01
 cg2d: Sum(rhs),rhsMax =  -2.27207141989538E-11  2.36404513259041E-01
 cg2d: Sum(rhs),rhsMax =  -2.25275353926691E-11  2.36554387939842E-01
 cg2d: Sum(rhs),rhsMax =  -2.23748797267831E-11  2.36670657840980E-01
 cg2d: Sum(rhs),rhsMax =  -2.22072360500647E-11  2.36752408245934E-01
 cg2d: Sum(rhs),rhsMax =  -2.20610196777216E-11  2.36798865606737E-01
 cg2d: Sum(rhs),rhsMax =  -2.18176587907237E-11  2.37704489474597E-01
 cg2d: Sum(rhs),rhsMax =  -2.15646389634117E-11  2.38904993254118E-01
 cg2d: Sum(rhs),rhsMax =  -2.12979633928967E-11  2.40102433779800E-01
 cg2d: Sum(rhs),rhsMax =  -2.10457207217019E-11  2.41295859893548E-01
 cg2d: Sum(rhs),rhsMax =  -2.07788231065820E-11  2.42484356717682E-01
 cg2d: Sum(rhs),rhsMax =  -2.05255812346650E-11  2.43667090273421E-01
 cg2d: Sum(rhs),rhsMax =  -2.02869943066730E-11  2.44843344067277E-01
 cg2d: Sum(rhs),rhsMax =  -2.00333083455462E-11  2.46012542641404E-01
 cg2d: Sum(rhs),rhsMax =  -1.97972749305109E-11  2.47174259570386E-01
 cg2d: Sum(rhs),rhsMax =  -1.95524707535810E-11  2.48328210638459E-01
 cg2d: Sum(rhs),rhsMax =  -1.93046689744847E-11  2.49474236172910E-01
 cg2d: Sum(rhs),rhsMax =  -1.90624183105115E-11  2.50612278890756E-01
 cg2d: Sum(rhs),rhsMax =  -1.88360438357904E-11  2.51742364425279E-01
 cg2d: Sum(rhs),rhsMax =  -1.86073378927176E-11  2.52864590569296E-01
 cg2d: Sum(rhs),rhsMax =  -1.83937309827797E-11  2.53979128320931E-01
 cg2d: Sum(rhs),rhsMax =  -1.81672454857562E-11  2.55086233678700E-01
 cg2d: Sum(rhs),rhsMax =  -1.79473103045780E-11  2.56186264846426E-01
 cg2d: Sum(rhs),rhsMax =  -1.77138304024993E-11  2.57279696281641E-01
 cg2d: Sum(rhs),rhsMax =  -1.75056635853821E-11  2.58367119900504E-01
 cg2d: Sum(rhs),rhsMax =  -1.73536740533109E-11  2.59449225301915E-01
 cg2d: Sum(rhs),rhsMax =  -1.72291070299480E-11  2.60526754956350E-01
 cg2d: Sum(rhs),rhsMax =  -1.71614944477483E-11  2.61600436055232E-01
 cg2d: Sum(rhs),rhsMax =  -1.70864433712836E-11  2.62670896733177E-01
 cg2d: Sum(rhs),rhsMax =  -1.69856351206477E-11  2.63738579092721E-01
 cg2d: Sum(rhs),rhsMax =  -1.68350888785085E-11  2.64803663593273E-01
 cg2d: Sum(rhs),rhsMax =  -1.66944236212885E-11  2.65866018282321E-01
 cg2d: Sum(rhs),rhsMax =  -1.65434332899395E-11  2.66925182259886E-01
 cg2d: Sum(rhs),rhsMax =  -1.63883351333993E-11  2.67980386668783E-01
 cg2d: Sum(rhs),rhsMax =  -1.62354574229084E-11  2.69030609872275E-01
 cg2d: Sum(rhs),rhsMax =  -1.60843560692570E-11  2.70074657855979E-01
 cg2d: Sum(rhs),rhsMax =  -1.59301460911365E-11  2.71111257450039E-01
 cg2d: Sum(rhs),rhsMax =  -1.57523993848940E-11  2.72139149240352E-01
 cg2d: Sum(rhs),rhsMax =  -1.56044066557115E-11  2.73157168833397E-01
 cg2d: Sum(rhs),rhsMax =  -1.54583013056708E-11  2.74164308688630E-01
 cg2d: Sum(rhs),rhsMax =  -1.52986512347297E-11  2.75159756975134E-01
 cg2d: Sum(rhs),rhsMax =  -1.51682000293363E-11  2.76142913819340E-01
 cg2d: Sum(rhs),rhsMax =  -1.50383039354551E-11  2.77113388156285E-01
 cg2d: Sum(rhs),rhsMax =  -1.49079637523641E-11  2.78070979869363E-01
 cg2d: Sum(rhs),rhsMax =  -1.47822865059766E-11  2.79015652104083E-01
 cg2d: Sum(rhs),rhsMax =  -1.46339607098867E-11  2.79947497958592E-01
 cg2d: Sum(rhs),rhsMax =  -1.45038425714006E-11  2.80866704688172E-01
 cg2d: Sum(rhs),rhsMax =  -1.43686174070012E-11  2.81773517555439E-01
 cg2d: Sum(rhs),rhsMax =  -1.42398315361447E-11  2.82668204777452E-01
 cg2d: Sum(rhs),rhsMax =  -1.41323619473610E-11  2.83551024709142E-01
 cg2d: Sum(rhs),rhsMax =  -1.40167877304975E-11  2.84422196317574E-01
 cg2d: Sum(rhs),rhsMax =  -1.39024347589611E-11  2.85281873914454E-01
 cg2d: Sum(rhs),rhsMax =  -1.38153932738305E-11  2.86130126832034E-01
 cg2d: Sum(rhs),rhsMax =  -1.36953781648685E-11  2.86966924195828E-01
 cg2d: Sum(rhs),rhsMax =  -1.36041178322444E-11  2.87792124291475E-01
 cg2d: Sum(rhs),rhsMax =  -1.35148559010645E-11  2.88605467507733E-01
 cg2d: Sum(rhs),rhsMax =  -1.34084965353054E-11  2.89406571759574E-01
 cg2d: Sum(rhs),rhsMax =  -1.33173472249837E-11  2.90194929845475E-01
 cg2d: Sum(rhs),rhsMax =  -1.32480693082471E-11  2.90969909339749E-01
 cg2d: Sum(rhs),rhsMax =  -1.31727961871775E-11  2.91730757062615E-01
 cg2d: Sum(rhs),rhsMax =  -1.30951915977562E-11  2.92476611382764E-01
 cg2d: Sum(rhs),rhsMax =  -1.30271349263467E-11  2.93206525982709E-01
 cg2d: Sum(rhs),rhsMax =  -1.29637411916406E-11  2.93919507773332E-01
 cg2d: Sum(rhs),rhsMax =  -1.29237731627541E-11  2.94614569232730E-01
 cg2d: Sum(rhs),rhsMax =  -1.29047883490330E-11  2.95290791892958E-01
 cg2d: Sum(rhs),rhsMax =  -1.28678179223130E-11  2.95947393810862E-01
 cg2d: Sum(rhs),rhsMax =  -1.28373978114382E-11  2.96583790747816E-01
 cg2d: Sum(rhs),rhsMax =  -1.27770016788986E-11  2.97199639555774E-01
 cg2d: Sum(rhs),rhsMax =  -1.27214905276674E-11  2.97794853662903E-01
 cg2d: Sum(rhs),rhsMax =  -1.26676447109730E-11  2.98369584647556E-01
 cg2d: Sum(rhs),rhsMax =  -1.26090249352728E-11  2.98924169985098E-01
 cg2d: Sum(rhs),rhsMax =  -1.25561783193007E-11  2.99459053800670E-01
 cg2d: Sum(rhs),rhsMax =  -1.24977805882054E-11  2.99974693208598E-01
 cg2d: Sum(rhs),rhsMax =  -1.24600330053681E-11  3.00471466067399E-01
 cg2d: Sum(rhs),rhsMax =  -1.24837917780951E-11  3.00949595822430E-01
 cg2d: Sum(rhs),rhsMax =  -1.24606991391829E-11  3.01409105512149E-01
 cg2d: Sum(rhs),rhsMax =  -1.25021104580014E-11  3.01849806844883E-01
 cg2d: Sum(rhs),rhsMax =  -1.24382726340855E-11  3.02271323044655E-01
 cg2d: Sum(rhs),rhsMax =  -1.23349108704929E-11  3.02673137690914E-01
 cg2d: Sum(rhs),rhsMax =  -1.23012711128467E-11  3.03054657558533E-01
 cg2d: Sum(rhs),rhsMax =  -1.22741816710459E-11  3.03415276357020E-01
 cg2d: Sum(rhs),rhsMax =  -1.22682974890154E-11  3.03754428255099E-01
 cg2d: Sum(rhs),rhsMax =  -1.22264420809870E-11  3.04071624323666E-01
 cg2d: Sum(rhs),rhsMax =  -1.21205268044378E-11  3.04366470173301E-01
 cg2d: Sum(rhs),rhsMax =  -1.19996235170561E-11  3.04638667639200E-01
 cg2d: Sum(rhs),rhsMax =  -1.19017018462841E-11  3.04888006243747E-01
 cg2d: Sum(rhs),rhsMax =  -1.18689502670577E-11  3.05114350840314E-01
 cg2d: Sum(rhs),rhsMax =  -1.18670628879158E-11  3.05317630517211E-01
 cg2d: Sum(rhs),rhsMax =  -1.18922649505748E-11  3.05497831290773E-01
 cg2d: Sum(rhs),rhsMax =  -1.19444454327322E-11  3.05654992374070E-01
 cg2d: Sum(rhs),rhsMax =  -1.20123910818393E-11  3.05789203806990E-01
 cg2d: Sum(rhs),rhsMax =  -1.20958798532911E-11  3.05900602523452E-01
 cg2d: Sum(rhs),rhsMax =  -1.21838095168414E-11  3.05989364548827E-01
 cg2d: Sum(rhs),rhsMax =  -1.23002719121246E-11  3.06055692551188E-01
 cg2d: Sum(rhs),rhsMax =  -1.24433796599988E-11  3.06099799757429E-01
 cg2d: Sum(rhs),rhsMax =  -1.24945609414340E-11  3.06121892656334E-01
 cg2d: Sum(rhs),rhsMax =  -1.25408572415608E-11  3.06122155552252E-01
 cg2d: Sum(rhs),rhsMax =  -1.26024746194275E-11  3.06100739845964E-01
 cg2d: Sum(rhs),rhsMax =  -1.26397781130549E-11  3.06057760128960E-01
 cg2d: Sum(rhs),rhsMax =  -1.27214905276674E-11  3.05993298138830E-01
 cg2d: Sum(rhs),rhsMax =  -1.27744481659420E-11  3.05907414643444E-01
 cg2d: Sum(rhs),rhsMax =  -1.28331789639446E-11  3.05800168533027E-01
 cg2d: Sum(rhs),rhsMax =  -1.28853594461020E-11  3.05671641743261E-01
 cg2d: Sum(rhs),rhsMax =  -1.29269928095255E-11  3.05521967943249E-01
 cg2d: Sum(rhs),rhsMax =  -1.29610766563815E-11  3.05351362071075E-01
 cg2d: Sum(rhs),rhsMax =  -1.30285782162787E-11  3.05160146825976E-01
 cg2d: Sum(rhs),rhsMax =  -1.31030741812310E-11  3.04948771389050E-01
 cg2d: Sum(rhs),rhsMax =  -1.31709088080356E-11  3.04717817362263E-01
 cg2d: Sum(rhs),rhsMax =  -1.32722721701839E-11  3.04467987606982E-01
 cg2d: Sum(rhs),rhsMax =  -1.33323352358161E-11  3.04200075551811E-01
 cg2d: Sum(rhs),rhsMax =  -1.34146027619408E-11  3.03914915500200E-01
 cg2d: Sum(rhs),rhsMax =  -1.35098598974537E-11  3.03613317990747E-01
 cg2d: Sum(rhs),rhsMax =  -1.35941258250227E-11  3.03295997555721E-01
 cg2d: Sum(rhs),rhsMax =  -1.36722855259563E-11  3.02963502432656E-01
 cg2d: Sum(rhs),rhsMax =  -1.37319045023787E-11  3.02616156256587E-01
 cg2d: Sum(rhs),rhsMax =  -1.38359323997861E-11  3.02254020254443E-01
 cg2d: Sum(rhs),rhsMax =  -1.39458444792240E-11  3.01876881237723E-01
 cg2d: Sum(rhs),rhsMax =  -1.40609746068776E-11  3.01484266443634E-01
 cg2d: Sum(rhs),rhsMax =  -1.41632261474456E-11  3.01075481957945E-01
 cg2d: Sum(rhs),rhsMax =  -1.42443834505457E-11  3.00649668012896E-01
 cg2d: Sum(rhs),rhsMax =  -1.43729472767973E-11  3.00205862597688E-01
 cg2d: Sum(rhs),rhsMax =  -1.44633194310018E-11  2.99743064850199E-01
 cg2d: Sum(rhs),rhsMax =  -1.45465861578487E-11  2.99260291460449E-01
 cg2d: Sum(rhs),rhsMax =  -1.46255230148995E-11  2.98756622248991E-01
 cg2d: Sum(rhs),rhsMax =  -1.47390988303187E-11  2.98231234367148E-01
 cg2d: Sum(rhs),rhsMax =  -1.48370205010906E-11  2.97683427320492E-01
 cg2d: Sum(rhs),rhsMax =  -1.49489309819728E-11  2.97112642515554E-01
 cg2d: Sum(rhs),rhsMax =  -1.50620627081821E-11  2.96518480888875E-01
 cg2d: Sum(rhs),rhsMax =  -1.51854084862180E-11  2.95900720474182E-01
 cg2d: Sum(rhs),rhsMax =  -1.52902135397426E-11  2.95259333046807E-01
 cg2d: Sum(rhs),rhsMax =  -1.54107837602169E-11  2.94594496155978E-01
 cg2d: Sum(rhs),rhsMax =  -1.55426782555423E-11  2.93906594933753E-01
 cg2d: Sum(rhs),rhsMax =  -1.56803459105959E-11  2.93196207885780E-01
 cg2d: Sum(rhs),rhsMax =  -1.57905910569411E-11  2.92464072786006E-01
 cg2d: Sum(rhs),rhsMax =  -1.59285917789020E-11  2.91711032540210E-01
 cg2d: Sum(rhs),rhsMax =  -1.60447211072778E-11  2.90937965563399E-01
 cg2d: Sum(rhs),rhsMax =  -1.61607394133512E-11  2.90145709559027E-01
 cg2d: Sum(rhs),rhsMax =  -1.63005164921515E-11  2.89334990307505E-01
 cg2d: Sum(rhs),rhsMax =  -1.64367408572730E-11  2.88506367270958E-01
 cg2d: Sum(rhs),rhsMax =  -1.65825131404063E-11  2.87660205284296E-01
 cg2d: Sum(rhs),rhsMax =  -1.67322822264282E-11  2.86796676871549E-01
 cg2d: Sum(rhs),rhsMax =  -1.68691727253645E-11  2.85915793943839E-01
 cg2d: Sum(rhs),rhsMax =  -1.70388148035272E-11  2.85017462211855E-01
 cg2d: Sum(rhs),rhsMax =  -1.71671565851739E-11  2.84101547865152E-01
 cg2d: Sum(rhs),rhsMax =  -1.73475678266755E-11  2.83167944756975E-01
 cg2d: Sum(rhs),rhsMax =  -1.75229830645662E-11  2.82216631662218E-01
 cg2d: Sum(rhs),rhsMax =  -1.77353687291770E-11  2.81247712664142E-01
 cg2d: Sum(rhs),rhsMax =  -1.78790315885635E-11  2.80261438378551E-01
 cg2d: Sum(rhs),rhsMax =  -1.80593318077626E-11  2.79258210298696E-01
 cg2d: Sum(rhs),rhsMax =  -1.82382997593322E-11  2.78238573859315E-01
 cg2d: Sum(rhs),rhsMax =  -1.84069426367728E-11  2.77203207054164E-01
 cg2d: Sum(rhs),rhsMax =  -1.86103354948841E-11  2.76152910359360E-01
 cg2d: Sum(rhs),rhsMax =  -1.87908577586882E-11  2.75088600737661E-01
 cg2d: Sum(rhs),rhsMax =  -1.89587234800115E-11  2.74011308616366E-01
 cg2d: Sum(rhs),rhsMax =  -1.91742177690912E-11  2.72922173233780E-01
 cg2d: Sum(rhs),rhsMax =  -1.93577376350618E-11  2.71822429848632E-01
 cg2d: Sum(rhs),rhsMax =  -1.96058724810655E-11  2.70713382757102E-01
 cg2d: Sum(rhs),rhsMax =  -1.98067118262202E-11  2.69596360900815E-01
 cg2d: Sum(rhs),rhsMax =  -2.00310878994969E-11  2.68472657358360E-01
 cg2d: Sum(rhs),rhsMax =  -2.02589056641500E-11  2.67343458924867E-01
 cg2d: Sum(rhs),rhsMax =  -2.04873895626179E-11  2.66209775865554E-01
 cg2d: Sum(rhs),rhsMax =  -2.07168726618079E-11  2.65072383617231E-01
 cg2d: Sum(rhs),rhsMax =  -2.09838812992302E-11  2.63931787154588E-01
 cg2d: Sum(rhs),rhsMax =  -2.12219131157099E-11  2.62788215134033E-01
 cg2d: Sum(rhs),rhsMax =  -2.14762652106515E-11  2.61641645635974E-01
 cg2d: Sum(rhs),rhsMax =  -2.17407203351172E-11  2.60491859597549E-01
 cg2d: Sum(rhs),rhsMax =  -2.20147233775947E-11  2.59338513159157E-01
 cg2d: Sum(rhs),rhsMax =  -2.22847296171835E-11  2.58181217167627E-01
 cg2d: Sum(rhs),rhsMax =  -2.25705010237220E-11  2.57019611537007E-01
 cg2d: Sum(rhs),rhsMax =  -2.28247420963612E-11  2.55853424063060E-01
 cg2d: Sum(rhs),rhsMax =  -2.31183960863746E-11  2.54682507112465E-01
 cg2d: Sum(rhs),rhsMax =  -2.34037234037032E-11  2.53506850479936E-01
 cg2d: Sum(rhs),rhsMax =  -2.37065922448210E-11  2.52326573552460E-01
 cg2d: Sum(rhs),rhsMax =  -2.39804842649960E-11  2.51141903684957E-01
 cg2d: Sum(rhs),rhsMax =  -2.43006725852979E-11  2.49953149557827E-01
 cg2d: Sum(rhs),rhsMax =  -2.45977682666876E-11  2.48760677864533E-01
 cg2d: Sum(rhs),rhsMax =  -2.48889797660468E-11  2.47564899128858E-01
 cg2d: Sum(rhs),rhsMax =  -2.52071696849043E-11  2.46366264493748E-01
 cg2d: Sum(rhs),rhsMax =  -2.55165888418674E-11  2.45165271080669E-01
 cg2d: Sum(rhs),rhsMax =  -2.57875942821784E-11  2.43962470232032E-01
 cg2d: Sum(rhs),rhsMax =  -2.60430566001446E-11  2.42758471618440E-01
 cg2d: Sum(rhs),rhsMax =  -2.62233568193437E-11  2.41553937251165E-01
 cg2d: Sum(rhs),rhsMax =  -2.62997401634379E-11  2.40804482396428E-01
 cg2d: Sum(rhs),rhsMax =  -2.63437049952131E-11  2.40461530342467E-01
 cg2d: Sum(rhs),rhsMax =  -2.64344102163250E-11  2.40115034201735E-01
 cg2d: Sum(rhs),rhsMax =  -2.66112687441478E-11  2.39764511711466E-01
 cg2d: Sum(rhs),rhsMax =  -2.68294275684866E-11  2.39409490617624E-01
 cg2d: Sum(rhs),rhsMax =  -2.70568012439298E-11  2.39049380614207E-01
 cg2d: Sum(rhs),rhsMax =  -2.72886158114716E-11  2.38683688616974E-01
 cg2d: Sum(rhs),rhsMax =  -2.75053313458784E-11  2.38311690522598E-01
 cg2d: Sum(rhs),rhsMax =  -2.76106915109153E-11  2.37932480279762E-01
 cg2d: Sum(rhs),rhsMax =  -2.77488032551787E-11  2.37545464629576E-01
 cg2d: Sum(rhs),rhsMax =  -2.78421730115497E-11  2.37150598087571E-01
 cg2d: Sum(rhs),rhsMax =  -2.79515299794753E-11  2.36748137665998E-01
 cg2d: Sum(rhs),rhsMax =  -2.80544476538580E-11  2.36338606737083E-01
 cg2d: Sum(rhs),rhsMax =  -2.81787926326160E-11  2.35922847085758E-01
 cg2d: Sum(rhs),rhsMax =  -2.82943668494795E-11  2.35501688555572E-01
 cg2d: Sum(rhs),rhsMax =  -2.84325896160453E-11  2.35075709701732E-01
 cg2d: Sum(rhs),rhsMax =  -2.85470536098842E-11  2.34645092583874E-01
 cg2d: Sum(rhs),rhsMax =  -2.86728418785742E-11  2.34209495243199E-01
 cg2d: Sum(rhs),rhsMax =  -2.87745383076299E-11  2.33768301065361E-01
 cg2d: Sum(rhs),rhsMax =  -2.88955526173140E-11  2.33320708017196E-01
 cg2d: Sum(rhs),rhsMax =  -2.90133472802268E-11  2.32865762179709E-01
 cg2d: Sum(rhs),rhsMax =  -2.91339175007010E-11  2.32402714328222E-01
 cg2d: Sum(rhs),rhsMax =  -2.92403878887626E-11  2.31930989060261E-01
 cg2d: Sum(rhs),rhsMax =  -2.93680635365945E-11  2.31450242640259E-01
 cg2d: Sum(rhs),rhsMax =  -2.94998470096175E-11  2.30960406371114E-01
 cg2d: Sum(rhs),rhsMax =  -2.96151991818761E-11  2.30461443361116E-01
 cg2d: Sum(rhs),rhsMax =  -2.97547542160714E-11  2.29953318450275E-01
 cg2d: Sum(rhs),rhsMax =  -2.99026359229515E-11  2.29435963662058E-01
 cg2d: Sum(rhs),rhsMax =  -3.00478530945725E-11  2.28909272476205E-01
 cg2d: Sum(rhs),rhsMax =  -3.01872971064654E-11  2.28373218547303E-01
 cg2d: Sum(rhs),rhsMax =  -3.03320701888765E-11  2.27827868706188E-01
 cg2d: Sum(rhs),rhsMax =  -3.04620773050601E-11  2.27273460667802E-01
 cg2d: Sum(rhs),rhsMax =  -3.06038527853048E-11  2.26709925063062E-01
 cg2d: Sum(rhs),rhsMax =  -3.07373015928647E-11  2.26136856358002E-01
 cg2d: Sum(rhs),rhsMax =  -3.10280690030140E-11  2.25553873539655E-01
 cg2d: Sum(rhs),rhsMax =  -3.13008508001644E-11  2.24960324414037E-01
 cg2d: Sum(rhs),rhsMax =  -3.15789616678330E-11  2.24355326586631E-01
 cg2d: Sum(rhs),rhsMax =  -3.18765014384326E-11  2.23737710497799E-01
 cg2d: Sum(rhs),rhsMax =  -3.21649373802302E-11  2.23106512641046E-01
 cg2d: Sum(rhs),rhsMax =  -3.24602567047805E-11  2.22460921470343E-01
 cg2d: Sum(rhs),rhsMax =  -3.27678995049041E-11  2.21800391968088E-01
 cg2d: Sum(rhs),rhsMax =  -3.30599991826830E-11  2.21124924071590E-01
 cg2d: Sum(rhs),rhsMax =  -3.33574279309801E-11  2.20434896914180E-01
 cg2d: Sum(rhs),rhsMax =  -3.36505268094811E-11  2.19730892781123E-01
 cg2d: Sum(rhs),rhsMax =  -3.39469563570560E-11  2.19013362330158E-01
 cg2d: Sum(rhs),rhsMax =  -3.42509354211984E-11  2.18282643030715E-01
 cg2d: Sum(rhs),rhsMax =  -3.45437012327920E-11  2.17538920063682E-01
 cg2d: Sum(rhs),rhsMax =  -3.48547857242920E-11  2.16781978309417E-01
 cg2d: Sum(rhs),rhsMax =  -3.51488838035152E-11  2.16011506232237E-01
 cg2d: Sum(rhs),rhsMax =  -3.54359874776833E-11  2.15226680720502E-01
 cg2d: Sum(rhs),rhsMax =  -3.57336382705853E-11  2.14426450246952E-01
 cg2d: Sum(rhs),rhsMax =  -3.60059759785258E-11  2.13610199023898E-01
 cg2d: Sum(rhs),rhsMax =  -3.62626595418192E-11  2.12777435988166E-01
 cg2d: Sum(rhs),rhsMax =  -3.65202312835322E-11  2.11927987607809E-01
 cg2d: Sum(rhs),rhsMax =  -3.67184060934278E-11  2.11061692608557E-01
 cg2d: Sum(rhs),rhsMax =  -3.68964858665777E-11  2.10178439351031E-01
 cg2d: Sum(rhs),rhsMax =  -3.70921071635166E-11  2.09278230990471E-01
 cg2d: Sum(rhs),rhsMax =  -3.73164832367934E-11  2.08361056667743E-01
 cg2d: Sum(rhs),rhsMax =  -3.75569575439272E-11  2.07427150573875E-01
 cg2d: Sum(rhs),rhsMax =  -3.77951003827093E-11  2.06476527889673E-01
 cg2d: Sum(rhs),rhsMax =  -3.80580011949405E-11  2.05509087990966E-01
 cg2d: Sum(rhs),rhsMax =  -3.83532094971883E-11  2.04524535927690E-01
 cg2d: Sum(rhs),rhsMax =  -3.86221055137526E-11  2.03522661483742E-01
 cg2d: Sum(rhs),rhsMax =  -3.88500343007081E-11  2.02503409074591E-01
 cg2d: Sum(rhs),rhsMax =  -3.91060517301867E-11  2.01466566919316E-01
 cg2d: Sum(rhs),rhsMax =  -3.92907928414843E-11  2.00411708424426E-01
 cg2d: Sum(rhs),rhsMax =  -3.94602128750421E-11  1.99338452769099E-01
 cg2d: Sum(rhs),rhsMax =  -3.96406241165437E-11  1.98246447352907E-01
 cg2d: Sum(rhs),rhsMax =  -3.98351351904580E-11  1.97135440115941E-01
 cg2d: Sum(rhs),rhsMax =  -4.00417476953407E-11  1.96005083958018E-01
 cg2d: Sum(rhs),rhsMax =  -4.02365918361625E-11  1.94855285422258E-01
 cg2d: Sum(rhs),rhsMax =  -4.04630773331860E-11  1.93685984087092E-01
 cg2d: Sum(rhs),rhsMax =  -4.06842337596913E-11  1.92497156674937E-01
 cg2d: Sum(rhs),rhsMax =  -4.09167144610478E-11  1.91288845401675E-01
 cg2d: Sum(rhs),rhsMax =  -4.11694012214525E-11  1.90061128102564E-01
 cg2d: Sum(rhs),rhsMax =  -4.13911127594702E-11  1.88814176298090E-01
 cg2d: Sum(rhs),rhsMax =  -4.16623402443861E-11  1.87548018374032E-01
 cg2d: Sum(rhs),rhsMax =  -4.19042578414519E-11  1.86262485753742E-01
 cg2d: Sum(rhs),rhsMax =  -4.21369605874133E-11  1.84957278112495E-01
 cg2d: Sum(rhs),rhsMax =  -4.23922008607747E-11  1.83631753875616E-01
 cg2d: Sum(rhs),rhsMax =  -4.26368940154020E-11  1.82285097038580E-01
 cg2d: Sum(rhs),rhsMax =  -4.29484225961119E-11  1.80916747307226E-01
 cg2d: Sum(rhs),rhsMax =  -4.32421876084277E-11  1.79526751592459E-01
 cg2d: Sum(rhs),rhsMax =  -4.35860236791541E-11  1.78115590415066E-01
 cg2d: Sum(rhs),rhsMax =  -4.39311920175101E-11  1.76684016914153E-01
 cg2d: Sum(rhs),rhsMax =  -4.42600400774040E-11  1.75232811531101E-01
 cg2d: Sum(rhs),rhsMax =  -4.46256365194131E-11  1.73762542085972E-01
 cg2d: Sum(rhs),rhsMax =  -4.48509007711095E-11  1.72832817457061E-01
 cg2d: Sum(rhs),rhsMax =  -4.48604486891213E-11  1.72783334863395E-01
 cg2d: Sum(rhs),rhsMax =  -4.48191483926053E-11  1.72755646630518E-01
 cg2d: Sum(rhs),rhsMax =  -4.46676029497439E-11  1.73134659229958E-01
 cg2d: Sum(rhs),rhsMax =  -4.44989600723034E-11  1.73754609560520E-01
 cg2d: Sum(rhs),rhsMax =  -4.40293357328869E-11  1.75681821266259E-01
 cg2d: Sum(rhs),rhsMax =  -4.35581570812360E-11  1.77594843338226E-01
 cg2d: Sum(rhs),rhsMax =  -4.30762092662462E-11  1.79449108551288E-01
 cg2d: Sum(rhs),rhsMax =  -4.26385593499390E-11  1.81244408528814E-01
 cg2d: Sum(rhs),rhsMax =  -4.22223367380070E-11  1.82980583339756E-01
 cg2d: Sum(rhs),rhsMax =  -4.18434176197024E-11  1.84657596770571E-01
 cg2d: Sum(rhs),rhsMax =  -4.15033563072598E-11  1.86275630507512E-01
 cg2d: Sum(rhs),rhsMax =  -4.12031520014011E-11  1.87834899828471E-01
 cg2d: Sum(rhs),rhsMax =  -4.08970635135120E-11  1.89335771214433E-01
 cg2d: Sum(rhs),rhsMax =  -4.06114031292759E-11  1.90778391627143E-01
 cg2d: Sum(rhs),rhsMax =  -4.03406197335698E-11  1.92163151829462E-01
 cg2d: Sum(rhs),rhsMax =  -4.00859345717208E-11  1.93489885894193E-01
 cg2d: Sum(rhs),rhsMax =  -3.98593380523948E-11  1.94758228147431E-01
 cg2d: Sum(rhs),rhsMax =  -3.96206401021004E-11  1.95967524474920E-01
 cg2d: Sum(rhs),rhsMax =  -3.94317911656117E-11  1.97117222391642E-01
 cg2d: Sum(rhs),rhsMax =  -3.92589294406775E-11  1.98207091449616E-01
 cg2d: Sum(rhs),rhsMax =  -3.90601995192696E-11  1.99236862434548E-01
 cg2d: Sum(rhs),rhsMax =  -3.88918897087365E-11  2.00206327626954E-01
 cg2d: Sum(rhs),rhsMax =  -3.87305743032584E-11  2.01114614064101E-01
 cg2d: Sum(rhs),rhsMax =  -3.85945719827419E-11  2.01962069728169E-01
 cg2d: Sum(rhs),rhsMax =  -3.84963172450625E-11  2.02748060241436E-01
 cg2d: Sum(rhs),rhsMax =  -3.83624243482927E-11  2.03473246941102E-01
 cg2d: Sum(rhs),rhsMax =  -3.82230913587023E-11  2.04137270813378E-01
 cg2d: Sum(rhs),rhsMax =  -3.80898645957473E-11  2.04740193781916E-01
 cg2d: Sum(rhs),rhsMax =  -3.79832831853832E-11  2.05283208634223E-01
 cg2d: Sum(rhs),rhsMax =  -3.78557185598538E-11  2.05765745162690E-01
 cg2d: Sum(rhs),rhsMax =  -3.77193831724298E-11  2.06187979315866E-01
 cg2d: Sum(rhs),rhsMax =  -3.76009223757023E-11  2.06550409699110E-01
 cg2d: Sum(rhs),rhsMax =  -3.75088848869609E-11  2.06853941160061E-01
 cg2d: Sum(rhs),rhsMax =  -3.74225095356451E-11  2.07098957988065E-01
 cg2d: Sum(rhs),rhsMax =  -3.73624464700129E-11  2.07286181163356E-01
 cg2d: Sum(rhs),rhsMax =  -3.73107100770653E-11  2.07416224881078E-01
 cg2d: Sum(rhs),rhsMax =  -3.72667452452902E-11  2.07489393145932E-01
 cg2d: Sum(rhs),rhsMax =  -3.72459840747297E-11  2.07505849151085E-01
 cg2d: Sum(rhs),rhsMax =  -3.71662700615616E-11  2.07465603214191E-01
 cg2d: Sum(rhs),rhsMax =  -3.71128683340771E-11  2.07440074549893E-01
 cg2d: Sum(rhs),rhsMax =  -3.68229891023475E-11  2.08580695250316E-01
 cg2d: Sum(rhs),rhsMax =  -3.65125707446623E-11  2.09724951764371E-01
 cg2d: Sum(rhs),rhsMax =  -3.62476715309867E-11  2.10872457181981E-01
 cg2d: Sum(rhs),rhsMax =  -3.59318130804809E-11  2.12022810577390E-01
 cg2d: Sum(rhs),rhsMax =  -3.56743523610703E-11  2.13175506812722E-01
 cg2d: Sum(rhs),rhsMax =  -3.53832518840136E-11  2.14329875873137E-01
 cg2d: Sum(rhs),rhsMax =  -3.50834916673648E-11  2.15485101270889E-01
 cg2d: Sum(rhs),rhsMax =  -3.47890605212342E-11  2.16640271381605E-01
 cg2d: Sum(rhs),rhsMax =  -3.45113937427755E-11  2.17794381051815E-01
 cg2d: Sum(rhs),rhsMax =  -3.42077477455405E-11  2.18946355620627E-01
 cg2d: Sum(rhs),rhsMax =  -3.38925554288494E-11  2.20095034532310E-01
 cg2d: Sum(rhs),rhsMax =  -3.35831362718864E-11  2.21239243953027E-01
 cg2d: Sum(rhs),rhsMax =  -3.32758265386701E-11  2.22377933808464E-01
 cg2d: Sum(rhs),rhsMax =  -3.30032667861246E-11  2.23510150446910E-01
 cg2d: Sum(rhs),rhsMax =  -3.27250448961536E-11  2.24635180218943E-01
 cg2d: Sum(rhs),rhsMax =  -3.24168469845176E-11  2.25752541721018E-01
 cg2d: Sum(rhs),rhsMax =  -3.21289661542323E-11  2.26862052991614E-01
 cg2d: Sum(rhs),rhsMax =  -3.18576276470139E-11  2.27963709658919E-01
 cg2d: Sum(rhs),rhsMax =  -3.15610870771366E-11  2.29057513200947E-01
 cg2d: Sum(rhs),rhsMax =  -3.12941894620167E-11  2.30143350721160E-01
 cg2d: Sum(rhs),rhsMax =  -3.10074188547560E-11  2.31221177717593E-01
 cg2d: Sum(rhs),rhsMax =  -3.07690539713690E-11  2.32290796509960E-01
 cg2d: Sum(rhs),rhsMax =  -3.04671843309734E-11  2.33351932906758E-01
 cg2d: Sum(rhs),rhsMax =  -3.01869640395580E-11  2.34404203605745E-01
 cg2d: Sum(rhs),rhsMax =  -2.99074098819574E-11  2.35447152747640E-01
 cg2d: Sum(rhs),rhsMax =  -2.96380697761833E-11  2.36480385950872E-01
 cg2d: Sum(rhs),rhsMax =  -2.93798319006555E-11  2.37503475464890E-01
 cg2d: Sum(rhs),rhsMax =  -2.91349167014232E-11  2.38515832000004E-01
 cg2d: Sum(rhs),rhsMax =  -2.88722379337969E-11  2.39517081274240E-01
 cg2d: Sum(rhs),rhsMax =  -2.86031198726278E-11  2.40506640158662E-01
 cg2d: Sum(rhs),rhsMax =  -2.83533196920871E-11  2.41483670317222E-01
 cg2d: Sum(rhs),rhsMax =  -2.80573342337220E-11  2.42447277223456E-01
 cg2d: Sum(rhs),rhsMax =  -2.77902145739972E-11  2.43396399147743E-01
 cg2d: Sum(rhs),rhsMax =  -2.76155764922237E-11  2.44329807285849E-01
 cg2d: Sum(rhs),rhsMax =  -2.73340239331787E-11  2.45246162266090E-01
 cg2d: Sum(rhs),rhsMax =  -2.70629074705653E-11  2.46144169093958E-01
 cg2d: Sum(rhs),rhsMax =  -2.67826871791499E-11  2.47022429423365E-01
 cg2d: Sum(rhs),rhsMax =  -2.65298893964427E-11  2.47879519018215E-01
 cg2d: Sum(rhs),rhsMax =  -2.62776467252479E-11  2.48714325085581E-01
 cg2d: Sum(rhs),rhsMax =  -2.60305110799663E-11  2.49525744038123E-01
 cg2d: Sum(rhs),rhsMax =  -2.57844856577094E-11  2.50312678286192E-01
 cg2d: Sum(rhs),rhsMax =  -2.55220289346880E-11  2.51074210826194E-01
 cg2d: Sum(rhs),rhsMax =  -2.52835530289985E-11  2.51809522415931E-01
 cg2d: Sum(rhs),rhsMax =  -2.50616194463760E-11  2.52517870197190E-01
 cg2d: Sum(rhs),rhsMax =  -2.48266962543653E-11  2.53198643520930E-01
 cg2d: Sum(rhs),rhsMax =  -2.46060949393723E-11  2.53851419592196E-01
 cg2d: Sum(rhs),rhsMax =  -2.43631781415843E-11  2.54475979765631E-01
 cg2d: Sum(rhs),rhsMax =  -2.41268116596416E-11  2.55072255718319E-01
 cg2d: Sum(rhs),rhsMax =  -2.38750130776566E-11  2.55639789006650E-01
 cg2d: Sum(rhs),rhsMax =  -2.36460850899789E-11  2.56178101606091E-01
 cg2d: Sum(rhs),rhsMax =  -2.34312569347139E-11  2.56686730855364E-01
 cg2d: Sum(rhs),rhsMax =  -2.33452146503055E-11  2.57165264062351E-01
 cg2d: Sum(rhs),rhsMax =  -2.32623920126684E-11  2.57613096245508E-01
 cg2d: Sum(rhs),rhsMax =  -2.30502283926626E-11  2.58029494260732E-01
 cg2d: Sum(rhs),rhsMax =  -2.29606333945753E-11  2.58414084089132E-01
 cg2d: Sum(rhs),rhsMax =  -2.28841390281787E-11  2.58766755270781E-01
 cg2d: Sum(rhs),rhsMax =  -2.28044250150106E-11  2.59087268520650E-01
 cg2d: Sum(rhs),rhsMax =  -2.27174945521824E-11  2.59375509127218E-01
 cg2d: Sum(rhs),rhsMax =  -2.26779706125058E-11  2.59631360502760E-01
 cg2d: Sum(rhs),rhsMax =  -2.25897078820481E-11  2.59854586140025E-01
 cg2d: Sum(rhs),rhsMax =  -2.25545138121674E-11  2.60044840173768E-01
 cg2d: Sum(rhs),rhsMax =  -2.25026663969174E-11  2.60201686691270E-01
 cg2d: Sum(rhs),rhsMax =  -2.24521512492970E-11  2.60324554771363E-01
 cg2d: Sum(rhs),rhsMax =  -2.24249507851937E-11  2.60412674595201E-01
 cg2d: Sum(rhs),rhsMax =  -2.24026353023987E-11  2.60465057622111E-01
 cg2d: Sum(rhs),rhsMax =  -2.23785434627644E-11  2.60480831866605E-01
 cg2d: Sum(rhs),rhsMax =  -2.23154827949656E-11  2.60459244604316E-01
 cg2d: Sum(rhs),rhsMax =  -2.21790363852392E-11  2.60399387743966E-01
 cg2d: Sum(rhs),rhsMax =  -2.20444773546546E-11  2.60300469078417E-01
 cg2d: Sum(rhs),rhsMax =  -2.20231610725818E-11  2.60161585637346E-01
 cg2d: Sum(rhs),rhsMax =  -2.19489981745369E-11  2.60769546902226E-01
 cg2d: Sum(rhs),rhsMax =  -2.18657314476900E-11  2.61810251615650E-01
 cg2d: Sum(rhs),rhsMax =  -2.17430518034689E-11  2.62841165982681E-01
 cg2d: Sum(rhs),rhsMax =  -2.16368034600123E-11  2.63862420391927E-01
 cg2d: Sum(rhs),rhsMax =  -2.15389928115428E-11  2.64874168925526E-01
 cg2d: Sum(rhs),rhsMax =  -2.14309681112468E-11  2.65876563583380E-01
 cg2d: Sum(rhs),rhsMax =  -2.13287165706788E-11  2.66869730682072E-01
 cg2d: Sum(rhs),rhsMax =  -2.12260209409010E-11  2.67853751052796E-01
 cg2d: Sum(rhs),rhsMax =  -2.11431983032639E-11  2.68828644654522E-01
 cg2d: Sum(rhs),rhsMax =  -2.10456096993994E-11  2.69794359514274E-01
 cg2d: Sum(rhs),rhsMax =  -2.09572359466392E-11  2.70750764590095E-01
 cg2d: Sum(rhs),rhsMax =  -2.08585371197501E-11  2.71697646150755E-01
 cg2d: Sum(rhs),rhsMax =  -2.07690531439653E-11  2.72634707436018E-01
 cg2d: Sum(rhs),rhsMax =  -2.06836769933716E-11  2.73561571568552E-01
 cg2d: Sum(rhs),rhsMax =  -2.06021866233641E-11  2.74477787846972E-01
 cg2d: Sum(rhs),rhsMax =  -2.05176986511901E-11  2.75382841617372E-01
 cg2d: Sum(rhs),rhsMax =  -2.04140038206901E-11  2.76276167887303E-01
 cg2d: Sum(rhs),rhsMax =  -2.03478345284225E-11  2.77157168722710E-01
 cg2d: Sum(rhs),rhsMax =  -2.02684535821618E-11  2.78025234280258E-01
 cg2d: Sum(rhs),rhsMax =  -2.01796357401918E-11  2.78879767094305E-01
 cg2d: Sum(rhs),rhsMax =  -2.01018091061655E-11  2.79720208948440E-01
 cg2d: Sum(rhs),rhsMax =  -2.00147676210349E-11  2.80546069268883E-01
 cg2d: Sum(rhs),rhsMax =  -1.99521510424461E-11  2.81356953433725E-01
 cg2d: Sum(rhs),rhsMax =  -1.98928651329311E-11  2.82152588718474E-01
 cg2d: Sum(rhs),rhsMax =  -1.97940552837395E-11  2.82932844941659E-01
 cg2d: Sum(rhs),rhsMax =  -1.97354355080392E-11  2.83697746503655E-01
 cg2d: Sum(rhs),rhsMax =  -1.96663796359076E-11  2.84447472725954E-01
 cg2d: Sum(rhs),rhsMax =  -1.96265226293235E-11  2.85182344373781E-01
 cg2d: Sum(rhs),rhsMax =  -1.95654603629691E-11  2.85902795907093E-01
 cg2d: Sum(rhs),rhsMax =  -1.94979588030719E-11  2.86609335002537E-01
 cg2d: Sum(rhs),rhsMax =  -1.94445570755875E-11  2.87302492708177E-01
 cg2d: Sum(rhs),rhsMax =  -1.94141369647127E-11  2.87982768763705E-01
 cg2d: Sum(rhs),rhsMax =  -1.92477145333214E-11  2.88650576910021E-01
 cg2d: Sum(rhs),rhsMax =  -1.91160420826009E-11  2.89306194513593E-01
 cg2d: Sum(rhs),rhsMax =  -1.90005788880399E-11  2.89949719886524E-01
 cg2d: Sum(rhs),rhsMax =  -1.89446236475987E-11  2.90581039706568E-01
 cg2d: Sum(rhs),rhsMax =  -1.89152027374462E-11  2.91199808218003E-01
 cg2d: Sum(rhs),rhsMax =  -1.88539184264869E-11  2.91805439462751E-01
 cg2d: Sum(rhs),rhsMax =  -1.88250526278466E-11  2.92397113460504E-01
 cg2d: Sum(rhs),rhsMax =  -1.87776461046951E-11  2.92973796738496E-01
 cg2d: Sum(rhs),rhsMax =  -1.87222459757663E-11  2.93534276703176E-01
 cg2d: Sum(rhs),rhsMax =  -1.87118098793349E-11  2.94077208068402E-01
 cg2d: Sum(rhs),rhsMax =  -1.86446413863450E-11  2.94601168177120E-01
 cg2d: Sum(rhs),rhsMax =  -1.85979009970083E-11  2.95104716984447E-01
 cg2d: Sum(rhs),rhsMax =  -1.85289561471791E-11  2.96252659507717E-01
 cg2d: Sum(rhs),rhsMax =  -1.83923987151502E-11  2.98579180240706E-01
 cg2d: Sum(rhs),rhsMax =  -1.82658332903429E-11  3.00146368686653E-01
 cg2d: Sum(rhs),rhsMax =  -1.82140968973954E-11  3.00988637953206E-01
 cg2d: Sum(rhs),rhsMax =  -1.81942239052546E-11  3.01108836607601E-01
 cg2d: Sum(rhs),rhsMax =  -1.82112103175314E-11  3.00454962161503E-01
 cg2d: Sum(rhs),rhsMax =  -1.82960313566127E-11  2.98850401480413E-01
(PID.TID 0000.0001)      cg2d_init_res =   1.13365371893640E-01
(PID.TID 0000.0001)      cg2d_iters(min,last) =      -1      30
(PID.TID 0000.0001)      cg2d_last_res =   5.05046602759674E-14
(PID.TID 0000.0001) // =======================================================
(PID.TID 0000.0001) // Begin MONITOR dynamic field statistics
(PID.TID 0000.0001) // =======================================================
(PID.TID 0000.0001) %MON time_tsnumber                =                  5760
(PID.TID 0000.0001) %MON time_secondsf                =   8.6400000000000E+04
(PID.TID 0000.0001) %MON dynstat_eta_max              =   3.2531976084478E-02
(PID.TID 0000.0001) %MON dynstat_eta_min              =  -2.3983902197031E-02
(PID.TID 0000.0001) %MON dynstat_eta_mean             =   6.3156896393243E-15
(PID.TID 0000.0001) %MON dynstat_eta_sd               =   1.3927758791014E-02
(PID.TID 0000.0001) %MON dynstat_eta_del2             =   3.8892100702763E-04
(PID.TID 0000.0001) %MON dynstat_uvel_max             =   1.7189750932291E+00
(PID.TID 0000.0001) %MON dynstat_uvel_min             =  -8.1142639277748E-01
(PID.TID 0000.0001) %MON dynstat_uvel_mean            =   2.2418472599426E-04
(PID.TID 0000.0001) %MON dynstat_uvel_sd              =   3.0008497459561E-01
(PID.TID 0000.0001) %MON dynstat_uvel_del2            =   1.2657722045963E-03
(PID.TID 0000.0001) %MON dynstat_vvel_max             =   0.0000000000000E+00
(PID.TID 0000.0001) %MON dynstat_vvel_min             =   0.0000000000000E+00
(PID.TID 0000.0001) %MON dynstat_vvel_mean            =   0.0000000000000E+00
(PID.TID 0000.0001) %MON dynstat_vvel_sd              =   0.0000000000000E+00
(PID.TID 0000.0001) %MON dynstat_vvel_del2            =   0.0000000000000E+00
(PID.TID 0000.0001) %MON dynstat_wvel_max             =   5.4798053979594E-02
(PID.TID 0000.0001) %MON dynstat_wvel_min             =  -5.4354764941275E-02
(PID.TID 0000.0001) %MON dynstat_wvel_mean            =  -1.3115187235224E-20
(PID.TID 0000.0001) %MON dynstat_wvel_sd              =   6.4845041082106E-03
(PID.TID 0000.0001) %MON dynstat_wvel_del2            =   1.4221011804994E-04
(PID.TID 0000.0001) %MON dynstat_theta_max            =   1.4976502385660E+01
(PID.TID 0000.0001) %MON dynstat_theta_min            =   9.9765023856429E+00
(PID.TID 0000.0001) %MON dynstat_theta_mean           =   1.2375333512952E+01
(PID.TID 0000.0001) %MON dynstat_theta_sd             =   2.2020688305379E+00
(PID.TID 0000.0001) %MON dynstat_theta_del2           =   3.2139319620126E-03
(PID.TID 0000.0001) %MON dynstat_salt_max             =   3.5000000000000E+01
(PID.TID 0000.0001) %MON dynstat_salt_min             =   3.5000000000000E+01
(PID.TID 0000.0001) %MON dynstat_salt_mean            =   3.5000000000000E+01
(PID.TID 0000.0001) %MON dynstat_salt_sd              =   3.4816594052245E-13
(PID.TID 0000.0001) %MON dynstat_salt_del2            =   0.0000000000000E+00
(PID.TID 0000.0001) %MON dynstat_sst_max              =   1.4976502385655E+01
(PID.TID 0000.0001) %MON dynstat_sst_min              =   1.4631116639036E+01
(PID.TID 0000.0001) %MON dynstat_sst_mean             =   1.4922142153606E+01
(PID.TID 0000.0001) %MON dynstat_sst_sd               =   9.8388646522321E-02
(PID.TID 0000.0001) %MON dynstat_sst_del2             =   9.3813972525754E-04
(PID.TID 0000.0001) %MON dynstat_sss_max              =   3.5000000000000E+01
(PID.TID 0000.0001) %MON dynstat_sss_min              =   3.5000000000000E+01
(PID.TID 0000.0001) %MON dynstat_sss_mean             =   3.5000000000000E+01
(PID.TID 0000.0001) %MON dynstat_sss_sd               =   3.5527136788005E-14
(PID.TID 0000.0001) %MON dynstat_sss_del2             =   0.0000000000000E+00
(PID.TID 0000.0001) %MON forcing_qnet_max             =   0.0000000000000E+00
(PID.TID 0000.0001) %MON forcing_qnet_min             =   0.0000000000000E+00
(PID.TID 0000.0001) %MON forcing_qnet_mean            =   0.0000000000000E+00
(PID.TID 0000.0001) %MON forcing_qnet_sd              =   0.0000000000000E+00
(PID.TID 0000.0001) %MON forcing_qnet_del2            =   0.0000000000000E+00
(PID.TID 0000.0001) %MON forcing_qsw_max              =   0.0000000000000E+00
(PID.TID 0000.0001) %MON forcing_qsw_min              =   0.0000000000000E+00
(PID.TID 0000.0001) %MON forcing_qsw_mean             =   0.0000000000000E+00
(PID.TID 0000.0001) %MON forcing_qsw_sd               =   0.0000000000000E+00
(PID.TID 0000.0001) %MON forcing_qsw_del2             =   0.0000000000000E+00
(PID.TID 0000.0001) %MON forcing_empmr_max            =   0.0000000000000E+00
(PID.TID 0000.0001) %MON forcing_empmr_min            =   0.0000000000000E+00
(PID.TID 0000.0001) %MON forcing_empmr_mean           =   0.0000000000000E+00
(PID.TID 0000.0001) %MON forcing_empmr_sd             =   0.0000000000000E+00
(PID.TID 0000.0001) %MON forcing_empmr_del2           =   0.0000000000000E+00
(PID.TID 0000.0001) %MON forcing_fu_max               =   0.0000000000000E+00
(PID.TID 0000.0001) %MON forcing_fu_min               =   0.0000000000000E+00
(PID.TID 0000.0001) %MON forcing_fu_mean              =   0.0000000000000E+00
(PID.TID 0000.0001) %MON forcing_fu_sd                =   0.0000000000000E+00
(PID.TID 0000.0001) %MON forcing_fu_del2              =   0.0000000000000E+00
(PID.TID 0000.0001) %MON forcing_fv_max               =   0.0000000000000E+00
(PID.TID 0000.0001) %MON forcing_fv_min               =   0.0000000000000E+00
(PID.TID 0000.0001) %MON forcing_fv_mean              =   0.0000000000000E+00
(PID.TID 0000.0001) %MON forcing_fv_sd                =   0.0000000000000E+00
(PID.TID 0000.0001) %MON forcing_fv_del2              =   0.0000000000000E+00
(PID.TID 0000.0001) %MON advcfl_uvel_max              =   1.0248756667984E-01
(PID.TID 0000.0001) %MON advcfl_vvel_max              =   0.0000000000000E+00
(PID.TID 0000.0001) %MON advcfl_wvel_max              =   3.5680181750323E-01
(PID.TID 0000.0001) %MON advcfl_W_hf_max              =   3.5953050266043E-01
(PID.TID 0000.0001) %MON pe_b_mean                    =   5.4455298278619E-06
(PID.TID 0000.0001) %MON ke_max                       =   1.1852384725404E+00
(PID.TID 0000.0001) %MON ke_mean                      =   4.5523927480760E-02
(PID.TID 0000.0001) %MON ke_vol                       =   8.5337279889550E+10
(PID.TID 0000.0001) %MON vort_r_min                   =   0.0000000000000E+00
(PID.TID 0000.0001) %MON vort_r_max                   =   0.0000000000000E+00
(PID.TID 0000.0001) %MON vort_a_mean                  =   0.0000000000000E+00
(PID.TID 0000.0001) %MON vort_a_sd                    =   0.0000000000000E+00
(PID.TID 0000.0001) %MON vort_p_mean                  =   0.0000000000000E+00
(PID.TID 0000.0001) %MON vort_p_sd                    =   0.0000000000000E+00
(PID.TID 0000.0001) %MON surfExpan_theta_mean         =   6.9682834125117E-08
(PID.TID 0000.0001) %MON surfExpan_salt_mean          =  -9.5239101682092E-19
(PID.TID 0000.0001) // =======================================================
(PID.TID 0000.0001) // End MONITOR dynamic field statistics
(PID.TID 0000.0001) // =======================================================
(PID.TID 0000.0001) // =======================================================
(PID.TID 0000.0001) // Begin OBCS MONITOR field statistics
(PID.TID 0000.0001) // =======================================================
(PID.TID 0000.0001) %MON obc_E_uVel_max               =   0.0000000000000E+00
(PID.TID 0000.0001) %MON obc_E_uVel_min               =   0.0000000000000E+00
(PID.TID 0000.0001) %MON obc_E_uVel_mean              =   0.0000000000000E+00
(PID.TID 0000.0001) %MON obc_E_uVel_sd                =   0.0000000000000E+00
(PID.TID 0000.0001) %MON obc_E_uVel_Int               =   0.0000000000000E+00
(PID.TID 0000.0001) %MON obc_W_uVel_max               =   0.0000000000000E+00
(PID.TID 0000.0001) %MON obc_W_uVel_min               =   0.0000000000000E+00
(PID.TID 0000.0001) %MON obc_W_uVel_mean              =   0.0000000000000E+00
(PID.TID 0000.0001) %MON obc_W_uVel_sd                =   0.0000000000000E+00
(PID.TID 0000.0001) %MON obc_W_uVel_Int               =   0.0000000000000E+00
(PID.TID 0000.0001) // =======================================================
(PID.TID 0000.0001) // End OBCS MONITOR field statistics
(PID.TID 0000.0001) // =======================================================
(PID.TID 0000.0001) %CHECKPOINT      5760 0000005760
 cg2d: Sum(rhs),rhsMax =  -1.83316695157032E-11  2.98261315086907E-01
 cg2d: Sum(rhs),rhsMax =  -1.82949211335881E-11  2.98537618804996E-01
 cg2d: Sum(rhs),rhsMax =  -1.82630577327814E-11  2.98787526091743E-01
 cg2d: Sum(rhs),rhsMax =  -1.82258652614564E-11  2.99013943836780E-01
 cg2d: Sum(rhs),rhsMax =  -1.81754611361384E-11  2.99681529002491E-01
 cg2d: Sum(rhs),rhsMax =  -1.81566983670223E-11  3.00326079816245E-01
 cg2d: Sum(rhs),rhsMax =  -1.80799819560207E-11  3.00947471443578E-01
 cg2d: Sum(rhs),rhsMax =  -1.80546688710592E-11  3.01545636125274E-01
 cg2d: Sum(rhs),rhsMax =  -1.79917192255630E-11  3.02120544039535E-01
 cg2d: Sum(rhs),rhsMax =  -1.79448678139238E-11  3.02672126533733E-01
 cg2d: Sum(rhs),rhsMax =  -1.79140036138392E-11  3.03200291477560E-01
 cg2d: Sum(rhs),rhsMax =  -1.78586034849104E-11  3.03704865049884E-01
 cg2d: Sum(rhs),rhsMax =  -1.78171921660919E-11  3.04185517773598E-01
 cg2d: Sum(rhs),rhsMax =  -1.77113879118451E-11  3.04642025420342E-01
 cg2d: Sum(rhs),rhsMax =  -1.75855996431551E-11  3.05073880314872E-01
 cg2d: Sum(rhs),rhsMax =  -1.75244263544982E-11  3.05480587021402E-01
 cg2d: Sum(rhs),rhsMax =  -1.74323888657568E-11  3.05861631440192E-01
 cg2d: Sum(rhs),rhsMax =  -1.73477898712804E-11  3.06216527570043E-01
 cg2d: Sum(rhs),rhsMax =  -1.73069336639742E-11  3.06544843342715E-01
 cg2d: Sum(rhs),rhsMax =  -1.73389080870834E-11  3.06846119322491E-01
 cg2d: Sum(rhs),rhsMax =  -1.73935310598949E-11  3.07119871027817E-01
 cg2d: Sum(rhs),rhsMax =  -1.73800973612970E-11  3.07365641855473E-01
 cg2d: Sum(rhs),rhsMax =  -1.73676628634212E-11  3.07582882597670E-01
 cg2d: Sum(rhs),rhsMax =  -1.71672676074763E-11  3.11793370348153E-01
 cg2d: Sum(rhs),rhsMax =  -1.67958980057392E-11  3.19577807930595E-01
 cg2d: Sum(rhs),rhsMax =  -1.64960267667880E-11  3.26600644770025E-01
 cg2d: Sum(rhs),rhsMax =  -1.62133639847184E-11  3.32834128008846E-01
 cg2d: Sum(rhs),rhsMax =  -1.59887658668367E-11  3.38317627536687E-01
 cg2d: Sum(rhs),rhsMax =  -1.58033586217243E-11  3.43051947491486E-01
 cg2d: Sum(rhs),rhsMax =  -1.56505919335359E-11  3.47028588970816E-01
 cg2d: Sum(rhs),rhsMax =  -1.55556678649305E-11  3.50346793818572E-01
 cg2d: Sum(rhs),rhsMax =  -1.54986024014647E-11  3.52712448925555E-01
 cg2d: Sum(rhs),rhsMax =  -1.54660728668432E-11  3.54209203779830E-01
 cg2d: Sum(rhs),rhsMax =  -1.54919410633170E-11  3.54624874424938E-01
 cg2d: Sum(rhs),rhsMax =  -1.55392365641660E-11  3.53996397802610E-01
 cg2d: Sum(rhs),rhsMax =  -1.56322732536296E-11  3.52756013407166E-01
 cg2d: Sum(rhs),rhsMax =  -1.57889257224042E-11  3.50584135403892E-01
 cg2d: Sum(rhs),rhsMax =  -1.59899871121638E-11  3.47320187003062E-01
 cg2d: Sum(rhs),rhsMax =  -1.62132529624159E-11  3.43094538809988E-01
 cg2d: Sum(rhs),rhsMax =  -1.64739333285979E-11  3.37590198567798E-01
 cg2d: Sum(rhs),rhsMax =  -1.68260960720090E-11  3.30879748871664E-01
 cg2d: Sum(rhs),rhsMax =  -1.72016845212397E-11  3.23870691224189E-01
 cg2d: Sum(rhs),rhsMax =  -1.77390324651583E-11  3.14406468906430E-01
 cg2d: Sum(rhs),rhsMax =  -1.83075776760688E-11  3.04949415506511E-01
 cg2d: Sum(rhs),rhsMax =  -1.83666415409789E-11  3.04302290990088E-01
 cg2d: Sum(rhs),rhsMax =  -1.84035009453964E-11  3.03784821462158E-01
 cg2d: Sum(rhs),rhsMax =  -1.84700033045715E-11  3.03233066290439E-01
 cg2d: Sum(rhs),rhsMax =  -1.85452764256411E-11  3.02646219031682E-01
 cg2d: Sum(rhs),rhsMax =  -1.86690662928868E-11  3.02023481233087E-01
 cg2d: Sum(rhs),rhsMax =  -1.87636572945848E-11  3.01364119101630E-01
 cg2d: Sum(rhs),rhsMax =  -1.88388193933520E-11  3.00667591432313E-01
 cg2d: Sum(rhs),rhsMax =  -1.89427362684569E-11  2.99933383376959E-01
 cg2d: Sum(rhs),rhsMax =  -1.89839255426705E-11  2.99160639430733E-01
 cg2d: Sum(rhs),rhsMax =  -1.90992777149290E-11  2.98348592553879E-01
 cg2d: Sum(rhs),rhsMax =  -1.92375004814949E-11  2.97496585170779E-01
 cg2d: Sum(rhs),rhsMax =  -1.93484117616549E-11  2.96603963191239E-01
 cg2d: Sum(rhs),rhsMax =  -1.94856353274986E-11  2.95669864735538E-01
 cg2d: Sum(rhs),rhsMax =  -1.96168636890093E-11  2.94693451650650E-01
 cg2d: Sum(rhs),rhsMax =  -1.97786231836972E-11  2.93674123802802E-01
 cg2d: Sum(rhs),rhsMax =  -1.99210647977566E-11  2.92611429138541E-01
 cg2d: Sum(rhs),rhsMax =  -2.00637284564209E-11  2.91504785188509E-01
 cg2d: Sum(rhs),rhsMax =  -2.02231564827571E-11  2.90353793289739E-01
 cg2d: Sum(rhs),rhsMax =  -2.03985717206479E-11  2.89158102718817E-01
 cg2d: Sum(rhs),rhsMax =  -2.03490557737496E-11  2.90863046006293E-01
 cg2d: Sum(rhs),rhsMax =  -2.00836014485617E-11  2.95877085373803E-01
 cg2d: Sum(rhs),rhsMax =  -1.98667748918524E-11  3.00316110524705E-01
 cg2d: Sum(rhs),rhsMax =  -1.96914706762641E-11  3.04104644481905E-01
 cg2d: Sum(rhs),rhsMax =  -1.95918836709552E-11  3.07203741503534E-01
 cg2d: Sum(rhs),rhsMax =  -1.95182758844226E-11  3.09607452354770E-01
 cg2d: Sum(rhs),rhsMax =  -1.94922966656463E-11  3.11700242793488E-01
 cg2d: Sum(rhs),rhsMax =  -1.95328198060452E-11  3.12212652107736E-01
 cg2d: Sum(rhs),rhsMax =  -1.96358485027304E-11  3.12187464759012E-01
 cg2d: Sum(rhs),rhsMax =  -1.97732941131790E-11  3.11869273806030E-01
 cg2d: Sum(rhs),rhsMax =  -1.98765448544691E-11  3.11390502883717E-01
 cg2d: Sum(rhs),rhsMax =  -2.01122452025970E-11  3.09229145152085E-01
 cg2d: Sum(rhs),rhsMax =  -2.03703720558224E-11  3.06801889702399E-01
 cg2d: Sum(rhs),rhsMax =  -2.06450412321146E-11  3.03971639896637E-01
 cg2d: Sum(rhs),rhsMax =  -2.09117168026296E-11  3.01444766654885E-01
 cg2d: Sum(rhs),rhsMax =  -2.05567785016569E-11  3.07845752461695E-01
 cg2d: Sum(rhs),rhsMax =  -2.02667882476248E-11  3.13928262945233E-01
 cg2d: Sum(rhs),rhsMax =  -2.00216510037876E-11  3.19662735868719E-01
 cg2d: Sum(rhs),rhsMax =  -1.98103755622014E-11  3.24971797817207E-01
 cg2d: Sum(rhs),rhsMax =  -1.96219707149226E-11  3.29890039667959E-01
 cg2d: Sum(rhs),rhsMax =  -1.95049532081271E-11  3.34409837664089E-01
 cg2d: Sum(rhs),rhsMax =  -1.94009253107197E-11  3.38550006546738E-01
 cg2d: Sum(rhs),rhsMax =  -1.93308702378658E-11  3.42244294241300E-01
 cg2d: Sum(rhs),rhsMax =  -1.92796889564306E-11  3.45118234393859E-01
 cg2d: Sum(rhs),rhsMax =  -1.92356131023530E-11  3.47834460110321E-01
 cg2d: Sum(rhs),rhsMax =  -1.91952009842566E-11  3.50079718868491E-01
 cg2d: Sum(rhs),rhsMax =  -1.91914262259729E-11  3.51971563920413E-01
 cg2d: Sum(rhs),rhsMax =  -1.91873184007818E-11  3.53457020227142E-01
 cg2d: Sum(rhs),rhsMax =  -1.91425764128894E-11  3.53980494821815E-01
 cg2d: Sum(rhs),rhsMax =  -1.90516491471726E-11  3.54089446280776E-01
 cg2d: Sum(rhs),rhsMax =  -1.89749327361710E-11  3.53419657490433E-01
 cg2d: Sum(rhs),rhsMax =  -1.90066851146753E-11  3.52527177173990E-01
 cg2d: Sum(rhs),rhsMax =  -1.90604199090672E-11  3.51489892104786E-01
 cg2d: Sum(rhs),rhsMax =  -1.91833215978932E-11  3.49287586065869E-01
 cg2d: Sum(rhs),rhsMax =  -1.92706961499312E-11  3.47472485977096E-01
 cg2d: Sum(rhs),rhsMax =  -1.93328686393102E-11  3.45215287030173E-01
 cg2d: Sum(rhs),rhsMax =  -1.96355154358230E-11  3.41784908221938E-01
 cg2d: Sum(rhs),rhsMax =  -1.99368299647062E-11  3.38444935967084E-01
 cg2d: Sum(rhs),rhsMax =  -2.02867722620681E-11  3.34457751662932E-01
 cg2d: Sum(rhs),rhsMax =  -2.06247241507640E-11  3.30417226450470E-01
 cg2d: Sum(rhs),rhsMax =  -2.10149675439197E-11  3.25972862524876E-01
 cg2d: Sum(rhs),rhsMax =  -2.14466222558940E-11  3.20997944657525E-01
 cg2d: Sum(rhs),rhsMax =  -2.18882689750899E-11  3.15723575228392E-01
 cg2d: Sum(rhs),rhsMax =  -2.23775442620422E-11  3.10318716004932E-01
 cg2d: Sum(rhs),rhsMax =  -2.29345431534966E-11  3.04524767926938E-01
 cg2d: Sum(rhs),rhsMax =  -2.34969821377717E-11  2.98470382978560E-01
 cg2d: Sum(rhs),rhsMax =  -2.41411335366593E-11  2.91750423029252E-01
 cg2d: Sum(rhs),rhsMax =  -2.48780995804054E-11  2.84657316591796E-01
 cg2d: Sum(rhs),rhsMax =  -2.56391574637860E-11  2.77443571812621E-01
 cg2d: Sum(rhs),rhsMax =  -2.61314303529048E-11  2.73414811760456E-01
 cg2d: Sum(rhs),rhsMax =  -2.62930788252902E-11  2.72611558106711E-01
 cg2d: Sum(rhs),rhsMax =  -2.65616417749470E-11  2.71100844438565E-01
 cg2d: Sum(rhs),rhsMax =  -2.69289035514930E-11  2.68644833283873E-01
 cg2d: Sum(rhs),rhsMax =  -2.73738809397628E-11  2.65473871811450E-01
 cg2d: Sum(rhs),rhsMax =  -2.78704836986776E-11  2.61730589791523E-01
 cg2d: Sum(rhs),rhsMax =  -2.85002021982450E-11  2.57345634760378E-01
 cg2d: Sum(rhs),rhsMax =  -2.92265101009548E-11  2.52206157918668E-01
 cg2d: Sum(rhs),rhsMax =  -2.99339442122459E-11  2.47429256594976E-01
 cg2d: Sum(rhs),rhsMax =  -3.09652303798202E-11  2.40120139528991E-01
 cg2d: Sum(rhs),rhsMax =  -3.07317504777416E-11  2.43247668263513E-01
 cg2d: Sum(rhs),rhsMax =  -3.01545455272390E-11  2.48910572313250E-01
 cg2d: Sum(rhs),rhsMax =  -2.97480928779237E-11  2.53486104359977E-01
 cg2d: Sum(rhs),rhsMax =  -2.93186586119987E-11  2.58398946399957E-01
 cg2d: Sum(rhs),rhsMax =  -2.89788193441609E-11  2.62615136113744E-01
 cg2d: Sum(rhs),rhsMax =  -2.87145862643001E-11  2.66216615345646E-01
 cg2d: Sum(rhs),rhsMax =  -2.85116374953986E-11  2.69020614382531E-01
 cg2d: Sum(rhs),rhsMax =  -2.83748580187648E-11  2.71359288748379E-01
 cg2d: Sum(rhs),rhsMax =  -2.83324474992241E-11  2.73031793094333E-01
 cg2d: Sum(rhs),rhsMax =  -2.83352230567857E-11  2.74058070677183E-01
 cg2d: Sum(rhs),rhsMax =  -2.83821854907274E-11  2.74345867327287E-01
 cg2d: Sum(rhs),rhsMax =  -2.84411383333349E-11  2.74432127149077E-01
 cg2d: Sum(rhs),rhsMax =  -2.81228373921749E-11  2.78149683077405E-01
 cg2d: Sum(rhs),rhsMax =  -2.78985723412006E-11  2.80922271111635E-01
 cg2d: Sum(rhs),rhsMax =  -2.77208256349581E-11  2.83277749195611E-01
 cg2d: Sum(rhs),rhsMax =  -2.75717226827510E-11  2.85452876656075E-01
 cg2d: Sum(rhs),rhsMax =  -2.78895795347012E-11  2.82499706692070E-01
 cg2d: Sum(rhs),rhsMax =  -2.78056466740395E-11  2.83809747090464E-01
 cg2d: Sum(rhs),rhsMax =  -2.77069478471503E-11  2.85248002336968E-01
 cg2d: Sum(rhs),rhsMax =  -2.76648703945170E-11  2.86177776115504E-01
 cg2d: Sum(rhs),rhsMax =  -2.76989542413730E-11  2.86316186355866E-01
 cg2d: Sum(rhs),rhsMax =  -2.76503264728944E-11  2.86266369855076E-01
 cg2d: Sum(rhs),rhsMax =  -2.76965117507189E-11  2.86014980981372E-01
 cg2d: Sum(rhs),rhsMax =  -2.77459166753147E-11  2.85556533010054E-01
 cg2d: Sum(rhs),rhsMax =  -2.77958767114228E-11  2.84883815075923E-01
 cg2d: Sum(rhs),rhsMax =  -2.79443135298152E-11  2.83367087571126E-01
 cg2d: Sum(rhs),rhsMax =  -2.80966361287938E-11  2.82134285797003E-01
 cg2d: Sum(rhs),rhsMax =  -2.82420753450197E-11  2.80700650604062E-01
 cg2d: Sum(rhs),rhsMax =  -2.84555712326551E-11  2.78904043721246E-01
 cg2d: Sum(rhs),rhsMax =  -2.86851653541476E-11  2.76780618589899E-01
 cg2d: Sum(rhs),rhsMax =  -2.89388513152744E-11  2.74611002385488E-01
 cg2d: Sum(rhs),rhsMax =  -2.93383095595345E-11  2.71157771410155E-01
 cg2d: Sum(rhs),rhsMax =  -2.96476176941951E-11  2.68652351818045E-01
 cg2d: Sum(rhs),rhsMax =  -3.00987013091003E-11  2.64900159720517E-01
 cg2d: Sum(rhs),rhsMax =  -3.04194447409145E-11  2.62150873837862E-01
 cg2d: Sum(rhs),rhsMax =  -3.07888159412073E-11  2.59090480238657E-01
 cg2d: Sum(rhs),rhsMax =  -3.11590753199198E-11  2.55924771612650E-01
 cg2d: Sum(rhs),rhsMax =  -3.15942827455729E-11  2.52585681558058E-01
 cg2d: Sum(rhs),rhsMax =  -3.12223580323234E-11  2.55644811884271E-01
 cg2d: Sum(rhs),rhsMax =  -3.05145908541249E-11  2.61577418132648E-01
 cg2d: Sum(rhs),rhsMax =  -2.99597013864172E-11  2.66480435323634E-01
 cg2d: Sum(rhs),rhsMax =  -2.94119173460672E-11  2.71041590632624E-01
 cg2d: Sum(rhs),rhsMax =  -2.90213408860041E-11  2.74573479005430E-01
 cg2d: Sum(rhs),rhsMax =  -2.87456725089896E-11  2.77169129596205E-01
 cg2d: Sum(rhs),rhsMax =  -2.85783618991786E-11  2.78919054686317E-01
 cg2d: Sum(rhs),rhsMax =  -2.84929857485849E-11  2.79880913424879E-01
 cg2d: Sum(rhs),rhsMax =  -2.85357293350330E-11  2.80032742596972E-01
 cg2d: Sum(rhs),rhsMax =  -2.86110024561026E-11  2.79350945282824E-01
 cg2d: Sum(rhs),rhsMax =  -2.87196932902134E-11  2.77789007980218E-01
 cg2d: Sum(rhs),rhsMax =  -2.89475110548665E-11  2.75391434645550E-01
 cg2d: Sum(rhs),rhsMax =  -2.92835755644205E-11  2.72220762322869E-01
 cg2d: Sum(rhs),rhsMax =  -2.97476487887138E-11  2.68230247077856E-01
 cg2d: Sum(rhs),rhsMax =  -3.02112779237973E-11  2.64012630242635E-01
 cg2d: Sum(rhs),rhsMax =  -3.09476888560312E-11  2.58399713193071E-01
 cg2d: Sum(rhs),rhsMax =  -3.16430215363539E-11  2.52813337567452E-01
 cg2d: Sum(rhs),rhsMax =  -3.24351656644239E-11  2.46516953568650E-01
 cg2d: Sum(rhs),rhsMax =  -3.18481907513046E-11  2.52037279828014E-01
 cg2d: Sum(rhs),rhsMax =  -3.13338244239958E-11  2.56640117942666E-01
 cg2d: Sum(rhs),rhsMax =  -3.09474668114262E-11  2.60207342873128E-01
 cg2d: Sum(rhs),rhsMax =  -3.06888958689910E-11  2.62653149378713E-01
 cg2d: Sum(rhs),rhsMax =  -3.05910852205216E-11  2.64069979060935E-01
 cg2d: Sum(rhs),rhsMax =  -3.05389047383642E-11  2.64633916287187E-01
 cg2d: Sum(rhs),rhsMax =  -3.06517033976661E-11  2.64052188102446E-01
 cg2d: Sum(rhs),rhsMax =  -3.08524317205183E-11  2.62489033487648E-01
 cg2d: Sum(rhs),rhsMax =  -3.11716208400981E-11  2.59822955668121E-01
 cg2d: Sum(rhs),rhsMax =  -3.17103010516462E-11  2.55505906568742E-01
 cg2d: Sum(rhs),rhsMax =  -3.23472360008736E-11  2.50693635273182E-01
 cg2d: Sum(rhs),rhsMax =  -3.34067218332734E-11  2.43015639994611E-01
 cg2d: Sum(rhs),rhsMax =  -3.45001804902267E-11  2.35172271985161E-01
 cg2d: Sum(rhs),rhsMax =  -3.55995233292106E-11  2.27697866974832E-01
 cg2d: Sum(rhs),rhsMax =  -3.60428353829434E-11  2.24473949940516E-01
 cg2d: Sum(rhs),rhsMax =  -3.60296237289504E-11  2.24192540419668E-01
 cg2d: Sum(rhs),rhsMax =  -3.60055318893160E-11  2.23897957517308E-01
 cg2d: Sum(rhs),rhsMax =  -3.60295127066479E-11  2.23590655207604E-01
 cg2d: Sum(rhs),rhsMax =  -3.60533825016773E-11  2.23270938519276E-01
 cg2d: Sum(rhs),rhsMax =  -3.60778074082191E-11  2.22939437511167E-01
 cg2d: Sum(rhs),rhsMax =  -3.61137786342169E-11  2.22597023350722E-01
 cg2d: Sum(rhs),rhsMax =  -3.61342067378700E-11  2.22244703550739E-01
 cg2d: Sum(rhs),rhsMax =  -3.61757290789910E-11  2.21883209439957E-01
 cg2d: Sum(rhs),rhsMax =  -3.62335716985740E-11  2.21512764238768E-01
 cg2d: Sum(rhs),rhsMax =  -3.63583607665419E-11  2.21133504818318E-01
 cg2d: Sum(rhs),rhsMax =  -3.64751562287324E-11  2.20745637351974E-01
 cg2d: Sum(rhs),rhsMax =  -3.65303343130563E-11  2.20349093847829E-01
 cg2d: Sum(rhs),rhsMax =  -3.66092711701071E-11  2.19943222121756E-01
 cg2d: Sum(rhs),rhsMax =  -3.66675578789000E-11  2.19527000993294E-01
 cg2d: Sum(rhs),rhsMax =  -3.66938701645836E-11  2.19099420875779E-01
 cg2d: Sum(rhs),rhsMax =  -3.67044172833175E-11  2.18659847352571E-01
 cg2d: Sum(rhs),rhsMax =  -3.67269548107174E-11  2.18207879087993E-01
 cg2d: Sum(rhs),rhsMax =  -3.67647023935547E-11  2.17743181193740E-01
 cg2d: Sum(rhs),rhsMax =  -3.68328700872667E-11  2.17265551505951E-01
 cg2d: Sum(rhs),rhsMax =  -3.68839403463994E-11  2.16774670752078E-01
 cg2d: Sum(rhs),rhsMax =  -3.69150265910889E-11  2.16270273516691E-01
 cg2d: Sum(rhs),rhsMax =  -3.69613228912158E-11  2.15752380042661E-01
 cg2d: Sum(rhs),rhsMax =  -3.69636543595675E-11  2.15220739097838E-01
 cg2d: Sum(rhs),rhsMax =  -3.69750896567211E-11  2.14674764292542E-01
 cg2d: Sum(rhs),rhsMax =  -3.70095065704845E-11  2.14113837369807E-01
 cg2d: Sum(rhs),rhsMax =  -3.70844466246467E-11  2.13537677151620E-01
 cg2d: Sum(rhs),rhsMax =  -3.72014641314422E-11  2.12946077077718E-01
 cg2d: Sum(rhs),rhsMax =  -3.72945008209058E-11  2.12338978459713E-01
 cg2d: Sum(rhs),rhsMax =  -3.73877595549743E-11  2.11716207787730E-01
 cg2d: Sum(rhs),rhsMax =  -3.75190989387875E-11  2.11077630258502E-01
 cg2d: Sum(rhs),rhsMax =  -3.76375597355150E-11  2.10423237150122E-01
 cg2d: Sum(rhs),rhsMax =  -3.75364184179716E-11  2.11029370006276E-01
 cg2d: Sum(rhs),rhsMax =  -3.67136321344219E-11  2.16122332218543E-01
 cg2d: Sum(rhs),rhsMax =  -3.59429153107271E-11  2.20639797431306E-01
 cg2d: Sum(rhs),rhsMax =  -3.52267104375414E-11  2.24823616396019E-01
 cg2d: Sum(rhs),rhsMax =  -3.46470629963846E-11  2.28342512216133E-01
 cg2d: Sum(rhs),rhsMax =  -3.41688899396786E-11  2.31337586626503E-01
 cg2d: Sum(rhs),rhsMax =  -3.37572192421476E-11  2.33809238863846E-01
 cg2d: Sum(rhs),rhsMax =  -3.34401395463146E-11  2.35665039719517E-01
 cg2d: Sum(rhs),rhsMax =  -3.32054383989089E-11  2.37088463130872E-01
 cg2d: Sum(rhs),rhsMax =  -3.30712124352317E-11  2.37642906676128E-01
 cg2d: Sum(rhs),rhsMax =  -3.29763993889287E-11  2.37803224147930E-01
 cg2d: Sum(rhs),rhsMax =  -3.29366534046471E-11  2.37555113869960E-01
 cg2d: Sum(rhs),rhsMax =  -3.29311022895240E-11  2.37012407761961E-01
 cg2d: Sum(rhs),rhsMax =  -3.29924976227858E-11  2.35883933904465E-01
 cg2d: Sum(rhs),rhsMax =  -3.31767946448736E-11  2.34259983546098E-01
 cg2d: Sum(rhs),rhsMax =  -3.34712257910041E-11  2.32127185100322E-01
 cg2d: Sum(rhs),rhsMax =  -3.37853078846706E-11  2.29730533036305E-01
 cg2d: Sum(rhs),rhsMax =  -3.41614514454136E-11  2.26862578403078E-01
 cg2d: Sum(rhs),rhsMax =  -3.46523920669028E-11  2.23585330828676E-01
 cg2d: Sum(rhs),rhsMax =  -3.49339446259478E-11  2.21657505353942E-01
 cg2d: Sum(rhs),rhsMax =  -3.47651907262048E-11  2.22796869402995E-01
 cg2d: Sum(rhs),rhsMax =  -3.46417339258664E-11  2.23946794391272E-01
 cg2d: Sum(rhs),rhsMax =  -3.45200534823675E-11  2.25106047721805E-01
 cg2d: Sum(rhs),rhsMax =  -3.42591510715806E-11  2.26273427023963E-01
 cg2d: Sum(rhs),rhsMax =  -3.39647199254500E-11  2.27447739747173E-01
 cg2d: Sum(rhs),rhsMax =  -3.36699557124120E-11  2.28627852601587E-01
 cg2d: Sum(rhs),rhsMax =  -3.33525429496717E-11  2.29812774080728E-01
 cg2d: Sum(rhs),rhsMax =  -3.30454552610604E-11  2.31001715442563E-01
 cg2d: Sum(rhs),rhsMax =  -3.27703419955583E-11  2.32194105179648E-01
 cg2d: Sum(rhs),rhsMax =  -3.24926752170995E-11  2.33389548286843E-01
 cg2d: Sum(rhs),rhsMax =  -3.22017967846477E-11  2.34587832063321E-01
 cg2d: Sum(rhs),rhsMax =  -3.18968185197832E-11  2.35788852580587E-01
 cg2d: Sum(rhs),rhsMax =  -3.16872084127340E-11  2.36992590663781E-01
 cg2d: Sum(rhs),rhsMax =  -3.14823722646906E-11  2.38199022259432E-01
 cg2d: Sum(rhs),rhsMax =  -3.11667358587897E-11  2.39408066976732E-01
 cg2d: Sum(rhs),rhsMax =  -3.08476577615124E-11  2.40619575913105E-01
 cg2d: Sum(rhs),rhsMax =  -3.06435987695863E-11  2.41833330003670E-01
 cg2d: Sum(rhs),rhsMax =  -3.03703728832261E-11  2.43049062909845E-01
 cg2d: Sum(rhs),rhsMax =  -3.00983682421929E-11  2.44266458134784E-01
 cg2d: Sum(rhs),rhsMax =  -2.98312485824681E-11  2.45485275062019E-01
 cg2d: Sum(rhs),rhsMax =  -2.95786728443659E-11  2.46705392213799E-01
 cg2d: Sum(rhs),rhsMax =  -2.93031154896539E-11  2.47926757184837E-01
 cg2d: Sum(rhs),rhsMax =  -2.90236723543558E-11  2.49149269427418E-01
 cg2d: Sum(rhs),rhsMax =  -2.87881940508328E-11  2.50372690868513E-01
 cg2d: Sum(rhs),rhsMax =  -2.85439449854152E-11  2.51596641899742E-01
 cg2d: Sum(rhs),rhsMax =  -2.83361112352054E-11  2.52820655984582E-01
 cg2d: Sum(rhs),rhsMax =  -2.81418222058960E-11  2.54044214890757E-01
 cg2d: Sum(rhs),rhsMax =  -2.79485323773088E-11  2.55266761181642E-01
 cg2d: Sum(rhs),rhsMax =  -2.77812217674978E-11  2.56487696291042E-01
 cg2d: Sum(rhs),rhsMax =  -2.76199063620197E-11  2.57706400548087E-01
 cg2d: Sum(rhs),rhsMax =  -2.74373856967713E-11  2.58922244367207E-01
 cg2d: Sum(rhs),rhsMax =  -2.72757372243859E-11  2.60134623420886E-01
 cg2d: Sum(rhs),rhsMax =  -2.71328515211167E-11  2.61342972318593E-01
 cg2d: Sum(rhs),rhsMax =  -2.69734234947805E-11  2.62546765292272E-01
 cg2d: Sum(rhs),rhsMax =  -2.68116640000926E-11  2.63745515505672E-01
 cg2d: Sum(rhs),rhsMax =  -2.66465738363308E-11  2.64938772403783E-01
 cg2d: Sum(rhs),rhsMax =  -2.64690491746933E-11  2.66126143255958E-01
 cg2d: Sum(rhs),rhsMax =  -2.63232768915600E-11  2.67307278723179E-01
 cg2d: Sum(rhs),rhsMax =  -2.61612953522672E-11  2.68481860775748E-01
 cg2d: Sum(rhs),rhsMax =  -2.59963162108079E-11  2.69649603949166E-01
 cg2d: Sum(rhs),rhsMax =  -2.57946997095360E-11  2.70810251512165E-01
 cg2d: Sum(rhs),rhsMax =  -2.56058507730472E-11  2.71963531349239E-01
 cg2d: Sum(rhs),rhsMax =  -2.54291032675269E-11  2.73109134297377E-01
 cg2d: Sum(rhs),rhsMax =  -2.52458054461613E-11  2.74246655096080E-01
 cg2d: Sum(rhs),rhsMax =  -2.50653942046597E-11  2.75375519588760E-01
 cg2d: Sum(rhs),rhsMax =  -2.49008591524102E-11  2.76495018756143E-01
 cg2d: Sum(rhs),rhsMax =  -2.47125653274338E-11  2.77604388392941E-01
 cg2d: Sum(rhs),rhsMax =  -2.45452547176228E-11  2.78702817739870E-01
 cg2d: Sum(rhs),rhsMax =  -2.44066988841496E-11  2.79789391523580E-01
 cg2d: Sum(rhs),rhsMax =  -2.42359465829622E-11  2.80863304076017E-01
 cg2d: Sum(rhs),rhsMax =  -2.40765185566261E-11  2.81923938310957E-01
 cg2d: Sum(rhs),rhsMax =  -2.39279707159312E-11  2.82970870957112E-01
 cg2d: Sum(rhs),rhsMax =  -2.37696529126197E-11  2.84003878881622E-01
 cg2d: Sum(rhs),rhsMax =  -2.36033415035308E-11  2.85022847326119E-01
 cg2d: Sum(rhs),rhsMax =  -2.34627872686133E-11  2.86027719397215E-01
 cg2d: Sum(rhs),rhsMax =  -2.32984742609688E-11  2.87018542141400E-01
 cg2d: Sum(rhs),rhsMax =  -2.31518137994158E-11  2.87995388241905E-01
 cg2d: Sum(rhs),rhsMax =  -2.30011565349741E-11  2.88958294049210E-01
 cg2d: Sum(rhs),rhsMax =  -2.28621566122911E-11  2.89907270744013E-01
 cg2d: Sum(rhs),rhsMax =  -2.27382557227429E-11  2.90842182471392E-01
 cg2d: Sum(rhs),rhsMax =  -2.26183516360834E-11  2.91762672079743E-01
 cg2d: Sum(rhs),rhsMax =  -2.24671392601294E-11  2.92668223290252E-01
 cg2d: Sum(rhs),rhsMax =  -2.23635554519319E-11  2.93558160478174E-01
 cg2d: Sum(rhs),rhsMax =  -2.22549756401236E-11  2.94431663872296E-01
 cg2d: Sum(rhs),rhsMax =  -2.21294094160385E-11  2.95287852227023E-01
 cg2d: Sum(rhs),rhsMax =  -2.20375939719020E-11  2.96125773031986E-01
 cg2d: Sum(rhs),rhsMax =  -2.19116946809095E-11  2.96944377995325E-01
 cg2d: Sum(rhs),rhsMax =  -2.18000062446322E-11  2.97742605573448E-01
 cg2d: Sum(rhs),rhsMax =  -2.17078577335883E-11  2.98519456095605E-01
 cg2d: Sum(rhs),rhsMax =  -2.15990558771750E-11  2.99273966464665E-01
 cg2d: Sum(rhs),rhsMax =  -2.15295559158335E-11  3.00005266976447E-01
 cg2d: Sum(rhs),rhsMax =  -2.14204209925128E-11  3.00712766933796E-01
 cg2d: Sum(rhs),rhsMax =  -2.13310480390305E-11  3.01396029559046E-01
 cg2d: Sum(rhs),rhsMax =  -2.12384554387768E-11  3.02054748165963E-01
 cg2d: Sum(rhs),rhsMax =  -2.11559658680471E-11  3.02688818212135E-01
 cg2d: Sum(rhs),rhsMax =  -2.10644834908180E-11  3.03298281706122E-01
 cg2d: Sum(rhs),rhsMax =  -2.09672279538609E-11  3.03883257460710E-01
 cg2d: Sum(rhs),rhsMax =  -2.08185690908635E-11  3.04443888577709E-01
 cg2d: Sum(rhs),rhsMax =  -2.07179828848325E-11  3.04980354726811E-01
 cg2d: Sum(rhs),rhsMax =  -2.06058503593454E-11  3.05492716565886E-01
 cg2d: Sum(rhs),rhsMax =  -2.05346850634669E-11  3.05980855751078E-01
 cg2d: Sum(rhs),rhsMax =  -2.04622985222613E-11  3.06444567313684E-01
 cg2d: Sum(rhs),rhsMax =  -2.03725925018716E-11  3.06883765354898E-01
 cg2d: Sum(rhs),rhsMax =  -2.03075334326286E-11  3.07298432053084E-01
 cg2d: Sum(rhs),rhsMax =  -2.02647898461805E-11  3.07688615014449E-01
 cg2d: Sum(rhs),rhsMax =  -2.02076133604123E-11  3.08054545134847E-01
 cg2d: Sum(rhs),rhsMax =  -2.01172412062078E-11  3.08396708010911E-01
 cg2d: Sum(rhs),rhsMax =  -2.00404137729038E-11  3.08715705902890E-01
 cg2d: Sum(rhs),rhsMax =  -1.99806837741789E-11  3.09012140613028E-01
 cg2d: Sum(rhs),rhsMax =  -1.98719929400681E-11  3.09286582266374E-01
 cg2d: Sum(rhs),rhsMax =  -1.97540872548529E-11  3.09539474359137E-01
 cg2d: Sum(rhs),rhsMax =  -1.96370697480575E-11  3.09771217416194E-01
 cg2d: Sum(rhs),rhsMax =  -1.95629068500125E-11  3.09982009741521E-01
 cg2d: Sum(rhs),rhsMax =  -1.95372606981437E-11  3.10171671047725E-01
 cg2d: Sum(rhs),rhsMax =  -1.95103933009477E-11  3.10339694476927E-01
 cg2d: Sum(rhs),rhsMax =  -1.94727567404129E-11  3.10485451508857E-01
 cg2d: Sum(rhs),rhsMax =  -1.94301241762673E-11  3.10608171654894E-01
 cg2d: Sum(rhs),rhsMax =  -1.93856042329799E-11  3.10707177854391E-01
 cg2d: Sum(rhs),rhsMax =  -1.93414173565998E-11  3.10781833941405E-01
 cg2d: Sum(rhs),rhsMax =  -1.93494109623771E-11  3.10831636019072E-01
 cg2d: Sum(rhs),rhsMax =  -1.93561833228273E-11  3.10856172411670E-01
 cg2d: Sum(rhs),rhsMax =  -1.92276194965757E-11  3.10855056190437E-01
 cg2d: Sum(rhs),rhsMax =  -1.91928695159049E-11  3.10828344964678E-01
 cg2d: Sum(rhs),rhsMax =  -1.91310300934333E-11  3.10775373584441E-01
 cg2d: Sum(rhs),rhsMax =  -1.89896987023985E-11  3.10696295820083E-01
 cg2d: Sum(rhs),rhsMax =  -1.89691595764430E-11  3.10590949754084E-01
 cg2d: Sum(rhs),rhsMax =  -1.89271931461121E-11  3.10459800908346E-01
 cg2d: Sum(rhs),rhsMax =  -1.89709359332824E-11  3.10303039247666E-01
 cg2d: Sum(rhs),rhsMax =  -1.89855908772074E-11  3.10121076514628E-01
 cg2d: Sum(rhs),rhsMax =  -1.90019111556694E-11  3.09914191317844E-01
 cg2d: Sum(rhs),rhsMax =  -1.89873672340468E-11  3.09682721538020E-01
 cg2d: Sum(rhs),rhsMax =  -1.89901427916084E-11  3.09426945482893E-01
 cg2d: Sum(rhs),rhsMax =  -1.90337745564761E-11  3.09147092984548E-01
 cg2d: Sum(rhs),rhsMax =  -1.90575333292031E-11  3.08843180933408E-01
 cg2d: Sum(rhs),rhsMax =  -1.90878424177754E-11  3.08515669221925E-01
 cg2d: Sum(rhs),rhsMax =  -1.91311411157358E-11  3.08164958347529E-01
 cg2d: Sum(rhs),rhsMax =  -1.91333615617850E-11  3.07791449439348E-01
 cg2d: Sum(rhs),rhsMax =  -1.92493798678584E-11  3.07395418813312E-01
 cg2d: Sum(rhs),rhsMax =  -1.92820204247823E-11  3.06976965110149E-01
 cg2d: Sum(rhs),rhsMax =  -1.92851290492513E-11  3.06536052101672E-01
 cg2d: Sum(rhs),rhsMax =  -1.93206561860393E-11  3.06072476139718E-01
 cg2d: Sum(rhs),rhsMax =  -1.93564053674322E-11  3.05586381571053E-01
 cg2d: Sum(rhs),rhsMax =  -1.93786098279247E-11  3.05077407190561E-01
 cg2d: Sum(rhs),rhsMax =  -1.94362304029028E-11  3.04545932701587E-01
 cg2d: Sum(rhs),rhsMax =  -1.94431137856554E-11  3.04026482224775E-01
 cg2d: Sum(rhs),rhsMax =  -1.94102511841265E-11  3.03934537799295E-01
 cg2d: Sum(rhs),rhsMax =  -1.93831617423257E-11  3.03822334883925E-01
 cg2d: Sum(rhs),rhsMax =  -1.93548510551977E-11  3.03690320694781E-01
 cg2d: Sum(rhs),rhsMax =  -1.93169924500580E-11  3.03538973404830E-01
 cg2d: Sum(rhs),rhsMax =  -1.93010052385034E-11  3.03368777483293E-01
 cg2d: Sum(rhs),rhsMax =  -1.92805771348503E-11  3.03180199101092E-01
 cg2d: Sum(rhs),rhsMax =  -1.92311722102545E-11  3.02973661819714E-01
 cg2d: Sum(rhs),rhsMax =  -1.91857640885473E-11  3.02749522425426E-01
 cg2d: Sum(rhs),rhsMax =  -1.91596738474686E-11  3.02508046965086E-01
 cg2d: Sum(rhs),rhsMax =  -1.91165971941132E-11  3.02249387780865E-01
 cg2d: Sum(rhs),rhsMax =  -1.90975013580896E-11  3.01973563500679E-01
 cg2d: Sum(rhs),rhsMax =  -1.91063831422866E-11  3.01680445212910E-01
 cg2d: Sum(rhs),rhsMax =  -1.91175963948353E-11  3.01369752805375E-01
 cg2d: Sum(rhs),rhsMax =  -1.91030524732128E-11  3.01041064961226E-01
 cg2d: Sum(rhs),rhsMax =  -1.91346938294146E-11  3.00693844324160E-01
 cg2d: Sum(rhs),rhsMax =  -1.91308080488284E-11  3.00327476357620E-01
 cg2d: Sum(rhs),rhsMax =  -1.91539006877406E-11  2.99941317506334E-01
 cg2d: Sum(rhs),rhsMax =  -1.91621163381228E-11  2.99534746576315E-01
 cg2d: Sum(rhs),rhsMax =  -1.91732185683691E-11  2.99107213414024E-01
 cg2d: Sum(rhs),rhsMax =  -1.91850979547326E-11  2.98658280698797E-01
 cg2d: Sum(rhs),rhsMax =  -1.91981985864231E-11  2.98187656962068E-01
 cg2d: Sum(rhs),rhsMax =  -1.91962001849788E-11  2.97695220780647E-01
 cg2d: Sum(rhs),rhsMax =  -1.91905380475532E-11  2.97181036859627E-01
 cg2d: Sum(rhs),rhsMax =  -1.90922833098739E-11  2.96645364509852E-01
 cg2d: Sum(rhs),rhsMax =  -1.91516802416913E-11  2.96088658494405E-01
 cg2d: Sum(rhs),rhsMax =  -1.92030835677315E-11  2.95511562022235E-01
 cg2d: Sum(rhs),rhsMax =  -1.92604820981046E-11  2.94914891815520E-01
 cg2d: Sum(rhs),rhsMax =  -1.93397520220628E-11  2.94299615479911E-01
 cg2d: Sum(rhs),rhsMax =  -1.93900451250784E-11  2.93666822026413E-01
 cg2d: Sum(rhs),rhsMax =  -1.94471105885441E-11  2.93017687546869E-01
 cg2d: Sum(rhs),rhsMax =  -1.95031768512877E-11  2.92353439315393E-01
 cg2d: Sum(rhs),rhsMax =  -1.95748972586784E-11  2.91675322111643E-01
 cg2d: Sum(rhs),rhsMax =  -1.96285210307678E-11  2.90984569779440E-01
 cg2d: Sum(rhs),rhsMax =  -1.97166727389231E-11  2.90282383390543E-01
 cg2d: Sum(rhs),rhsMax =  -1.97891703024311E-11  2.89569915991428E-01
 cg2d: Sum(rhs),rhsMax =  -1.98505656356929E-11  2.88848263442139E-01
 cg2d: Sum(rhs),rhsMax =  -1.99354976970767E-11  2.88118460857892E-01
 cg2d: Sum(rhs),rhsMax =  -2.00315319887068E-11  2.87381483783441E-01
 cg2d: Sum(rhs),rhsMax =  -2.01231253882383E-11  2.86638252222972E-01
 cg2d: Sum(rhs),rhsMax =  -2.02069472265975E-11  2.85889634760233E-01
 cg2d: Sum(rhs),rhsMax =  -2.03067562765114E-11  2.85136450221684E-01
 cg2d: Sum(rhs),rhsMax =  -2.03795869069268E-11  2.84379465853990E-01
 cg2d: Sum(rhs),rhsMax =  -2.04773975553962E-11  2.83619392865082E-01
 cg2d: Sum(rhs),rhsMax =  -2.05750971815633E-11  2.82856881104491E-01
 cg2d: Sum(rhs),rhsMax =  -2.06880068631676E-11  2.82092514131950E-01
 cg2d: Sum(rhs),rhsMax =  -2.08013606339819E-11  2.81326804586143E-01
 cg2d: Sum(rhs),rhsMax =  -2.08987271932415E-11  2.80560188867035E-01
 cg2d: Sum(rhs),rhsMax =  -2.10053086036055E-11  2.79793020550328E-01
 cg2d: Sum(rhs),rhsMax =  -2.11023420959577E-11  2.79025563421809E-01
 cg2d: Sum(rhs),rhsMax =  -2.11888284695760E-11  2.78257986353009E-01
 cg2d: Sum(rhs),rhsMax =  -2.12930784115883E-11  2.77490362219815E-01
 cg2d: Sum(rhs),rhsMax =  -2.13561390793870E-11  2.76722671379385E-01
 cg2d: Sum(rhs),rhsMax =  -2.14577244861403E-11  2.75954807678751E-01
 cg2d: Sum(rhs),rhsMax =  -2.15502060640915E-11  2.75186583040262E-01
 cg2d: Sum(rhs),rhsMax =  -2.16284767873276E-11  2.74417726605022E-01
 cg2d: Sum(rhs),rhsMax =  -2.17020845738602E-11  2.73647876538905E-01
 cg2d: Sum(rhs),rhsMax =  -2.17661444423811E-11  2.72876565999878E-01
 cg2d: Sum(rhs),rhsMax =  -2.18464135670615E-11  2.72103207816111E-01
 cg2d: Sum(rhs),rhsMax =  -2.19319007399577E-11  2.71327083752024E-01
 cg2d: Sum(rhs),rhsMax =  -2.20440332654448E-11  2.70547343438817E-01
 cg2d: Sum(rhs),rhsMax =  -2.21443974268709E-11  2.69763015764639E-01
 cg2d: Sum(rhs),rhsMax =  -2.22623031120861E-11  2.68973032826556E-01
 cg2d: Sum(rhs),rhsMax =  -2.23734364368511E-11  2.68176264215296E-01
 cg2d: Sum(rhs),rhsMax =  -2.24673613047344E-11  2.67371557680216E-01
 cg2d: Sum(rhs),rhsMax =  -2.25711671575368E-11  2.66557781077548E-01
 cg2d: Sum(rhs),rhsMax =  -2.26786367463205E-11  2.65733860060648E-01
 cg2d: Sum(rhs),rhsMax =  -2.27703411681546E-11  2.64898806634415E-01
 cg2d: Sum(rhs),rhsMax =  -2.28647101252477E-11  2.64051735734259E-01
 cg2d: Sum(rhs),rhsMax =  -2.29425367592739E-11  2.63191870042663E-01
 cg2d: Sum(rhs),rhsMax =  -2.30466756789838E-11  2.62318536302809E-01
 cg2d: Sum(rhs),rhsMax =  -2.31414887252868E-11  2.61431158300072E-01
 cg2d: Sum(rhs),rhsMax =  -2.32664998378596E-11  2.60529251885295E-01
 cg2d: Sum(rhs),rhsMax =  -2.33797425863713E-11  2.59612426098442E-01
 cg2d: Sum(rhs),rhsMax =  -2.35000907622407E-11  2.58680392290984E-01
 cg2d: Sum(rhs),rhsMax =  -2.36008990128767E-11  2.57732980839737E-01
 cg2d: Sum(rhs),rhsMax =  -2.37263542146593E-11  2.56770163088588E-01
 cg2d: Sum(rhs),rhsMax =  -2.38765673898911E-11  2.55792074832656E-01
 cg2d: Sum(rhs),rhsMax =  -2.39989139672048E-11  2.54799037125304E-01
 cg2d: Sum(rhs),rhsMax =  -2.41404674028445E-11  2.53791570407877E-01
 cg2d: Sum(rhs),rhsMax =  -2.42652564708123E-11  2.52770398785821E-01
 cg2d: Sum(rhs),rhsMax =  -2.44229081403091E-11  2.51736442549716E-01
 cg2d: Sum(rhs),rhsMax =  -2.45963249767556E-11  2.50690798647871E-01
 cg2d: Sum(rhs),rhsMax =  -2.47479814419194E-11  2.49634710539851E-01
 cg2d: Sum(rhs),rhsMax =  -2.48985276840585E-11  2.48569530367094E-01
 cg2d: Sum(rhs),rhsMax =  -2.50557352643455E-11  2.47496677372350E-01
 cg2d: Sum(rhs),rhsMax =  -2.52228238295515E-11  2.46417596882465E-01
 cg2d: Sum(rhs),rhsMax =  -2.53849163911468E-11  2.45333723991726E-01
 cg2d: Sum(rhs),rhsMax =  -2.55541143800997E-11  2.44246455476546E-01
 cg2d: Sum(rhs),rhsMax =  -2.57107668488743E-11  2.43157132528229E-01
 cg2d: Sum(rhs),rhsMax =  -2.58529864183288E-11  2.42285047287800E-01
 cg2d: Sum(rhs),rhsMax =  -2.59905430510798E-11  2.41477011322457E-01
 cg2d: Sum(rhs),rhsMax =  -2.61151100744428E-11  2.40669342577971E-01
 cg2d: Sum(rhs),rhsMax =  -2.62474486589781E-11  2.39862815601748E-01
 cg2d: Sum(rhs),rhsMax =  -2.63660204780081E-11  2.39058219098151E-01
 cg2d: Sum(rhs),rhsMax =  -2.65090172035798E-11  2.38256253967657E-01
 cg2d: Sum(rhs),rhsMax =  -2.66089372757961E-11  2.37457585959725E-01
 cg2d: Sum(rhs),rhsMax =  -2.67329491876467E-11  2.36662801380485E-01
 cg2d: Sum(rhs),rhsMax =  -2.68661759506017E-11  2.35872415372889E-01
 cg2d: Sum(rhs),rhsMax =  -2.70108380107104E-11  2.35086802668280E-01
 cg2d: Sum(rhs),rhsMax =  -2.71573874499609E-11  2.34306327382686E-01
 cg2d: Sum(rhs),rhsMax =  -2.73020495100695E-11  2.33531371177311E-01
 cg2d: Sum(rhs),rhsMax =  -2.74632538932451E-11  2.32762389592516E-01
 cg2d: Sum(rhs),rhsMax =  -2.76236811203034E-11  2.31999870119695E-01
 cg2d: Sum(rhs),rhsMax =  -2.77924350200465E-11  2.31244244969189E-01
 cg2d: Sum(rhs),rhsMax =  -2.78914669138430E-11  2.30495787526369E-01
 cg2d: Sum(rhs),rhsMax =  -2.79342105002911E-11  2.29754616402158E-01
 cg2d: Sum(rhs),rhsMax =  -2.80123702012247E-11  2.29020778697112E-01
 cg2d: Sum(rhs),rhsMax =  -2.81066281360154E-11  2.28294375719338E-01
 cg2d: Sum(rhs),rhsMax =  -2.82316392485882E-11  2.27575611705765E-01
 cg2d: Sum(rhs),rhsMax =  -2.83415513280261E-11  2.26864852980420E-01
 cg2d: Sum(rhs),rhsMax =  -2.84308132592059E-11  2.26162614477454E-01
(PID.TID 0000.0001)      cg2d_init_res =   9.76582646172922E-02
(PID.TID 0000.0001)      cg2d_iters(min,last) =      -1      30
(PID.TID 0000.0001)      cg2d_last_res =   3.33917860993890E-14
(PID.TID 0000.0001) // =======================================================
(PID.TID 0000.0001) // Begin MONITOR dynamic field statistics
(PID.TID 0000.0001) // =======================================================
(PID.TID 0000.0001) %MON time_tsnumber                =                  6240
(PID.TID 0000.0001) %MON time_secondsf                =   9.3600000000000E+04
(PID.TID 0000.0001) %MON dynstat_eta_max              =   2.4117999534157E-02
(PID.TID 0000.0001) %MON dynstat_eta_min              =  -1.5981824639596E-02
(PID.TID 0000.0001) %MON dynstat_eta_mean             =   7.4374041646840E-15
(PID.TID 0000.0001) %MON dynstat_eta_sd               =   8.9145350735634E-03
(PID.TID 0000.0001) %MON dynstat_eta_del2             =   2.5147812194928E-04
(PID.TID 0000.0001) %MON dynstat_uvel_max             =   1.4740070560650E+00
(PID.TID 0000.0001) %MON dynstat_uvel_min             =  -7.2251888934742E-01
(PID.TID 0000.0001) %MON dynstat_uvel_mean            =  -7.2969668219334E-04
(PID.TID 0000.0001) %MON dynstat_uvel_sd              =   2.9945931298911E-01
(PID.TID 0000.0001) %MON dynstat_uvel_del2            =   1.0704157125444E-03
(PID.TID 0000.0001) %MON dynstat_vvel_max             =   0.0000000000000E+00
(PID.TID 0000.0001) %MON dynstat_vvel_min             =   0.0000000000000E+00
(PID.TID 0000.0001) %MON dynstat_vvel_mean            =   0.0000000000000E+00
(PID.TID 0000.0001) %MON dynstat_vvel_sd              =   0.0000000000000E+00
(PID.TID 0000.0001) %MON dynstat_vvel_del2            =   0.0000000000000E+00
(PID.TID 0000.0001) %MON dynstat_wvel_max             =   4.7646957778085E-02
(PID.TID 0000.0001) %MON dynstat_wvel_min             =  -4.3057956606503E-02
(PID.TID 0000.0001) %MON dynstat_wvel_mean            =   7.3255107881472E-20
(PID.TID 0000.0001) %MON dynstat_wvel_sd              =   4.8628252176377E-03
(PID.TID 0000.0001) %MON dynstat_wvel_del2            =   1.1522517818752E-04
(PID.TID 0000.0001) %MON dynstat_theta_max            =   1.4976502385657E+01
(PID.TID 0000.0001) %MON dynstat_theta_min            =   9.9765023856441E+00
(PID.TID 0000.0001) %MON dynstat_theta_mean           =   1.2360764093794E+01
(PID.TID 0000.0001) %MON dynstat_theta_sd             =   2.1817200640841E+00
(PID.TID 0000.0001) %MON dynstat_theta_del2           =   2.4757737633501E-03
(PID.TID 0000.0001) %MON dynstat_salt_max             =   3.5000000000000E+01
(PID.TID 0000.0001) %MON dynstat_salt_min             =   3.5000000000000E+01
(PID.TID 0000.0001) %MON dynstat_salt_mean            =   3.5000000000000E+01
(PID.TID 0000.0001) %MON dynstat_salt_sd              =   3.4816594052245E-13
(PID.TID 0000.0001) %MON dynstat_salt_del2            =   0.0000000000000E+00
(PID.TID 0000.0001) %MON dynstat_sst_max              =   1.4976502385656E+01
(PID.TID 0000.0001) %MON dynstat_sst_min              =   1.4659554020472E+01
(PID.TID 0000.0001) %MON dynstat_sst_mean             =   1.4928303061975E+01
(PID.TID 0000.0001) %MON dynstat_sst_sd               =   8.6395193637431E-02
(PID.TID 0000.0001) %MON dynstat_sst_del2             =   8.9629152915968E-04
(PID.TID 0000.0001) %MON dynstat_sss_max              =   3.5000000000000E+01
(PID.TID 0000.0001) %MON dynstat_sss_min              =   3.5000000000000E+01
(PID.TID 0000.0001) %MON dynstat_sss_mean             =   3.5000000000000E+01
(PID.TID 0000.0001) %MON dynstat_sss_sd               =   3.5527136788005E-14
(PID.TID 0000.0001) %MON dynstat_sss_del2             =   0.0000000000000E+00
(PID.TID 0000.0001) %MON forcing_qnet_max             =   0.0000000000000E+00
(PID.TID 0000.0001) %MON forcing_qnet_min             =   0.0000000000000E+00
(PID.TID 0000.0001) %MON forcing_qnet_mean            =   0.0000000000000E+00
(PID.TID 0000.0001) %MON forcing_qnet_sd              =   0.0000000000000E+00
(PID.TID 0000.0001) %MON forcing_qnet_del2            =   0.0000000000000E+00
(PID.TID 0000.0001) %MON forcing_qsw_max              =   0.0000000000000E+00
(PID.TID 0000.0001) %MON forcing_qsw_min              =   0.0000000000000E+00
(PID.TID 0000.0001) %MON forcing_qsw_mean             =   0.0000000000000E+00
(PID.TID 0000.0001) %MON forcing_qsw_sd               =   0.0000000000000E+00
(PID.TID 0000.0001) %MON forcing_qsw_del2             =   0.0000000000000E+00
(PID.TID 0000.0001) %MON forcing_empmr_max            =   0.0000000000000E+00
(PID.TID 0000.0001) %MON forcing_empmr_min            =   0.0000000000000E+00
(PID.TID 0000.0001) %MON forcing_empmr_mean           =   0.0000000000000E+00
(PID.TID 0000.0001) %MON forcing_empmr_sd             =   0.0000000000000E+00
(PID.TID 0000.0001) %MON forcing_empmr_del2           =   0.0000000000000E+00
(PID.TID 0000.0001) %MON forcing_fu_max               =   0.0000000000000E+00
(PID.TID 0000.0001) %MON forcing_fu_min               =   0.0000000000000E+00
(PID.TID 0000.0001) %MON forcing_fu_mean              =   0.0000000000000E+00
(PID.TID 0000.0001) %MON forcing_fu_sd                =   0.0000000000000E+00
(PID.TID 0000.0001) %MON forcing_fu_del2              =   0.0000000000000E+00
(PID.TID 0000.0001) %MON forcing_fv_max               =   0.0000000000000E+00
(PID.TID 0000.0001) %MON forcing_fv_min               =   0.0000000000000E+00
(PID.TID 0000.0001) %MON forcing_fv_mean              =   0.0000000000000E+00
(PID.TID 0000.0001) %MON forcing_fv_sd                =   0.0000000000000E+00
(PID.TID 0000.0001) %MON forcing_fv_del2              =   0.0000000000000E+00
(PID.TID 0000.0001) %MON advcfl_uvel_max              =   1.0331686010954E-01
(PID.TID 0000.0001) %MON advcfl_vvel_max              =   0.0000000000000E+00
(PID.TID 0000.0001) %MON advcfl_wvel_max              =   2.7320629209897E-01
(PID.TID 0000.0001) %MON advcfl_W_hf_max              =   2.7529567034070E-01
(PID.TID 0000.0001) %MON pe_b_mean                    =   2.2308741112744E-06
(PID.TID 0000.0001) %MON ke_max                       =   1.0556613861337E+00
(PID.TID 0000.0001) %MON ke_mean                      =   4.5334539192658E-02
(PID.TID 0000.0001) %MON ke_vol                       =   8.5337279889550E+10
(PID.TID 0000.0001) %MON vort_r_min                   =   0.0000000000000E+00
(PID.TID 0000.0001) %MON vort_r_max                   =   0.0000000000000E+00
(PID.TID 0000.0001) %MON vort_a_mean                  =   0.0000000000000E+00
(PID.TID 0000.0001) %MON vort_a_sd                    =   0.0000000000000E+00
(PID.TID 0000.0001) %MON vort_p_mean                  =   0.0000000000000E+00
(PID.TID 0000.0001) %MON vort_p_sd                    =   0.0000000000000E+00
(PID.TID 0000.0001) %MON surfExpan_theta_mean         =  -2.1164939766107E-07
(PID.TID 0000.0001) %MON surfExpan_salt_mean          =   3.2774448287519E-18
(PID.TID 0000.0001) // =======================================================
(PID.TID 0000.0001) // End MONITOR dynamic field statistics
(PID.TID 0000.0001) // =======================================================
(PID.TID 0000.0001) // =======================================================
(PID.TID 0000.0001) // Begin OBCS MONITOR field statistics
(PID.TID 0000.0001) // =======================================================
(PID.TID 0000.0001) %MON obc_E_uVel_max               =   0.0000000000000E+00
(PID.TID 0000.0001) %MON obc_E_uVel_min               =   0.0000000000000E+00
(PID.TID 0000.0001) %MON obc_E_uVel_mean              =   0.0000000000000E+00
(PID.TID 0000.0001) %MON obc_E_uVel_sd                =   0.0000000000000E+00
(PID.TID 0000.0001) %MON obc_E_uVel_Int               =   0.0000000000000E+00
(PID.TID 0000.0001) %MON obc_W_uVel_max               =   0.0000000000000E+00
(PID.TID 0000.0001) %MON obc_W_uVel_min               =   0.0000000000000E+00
(PID.TID 0000.0001) %MON obc_W_uVel_mean              =   0.0000000000000E+00
(PID.TID 0000.0001) %MON obc_W_uVel_sd                =   0.0000000000000E+00
(PID.TID 0000.0001) %MON obc_W_uVel_Int               =   0.0000000000000E+00
(PID.TID 0000.0001) // =======================================================
(PID.TID 0000.0001) // End OBCS MONITOR field statistics
(PID.TID 0000.0001) // =======================================================
 cg2d: Sum(rhs),rhsMax =  -2.85242940378794E-11  2.25469477621610E-01
 cg2d: Sum(rhs),rhsMax =  -2.86269896676572E-11  2.24786016447748E-01
 cg2d: Sum(rhs),rhsMax =  -2.87277979182932E-11  2.24112718874959E-01
 cg2d: Sum(rhs),rhsMax =  -2.87888601846475E-11  2.23449980255890E-01
 cg2d: Sum(rhs),rhsMax =  -2.88677970416984E-11  2.22798113114593E-01
 cg2d: Sum(rhs),rhsMax =  -2.89329671332439E-11  2.22157360784940E-01
 cg2d: Sum(rhs),rhsMax =  -2.90119039902947E-11  2.21527833729481E-01
 cg2d: Sum(rhs),rhsMax =  -2.91259238949237E-11  2.20909413483794E-01
 cg2d: Sum(rhs),rhsMax =  -2.92217361419489E-11  2.20301939688567E-01
 cg2d: Sum(rhs),rhsMax =  -2.93166602105543E-11  2.19705095523842E-01
 cg2d: Sum(rhs),rhsMax =  -2.93943758222781E-11  2.19119218044521E-01
 cg2d: Sum(rhs),rhsMax =  -2.94679836088108E-11  2.18544738693299E-01
 cg2d: Sum(rhs),rhsMax =  -2.95387048154794E-11  2.17981818969608E-01
 cg2d: Sum(rhs),rhsMax =  -2.95722335508231E-11  2.17430346440460E-01
 cg2d: Sum(rhs),rhsMax =  -2.96215274531164E-11  2.16889955142110E-01
 cg2d: Sum(rhs),rhsMax =  -2.96699331769901E-11  2.16360180649566E-01
 cg2d: Sum(rhs),rhsMax =  -2.97294411311100E-11  2.15840447681594E-01
 cg2d: Sum(rhs),rhsMax =  -2.97813995686624E-11  2.15330225793739E-01
 cg2d: Sum(rhs),rhsMax =  -2.98315816493755E-11  2.14829056323801E-01
 cg2d: Sum(rhs),rhsMax =  -2.98751023919408E-11  2.14336481106011E-01
 cg2d: Sum(rhs),rhsMax =  -2.99162916661544E-11  2.13852118339457E-01
 cg2d: Sum(rhs),rhsMax =  -2.99255065172588E-11  2.13375601767014E-01
 cg2d: Sum(rhs),rhsMax =  -2.99871238951255E-11  2.12906691904184E-01
 cg2d: Sum(rhs),rhsMax =  -2.99902325195944E-11  2.12445294337645E-01
 cg2d: Sum(rhs),rhsMax =  -3.00296454369686E-11  2.11991423881700E-01
 cg2d: Sum(rhs),rhsMax =  -3.00635072392197E-11  2.11545294426399E-01
 cg2d: Sum(rhs),rhsMax =  -3.01059177587604E-11  2.11107324044818E-01
 cg2d: Sum(rhs),rhsMax =  -3.01149105652598E-11  2.10678042251716E-01
 cg2d: Sum(rhs),rhsMax =  -3.01414448955484E-11  2.10258147796297E-01
 cg2d: Sum(rhs),rhsMax =  -3.01824121251570E-11  2.09848356300638E-01
 cg2d: Sum(rhs),rhsMax =  -3.01906277755393E-11  2.09449310767643E-01
 cg2d: Sum(rhs),rhsMax =  -3.02026181842052E-11  2.09061562365909E-01
 cg2d: Sum(rhs),rhsMax =  -3.02294855814011E-11  2.08685479000725E-01
 cg2d: Sum(rhs),rhsMax =  -3.02767810822502E-11  2.08321266736133E-01
 cg2d: Sum(rhs),rhsMax =  -3.02753377923182E-11  2.07968952905884E-01
 cg2d: Sum(rhs),rhsMax =  -3.02949887398540E-11  2.07628372954306E-01
 cg2d: Sum(rhs),rhsMax =  -3.03126412859456E-11  2.07299289524530E-01
 cg2d: Sum(rhs),rhsMax =  -3.03309599658519E-11  2.06981433559728E-01
 cg2d: Sum(rhs),rhsMax =  -3.03282954305928E-11  2.06674590902202E-01
 cg2d: Sum(rhs),rhsMax =  -3.03581604299552E-11  2.06378578096901E-01
 cg2d: Sum(rhs),rhsMax =  -3.03796987566329E-11  2.06093280047363E-01
 cg2d: Sum(rhs),rhsMax =  -3.03741476415098E-11  2.05818622082171E-01
 cg2d: Sum(rhs),rhsMax =  -3.03711500393433E-11  2.05554518826153E-01
 cg2d: Sum(rhs),rhsMax =  -3.03579383853503E-11  2.05300859372530E-01
 cg2d: Sum(rhs),rhsMax =  -3.03647107458005E-11  2.05057420183107E-01
 cg2d: Sum(rhs),rhsMax =  -3.03744807084172E-11  2.04823922121244E-01
 cg2d: Sum(rhs),rhsMax =  -3.03785885336083E-11  2.04600077305966E-01
 cg2d: Sum(rhs),rhsMax =  -3.03842506710339E-11  2.04385797470607E-01
 cg2d: Sum(rhs),rhsMax =  -3.03859160055708E-11  2.04181204636193E-01
 cg2d: Sum(rhs),rhsMax =  -3.04009040164033E-11  2.03986600391212E-01
 cg2d: Sum(rhs),rhsMax =  -3.04801739403615E-11  2.03802450874051E-01
 cg2d: Sum(rhs),rhsMax =  -3.05503400355178E-11  2.03629307279897E-01
 cg2d: Sum(rhs),rhsMax =  -3.05591107974124E-11  2.03467759540917E-01
 cg2d: Sum(rhs),rhsMax =  -3.05435676750676E-11  2.03318378508174E-01
 cg2d: Sum(rhs),rhsMax =  -3.05160341440569E-11  2.03181645322236E-01
 cg2d: Sum(rhs),rhsMax =  -3.05260261512785E-11  2.03057847610040E-01
 cg2d: Sum(rhs),rhsMax =  -3.05501179909129E-11  2.02947085531095E-01
 cg2d: Sum(rhs),rhsMax =  -3.06180636400200E-11  2.02849303993384E-01
 cg2d: Sum(rhs),rhsMax =  -3.06935588056945E-11  2.02764545058382E-01
 cg2d: Sum(rhs),rhsMax =  -3.07831538037817E-11  2.02692823004732E-01
 cg2d: Sum(rhs),rhsMax =  -3.08739700471961E-11  2.02634204646778E-01
 cg2d: Sum(rhs),rhsMax =  -3.09409164955810E-11  2.02588909306879E-01
 cg2d: Sum(rhs),rhsMax =  -3.10538261771853E-11  2.02557230070837E-01
 cg2d: Sum(rhs),rhsMax =  -3.11103365291387E-11  2.02539468416753E-01
 cg2d: Sum(rhs),rhsMax =  -3.11651815465552E-11  2.02535881429256E-01
 cg2d: Sum(rhs),rhsMax =  -3.12543324554326E-11  2.02546672903010E-01
 cg2d: Sum(rhs),rhsMax =  -3.13288284203850E-11  2.02571973143986E-01
 cg2d: Sum(rhs),rhsMax =  -3.14245296451077E-11  2.02611815180644E-01
 cg2d: Sum(rhs),rhsMax =  -3.15314441223791E-11  2.02666183483137E-01
 cg2d: Sum(rhs),rhsMax =  -3.16027204405600E-11  2.02735027367009E-01
 cg2d: Sum(rhs),rhsMax =  -3.16658921306612E-11  2.02818241511171E-01
 cg2d: Sum(rhs),rhsMax =  -3.17454951215268E-11  2.02915656294303E-01
 cg2d: Sum(rhs),rhsMax =  -3.18217674433185E-11  2.03026980452089E-01
 cg2d: Sum(rhs),rhsMax =  -3.19053672370728E-11  2.03151802140512E-01
 cg2d: Sum(rhs),rhsMax =  -3.19726467523651E-11  2.03289712751810E-01
 cg2d: Sum(rhs),rhsMax =  -3.20505844086938E-11  2.03440394616445E-01
 cg2d: Sum(rhs),rhsMax =  -3.21065396491349E-11  2.03603734989607E-01
 cg2d: Sum(rhs),rhsMax =  -3.21890292198646E-11  2.03779818611992E-01
 cg2d: Sum(rhs),rhsMax =  -3.22455395718180E-11  2.03968887088842E-01
 cg2d: Sum(rhs),rhsMax =  -3.23113757971782E-11  2.04171306673833E-01
 cg2d: Sum(rhs),rhsMax =  -3.23892024312045E-11  2.04387511519445E-01
 cg2d: Sum(rhs),rhsMax =  -3.24421600694791E-11  2.04618071198719E-01
 cg2d: Sum(rhs),rhsMax =  -3.24814619645508E-11  2.04863442507492E-01
 cg2d: Sum(rhs),rhsMax =  -3.25465210337939E-11  2.05123820506748E-01
 cg2d: Sum(rhs),rhsMax =  -3.25847127058410E-11  2.05399092817487E-01
 cg2d: Sum(rhs),rhsMax =  -3.25703908288233E-11  2.05688914476779E-01
 cg2d: Sum(rhs),rhsMax =  -3.26203508649314E-11  2.05992783979601E-01
 cg2d: Sum(rhs),rhsMax =  -3.26811910866809E-11  2.06310075801863E-01
 cg2d: Sum(rhs),rhsMax =  -3.27591287430096E-11  2.06640081533676E-01
 cg2d: Sum(rhs),rhsMax =  -3.28177485187098E-11  2.06982107666463E-01
 cg2d: Sum(rhs),rhsMax =  -3.28889138145882E-11  2.07335594849315E-01
 cg2d: Sum(rhs),rhsMax =  -3.29538618615288E-11  2.07700130033546E-01
 cg2d: Sum(rhs),rhsMax =  -3.29584137759298E-11  2.08075442052654E-01
 cg2d: Sum(rhs),rhsMax =  -3.29102300966611E-11  2.08461229775688E-01
 cg2d: Sum(rhs),rhsMax =  -3.28969074203656E-11  2.08857117411458E-01
 cg2d: Sum(rhs),rhsMax =  -3.28965743534582E-11  2.09262736447184E-01
 cg2d: Sum(rhs),rhsMax =  -3.29182237024384E-11  2.09677824010237E-01
 cg2d: Sum(rhs),rhsMax =  -3.29262173082157E-11  2.10102216447943E-01
 cg2d: Sum(rhs),rhsMax =  -3.29157812117842E-11  2.10535846107115E-01
 cg2d: Sum(rhs),rhsMax =  -3.29203331261851E-11  2.10978749730234E-01
 cg2d: Sum(rhs),rhsMax =  -3.26907390046927E-11  2.11431114732810E-01
 cg2d: Sum(rhs),rhsMax =  -3.25435234316274E-11  2.11893240475728E-01
 cg2d: Sum(rhs),rhsMax =  -3.23802096247050E-11  2.12365383967571E-01
 cg2d: Sum(rhs),rhsMax =  -3.23667759261070E-11  2.12847603373126E-01
 cg2d: Sum(rhs),rhsMax =  -3.23809867808222E-11  2.13339696720994E-01
 cg2d: Sum(rhs),rhsMax =  -3.23825410930567E-11  2.13841259440988E-01
 cg2d: Sum(rhs),rhsMax =  -3.23890914089020E-11  2.14351835046195E-01
 cg2d: Sum(rhs),rhsMax =  -3.23905346988340E-11  2.14870967798685E-01
 cg2d: Sum(rhs),rhsMax =  -3.23829851822666E-11  2.15398124209008E-01
 cg2d: Sum(rhs),rhsMax =  -3.23520099598795E-11  2.15932710794190E-01
 cg2d: Sum(rhs),rhsMax =  -3.23053805928453E-11  2.16474188785168E-01
 cg2d: Sum(rhs),rhsMax =  -3.22712967459893E-11  2.17022203005901E-01
 cg2d: Sum(rhs),rhsMax =  -3.22329940516397E-11  2.17576690024129E-01
 cg2d: Sum(rhs),rhsMax =  -3.21799253910626E-11  2.18137697004644E-01
 cg2d: Sum(rhs),rhsMax =  -3.21188631247082E-11  2.18705123367817E-01
 cg2d: Sum(rhs),rhsMax =  -3.20706794454395E-11  2.19278506876582E-01
 cg2d: Sum(rhs),rhsMax =  -3.20455884050830E-11  2.19857147639067E-01
 cg2d: Sum(rhs),rhsMax =  -3.20288240374111E-11  2.20440105460632E-01
 cg2d: Sum(rhs),rhsMax =  -3.20328208402998E-11  2.21026667928206E-01
 cg2d: Sum(rhs),rhsMax =  -3.20109494467147E-11  2.21616440921580E-01
 cg2d: Sum(rhs),rhsMax =  -3.19568815854154E-11  2.22209260640043E-01
 cg2d: Sum(rhs),rhsMax =  -3.18960413636660E-11  2.22805125173681E-01
 cg2d: Sum(rhs),rhsMax =  -3.18114423691895E-11  2.23403940065728E-01
 cg2d: Sum(rhs),rhsMax =  -3.17259551962934E-11  2.24066081873429E-01
 cg2d: Sum(rhs),rhsMax =  -3.13676862262469E-11  2.26507765142118E-01
 cg2d: Sum(rhs),rhsMax =  -3.10109715684348E-11  2.29052440467519E-01
 cg2d: Sum(rhs),rhsMax =  -3.07015524114718E-11  2.31071422227146E-01
 cg2d: Sum(rhs),rhsMax =  -3.04715142007694E-11  2.32665458161634E-01
 cg2d: Sum(rhs),rhsMax =  -3.02967650966934E-11  2.33833275525992E-01
 cg2d: Sum(rhs),rhsMax =  -3.01892955079097E-11  2.34696059599727E-01
 cg2d: Sum(rhs),rhsMax =  -3.01078051379022E-11  2.35059579845890E-01
 cg2d: Sum(rhs),rhsMax =  -3.01311198214194E-11  2.34946068866530E-01
 cg2d: Sum(rhs),rhsMax =  -3.02724512124541E-11  2.34317323962509E-01
 cg2d: Sum(rhs),rhsMax =  -3.04585245913813E-11  2.33188585024425E-01
 cg2d: Sum(rhs),rhsMax =  -3.04647418403192E-11  2.33438156971830E-01
 cg2d: Sum(rhs),rhsMax =  -3.03649327904054E-11  2.34307023077683E-01
 cg2d: Sum(rhs),rhsMax =  -3.02931013607122E-11  2.35180408735457E-01
 cg2d: Sum(rhs),rhsMax =  -3.01956237791501E-11  2.36058804821704E-01
 cg2d: Sum(rhs),rhsMax =  -3.01124680746057E-11  2.36942567418630E-01
 cg2d: Sum(rhs),rhsMax =  -3.00359737082090E-11  2.37831902429386E-01
 cg2d: Sum(rhs),rhsMax =  -2.99489322230784E-11  2.38726871640906E-01
 cg2d: Sum(rhs),rhsMax =  -2.98809865739713E-11  2.39627417022027E-01
 cg2d: Sum(rhs),rhsMax =  -2.98165936385431E-11  2.40533396985607E-01
 cg2d: Sum(rhs),rhsMax =  -2.97285529526903E-11  2.41444624629812E-01
 cg2d: Sum(rhs),rhsMax =  -2.96437319136089E-11  2.42360895734362E-01
 cg2d: Sum(rhs),rhsMax =  -2.95508062464478E-11  2.43281995993740E-01
 cg2d: Sum(rhs),rhsMax =  -2.94789748167545E-11  2.44207683191211E-01
 cg2d: Sum(rhs),rhsMax =  -2.93916002647165E-11  2.45137648825126E-01
 cg2d: Sum(rhs),rhsMax =  -2.93262081285661E-11  2.46071471385650E-01
 cg2d: Sum(rhs),rhsMax =  -2.92308399707508E-11  2.47008576445647E-01
 cg2d: Sum(rhs),rhsMax =  -2.91473511992990E-11  2.47948215568668E-01
 cg2d: Sum(rhs),rhsMax =  -2.90584223350265E-11  2.48889468560453E-01
 cg2d: Sum(rhs),rhsMax =  -2.89860357938210E-11  2.49831265918432E-01
 cg2d: Sum(rhs),rhsMax =  -2.88821189187161E-11  2.50772424383191E-01
 cg2d: Sum(rhs),rhsMax =  -2.87867507609008E-11  2.51711689460058E-01
 cg2d: Sum(rhs),rhsMax =  -2.87055934578007E-11  2.52647782455104E-01
 cg2d: Sum(rhs),rhsMax =  -2.86349832734345E-11  2.53579452112649E-01
 cg2d: Sum(rhs),rhsMax =  -2.85311774206320E-11  2.54505529750863E-01
 cg2d: Sum(rhs),rhsMax =  -2.84772205816353E-11  2.55424982465633E-01
 cg2d: Sum(rhs),rhsMax =  -2.84139378692316E-11  2.56336954967286E-01
 cg2d: Sum(rhs),rhsMax =  -2.83326695438291E-11  2.57240790854584E-01
 cg2d: Sum(rhs),rhsMax =  -2.82815992846963E-11  2.58136030141258E-01
 cg2d: Sum(rhs),rhsMax =  -2.82137646578917E-11  2.59022389330632E-01
 cg2d: Sum(rhs),rhsMax =  -2.81662471124378E-11  2.59899738239671E-01
 cg2d: Sum(rhs),rhsMax =  -2.81216161468478E-11  2.60768089325832E-01
 cg2d: Sum(rhs),rhsMax =  -2.80939715935347E-11  2.61627608958551E-01
 cg2d: Sum(rhs),rhsMax =  -2.80668821517338E-11  2.62478648681474E-01
 cg2d: Sum(rhs),rhsMax =  -2.80270251451498E-11  2.63321783439891E-01
 cg2d: Sum(rhs),rhsMax =  -2.79972711680898E-11  2.64157837876517E-01
 cg2d: Sum(rhs),rhsMax =  -2.79813949788377E-11  2.64987883097442E-01
 cg2d: Sum(rhs),rhsMax =  -2.79565259830861E-11  2.65813193650062E-01
 cg2d: Sum(rhs),rhsMax =  -2.79252176937916E-11  2.66635165017646E-01
 cg2d: Sum(rhs),rhsMax =  -2.79218870247178E-11  2.67455202562979E-01
 cg2d: Sum(rhs),rhsMax =  -2.78965739397563E-11  2.68274600589412E-01
 cg2d: Sum(rhs),rhsMax =  -2.78947975829169E-11  2.69094432540155E-01
 cg2d: Sum(rhs),rhsMax =  -2.78795875274795E-11  2.69915469125350E-01
 cg2d: Sum(rhs),rhsMax =  -2.78445044799014E-11  2.70738131603711E-01
 cg2d: Sum(rhs),rhsMax =  -2.78402856324078E-11  2.71562476476983E-01
 cg2d: Sum(rhs),rhsMax =  -2.78113088114651E-11  2.72388200481467E-01
 cg2d: Sum(rhs),rhsMax =  -2.77651235336407E-11  2.73214654329577E-01
 cg2d: Sum(rhs),rhsMax =  -2.77518008573452E-11  2.74040859843325E-01
 cg2d: Sum(rhs),rhsMax =  -2.77339262666487E-11  2.74865534021931E-01
 cg2d: Sum(rhs),rhsMax =  -2.77091682931996E-11  2.75687129900983E-01
 cg2d: Sum(rhs),rhsMax =  -2.76786371600224E-11  2.76503903983947E-01
 cg2d: Sum(rhs),rhsMax =  -2.76523248743388E-11  2.77314013150500E-01
 cg2d: Sum(rhs),rhsMax =  -2.76165756929458E-11  2.78115633342497E-01
 cg2d: Sum(rhs),rhsMax =  -2.75842682029293E-11  2.78907082922164E-01
 cg2d: Sum(rhs),rhsMax =  -2.75556244488939E-11  2.79686929670016E-01
 cg2d: Sum(rhs),rhsMax =  -2.75254263826241E-11  2.80454063519239E-01
 cg2d: Sum(rhs),rhsMax =  -2.75017786321996E-11  2.81207725721146E-01
 cg2d: Sum(rhs),rhsMax =  -2.74813505285465E-11  2.81947495749399E-01
 cg2d: Sum(rhs),rhsMax =  -2.74602562910786E-11  2.82673246471079E-01
 cg2d: Sum(rhs),rhsMax =  -2.74192890614700E-11  2.83385083681004E-01
 cg2d: Sum(rhs),rhsMax =  -2.73978617570947E-11  2.84083286836533E-01
 cg2d: Sum(rhs),rhsMax =  -2.73457922972398E-11  2.84768263329727E-01
 cg2d: Sum(rhs),rhsMax =  -2.72997180417178E-11  2.85440519619312E-01
 cg2d: Sum(rhs),rhsMax =  -2.72384337307585E-11  2.86100641615112E-01
 cg2d: Sum(rhs),rhsMax =  -2.71922484529341E-11  2.86749268326712E-01
 cg2d: Sum(rhs),rhsMax =  -2.71368483240053E-11  2.87387041557449E-01
 cg2d: Sum(rhs),rhsMax =  -2.70563571547200E-11  2.88014522295856E-01
 cg2d: Sum(rhs),rhsMax =  -2.70243827316108E-11  2.88632078912785E-01
 cg2d: Sum(rhs),rhsMax =  -2.69777533645765E-11  2.89239767040302E-01
 cg2d: Sum(rhs),rhsMax =  -2.69314570644497E-11  2.89837229187347E-01
 cg2d: Sum(rhs),rhsMax =  -2.68685074189534E-11  2.90423639931688E-01
 cg2d: Sum(rhs),rhsMax =  -2.68053357288522E-11  2.90997711125661E-01
 cg2d: Sum(rhs),rhsMax =  -2.67572630718860E-11  2.91557756174386E-01
 cg2d: Sum(rhs),rhsMax =  -2.67206257120733E-11  2.92101799262264E-01
 cg2d: Sum(rhs),rhsMax =  -2.66919819580380E-11  2.92627708423571E-01
 cg2d: Sum(rhs),rhsMax =  -2.66731081666194E-11  2.93133331028492E-01
 cg2d: Sum(rhs),rhsMax =  -2.66688893191258E-11  2.93616614391586E-01
 cg2d: Sum(rhs),rhsMax =  -2.66522359737564E-11  2.94075700089246E-01
 cg2d: Sum(rhs),rhsMax =  -2.66415778327200E-11  2.94508986564613E-01
 cg2d: Sum(rhs),rhsMax =  -2.66117128333576E-11  2.94915160326503E-01
 cg2d: Sum(rhs),rhsMax =  -2.65780730757115E-11  2.95293201411224E-01
 cg2d: Sum(rhs),rhsMax =  -2.65480970540466E-11  2.95642373023013E-01
 cg2d: Sum(rhs),rhsMax =  -2.65391042475471E-11  2.95962207089921E-01
 cg2d: Sum(rhs),rhsMax =  -2.65113486719315E-11  2.96252495825451E-01
 cg2d: Sum(rhs),rhsMax =  -2.65314437086772E-11  2.96513294299547E-01
 cg2d: Sum(rhs),rhsMax =  -2.65134580956783E-11  2.96744931940688E-01
 cg2d: Sum(rhs),rhsMax =  -2.65344413108437E-11  2.96948024530911E-01
 cg2d: Sum(rhs),rhsMax =  -2.65255595266467E-11  2.97123475719204E-01
 cg2d: Sum(rhs),rhsMax =  -2.65425459389235E-11  2.97272460125386E-01
 cg2d: Sum(rhs),rhsMax =  -2.65421018497136E-11  2.97396387433496E-01
 cg2d: Sum(rhs),rhsMax =  -2.65394373144545E-11  2.97496854144414E-01
 cg2d: Sum(rhs),rhsMax =  -2.65618638195519E-11  2.97575592053156E-01
 cg2d: Sum(rhs),rhsMax =  -2.65355515338683E-11  2.97634418299025E-01
 cg2d: Sum(rhs),rhsMax =  -2.65242272590172E-11  2.97675183962854E-01
 cg2d: Sum(rhs),rhsMax =  -2.65235611252024E-11  2.97699712472729E-01
 cg2d: Sum(rhs),rhsMax =  -2.64982480402409E-11  2.97709720238522E-01
 cg2d: Sum(rhs),rhsMax =  -2.65190092108014E-11  2.97706720396025E-01
 cg2d: Sum(rhs),rhsMax =  -2.64993582632655E-11  2.97691922191041E-01
 cg2d: Sum(rhs),rhsMax =  -2.65387711806397E-11  2.97666147229586E-01
 cg2d: Sum(rhs),rhsMax =  -2.65314437086772E-11  2.97629784855896E-01
 cg2d: Sum(rhs),rhsMax =  -2.65459876302998E-11  2.97582801412716E-01
 cg2d: Sum(rhs),rhsMax =  -2.65630850648790E-11  2.97524805255762E-01
 cg2d: Sum(rhs),rhsMax =  -2.65530930576574E-11  2.97455156476752E-01
 cg2d: Sum(rhs),rhsMax =  -2.65574229274534E-11  2.97373102054447E-01
 cg2d: Sum(rhs),rhsMax =  -2.65474309202318E-11  2.97277915548384E-01
 cg2d: Sum(rhs),rhsMax =  -2.65582000835707E-11  2.97169024213034E-01
 cg2d: Sum(rhs),rhsMax =  -2.65664157339529E-11  2.97046112345178E-01
 cg2d: Sum(rhs),rhsMax =  -2.65542032806820E-11  2.96909194642977E-01
 cg2d: Sum(rhs),rhsMax =  -2.65608646188298E-11  2.96758655868241E-01
 cg2d: Sum(rhs),rhsMax =  -2.65709676483539E-11  2.96595253894073E-01
 cg2d: Sum(rhs),rhsMax =  -2.65676369792800E-11  2.96420084487157E-01
 cg2d: Sum(rhs),rhsMax =  -2.65474309202318E-11  2.96234509861189E-01
 cg2d: Sum(rhs),rhsMax =  -2.64543942307682E-11  2.96040059137896E-01
 cg2d: Sum(rhs),rhsMax =  -2.64902544344636E-11  2.95838314958335E-01
 cg2d: Sum(rhs),rhsMax =  -2.65141242294931E-11  2.95630803203602E-01
 cg2d: Sum(rhs),rhsMax =  -2.65485411432564E-11  2.95418900079048E-01
 cg2d: Sum(rhs),rhsMax =  -2.65458766079973E-11  2.95203763580361E-01
 cg2d: Sum(rhs),rhsMax =  -2.65435451396456E-11  2.94986287952705E-01
 cg2d: Sum(rhs),rhsMax =  -2.65673039123726E-11  2.94767073989772E-01
 cg2d: Sum(rhs),rhsMax =  -2.65826249901124E-11  2.94546407154538E-01
 cg2d: Sum(rhs),rhsMax =  -2.65925059750316E-11  2.94324239340486E-01
 cg2d: Sum(rhs),rhsMax =  -2.65857336145814E-11  2.94100176274490E-01
 cg2d: Sum(rhs),rhsMax =  -2.66141553240118E-11  2.93873477632267E-01
 cg2d: Sum(rhs),rhsMax =  -2.66480171262629E-11  2.93643077871174E-01
 cg2d: Sum(rhs),rhsMax =  -2.66723310105021E-11  2.93407631589591E-01
 cg2d: Sum(rhs),rhsMax =  -2.66937583148774E-11  2.93165579716675E-01
 cg2d: Sum(rhs),rhsMax =  -2.67225130912152E-11  2.92915225857437E-01
 cg2d: Sum(rhs),rhsMax =  -2.67788013985637E-11  2.92654809304286E-01
 cg2d: Sum(rhs),rhsMax =  -2.68293165461841E-11  2.92382563885034E-01
 cg2d: Sum(rhs),rhsMax =  -2.68881583664893E-11  2.92096758440264E-01
 cg2d: Sum(rhs),rhsMax =  -2.69251287932093E-11  2.91795722235096E-01
 cg2d: Sum(rhs),rhsMax =  -2.69501088112634E-11  2.91477863974287E-01
 cg2d: Sum(rhs),rhsMax =  -2.69528843688249E-11  2.91141694425954E-01
 cg2d: Sum(rhs),rhsMax =  -2.69585465062505E-11  2.90785859641663E-01
 cg2d: Sum(rhs),rhsMax =  -2.70057309847971E-11  2.90409185562363E-01
 cg2d: Sum(rhs),rhsMax =  -2.70863331763849E-11  2.90010727785129E-01
 cg2d: Sum(rhs),rhsMax =  -2.71636046988988E-11  2.89589815290042E-01
 cg2d: Sum(rhs),rhsMax =  -2.72537548084983E-11  2.89146076183272E-01
 cg2d: Sum(rhs),rhsMax =  -2.73184808108340E-11  2.88679437341564E-01
 cg2d: Sum(rhs),rhsMax =  -2.73676636908249E-11  2.88190096461336E-01
 cg2d: Sum(rhs),rhsMax =  -2.73966405117676E-11  2.87678471668397E-01
 cg2d: Sum(rhs),rhsMax =  -2.74249511988955E-11  2.87145138498381E-01
 cg2d: Sum(rhs),rhsMax =  -2.74344991169073E-11  2.86590766035242E-01
 cg2d: Sum(rhs),rhsMax =  -2.74490430385299E-11  2.86016063348179E-01
 cg2d: Sum(rhs),rhsMax =  -2.74509304176718E-11  2.85421744191198E-01
 cg2d: Sum(rhs),rhsMax =  -2.74996692084528E-11  2.84808512578585E-01
 cg2d: Sum(rhs),rhsMax =  -2.75374167912901E-11  2.84177065648561E-01
 cg2d: Sum(rhs),rhsMax =  -2.75982570130395E-11  2.83528105464687E-01
 cg2d: Sum(rhs),rhsMax =  -2.76401124210679E-11  2.82862350235996E-01
 cg2d: Sum(rhs),rhsMax =  -2.76814127175840E-11  2.82180538345176E-01
 cg2d: Sum(rhs),rhsMax =  -2.77895484401824E-11  2.81483423775802E-01
 cg2d: Sum(rhs),rhsMax =  -2.78906897577258E-11  2.80771766196247E-01
 cg2d: Sum(rhs),rhsMax =  -2.79756218191096E-11  2.80046321195854E-01
 cg2d: Sum(rhs),rhsMax =  -2.81076273367376E-11  2.79307835749401E-01
 cg2d: Sum(rhs),rhsMax =  -2.82650569616294E-11  2.78557051652569E-01
 cg2d: Sum(rhs),rhsMax =  -2.83959522562327E-11  2.77794716334976E-01
 cg2d: Sum(rhs),rhsMax =  -2.85576007286181E-11  2.77021597027629E-01
 cg2d: Sum(rhs),rhsMax =  -2.87261325837562E-11  2.76238491801737E-01
 cg2d: Sum(rhs),rhsMax =  -2.88949975058017E-11  2.75446230567235E-01
 cg2d: Sum(rhs),rhsMax =  -2.90459878371507E-11  2.74645661225736E-01
 cg2d: Sum(rhs),rhsMax =  -2.92262880563499E-11  2.73837620300384E-01
 cg2d: Sum(rhs),rhsMax =  -2.93874924395254E-11  2.73022892013051E-01
 cg2d: Sum(rhs),rhsMax =  -2.95435897967877E-11  2.72202163212621E-01
 cg2d: Sum(rhs),rhsMax =  -2.97271096627583E-11  2.71375982933291E-01
 cg2d: Sum(rhs),rhsMax =  -2.98916447150077E-11  2.70544735138892E-01
 cg2d: Sum(rhs),rhsMax =  -3.00730551572315E-11  2.69708632222470E-01
 cg2d: Sum(rhs),rhsMax =  -3.02617930714177E-11  2.68867734996122E-01
 cg2d: Sum(rhs),rhsMax =  -3.04397618222652E-11  2.68022001165971E-01
 cg2d: Sum(rhs),rhsMax =  -3.05380165599445E-11  2.67171357965140E-01
 cg2d: Sum(rhs),rhsMax =  -3.06084046997057E-11  2.66315786978532E-01
 cg2d: Sum(rhs),rhsMax =  -3.07256442511061E-11  2.65455403502428E-01
 cg2d: Sum(rhs),rhsMax =  -3.08668646198385E-11  2.64590512481267E-01
 cg2d: Sum(rhs),rhsMax =  -3.10180769957924E-11  2.63721629231400E-01
 cg2d: Sum(rhs),rhsMax =  -3.11729531077276E-11  2.62849463325870E-01
 cg2d: Sum(rhs),rhsMax =  -3.13218340153298E-11  2.61974873444202E-01
 cg2d: Sum(rhs),rhsMax =  -3.14775983056848E-11  2.61098805607932E-01
 cg2d: Sum(rhs),rhsMax =  -3.16258130794722E-11  2.60222226109629E-01
 cg2d: Sum(rhs),rhsMax =  -3.17801340798951E-11  2.59346056168991E-01
 cg2d: Sum(rhs),rhsMax =  -3.19050341701654E-11  2.58471111671874E-01
 cg2d: Sum(rhs),rhsMax =  -3.20660165087361E-11  2.57598050326937E-01
 cg2d: Sum(rhs),rhsMax =  -3.21954685134074E-11  2.56727329524117E-01
 cg2d: Sum(rhs),rhsMax =  -3.23332471907634E-11  2.55859178923861E-01
 cg2d: Sum(rhs),rhsMax =  -3.24817950314582E-11  2.54993590758882E-01
 cg2d: Sum(rhs),rhsMax =  -3.26088045454753E-11  2.54130328213384E-01
 cg2d: Sum(rhs),rhsMax =  -3.27470273120412E-11  2.53268949793492E-01
 cg2d: Sum(rhs),rhsMax =  -3.28858051901193E-11  2.52408846939888E-01
 cg2d: Sum(rhs),rhsMax =  -3.30120375480192E-11  2.51549293335200E-01
 cg2d: Sum(rhs),rhsMax =  -3.31553673404983E-11  2.50689505696978E-01
 cg2d: Sum(rhs),rhsMax =  -3.32813776537932E-11  2.49828714919965E-01
 cg2d: Sum(rhs),rhsMax =  -3.34403615909196E-11  2.48966242075509E-01
 cg2d: Sum(rhs),rhsMax =  -3.35727001754549E-11  2.48101567611606E-01
 cg2d: Sum(rhs),rhsMax =  -3.37320171794886E-11  2.47234378842607E-01
 cg2d: Sum(rhs),rhsMax =  -3.38773453734120E-11  2.46364585770147E-01
 cg2d: Sum(rhs),rhsMax =  -3.40197869874714E-11  2.45492309109636E-01
 cg2d: Sum(rhs),rhsMax =  -3.41533468173338E-11  2.44617859932970E-01
 cg2d: Sum(rhs),rhsMax =  -3.42791350860239E-11  2.43741735920247E-01
 cg2d: Sum(rhs),rhsMax =  -3.44265727036941E-11  2.42864647598281E-01
 cg2d: Sum(rhs),rhsMax =  -3.45241613075586E-11  2.41987563311295E-01
 cg2d: Sum(rhs),rhsMax =  -3.46418449481689E-11  2.41111738374460E-01
 cg2d: Sum(rhs),rhsMax =  -3.47435413772246E-11  2.40238687484565E-01
 cg2d: Sum(rhs),rhsMax =  -3.48527873228477E-11  2.39370076943635E-01
 cg2d: Sum(rhs),rhsMax =  -3.49428264101448E-11  2.38507547770713E-01
 cg2d: Sum(rhs),rhsMax =  -3.50240947355474E-11  2.37652515163823E-01
 cg2d: Sum(rhs),rhsMax =  -3.51543238963359E-11  2.36806005775684E-01
 cg2d: Sum(rhs),rhsMax =  -3.53589379997743E-11  2.35968583029015E-01
 cg2d: Sum(rhs),rhsMax =  -3.56030760428894E-11  2.35140377675347E-01
 cg2d: Sum(rhs),rhsMax =  -3.58492124874488E-11  2.34321202002516E-01
 cg2d: Sum(rhs),rhsMax =  -3.60944607535885E-11  2.33510698881061E-01
 cg2d: Sum(rhs),rhsMax =  -3.63443719564316E-11  2.32708471760215E-01
 cg2d: Sum(rhs),rhsMax =  -3.65902863563861E-11  2.31914159253935E-01
 cg2d: Sum(rhs),rhsMax =  -3.68198804778785E-11  2.31127449332227E-01
 cg2d: Sum(rhs),rhsMax =  -3.70652397663207E-11  2.30348058694180E-01
 cg2d: Sum(rhs),rhsMax =  -3.72721853381108E-11  2.29575717992552E-01
 cg2d: Sum(rhs),rhsMax =  -3.74861253149561E-11  2.28810195680420E-01
 cg2d: Sum(rhs),rhsMax =  -3.77106124105353E-11  2.28051366340943E-01
 cg2d: Sum(rhs),rhsMax =  -3.79326570154603E-11  2.27299297910190E-01
 cg2d: Sum(rhs),rhsMax =  -3.81463749477007E-11  2.26554313985174E-01
 cg2d: Sum(rhs),rhsMax =  -3.83872933440443E-11  2.25816993211370E-01
 cg2d: Sum(rhs),rhsMax =  -3.86397580598441E-11  2.25088094540286E-01
 cg2d: Sum(rhs),rhsMax =  -3.88870047274281E-11  2.24368429664064E-01
 cg2d: Sum(rhs),rhsMax =  -3.91137122690566E-11  2.23658724429706E-01
 cg2d: Sum(rhs),rhsMax =  -3.93569621337519E-11  2.22959510325202E-01
 cg2d: Sum(rhs),rhsMax =  -3.96147559200699E-11  2.22271068894571E-01
 cg2d: Sum(rhs),rhsMax =  -3.98476807106363E-11  2.21593428536311E-01
 cg2d: Sum(rhs),rhsMax =  -4.00854904825110E-11  2.20926397117441E-01
 cg2d: Sum(rhs),rhsMax =  -4.03113098457197E-11  2.20269610963770E-01
 cg2d: Sum(rhs),rhsMax =  -4.05165900829729E-11  2.19622588112305E-01
 cg2d: Sum(rhs),rhsMax =  -4.07315292605404E-11  2.18984783005128E-01
 cg2d: Sum(rhs),rhsMax =  -4.09374756316083E-11  2.18355643948510E-01
 cg2d: Sum(rhs),rhsMax =  -4.11601863703481E-11  2.17734671868293E-01
 cg2d: Sum(rhs),rhsMax =  -4.13546974442625E-11  2.17121472428168E-01
 cg2d: Sum(rhs),rhsMax =  -4.15608658599353E-11  2.16515788746933E-01
 cg2d: Sum(rhs),rhsMax =  -4.17703649446821E-11  2.15917503439237E-01
 cg2d: Sum(rhs),rhsMax =  -4.19801970963363E-11  2.15326608889229E-01
 cg2d: Sum(rhs),rhsMax =  -4.21750412371580E-11  2.14743161164542E-01
 cg2d: Sum(rhs),rhsMax =  -4.23724388909363E-11  2.14167247063841E-01
 cg2d: Sum(rhs),rhsMax =  -4.25725010799738E-11  2.13598993895908E-01
 cg2d: Sum(rhs),rhsMax =  -4.27788915402516E-11  2.13038631770451E-01
 cg2d: Sum(rhs),rhsMax =  -4.29707380789068E-11  2.12486585408523E-01
 cg2d: Sum(rhs),rhsMax =  -4.31699120895246E-11  2.11943544968712E-01
 cg2d: Sum(rhs),rhsMax =  -4.33442171043907E-11  2.11410461149018E-01
 cg2d: Sum(rhs),rhsMax =  -4.35241842566825E-11  2.10888434594719E-01
 cg2d: Sum(rhs),rhsMax =  -4.36908287326787E-11  2.10378513205001E-01
 cg2d: Sum(rhs),rhsMax =  -4.38610259223537E-11  2.09881453034261E-01
 cg2d: Sum(rhs),rhsMax =  -4.40480985020031E-11  2.09397519327221E-01
 cg2d: Sum(rhs),rhsMax =  -4.42214043161471E-11  2.08926393917394E-01
 cg2d: Sum(rhs),rhsMax =  -4.44040360036979E-11  2.08467218191312E-01
 cg2d: Sum(rhs),rhsMax =  -4.45755654610025E-11  2.08018753868553E-01
 cg2d: Sum(rhs),rhsMax =  -4.47679671111700E-11  2.07579607410665E-01
 cg2d: Sum(rhs),rhsMax =  -4.49301706950678E-11  2.07148451408785E-01
 cg2d: Sum(rhs),rhsMax =  -4.50903758775212E-11  2.06724189171714E-01
 cg2d: Sum(rhs),rhsMax =  -4.52595738664741E-11  2.06306038145035E-01
 cg2d: Sum(rhs),rhsMax =  -4.52932136241202E-11  2.05893540540122E-01
 cg2d: Sum(rhs),rhsMax =  -4.53875825812133E-11  2.05486532778046E-01
 cg2d: Sum(rhs),rhsMax =  -4.55040449764965E-11  2.05085110740321E-01
 cg2d: Sum(rhs),rhsMax =  -4.56182869257304E-11  2.04689614712790E-01
 cg2d: Sum(rhs),rhsMax =  -4.57389681685072E-11  2.04300634468090E-01
 cg2d: Sum(rhs),rhsMax =  -4.58753035559312E-11  2.03919014672169E-01
 cg2d: Sum(rhs),rhsMax =  -4.59713378475612E-11  2.03545834936432E-01
 cg2d: Sum(rhs),rhsMax =  -4.60769200572031E-11  2.03182349124349E-01
 cg2d: Sum(rhs),rhsMax =  -4.62165861137009E-11  2.02829886828402E-01
 cg2d: Sum(rhs),rhsMax =  -4.63288296614905E-11  2.02489735426416E-01
 cg2d: Sum(rhs),rhsMax =  -4.64384086740210E-11  2.02163028499525E-01
 cg2d: Sum(rhs),rhsMax =  -4.65628646750815E-11  2.01850666660467E-01
 cg2d: Sum(rhs),rhsMax =  -4.66443550450890E-11  2.01553291723198E-01
 cg2d: Sum(rhs),rhsMax =  -4.67341720877812E-11  2.01271323382260E-01
 cg2d: Sum(rhs),rhsMax =  -4.68088900973385E-11  2.01005048001072E-01
 cg2d: Sum(rhs),rhsMax =  -4.68990402069380E-11  2.00754726564570E-01
 cg2d: Sum(rhs),rhsMax =  -4.69693173243968E-11  2.00520675050259E-01
 cg2d: Sum(rhs),rhsMax =  -4.70140593122892E-11  2.00303276712629E-01
 cg2d: Sum(rhs),rhsMax =  -4.70751215786436E-11  2.00102912880745E-01
 cg2d: Sum(rhs),rhsMax =  -4.71039873772838E-11  1.99919834706329E-01
 cg2d: Sum(rhs),rhsMax =  -4.71371830457201E-11  1.99754025545263E-01
 cg2d: Sum(rhs),rhsMax =  -4.71621630637742E-11  1.99605110177684E-01
 cg2d: Sum(rhs),rhsMax =  -4.71859218365012E-11  1.99472351276443E-01
 cg2d: Sum(rhs),rhsMax =  -4.71837013904519E-11  1.99354743073377E-01
 cg2d: Sum(rhs),rhsMax =  -4.72204497725670E-11  1.99251179317606E-01
 cg2d: Sum(rhs),rhsMax =  -4.72739625223539E-11  1.99160649339011E-01
 cg2d: Sum(rhs),rhsMax =  -4.73285854951655E-11  1.99082410120344E-01
 cg2d: Sum(rhs),rhsMax =  -4.73725503269407E-11  1.99016094709838E-01
 cg2d: Sum(rhs),rhsMax =  -4.74256189875177E-11  1.98961741816362E-01
 cg2d: Sum(rhs),rhsMax =  -4.74743577782988E-11  1.98919756878404E-01
 cg2d: Sum(rhs),rhsMax =  -4.75420813828009E-11  1.98890831051100E-01
 cg2d: Sum(rhs),rhsMax =  -4.75607331296146E-11  1.98875847793309E-01
 cg2d: Sum(rhs),rhsMax =  -4.75719463821633E-11  1.98875800603067E-01
 cg2d: Sum(rhs),rhsMax =  -4.75864903037859E-11  1.98891735679394E-01
 cg2d: Sum(rhs),rhsMax =  -4.75918193743041E-11  1.98924723146136E-01
 cg2d: Sum(rhs),rhsMax =  -4.76102490765129E-11  1.98975850454177E-01
 cg2d: Sum(rhs),rhsMax =  -4.76009232031060E-11  1.99046222684361E-01
 cg2d: Sum(rhs),rhsMax =  -4.76239048197158E-11  1.99136950287901E-01
 cg2d: Sum(rhs),rhsMax =  -4.75470773864117E-11  1.99249109318065E-01
 cg2d: Sum(rhs),rhsMax =  -4.74517092285964E-11  1.99383672370880E-01
 cg2d: Sum(rhs),rhsMax =  -4.73584504945279E-11  1.99541424414829E-01
 cg2d: Sum(rhs),rhsMax =  -4.72895056446987E-11  1.99722887523141E-01
 cg2d: Sum(rhs),rhsMax =  -4.72156758135611E-11  1.99928276324787E-01
 cg2d: Sum(rhs),rhsMax =  -4.71486183428738E-11  2.00157493787668E-01
 cg2d: Sum(rhs),rhsMax =  -4.70717909095697E-11  2.00410163094524E-01
 cg2d: Sum(rhs),rhsMax =  -4.69926320079139E-11  2.00715446619201E-01
 cg2d: Sum(rhs),rhsMax =  -4.65012472972148E-11  2.02757147466297E-01
 cg2d: Sum(rhs),rhsMax =  -4.61636284754263E-11  2.04467368671667E-01
 cg2d: Sum(rhs),rhsMax =  -4.57383020346924E-11  2.05974438856034E-01
 cg2d: Sum(rhs),rhsMax =  -4.54224435841866E-11  2.07023197016787E-01
 cg2d: Sum(rhs),rhsMax =  -4.51759740727198E-11  2.07809345235869E-01
 cg2d: Sum(rhs),rhsMax =  -4.49768000621020E-11  2.08418839575223E-01
 cg2d: Sum(rhs),rhsMax =  -4.48537873509736E-11  2.08744815899378E-01
 cg2d: Sum(rhs),rhsMax =  -4.48051595824950E-11  2.08719950804686E-01
 cg2d: Sum(rhs),rhsMax =  -4.48501236149923E-11  2.08425475064704E-01
 cg2d: Sum(rhs),rhsMax =  -4.49821291326202E-11  2.07752261993836E-01
 cg2d: Sum(rhs),rhsMax =  -4.51433335157958E-11  2.06817747775723E-01
 cg2d: Sum(rhs),rhsMax =  -4.53822535106951E-11  2.05568414680986E-01
 cg2d: Sum(rhs),rhsMax =  -4.52783366355902E-11  2.05967609695802E-01
 cg2d: Sum(rhs),rhsMax =  -4.51748638496952E-11  2.06477122868201E-01
 cg2d: Sum(rhs),rhsMax =  -4.50310899680062E-11  2.06998482279660E-01
 cg2d: Sum(rhs),rhsMax =  -4.49150716619329E-11  2.07531294112885E-01
 cg2d: Sum(rhs),rhsMax =  -4.47947234860635E-11  2.08075162940362E-01
 cg2d: Sum(rhs),rhsMax =  -4.46611636562011E-11  2.08629712159530E-01
 cg2d: Sum(rhs),rhsMax =  -4.45222747558205E-11  2.09194612078230E-01
 cg2d: Sum(rhs),rhsMax =  -4.43786118964340E-11  2.09769605572826E-01
 cg2d: Sum(rhs),rhsMax =  -4.42093028851787E-11  2.10354525757458E-01
 cg2d: Sum(rhs),rhsMax =  -4.40517622379843E-11  2.10949301728221E-01
 cg2d: Sum(rhs),rhsMax =  -4.38558078741380E-11  2.11553947290752E-01
 cg2d: Sum(rhs),rhsMax =  -4.36792824132226E-11  2.12168529690170E-01
 cg2d: Sum(rhs),rhsMax =  -4.35028679746097E-11  2.12793124988888E-01
 cg2d: Sum(rhs),rhsMax =  -4.33296731827681E-11  2.13427779075970E-01
 cg2d: Sum(rhs),rhsMax =  -4.31926716615294E-11  2.14072497080946E-01
 cg2d: Sum(rhs),rhsMax =  -4.30470104006986E-11  2.14727271749491E-01
 cg2d: Sum(rhs),rhsMax =  -4.29027924297998E-11  2.15392137463879E-01
 cg2d: Sum(rhs),rhsMax =  -4.27603508157404E-11  2.16067215671195E-01
 cg2d: Sum(rhs),rhsMax =  -4.26264579189706E-11  2.16752714296636E-01
 cg2d: Sum(rhs),rhsMax =  -4.24795754128127E-11  2.17448862652870E-01
 cg2d: Sum(rhs),rhsMax =  -4.23274748584390E-11  2.18155795123918E-01
 cg2d: Sum(rhs),rhsMax =  -4.21936929839717E-11  2.18873423255082E-01
 cg2d: Sum(rhs),rhsMax =  -4.20722345850777E-11  2.19601341106674E-01
 cg2d: Sum(rhs),rhsMax =  -4.19356771530488E-11  2.20338791947508E-01
 cg2d: Sum(rhs),rhsMax =  -4.17981205202977E-11  2.21084700593060E-01
 cg2d: Sum(rhs),rhsMax =  -4.16405798731034E-11  2.21837762102442E-01
 cg2d: Sum(rhs),rhsMax =  -4.15123491137592E-11  2.22596577624682E-01
 cg2d: Sum(rhs),rhsMax =  -4.13709067004220E-11  2.23359829814705E-01
 cg2d: Sum(rhs),rhsMax =  -4.12416767403556E-11  2.24126479690931E-01
 cg2d: Sum(rhs),rhsMax =  -4.11145562040360E-11  2.24895944229138E-01
 cg2d: Sum(rhs),rhsMax =  -4.09957623404011E-11  2.25668195821610E-01
 cg2d: Sum(rhs),rhsMax =  -4.08688638486865E-11  2.26443730956242E-01
 cg2d: Sum(rhs),rhsMax =  -4.07595068807609E-11  2.27223392697828E-01
 cg2d: Sum(rhs),rhsMax =  -4.06554789833535E-11  2.28008085543310E-01
 cg2d: Sum(rhs),rhsMax =  -4.05306899153857E-11  2.28798465175798E-01
 cg2d: Sum(rhs),rhsMax =  -4.04064559589301E-11  2.29594697132189E-01
 cg2d: Sum(rhs),rhsMax =  -4.02737843074874E-11  2.30396352353351E-01
(PID.TID 0000.0001)      cg2d_init_res =   9.57483581041391E-02
(PID.TID 0000.0001)      cg2d_iters(min,last) =      -1      29
(PID.TID 0000.0001)      cg2d_last_res =   9.66272869728443E-14
(PID.TID 0000.0001) // =======================================================
(PID.TID 0000.0001) // Begin MONITOR dynamic field statistics
(PID.TID 0000.0001) // =======================================================
(PID.TID 0000.0001) %MON time_tsnumber                =                  6720
(PID.TID 0000.0001) %MON time_secondsf                =   1.0080000000000E+05
(PID.TID 0000.0001) %MON dynstat_eta_max              =   2.5235321360090E-02
(PID.TID 0000.0001) %MON dynstat_eta_min              =  -1.7073502360853E-02
(PID.TID 0000.0001) %MON dynstat_eta_mean             =   1.0729581571988E-14
(PID.TID 0000.0001) %MON dynstat_eta_sd               =   9.2953844185475E-03
(PID.TID 0000.0001) %MON dynstat_eta_del2             =   2.5541008115039E-04
(PID.TID 0000.0001) %MON dynstat_uvel_max             =   1.4451255251148E+00
(PID.TID 0000.0001) %MON dynstat_uvel_min             =  -7.1708734384539E-01
(PID.TID 0000.0001) %MON dynstat_uvel_mean            =   6.5627779759651E-04
(PID.TID 0000.0001) %MON dynstat_uvel_sd              =   2.9642366737861E-01
(PID.TID 0000.0001) %MON dynstat_uvel_del2            =   1.0178844854583E-03
(PID.TID 0000.0001) %MON dynstat_vvel_max             =   0.0000000000000E+00
(PID.TID 0000.0001) %MON dynstat_vvel_min             =   0.0000000000000E+00
(PID.TID 0000.0001) %MON dynstat_vvel_mean            =   0.0000000000000E+00
(PID.TID 0000.0001) %MON dynstat_vvel_sd              =   0.0000000000000E+00
(PID.TID 0000.0001) %MON dynstat_vvel_del2            =   0.0000000000000E+00
(PID.TID 0000.0001) %MON dynstat_wvel_max             =   4.6731808151397E-02
(PID.TID 0000.0001) %MON dynstat_wvel_min             =  -4.4351211215134E-02
(PID.TID 0000.0001) %MON dynstat_wvel_mean            =  -6.5910038318732E-20
(PID.TID 0000.0001) %MON dynstat_wvel_sd              =   4.6467035243101E-03
(PID.TID 0000.0001) %MON dynstat_wvel_del2            =   1.0892989905000E-04
(PID.TID 0000.0001) %MON dynstat_theta_max            =   1.4976502385656E+01
(PID.TID 0000.0001) %MON dynstat_theta_min            =   9.9765023856452E+00
(PID.TID 0000.0001) %MON dynstat_theta_mean           =   1.2359109046804E+01
(PID.TID 0000.0001) %MON dynstat_theta_sd             =   2.1809760754657E+00
(PID.TID 0000.0001) %MON dynstat_theta_del2           =   2.4413332211471E-03
(PID.TID 0000.0001) %MON dynstat_salt_max             =   3.5000000000000E+01
(PID.TID 0000.0001) %MON dynstat_salt_min             =   3.5000000000000E+01
(PID.TID 0000.0001) %MON dynstat_salt_mean            =   3.5000000000000E+01
(PID.TID 0000.0001) %MON dynstat_salt_sd              =   3.4816594052245E-13
(PID.TID 0000.0001) %MON dynstat_salt_del2            =   0.0000000000000E+00
(PID.TID 0000.0001) %MON dynstat_sst_max              =   1.4976502385656E+01
(PID.TID 0000.0001) %MON dynstat_sst_min              =   1.4659899944073E+01
(PID.TID 0000.0001) %MON dynstat_sst_mean             =   1.4927493733086E+01
(PID.TID 0000.0001) %MON dynstat_sst_sd               =   8.3322991095676E-02
(PID.TID 0000.0001) %MON dynstat_sst_del2             =   6.9956709288500E-04
(PID.TID 0000.0001) %MON dynstat_sss_max              =   3.5000000000000E+01
(PID.TID 0000.0001) %MON dynstat_sss_min              =   3.5000000000000E+01
(PID.TID 0000.0001) %MON dynstat_sss_mean             =   3.5000000000000E+01
(PID.TID 0000.0001) %MON dynstat_sss_sd               =   3.5527136788005E-14
(PID.TID 0000.0001) %MON dynstat_sss_del2             =   0.0000000000000E+00
(PID.TID 0000.0001) %MON forcing_qnet_max             =   0.0000000000000E+00
(PID.TID 0000.0001) %MON forcing_qnet_min             =   0.0000000000000E+00
(PID.TID 0000.0001) %MON forcing_qnet_mean            =   0.0000000000000E+00
(PID.TID 0000.0001) %MON forcing_qnet_sd              =   0.0000000000000E+00
(PID.TID 0000.0001) %MON forcing_qnet_del2            =   0.0000000000000E+00
(PID.TID 0000.0001) %MON forcing_qsw_max              =   0.0000000000000E+00
(PID.TID 0000.0001) %MON forcing_qsw_min              =   0.0000000000000E+00
(PID.TID 0000.0001) %MON forcing_qsw_mean             =   0.0000000000000E+00
(PID.TID 0000.0001) %MON forcing_qsw_sd               =   0.0000000000000E+00
(PID.TID 0000.0001) %MON forcing_qsw_del2             =   0.0000000000000E+00
(PID.TID 0000.0001) %MON forcing_empmr_max            =   0.0000000000000E+00
(PID.TID 0000.0001) %MON forcing_empmr_min            =   0.0000000000000E+00
(PID.TID 0000.0001) %MON forcing_empmr_mean           =   0.0000000000000E+00
(PID.TID 0000.0001) %MON forcing_empmr_sd             =   0.0000000000000E+00
(PID.TID 0000.0001) %MON forcing_empmr_del2           =   0.0000000000000E+00
(PID.TID 0000.0001) %MON forcing_fu_max               =   0.0000000000000E+00
(PID.TID 0000.0001) %MON forcing_fu_min               =   0.0000000000000E+00
(PID.TID 0000.0001) %MON forcing_fu_mean              =   0.0000000000000E+00
(PID.TID 0000.0001) %MON forcing_fu_sd                =   0.0000000000000E+00
(PID.TID 0000.0001) %MON forcing_fu_del2              =   0.0000000000000E+00
(PID.TID 0000.0001) %MON forcing_fv_max               =   0.0000000000000E+00
(PID.TID 0000.0001) %MON forcing_fv_min               =   0.0000000000000E+00
(PID.TID 0000.0001) %MON forcing_fv_mean              =   0.0000000000000E+00
(PID.TID 0000.0001) %MON forcing_fv_sd                =   0.0000000000000E+00
(PID.TID 0000.0001) %MON forcing_fv_del2              =   0.0000000000000E+00
(PID.TID 0000.0001) %MON advcfl_uvel_max              =   8.8231755556097E-02
(PID.TID 0000.0001) %MON advcfl_vvel_max              =   0.0000000000000E+00
(PID.TID 0000.0001) %MON advcfl_wvel_max              =   2.8213089796528E-01
(PID.TID 0000.0001) %MON advcfl_W_hf_max              =   2.8428852821237E-01
(PID.TID 0000.0001) %MON pe_b_mean                    =   2.4255619869387E-06
(PID.TID 0000.0001) %MON ke_max                       =   8.2643743994531E-01
(PID.TID 0000.0001) %MON ke_mean                      =   4.4420031295986E-02
(PID.TID 0000.0001) %MON ke_vol                       =   8.5337279889550E+10
(PID.TID 0000.0001) %MON vort_r_min                   =   0.0000000000000E+00
(PID.TID 0000.0001) %MON vort_r_max                   =   0.0000000000000E+00
(PID.TID 0000.0001) %MON vort_a_mean                  =   0.0000000000000E+00
(PID.TID 0000.0001) %MON vort_a_sd                    =   0.0000000000000E+00
(PID.TID 0000.0001) %MON vort_p_mean                  =   0.0000000000000E+00
(PID.TID 0000.0001) %MON vort_p_sd                    =   0.0000000000000E+00
(PID.TID 0000.0001) %MON surfExpan_theta_mean         =   2.0086305288933E-07
(PID.TID 0000.0001) %MON surfExpan_salt_mean          =  -4.2788345768550E-18
(PID.TID 0000.0001) // =======================================================
(PID.TID 0000.0001) // End MONITOR dynamic field statistics
(PID.TID 0000.0001) // =======================================================
(PID.TID 0000.0001) // =======================================================
(PID.TID 0000.0001) // Begin OBCS MONITOR field statistics
(PID.TID 0000.0001) // =======================================================
(PID.TID 0000.0001) %MON obc_E_uVel_max               =   0.0000000000000E+00
(PID.TID 0000.0001) %MON obc_E_uVel_min               =   0.0000000000000E+00
(PID.TID 0000.0001) %MON obc_E_uVel_mean              =   0.0000000000000E+00
(PID.TID 0000.0001) %MON obc_E_uVel_sd                =   0.0000000000000E+00
(PID.TID 0000.0001) %MON obc_E_uVel_Int               =   0.0000000000000E+00
(PID.TID 0000.0001) %MON obc_W_uVel_max               =   0.0000000000000E+00
(PID.TID 0000.0001) %MON obc_W_uVel_min               =   0.0000000000000E+00
(PID.TID 0000.0001) %MON obc_W_uVel_mean              =   0.0000000000000E+00
(PID.TID 0000.0001) %MON obc_W_uVel_sd                =   0.0000000000000E+00
(PID.TID 0000.0001) %MON obc_W_uVel_Int               =   0.0000000000000E+00
(PID.TID 0000.0001) // =======================================================
(PID.TID 0000.0001) // End OBCS MONITOR field statistics
(PID.TID 0000.0001) // =======================================================
 cg2d: Sum(rhs),rhsMax =  -4.01202404631817E-11  2.31202456548245E-01
 cg2d: Sum(rhs),rhsMax =  -3.99720256893943E-11  2.32011656440649E-01
 cg2d: Sum(rhs),rhsMax =  -3.98202582019280E-11  2.32822432170151E-01
 cg2d: Sum(rhs),rhsMax =  -3.96976895800094E-11  2.33633285877784E-01
 cg2d: Sum(rhs),rhsMax =  -3.95696808652701E-11  2.34442869351564E-01
 cg2d: Sum(rhs),rhsMax =  -3.94352328569880E-11  2.35250057768847E-01
 cg2d: Sum(rhs),rhsMax =  -3.92946786220705E-11  2.36054004193313E-01
 cg2d: Sum(rhs),rhsMax =  -3.91763288476454E-11  2.36854203825924E-01
 cg2d: Sum(rhs),rhsMax =  -3.90603105415721E-11  2.37650564634096E-01
 cg2d: Sum(rhs),rhsMax =  -3.89339671613698E-11  2.38443447439608E-01
 cg2d: Sum(rhs),rhsMax =  -3.88091780934019E-11  2.39233630062556E-01
 cg2d: Sum(rhs),rhsMax =  -3.86908283189769E-11  2.40022175152355E-01
 cg2d: Sum(rhs),rhsMax =  -3.85645959610770E-11  2.40810225512786E-01
 cg2d: Sum(rhs),rhsMax =  -3.84701159816814E-11  2.41598787474491E-01
 cg2d: Sum(rhs),rhsMax =  -3.83471032705529E-11  2.42388571128887E-01
 cg2d: Sum(rhs),rhsMax =  -3.82495146666884E-11  2.43179932619826E-01
 cg2d: Sum(rhs),rhsMax =  -3.81278342231894E-11  2.43972921213815E-01
 cg2d: Sum(rhs),rhsMax =  -3.80299125524175E-11  2.44767392941826E-01
 cg2d: Sum(rhs),rhsMax =  -3.79160036700910E-11  2.45563132072470E-01
 cg2d: Sum(rhs),rhsMax =  -3.78219677799052E-11  2.46359931103451E-01
 cg2d: Sum(rhs),rhsMax =  -3.77199382839422E-11  2.47157614006247E-01
 cg2d: Sum(rhs),rhsMax =  -3.76412234714962E-11  2.47956026245352E-01
 cg2d: Sum(rhs),rhsMax =  -3.75528497187361E-11  2.48755034277165E-01
 cg2d: Sum(rhs),rhsMax =  -3.75152131582013E-11  2.49554564074348E-01
 cg2d: Sum(rhs),rhsMax =  -3.74260622493239E-11  2.50354671451360E-01
 cg2d: Sum(rhs),rhsMax =  -3.73644448714572E-11  2.51155601767991E-01
 cg2d: Sum(rhs),rhsMax =  -3.72901709511098E-11  2.51957787729705E-01
 cg2d: Sum(rhs),rhsMax =  -3.72151198746451E-11  2.52761759195827E-01
 cg2d: Sum(rhs),rhsMax =  -3.71376263075263E-11  2.53567983803587E-01
 cg2d: Sum(rhs),rhsMax =  -3.70634634094813E-11  2.54376695202837E-01
 cg2d: Sum(rhs),rhsMax =  -3.69714259207399E-11  2.55187775091826E-01
 cg2d: Sum(rhs),rhsMax =  -3.68688413132645E-11  2.56000731733577E-01
 cg2d: Sum(rhs),rhsMax =  -3.67774699583379E-11  2.56814774627200E-01
 cg2d: Sum(rhs),rhsMax =  -3.66942032314910E-11  2.57628944745634E-01
 cg2d: Sum(rhs),rhsMax =  -3.66076058355702E-11  2.58442242133731E-01
 cg2d: Sum(rhs),rhsMax =  -3.65015795367185E-11  2.59253705991330E-01
 cg2d: Sum(rhs),rhsMax =  -3.64046570666687E-11  2.60062438261131E-01
 cg2d: Sum(rhs),rhsMax =  -3.63065133512919E-11  2.60867598216413E-01
 cg2d: Sum(rhs),rhsMax =  -3.61934926473850E-11  2.61668409519508E-01
 cg2d: Sum(rhs),rhsMax =  -3.60613761074546E-11  2.62464204037804E-01
 cg2d: Sum(rhs),rhsMax =  -3.59337004596227E-11  2.63254490786994E-01
 cg2d: Sum(rhs),rhsMax =  -3.58215679341356E-11  2.64039008745404E-01
 cg2d: Sum(rhs),rhsMax =  -3.57133211892346E-11  2.64817719254001E-01
 cg2d: Sum(rhs),rhsMax =  -3.56020768421672E-11  2.65590719792248E-01
 cg2d: Sum(rhs),rhsMax =  -3.54871687591185E-11  2.66358100200452E-01
 cg2d: Sum(rhs),rhsMax =  -3.53517215501142E-11  2.67119792440830E-01
 cg2d: Sum(rhs),rhsMax =  -3.52299300843129E-11  2.67875470798895E-01
 cg2d: Sum(rhs),rhsMax =  -3.50999229681292E-11  2.68624539952379E-01
 cg2d: Sum(rhs),rhsMax =  -3.49906770225061E-11  2.69366214220052E-01
 cg2d: Sum(rhs),rhsMax =  -3.48573392372487E-11  2.70099658068714E-01
 cg2d: Sum(rhs),rhsMax =  -3.47444295556443E-11  2.70824137873929E-01
 cg2d: Sum(rhs),rhsMax =  -3.45988793171159E-11  2.71539133031570E-01
 cg2d: Sum(rhs),rhsMax =  -3.44879680369559E-11  2.72244370411833E-01
 cg2d: Sum(rhs),rhsMax =  -3.43598482999141E-11  2.72939776021574E-01
 cg2d: Sum(rhs),rhsMax =  -3.42523787111304E-11  2.73625372569021E-01
 cg2d: Sum(rhs),rhsMax =  -3.41220385280394E-11  2.74301176262851E-01
 cg2d: Sum(rhs),rhsMax =  -3.40032446644045E-11  2.74967145625240E-01
 cg2d: Sum(rhs),rhsMax =  -3.38928884957568E-11  2.75623205848184E-01
 cg2d: Sum(rhs),rhsMax =  -3.37904149105839E-11  2.76269327748051E-01
 cg2d: Sum(rhs),rhsMax =  -3.36989325333548E-11  2.76905605649796E-01
 cg2d: Sum(rhs),rhsMax =  -3.35792504913002E-11  2.77532274617878E-01
 cg2d: Sum(rhs),rhsMax =  -3.34818839320405E-11  2.78149637075022E-01
 cg2d: Sum(rhs),rhsMax =  -3.33856275958055E-11  2.78757914819217E-01
 cg2d: Sum(rhs),rhsMax =  -3.33288951992472E-11  2.79357079465316E-01
 cg2d: Sum(rhs),rhsMax =  -3.32177618744822E-11  2.79946724596982E-01
 cg2d: Sum(rhs),rhsMax =  -3.31669136599544E-11  2.80526024588805E-01
 cg2d: Sum(rhs),rhsMax =  -3.31025207245261E-11  2.81093790482407E-01
 cg2d: Sum(rhs),rhsMax =  -3.30480087740170E-11  2.81648600108804E-01
 cg2d: Sum(rhs),rhsMax =  -3.29740679205770E-11  2.82188960294546E-01
 cg2d: Sum(rhs),rhsMax =  -3.29348770478077E-11  2.82713456462639E-01
 cg2d: Sum(rhs),rhsMax =  -3.28759242052001E-11  2.83220856404098E-01
 cg2d: Sum(rhs),rhsMax =  -3.28187477194319E-11  2.83710156149209E-01
 cg2d: Sum(rhs),rhsMax =  -3.27701199509534E-11  2.84180580172888E-01
 cg2d: Sum(rhs),rhsMax =  -3.27003979450069E-11  2.84631566099240E-01
 cg2d: Sum(rhs),rhsMax =  -3.26337845635294E-11  2.85062766492260E-01
 cg2d: Sum(rhs),rhsMax =  -3.25701687842184E-11  2.85474084337667E-01
 cg2d: Sum(rhs),rhsMax =  -3.25184323912708E-11  2.85865731533332E-01
 cg2d: Sum(rhs),rhsMax =  -3.24507087867687E-11  2.86238275995014E-01
 cg2d: Sum(rhs),rhsMax =  -3.23824300707543E-11  2.86592637274078E-01
 cg2d: Sum(rhs),rhsMax =  -3.23144844216472E-11  2.86930007534784E-01
 cg2d: Sum(rhs),rhsMax =  -3.22439852595835E-11  2.87251705875080E-01
 cg2d: Sum(rhs),rhsMax =  -3.21747073428469E-11  2.87559003082986E-01
 cg2d: Sum(rhs),rhsMax =  -3.21161985894491E-11  2.87852966983702E-01
 cg2d: Sum(rhs),rhsMax =  -3.20634629957794E-11  2.88134370843120E-01
 cg2d: Sum(rhs),rhsMax =  -3.20189430524920E-11  2.88403683994624E-01
 cg2d: Sum(rhs),rhsMax =  -3.19688719940814E-11  2.88661135754372E-01
 cg2d: Sum(rhs),rhsMax =  -3.19162474227142E-11  2.88906821768511E-01
 cg2d: Sum(rhs),rhsMax =  -3.18454151937431E-11  2.89140813229518E-01
 cg2d: Sum(rhs),rhsMax =  -3.17785797676606E-11  2.89363233896666E-01
 cg2d: Sum(rhs),rhsMax =  -3.17307291552993E-11  2.89574283129150E-01
 cg2d: Sum(rhs),rhsMax =  -3.16795478738641E-11  2.89774201526817E-01
 cg2d: Sum(rhs),rhsMax =  -3.15835135822340E-11  2.89963197024871E-01
 cg2d: Sum(rhs),rhsMax =  -3.15721893073828E-11  2.90141368334700E-01
 cg2d: Sum(rhs),rhsMax =  -3.14981374316403E-11  2.90308669684249E-01
 cg2d: Sum(rhs),rhsMax =  -3.14179793292624E-11  2.90464947072722E-01
 cg2d: Sum(rhs),rhsMax =  -3.13632453341484E-11  2.90610043144707E-01
 cg2d: Sum(rhs),rhsMax =  -3.13136183649476E-11  2.90743930222416E-01
 cg2d: Sum(rhs),rhsMax =  -3.12576631245065E-11  2.90866810056896E-01
 cg2d: Sum(rhs),rhsMax =  -3.12345704855943E-11  2.90979128185201E-01
 cg2d: Sum(rhs),rhsMax =  -3.11892733861896E-11  2.91081487147504E-01
 cg2d: Sum(rhs),rhsMax =  -3.11710657285857E-11  2.91174487336210E-01
 cg2d: Sum(rhs),rhsMax =  -3.11326520119337E-11  2.91258553898620E-01
 cg2d: Sum(rhs),rhsMax =  -3.11162207111693E-11  2.91333809518386E-01
 cg2d: Sum(rhs),rhsMax =  -3.10869108233192E-11  2.91400029047114E-01
 cg2d: Sum(rhs),rhsMax =  -3.10825809535231E-11  2.91456677609392E-01
 cg2d: Sum(rhs),rhsMax =  -3.10484971066671E-11  2.91503005999274E-01
 cg2d: Sum(rhs),rhsMax =  -3.10267367353845E-11  2.91538166269942E-01
 cg2d: Sum(rhs),rhsMax =  -3.10076408993609E-11  2.91561315882040E-01
 cg2d: Sum(rhs),rhsMax =  -3.10038661410772E-11  2.91571692064179E-01
 cg2d: Sum(rhs),rhsMax =  -3.09782199892084E-11  2.91568650049432E-01
 cg2d: Sum(rhs),rhsMax =  -3.09804404352576E-11  2.91551665986169E-01
 cg2d: Sum(rhs),rhsMax =  -3.09611225546291E-11  2.91520309703469E-01
 cg2d: Sum(rhs),rhsMax =  -3.09274827969830E-11  2.91474197512674E-01
 cg2d: Sum(rhs),rhsMax =  -3.09128278530579E-11  2.91412940205602E-01
 cg2d: Sum(rhs),rhsMax =  -3.08674197313508E-11  2.91336102019913E-01
 cg2d: Sum(rhs),rhsMax =  -3.07770475771463E-11  2.91243180976831E-01
 cg2d: Sum(rhs),rhsMax =  -3.07329717230687E-11  2.91133614310933E-01
 cg2d: Sum(rhs),rhsMax =  -3.07875946958802E-11  2.91006810774682E-01
 cg2d: Sum(rhs),rhsMax =  -3.08226777434584E-11  2.90862213879353E-01
 cg2d: Sum(rhs),rhsMax =  -3.08589820363636E-11  2.90699398524230E-01
 cg2d: Sum(rhs),rhsMax =  -3.08970626861083E-11  2.90518190687438E-01
 cg2d: Sum(rhs),rhsMax =  -3.09458014768893E-11  2.90318778759530E-01
 cg2d: Sum(rhs),rhsMax =  -3.09973158252319E-11  2.90101770264029E-01
 cg2d: Sum(rhs),rhsMax =  -3.10181880180949E-11  2.89868155267582E-01
 cg2d: Sum(rhs),rhsMax =  -3.10544923110001E-11  2.89619170665895E-01
 cg2d: Sum(rhs),rhsMax =  -3.11026759902688E-11  2.89356102049157E-01
 cg2d: Sum(rhs),rhsMax =  -3.11196624025456E-11  2.89080087747256E-01
 cg2d: Sum(rhs),rhsMax =  -3.11380921047544E-11  2.88791987224469E-01
 cg2d: Sum(rhs),rhsMax =  -3.11592973645247E-11  2.88492346109626E-01
 cg2d: Sum(rhs),rhsMax =  -3.11805026242951E-11  2.88181450538948E-01
 cg2d: Sum(rhs),rhsMax =  -3.12048165085343E-11  2.87859434078638E-01
 cg2d: Sum(rhs),rhsMax =  -3.11938253005906E-11  2.87526391721188E-01
 cg2d: Sum(rhs),rhsMax =  -3.11869419178379E-11  2.87182465142327E-01
 cg2d: Sum(rhs),rhsMax =  -3.11788372897581E-11  2.86827882064161E-01
 cg2d: Sum(rhs),rhsMax =  -3.11376480155445E-11  2.86462951114558E-01
 cg2d: Sum(rhs),rhsMax =  -3.11284331644401E-11  2.86088026937602E-01
 cg2d: Sum(rhs),rhsMax =  -3.12359027532239E-11  2.85703466564614E-01
 cg2d: Sum(rhs),rhsMax =  -3.12644354849567E-11  2.85309596465274E-01
 cg2d: Sum(rhs),rhsMax =  -3.12901926591280E-11  2.84906700817603E-01
 cg2d: Sum(rhs),rhsMax =  -3.13276071750579E-11  2.84495028586637E-01
 cg2d: Sum(rhs),rhsMax =  -3.13795656126103E-11  2.84074805839916E-01
 cg2d: Sum(rhs),rhsMax =  -3.13966630471896E-11  2.83646235768775E-01
 cg2d: Sum(rhs),rhsMax =  -3.14434034365263E-11  2.83209474597458E-01
 cg2d: Sum(rhs),rhsMax =  -3.15011350338068E-11  2.82764584860949E-01
 cg2d: Sum(rhs),rhsMax =  -3.16549009227174E-11  2.82311481834236E-01
 cg2d: Sum(rhs),rhsMax =  -3.16564552349519E-11  2.81849895906200E-01
 cg2d: Sum(rhs),rhsMax =  -3.16636716846119E-11  2.81379368536478E-01
 cg2d: Sum(rhs),rhsMax =  -3.16680015544080E-11  2.80899283436497E-01
 cg2d: Sum(rhs),rhsMax =  -3.16798809407715E-11  2.80408915192453E-01
 cg2d: Sum(rhs),rhsMax =  -3.16809911637961E-11  2.79907466305963E-01
 cg2d: Sum(rhs),rhsMax =  -3.16731085803212E-11  2.79394070776245E-01
 cg2d: Sum(rhs),rhsMax =  -3.16866533012217E-11  2.78867768010731E-01
 cg2d: Sum(rhs),rhsMax =  -3.17180726128186E-11  2.78327480674770E-01
 cg2d: Sum(rhs),rhsMax =  -3.16728865357163E-11  2.77772042602951E-01
 cg2d: Sum(rhs),rhsMax =  -3.16379145104406E-11  2.77200305161441E-01
 cg2d: Sum(rhs),rhsMax =  -3.16150439161333E-11  2.76611309365944E-01
 cg2d: Sum(rhs),rhsMax =  -3.16296988600584E-11  2.76004470237738E-01
 cg2d: Sum(rhs),rhsMax =  -3.17823545259444E-11  2.75379703980149E-01
 cg2d: Sum(rhs),rhsMax =  -3.18506332419588E-11  2.74737447236685E-01
 cg2d: Sum(rhs),rhsMax =  -3.18693960110750E-11  2.74078560671683E-01
 cg2d: Sum(rhs),rhsMax =  -3.19201332033003E-11  2.73404154115491E-01
 cg2d: Sum(rhs),rhsMax =  -3.19371196155771E-11  2.72715396680264E-01
 cg2d: Sum(rhs),rhsMax =  -3.19764215106488E-11  2.72013372816544E-01
 cg2d: Sum(rhs),rhsMax =  -3.20207194093314E-11  2.71299018972507E-01
 cg2d: Sum(rhs),rhsMax =  -3.20315995949727E-11  2.70573140484829E-01
 cg2d: Sum(rhs),rhsMax =  -3.20391491115402E-11  2.69836480882667E-01
 cg2d: Sum(rhs),rhsMax =  -3.20437010259411E-11  2.69089805044514E-01
 cg2d: Sum(rhs),rhsMax =  -3.20097282013876E-11  2.68629314799520E-01
 cg2d: Sum(rhs),rhsMax =  -3.20111714913196E-11  2.68025210809832E-01
 cg2d: Sum(rhs),rhsMax =  -3.20520276986258E-11  2.66984201784446E-01
 cg2d: Sum(rhs),rhsMax =  -3.21190851693132E-11  2.66021466773784E-01
 cg2d: Sum(rhs),rhsMax =  -3.21164206340541E-11  2.65239242394475E-01
 cg2d: Sum(rhs),rhsMax =  -3.21964677141295E-11  2.64453024020848E-01
 cg2d: Sum(rhs),rhsMax =  -3.22828430654454E-11  2.63663633243432E-01
 cg2d: Sum(rhs),rhsMax =  -3.23495674692253E-11  2.62871686229726E-01
 cg2d: Sum(rhs),rhsMax =  -3.24317239730476E-11  2.62077569810081E-01
 cg2d: Sum(rhs),rhsMax =  -3.25083293617467E-11  2.61281443669827E-01
 cg2d: Sum(rhs),rhsMax =  -3.25807159029523E-11  2.60483271396863E-01
 cg2d: Sum(rhs),rhsMax =  -3.26386695448377E-11  2.59682880478964E-01
 cg2d: Sum(rhs),rhsMax =  -3.27152749335369E-11  2.58880045531089E-01
 cg2d: Sum(rhs),rhsMax =  -3.27837756941562E-11  2.58074581271008E-01
 cg2d: Sum(rhs),rhsMax =  -3.28501670310288E-11  2.57266425875629E-01
 cg2d: Sum(rhs),rhsMax =  -3.29082316952167E-11  2.56455695447056E-01
 cg2d: Sum(rhs),rhsMax =  -3.29745120097868E-11  2.55642697798164E-01
 cg2d: Sum(rhs),rhsMax =  -3.30018234961926E-11  2.54827906165060E-01
 cg2d: Sum(rhs),rhsMax =  -3.30647731416889E-11  2.54011905900003E-01
 cg2d: Sum(rhs),rhsMax =  -3.30997451669646E-11  2.53195333850712E-01
 cg2d: Sum(rhs),rhsMax =  -3.31447091994619E-11  2.52378829160105E-01
 cg2d: Sum(rhs),rhsMax =  -3.31752403326391E-11  2.51563009035294E-01
 cg2d: Sum(rhs),rhsMax =  -3.32337490860368E-11  2.50748477283074E-01
 cg2d: Sum(rhs),rhsMax =  -3.32709415573618E-11  2.49935866732311E-01
 cg2d: Sum(rhs),rhsMax =  -3.33300054222718E-11  2.49125906457225E-01
 cg2d: Sum(rhs),rhsMax =  -3.33779670569356E-11  2.48319492288769E-01
 cg2d: Sum(rhs),rhsMax =  -3.34111627253719E-11  2.47517731053389E-01
 cg2d: Sum(rhs),rhsMax =  -3.34482441743944E-11  2.46721932160189E-01
 cg2d: Sum(rhs),rhsMax =  -3.34950955860336E-11  2.45933535443029E-01
 cg2d: Sum(rhs),rhsMax =  -3.34975380766878E-11  2.45153983906486E-01
 cg2d: Sum(rhs),rhsMax =  -3.35366179271546E-11  2.44384563316031E-01
 cg2d: Sum(rhs),rhsMax =  -3.35614869229062E-11  2.43626233325413E-01
 cg2d: Sum(rhs),rhsMax =  -3.36034533532370E-11  2.42879473693080E-01
 cg2d: Sum(rhs),rhsMax =  -3.32891492149656E-11  2.44761808583678E-01
 cg2d: Sum(rhs),rhsMax =  -3.25709459403356E-11  2.49620163156734E-01
 cg2d: Sum(rhs),rhsMax =  -3.19141379989674E-11  2.54180008143845E-01
 cg2d: Sum(rhs),rhsMax =  -3.13594705758646E-11  2.58235615500038E-01
 cg2d: Sum(rhs),rhsMax =  -3.09052783364905E-11  2.61906280476059E-01
 cg2d: Sum(rhs),rhsMax =  -3.04614111712453E-11  2.65211913358169E-01
 cg2d: Sum(rhs),rhsMax =  -3.01121350076983E-11  2.67995730958519E-01
 cg2d: Sum(rhs),rhsMax =  -2.98086000327658E-11  2.70383439616540E-01
 cg2d: Sum(rhs),rhsMax =  -2.95262703176036E-11  2.72451805658197E-01
 cg2d: Sum(rhs),rhsMax =  -2.93052249134007E-11  2.74027641962353E-01
 cg2d: Sum(rhs),rhsMax =  -2.91285884301828E-11  2.75168616837925E-01
 cg2d: Sum(rhs),rhsMax =  -2.89850365930988E-11  2.75910626853047E-01
 cg2d: Sum(rhs),rhsMax =  -2.88877810561416E-11  2.76220870093137E-01
 cg2d: Sum(rhs),rhsMax =  -2.88652435287418E-11  2.76116131886258E-01
 cg2d: Sum(rhs),rhsMax =  -2.88651325064393E-11  2.75621284384541E-01
 cg2d: Sum(rhs),rhsMax =  -2.89146484533376E-11  2.74657240036978E-01
 cg2d: Sum(rhs),rhsMax =  -2.90355517407193E-11  2.73231818825814E-01
 cg2d: Sum(rhs),rhsMax =  -2.91765500648467E-11  2.71512580760192E-01
 cg2d: Sum(rhs),rhsMax =  -2.93418622732133E-11  2.69280716461843E-01
 cg2d: Sum(rhs),rhsMax =  -2.95796720450880E-11  2.66632583403546E-01
 cg2d: Sum(rhs),rhsMax =  -2.98234770212957E-11  2.63782765647672E-01
 cg2d: Sum(rhs),rhsMax =  -3.01381142264745E-11  2.60476292585033E-01
 cg2d: Sum(rhs),rhsMax =  -3.04926084382373E-11  2.56712080761096E-01
 cg2d: Sum(rhs),rhsMax =  -3.09304803991495E-11  2.52630264113613E-01
 cg2d: Sum(rhs),rhsMax =  -3.14137604817688E-11  2.48184692618203E-01
 cg2d: Sum(rhs),rhsMax =  -3.19623216782361E-11  2.43385188369003E-01
 cg2d: Sum(rhs),rhsMax =  -3.25740545648046E-11  2.38248505998312E-01
 cg2d: Sum(rhs),rhsMax =  -3.33387761841664E-11  2.32307021765146E-01
 cg2d: Sum(rhs),rhsMax =  -3.41098260747685E-11  2.26606982315628E-01
 cg2d: Sum(rhs),rhsMax =  -3.47794015809200E-11  2.21724196644306E-01
 cg2d: Sum(rhs),rhsMax =  -3.47893935881416E-11  2.21025169501346E-01
 cg2d: Sum(rhs),rhsMax =  -3.48365780666882E-11  2.20330405473697E-01
 cg2d: Sum(rhs),rhsMax =  -3.48712170250565E-11  2.19640495034931E-01
 cg2d: Sum(rhs),rhsMax =  -3.48896467272652E-11  2.18956109213775E-01
 cg2d: Sum(rhs),rhsMax =  -3.49283935108247E-11  2.18277980924706E-01
 cg2d: Sum(rhs),rhsMax =  -3.49485995698728E-11  2.17606889289295E-01
 cg2d: Sum(rhs),rhsMax =  -3.49634765584028E-11  2.16943646204788E-01
 cg2d: Sum(rhs),rhsMax =  -3.50098838808321E-11  2.16289080212106E-01
 cg2d: Sum(rhs),rhsMax =  -3.50667272996930E-11  2.15644013258587E-01
 cg2d: Sum(rhs),rhsMax =  -3.51180196034306E-11  2.15009232211410E-01
 cg2d: Sum(rhs),rhsMax =  -3.51827456057663E-11  2.14385465641463E-01
 cg2d: Sum(rhs),rhsMax =  -3.52546880577620E-11  2.13773380674012E-01
 cg2d: Sum(rhs),rhsMax =  -3.53256313090355E-11  2.13173608994385E-01
 cg2d: Sum(rhs),rhsMax =  -3.53809204156619E-11  2.12586796148756E-01
 cg2d: Sum(rhs),rhsMax =  -3.54445361949729E-11  2.12013652068557E-01
 cg2d: Sum(rhs),rhsMax =  -3.55186990930179E-11  2.11454973675243E-01
 cg2d: Sum(rhs),rhsMax =  -3.55788731809525E-11  2.10911618221855E-01
 cg2d: Sum(rhs),rhsMax =  -3.56564777703738E-11  2.10384425682696E-01
 cg2d: Sum(rhs),rhsMax =  -3.53128637442524E-11  2.12210583826485E-01
 cg2d: Sum(rhs),rhsMax =  -3.49532625065763E-11  2.14287125023896E-01
 cg2d: Sum(rhs),rhsMax =  -3.46639383863590E-11  2.15963686146369E-01
 cg2d: Sum(rhs),rhsMax =  -3.44575479260811E-11  2.17307939366055E-01
 cg2d: Sum(rhs),rhsMax =  -3.43314265904837E-11  2.18264934360676E-01
 cg2d: Sum(rhs),rhsMax =  -3.42579298262535E-11  2.18860338013580E-01
 cg2d: Sum(rhs),rhsMax =  -3.42545991571797E-11  2.19019938896088E-01
 cg2d: Sum(rhs),rhsMax =  -3.42861294910790E-11  2.18893176967136E-01
 cg2d: Sum(rhs),rhsMax =  -3.43950423697947E-11  2.18358082925424E-01
 cg2d: Sum(rhs),rhsMax =  -3.45762307674136E-11  2.17436516679963E-01
 cg2d: Sum(rhs),rhsMax =  -3.48745476941303E-11  2.16185743318537E-01
 cg2d: Sum(rhs),rhsMax =  -3.51881856985869E-11  2.14559889763474E-01
 cg2d: Sum(rhs),rhsMax =  -3.55124818440800E-11  2.12544963089248E-01
 cg2d: Sum(rhs),rhsMax =  -3.58718610371511E-11  2.10154765643017E-01
 cg2d: Sum(rhs),rhsMax =  -3.63253871427105E-11  2.07428020959388E-01
 cg2d: Sum(rhs),rhsMax =  -3.68773900305541E-11  2.04253955426100E-01
 cg2d: Sum(rhs),rhsMax =  -3.69563268876050E-11  2.03753460657766E-01
 cg2d: Sum(rhs),rhsMax =  -3.70085073697624E-11  2.03474369019218E-01
 cg2d: Sum(rhs),rhsMax =  -3.70471431310193E-11  2.03208830030793E-01
 cg2d: Sum(rhs),rhsMax =  -3.71005448585038E-11  2.02957889417317E-01
 cg2d: Sum(rhs),rhsMax =  -3.71418451550198E-11  2.02722548635164E-01
 cg2d: Sum(rhs),rhsMax =  -3.71840336299556E-11  2.02503713045144E-01
 cg2d: Sum(rhs),rhsMax =  -3.72146757854352E-11  2.02302168288376E-01
 cg2d: Sum(rhs),rhsMax =  -3.72301078854775E-11  2.02118574773523E-01
 cg2d: Sum(rhs),rhsMax =  -3.72497588330134E-11  2.01953466426087E-01
 cg2d: Sum(rhs),rhsMax =  -3.72464281639395E-11  2.01807245943328E-01
 cg2d: Sum(rhs),rhsMax =  -3.72452069186124E-11  2.01680180837615E-01
 cg2d: Sum(rhs),rhsMax =  -3.72523123459700E-11  2.01572413405620E-01
 cg2d: Sum(rhs),rhsMax =  -3.72349928667859E-11  2.01483995209369E-01
 cg2d: Sum(rhs),rhsMax =  -3.72326613984342E-11  2.01414942371906E-01
 cg2d: Sum(rhs),rhsMax =  -3.72163411199722E-11  2.01365290706824E-01
 cg2d: Sum(rhs),rhsMax =  -3.72007979976274E-11  2.01335121550718E-01
 cg2d: Sum(rhs),rhsMax =  -3.71925823472452E-11  2.01324537396063E-01
 cg2d: Sum(rhs),rhsMax =  -3.71891406558689E-11  2.01333588533910E-01
 cg2d: Sum(rhs),rhsMax =  -3.72158970307623E-11  2.01362176930154E-01
 cg2d: Sum(rhs),rhsMax =  -3.72150088523426E-11  2.01409978130692E-01
 cg2d: Sum(rhs),rhsMax =  -3.72161190753673E-11  2.01476417675764E-01
 cg2d: Sum(rhs),rhsMax =  -3.72194497444411E-11  2.01560716423455E-01
 cg2d: Sum(rhs),rhsMax =  -3.72605279963523E-11  2.01661989431186E-01
 cg2d: Sum(rhs),rhsMax =  -3.72925024194615E-11  2.01779359765938E-01
 cg2d: Sum(rhs),rhsMax =  -3.72034625328865E-11  2.01912042813346E-01
 cg2d: Sum(rhs),rhsMax =  -3.72101238710343E-11  2.02059370703166E-01
 cg2d: Sum(rhs),rhsMax =  -3.72096797818244E-11  2.02220751997880E-01
 cg2d: Sum(rhs),rhsMax =  -3.71926933695477E-11  2.02395584648756E-01
 cg2d: Sum(rhs),rhsMax =  -3.71966901724363E-11  2.02583151420528E-01
 cg2d: Sum(rhs),rhsMax =  -3.71632724593951E-11  2.02782528861959E-01
 cg2d: Sum(rhs),rhsMax =  -3.71429553780445E-11  2.02992541452520E-01
 cg2d: Sum(rhs),rhsMax =  -3.71010999700161E-11  2.03211793546762E-01
 cg2d: Sum(rhs),rhsMax =  -3.70741215505177E-11  2.03438803624045E-01
 cg2d: Sum(rhs),rhsMax =  -3.70228292467800E-11  2.03672237446449E-01
 cg2d: Sum(rhs),rhsMax =  -3.69732022775793E-11  2.03911192348189E-01
 cg2d: Sum(rhs),rhsMax =  -3.69089203644535E-11  2.04155445459294E-01
 cg2d: Sum(rhs),rhsMax =  -3.68652885995857E-11  2.04405571544445E-01
 cg2d: Sum(rhs),rhsMax =  -3.67721408878197E-11  2.04662873663045E-01
 cg2d: Sum(rhs),rhsMax =  -3.67588182115242E-11  2.04929138239863E-01
 cg2d: Sum(rhs),rhsMax =  -3.67679220403261E-11  2.05206292708437E-01
 cg2d: Sum(rhs),rhsMax =  -3.67815777835290E-11  2.05496076923697E-01
 cg2d: Sum(rhs),rhsMax =  -3.67853525418127E-11  2.05799825731316E-01
 cg2d: Sum(rhs),rhsMax =  -3.68020058871821E-11  2.06118409660342E-01
 cg2d: Sum(rhs),rhsMax =  -3.67781360921526E-11  2.06452319173156E-01
 cg2d: Sum(rhs),rhsMax =  -3.67099683984407E-11  2.06801831553434E-01
 cg2d: Sum(rhs),rhsMax =  -3.66204844226559E-11  2.07167184320628E-01
 cg2d: Sum(rhs),rhsMax =  -3.65651953160295E-11  2.07548695236768E-01
 cg2d: Sum(rhs),rhsMax =  -3.64919205964043E-11  2.07946803749456E-01
 cg2d: Sum(rhs),rhsMax =  -3.64063224012057E-11  2.08362044292805E-01
 cg2d: Sum(rhs),rhsMax =  -3.63147290016741E-11  2.08794983814711E-01
 cg2d: Sum(rhs),rhsMax =  -3.62346819215986E-11  2.09246158358039E-01
 cg2d: Sum(rhs),rhsMax =  -3.61459751019311E-11  2.09716030148412E-01
 cg2d: Sum(rhs),rhsMax =  -3.60693697132319E-11  2.10204967137665E-01
 cg2d: Sum(rhs),rhsMax =  -3.59714480424600E-11  2.10713231848648E-01
 cg2d: Sum(rhs),rhsMax =  -3.58565399594113E-11  2.11240962204242E-01
 cg2d: Sum(rhs),rhsMax =  -3.57542884188433E-11  2.11788134067631E-01
 cg2d: Sum(rhs),rhsMax =  -3.56181750760243E-11  2.12354508027417E-01
 cg2d: Sum(rhs),rhsMax =  -3.54904994281924E-11  2.12939574160138E-01
 cg2d: Sum(rhs),rhsMax =  -3.53701512523230E-11  2.13542512820112E-01
 cg2d: Sum(rhs),rhsMax =  -3.52621265520270E-11  2.14162186581666E-01
 cg2d: Sum(rhs),rhsMax =  -3.51189077818503E-11  2.14797171093578E-01
 cg2d: Sum(rhs),rhsMax =  -3.49913431563209E-11  2.15445823912334E-01
 cg2d: Sum(rhs),rhsMax =  -3.48495676760763E-11  2.16106382447723E-01
 cg2d: Sum(rhs),rhsMax =  -3.47243345188986E-11  2.16777076135792E-01
 cg2d: Sum(rhs),rhsMax =  -3.45736772544569E-11  2.17456234835365E-01
 cg2d: Sum(rhs),rhsMax =  -3.44275719044163E-11  2.18142376226034E-01
 cg2d: Sum(rhs),rhsMax =  -3.42949002529735E-11  2.18834260083043E-01
 cg2d: Sum(rhs),rhsMax =  -3.41777717238756E-11  2.19530905630734E-01
 cg2d: Sum(rhs),rhsMax =  -3.40332206860694E-11  2.20231577191918E-01
 cg2d: Sum(rhs),rhsMax =  -3.39154260231567E-11  2.20935749979194E-01
 cg2d: Sum(rhs),rhsMax =  -3.37796457472450E-11  2.21643069868197E-01
 cg2d: Sum(rhs),rhsMax =  -3.36854988347568E-11  2.22353318130397E-01
 cg2d: Sum(rhs),rhsMax =  -3.35709238186155E-11  2.23066382996131E-01
 cg2d: Sum(rhs),rhsMax =  -3.34473559959747E-11  2.23782230126050E-01
 cg2d: Sum(rhs),rhsMax =  -3.33045813150079E-11  2.24500866098884E-01
 cg2d: Sum(rhs),rhsMax =  -3.31865646074903E-11  2.25222305422520E-01
 cg2d: Sum(rhs),rhsMax =  -3.30482308186220E-11  2.25946566430369E-01
 cg2d: Sum(rhs),rhsMax =  -3.28943539074089E-11  2.26673714525730E-01
 cg2d: Sum(rhs),rhsMax =  -3.27410321077082E-11  2.27403940182988E-01
 cg2d: Sum(rhs),rhsMax =  -3.25858229288656E-11  2.28137624987756E-01
 cg2d: Sum(rhs),rhsMax =  -3.24122950701167E-11  2.28875339620173E-01
 cg2d: Sum(rhs),rhsMax =  -3.22494253524042E-11  2.29617744498038E-01
 cg2d: Sum(rhs),rhsMax =  -3.20848903001547E-11  2.30365412571042E-01
 cg2d: Sum(rhs),rhsMax =  -3.19463344666815E-11  2.31118635364503E-01
 cg2d: Sum(rhs),rhsMax =  -3.17862403065305E-11  2.31877284536441E-01
 cg2d: Sum(rhs),rhsMax =  -3.16023873736526E-11  2.32640777992780E-01
 cg2d: Sum(rhs),rhsMax =  -3.14196446637993E-11  2.33408156728811E-01
 cg2d: Sum(rhs),rhsMax =  -3.12326831064524E-11  2.34178238598137E-01
 cg2d: Sum(rhs),rhsMax =  -3.10518277757410E-11  2.34949794772458E-01
 cg2d: Sum(rhs),rhsMax =  -3.08633119061597E-11  2.35721698000570E-01
 cg2d: Sum(rhs),rhsMax =  -3.06941139172068E-11  2.36493011969646E-01
 cg2d: Sum(rhs),rhsMax =  -3.05251379728588E-11  2.37263016164524E-01
 cg2d: Sum(rhs),rhsMax =  -3.03401748169563E-11  2.38031180366329E-01
 cg2d: Sum(rhs),rhsMax =  -3.01814129244349E-11  2.38797112512134E-01
 cg2d: Sum(rhs),rhsMax =  -2.99934521663658E-11  2.39560503578235E-01
 cg2d: Sum(rhs),rhsMax =  -2.98189251068948E-11  2.40321086846284E-01
 cg2d: Sum(rhs),rhsMax =  -2.96316304826405E-11  2.41078620198236E-01
 cg2d: Sum(rhs),rhsMax =  -2.94565483116571E-11  2.41832891484394E-01
 cg2d: Sum(rhs),rhsMax =  -2.92963431292037E-11  2.42583739426881E-01
 cg2d: Sum(rhs),rhsMax =  -2.91154877984923E-11  2.43331077414855E-01
 cg2d: Sum(rhs),rhsMax =  -2.89243073936518E-11  2.44074907611621E-01
 cg2d: Sum(rhs),rhsMax =  -2.87465606874093E-11  2.44815319025377E-01
 cg2d: Sum(rhs),rhsMax =  -2.85897971963323E-11  2.45552472108264E-01
 cg2d: Sum(rhs),rhsMax =  -2.84028356389854E-11  2.46286577880684E-01
 cg2d: Sum(rhs),rhsMax =  -2.82380785421310E-11  2.47017877923381E-01
 cg2d: Sum(rhs),rhsMax =  -2.80724332668569E-11  2.47746625152457E-01
 cg2d: Sum(rhs),rhsMax =  -2.79209988462981E-11  2.48473060278334E-01
 cg2d: Sum(rhs),rhsMax =  -2.77496914335984E-11  2.49197379861038E-01
 cg2d: Sum(rhs),rhsMax =  -2.76113576447301E-11  2.49919698371373E-01
 cg2d: Sum(rhs),rhsMax =  -2.74448241910363E-11  2.50640013859246E-01
 cg2d: Sum(rhs),rhsMax =  -2.73240319259571E-11  2.51358189645675E-01
 cg2d: Sum(rhs),rhsMax =  -2.71920264083292E-11  2.52073961061418E-01
 cg2d: Sum(rhs),rhsMax =  -2.70454769690787E-11  2.52786968800350E-01
 cg2d: Sum(rhs),rhsMax =  -2.68831623628785E-11  2.53496812837851E-01
 cg2d: Sum(rhs),rhsMax =  -2.66963118278341E-11  2.54203115963463E-01
 cg2d: Sum(rhs),rhsMax =  -2.65285571288132E-11  2.54905584389844E-01
 cg2d: Sum(rhs),rhsMax =  -2.63468136196821E-11  2.55604053744325E-01
 cg2d: Sum(rhs),rhsMax =  -2.61851651472966E-11  2.56298511174921E-01
 cg2d: Sum(rhs),rhsMax =  -2.60064192403320E-11  2.56989088256965E-01
 cg2d: Sum(rhs),rhsMax =  -2.58344456938175E-11  2.57676025038908E-01
 cg2d: Sum(rhs),rhsMax =  -2.56371590623417E-11  2.58359612140131E-01
 cg2d: Sum(rhs),rhsMax =  -2.54678500510863E-11  2.59040123302450E-01
 cg2d: Sum(rhs),rhsMax =  -2.52738940886843E-11  2.59717752665406E-01
 cg2d: Sum(rhs),rhsMax =  -2.51101361925521E-11  2.60392568894261E-01
 cg2d: Sum(rhs),rhsMax =  -2.49317233524948E-11  2.61064494476808E-01
 cg2d: Sum(rhs),rhsMax =  -2.47369902339756E-11  2.61733314925420E-01
 cg2d: Sum(rhs),rhsMax =  -2.45293785283707E-11  2.62398718380582E-01
 cg2d: Sum(rhs),rhsMax =  -2.43568498703439E-11  2.63060358933002E-01
 cg2d: Sum(rhs),rhsMax =  -2.41797692979162E-11  2.63717927352875E-01
 cg2d: Sum(rhs),rhsMax =  -2.40883979429896E-11  2.64371205740385E-01
 cg2d: Sum(rhs),rhsMax =  -2.40495401371277E-11  2.65020084908984E-01
 cg2d: Sum(rhs),rhsMax =  -2.39757103059901E-11  2.65664538035562E-01
 cg2d: Sum(rhs),rhsMax =  -2.38572495092626E-11  2.66304565496638E-01
 cg2d: Sum(rhs),rhsMax =  -2.37335706643194E-11  2.66940142179370E-01
 cg2d: Sum(rhs),rhsMax =  -2.36116681762155E-11  2.67571198372317E-01
 cg2d: Sum(rhs),rhsMax =  -2.34878783089698E-11  2.68197646151404E-01
 cg2d: Sum(rhs),rhsMax =  -2.33572050589714E-11  2.68819435254513E-01
 cg2d: Sum(rhs),rhsMax =  -2.32446284442744E-11  2.69436603215600E-01
 cg2d: Sum(rhs),rhsMax =  -2.31309416065528E-11  2.70049286346840E-01
 cg2d: Sum(rhs),rhsMax =  -2.30249153077011E-11  2.70657679634142E-01
 cg2d: Sum(rhs),rhsMax =  -2.29120056260967E-11  2.71261960631199E-01
 cg2d: Sum(rhs),rhsMax =  -2.27985408329801E-11  2.71862209807154E-01
 cg2d: Sum(rhs),rhsMax =  -2.26637597577906E-11  2.72458358738208E-01
 cg2d: Sum(rhs),rhsMax =  -2.25583995927536E-11  2.73050180913088E-01
 cg2d: Sum(rhs),rhsMax =  -2.24452678665443E-11  2.73637319101909E-01
 cg2d: Sum(rhs),rhsMax =  -2.23423501921616E-11  2.74219329879965E-01
 cg2d: Sum(rhs),rhsMax =  -2.22515339487472E-11  2.74795725333202E-01
 cg2d: Sum(rhs),rhsMax =  -2.21529461441605E-11  2.75366001298761E-01
 cg2d: Sum(rhs),rhsMax =  -2.20475859791236E-11  2.75929653179101E-01
 cg2d: Sum(rhs),rhsMax =  -2.19400053680374E-11  2.76486186957100E-01
 cg2d: Sum(rhs),rhsMax =  -2.18455253886418E-11  2.77035132938045E-01
 cg2d: Sum(rhs),rhsMax =  -2.17285078818463E-11  2.77576064740159E-01
 cg2d: Sum(rhs),rhsMax =  -2.16122675311681E-11  2.78108619470937E-01
 cg2d: Sum(rhs),rhsMax =  -2.15122364366493E-11  2.78632509606510E-01
 cg2d: Sum(rhs),rhsMax =  -2.14223083716547E-11  2.79147515261560E-01
 cg2d: Sum(rhs),rhsMax =  -2.13159490058956E-11  2.79653450161706E-01
 cg2d: Sum(rhs),rhsMax =  -2.12238004948517E-11  2.80150106989560E-01
 cg2d: Sum(rhs),rhsMax =  -2.11236583780305E-11  2.80637203598904E-01
 cg2d: Sum(rhs),rhsMax =  -2.10245154619315E-11  2.81114360718160E-01
 cg2d: Sum(rhs),rhsMax =  -2.09349204638443E-11  2.81581134332700E-01
 cg2d: Sum(rhs),rhsMax =  -2.08544292945589E-11  2.82037101278751E-01
 cg2d: Sum(rhs),rhsMax =  -2.07607264712806E-11  2.82481966471145E-01
 cg2d: Sum(rhs),rhsMax =  -2.07007744279508E-11  2.82915642227054E-01
 cg2d: Sum(rhs),rhsMax =  -2.06539230163116E-11  2.83338257594039E-01
 cg2d: Sum(rhs),rhsMax =  -2.06126227197956E-11  2.83750085754721E-01
 cg2d: Sum(rhs),rhsMax =  -2.06122896528882E-11  2.84151414186157E-01
 cg2d: Sum(rhs),rhsMax =  -2.06147321435424E-11  2.84542406000958E-01
 cg2d: Sum(rhs),rhsMax =  -2.06201722363630E-11  2.84923000875722E-01
 cg2d: Sum(rhs),rhsMax =  -2.06004102665247E-11  2.85292882495189E-01
 cg2d: Sum(rhs),rhsMax =  -2.05949701737040E-11  2.85651509503376E-01
 cg2d: Sum(rhs),rhsMax =  -2.05698791333475E-11  2.85998184179441E-01
 cg2d: Sum(rhs),rhsMax =  -2.05563344124471E-11  2.86332127083062E-01
 cg2d: Sum(rhs),rhsMax =  -2.05377936879358E-11  2.86652535879051E-01
 cg2d: Sum(rhs),rhsMax =  -2.05411243570097E-11  2.86958623196024E-01
 cg2d: Sum(rhs),rhsMax =  -2.05206962533566E-11  2.87249640798340E-01
 cg2d: Sum(rhs),rhsMax =  -2.05390149332629E-11  2.87524899910631E-01
 cg2d: Sum(rhs),rhsMax =  -2.05462313829230E-11  2.87783791948062E-01
 cg2d: Sum(rhs),rhsMax =  -2.05697681110451E-11  2.88025806537505E-01
 cg2d: Sum(rhs),rhsMax =  -2.05826466981307E-11  2.88250540150865E-01
 cg2d: Sum(rhs),rhsMax =  -2.06016315118518E-11  2.88457690048976E-01
 cg2d: Sum(rhs),rhsMax =  -2.06835659710691E-11  2.88647032818829E-01
 cg2d: Sum(rhs),rhsMax =  -2.07875938684765E-11  2.88818393403510E-01
 cg2d: Sum(rhs),rhsMax =  -2.07805994634214E-11  2.88971618445277E-01
 cg2d: Sum(rhs),rhsMax =  -2.07683870101505E-11  2.89106574085441E-01
 cg2d: Sum(rhs),rhsMax =  -2.07597272705584E-11  2.89223185992610E-01
 cg2d: Sum(rhs),rhsMax =  -2.07714956346194E-11  2.89321523276537E-01
 cg2d: Sum(rhs),rhsMax =  -2.07557304676698E-11  2.89401901705739E-01
 cg2d: Sum(rhs),rhsMax =  -2.07510675309663E-11  2.89464959196603E-01
 cg2d: Sum(rhs),rhsMax =  -2.07421857467693E-11  2.89511653931229E-01
 cg2d: Sum(rhs),rhsMax =  -2.07360795201339E-11  2.89543159317684E-01
 cg2d: Sum(rhs),rhsMax =  -2.07651673633791E-11  2.89560671516354E-01
 cg2d: Sum(rhs),rhsMax =  -2.07655004302865E-11  2.89565184326115E-01
 cg2d: Sum(rhs),rhsMax =  -2.07517336647811E-11  2.89557303392324E-01
 cg2d: Sum(rhs),rhsMax =  -2.07454053935408E-11  2.89537158560432E-01
 cg2d: Sum(rhs),rhsMax =  -2.07581729583239E-11  2.89504436663175E-01
 cg2d: Sum(rhs),rhsMax =  -2.07375228100659E-11  2.89458514773817E-01
 cg2d: Sum(rhs),rhsMax =  -2.07320827172452E-11  2.89398643970303E-01
 cg2d: Sum(rhs),rhsMax =  -2.07038830524198E-11  2.89324125895589E-01
 cg2d: Sum(rhs),rhsMax =  -2.06874517516553E-11  2.89234437629903E-01
 cg2d: Sum(rhs),rhsMax =  -2.06278327752329E-11  2.89129285217827E-01
 cg2d: Sum(rhs),rhsMax =  -2.06601402652495E-11  2.89008591302251E-01
 cg2d: Sum(rhs),rhsMax =  -2.07638350957495E-11  2.88872439550838E-01
 cg2d: Sum(rhs),rhsMax =  -2.07733830137613E-11  2.88721004874850E-01
 cg2d: Sum(rhs),rhsMax =  -2.07939221397169E-11  2.88554495049062E-01
 cg2d: Sum(rhs),rhsMax =  -2.08086881059444E-11  2.88373119740874E-01
 cg2d: Sum(rhs),rhsMax =  -2.08267847412458E-11  2.88177091234405E-01
 cg2d: Sum(rhs),rhsMax =  -2.08583150751451E-11  2.87966650913981E-01
 cg2d: Sum(rhs),rhsMax =  -2.09964268194085E-11  2.87742109313258E-01
 cg2d: Sum(rhs),rhsMax =  -2.10044204251858E-11  2.87503886080550E-01
 cg2d: Sum(rhs),rhsMax =  -2.11389794557704E-11  2.87252538726567E-01
 cg2d: Sum(rhs),rhsMax =  -2.12586614978250E-11  2.86988773514704E-01
 cg2d: Sum(rhs),rhsMax =  -2.14289697098025E-11  2.86713436444942E-01
 cg2d: Sum(rhs),rhsMax =  -2.14329665126911E-11  2.86427485683132E-01
 cg2d: Sum(rhs),rhsMax =  -2.14843698387313E-11  2.86131948193440E-01
 cg2d: Sum(rhs),rhsMax =  -2.15204520870316E-11  2.85827862516047E-01
 cg2d: Sum(rhs),rhsMax =  -2.15593098928935E-11  2.85516208420340E-01
(PID.TID 0000.0001)      cg2d_init_res =   5.96383303391086E-02
(PID.TID 0000.0001)      cg2d_iters(min,last) =      -1      29
(PID.TID 0000.0001)      cg2d_last_res =   5.85266282044088E-14
(PID.TID 0000.0001) // =======================================================
(PID.TID 0000.0001) // Begin MONITOR dynamic field statistics
(PID.TID 0000.0001) // =======================================================
(PID.TID 0000.0001) %MON time_tsnumber                =                  7200
(PID.TID 0000.0001) %MON time_secondsf                =   1.0800000000000E+05
(PID.TID 0000.0001) %MON dynstat_eta_max              =   3.1170554592644E-02
(PID.TID 0000.0001) %MON dynstat_eta_min              =  -2.3347540546164E-02
(PID.TID 0000.0001) %MON dynstat_eta_mean             =   7.1249904702582E-15
(PID.TID 0000.0001) %MON dynstat_eta_sd               =   1.1933474710987E-02
(PID.TID 0000.0001) %MON dynstat_eta_del2             =   2.0741826958067E-04
(PID.TID 0000.0001) %MON dynstat_uvel_max             =   1.3944204657919E+00
(PID.TID 0000.0001) %MON dynstat_uvel_min             =  -7.3947593929385E-01
(PID.TID 0000.0001) %MON dynstat_uvel_mean            =  -2.7872747056790E-04
(PID.TID 0000.0001) %MON dynstat_uvel_sd              =   2.9284715532748E-01
(PID.TID 0000.0001) %MON dynstat_uvel_del2            =   9.7388914281927E-04
(PID.TID 0000.0001) %MON dynstat_vvel_max             =   0.0000000000000E+00
(PID.TID 0000.0001) %MON dynstat_vvel_min             =   0.0000000000000E+00
(PID.TID 0000.0001) %MON dynstat_vvel_mean            =   0.0000000000000E+00
(PID.TID 0000.0001) %MON dynstat_vvel_sd              =   0.0000000000000E+00
(PID.TID 0000.0001) %MON dynstat_vvel_del2            =   0.0000000000000E+00
(PID.TID 0000.0001) %MON dynstat_wvel_max             =   3.5705923953570E-02
(PID.TID 0000.0001) %MON dynstat_wvel_min             =  -3.2285200372291E-02
(PID.TID 0000.0001) %MON dynstat_wvel_mean            =   1.0903217982571E-19
(PID.TID 0000.0001) %MON dynstat_wvel_sd              =   3.8250477135491E-03
(PID.TID 0000.0001) %MON dynstat_wvel_del2            =   7.8728992550862E-05
(PID.TID 0000.0001) %MON dynstat_theta_max            =   1.4976502385655E+01
(PID.TID 0000.0001) %MON dynstat_theta_min            =   9.9765023856447E+00
(PID.TID 0000.0001) %MON dynstat_theta_mean           =   1.2358796021791E+01
(PID.TID 0000.0001) %MON dynstat_theta_sd             =   2.1802114157270E+00
(PID.TID 0000.0001) %MON dynstat_theta_del2           =   2.0892534188386E-03
(PID.TID 0000.0001) %MON dynstat_salt_max             =   3.5000000000000E+01
(PID.TID 0000.0001) %MON dynstat_salt_min             =   3.5000000000000E+01
(PID.TID 0000.0001) %MON dynstat_salt_mean            =   3.5000000000000E+01
(PID.TID 0000.0001) %MON dynstat_salt_sd              =   3.4816594052245E-13
(PID.TID 0000.0001) %MON dynstat_salt_del2            =   0.0000000000000E+00
(PID.TID 0000.0001) %MON dynstat_sst_max              =   1.4976502385655E+01
(PID.TID 0000.0001) %MON dynstat_sst_min              =   1.4659900811546E+01
(PID.TID 0000.0001) %MON dynstat_sst_mean             =   1.4924698392629E+01
(PID.TID 0000.0001) %MON dynstat_sst_sd               =   8.2993865000123E-02
(PID.TID 0000.0001) %MON dynstat_sst_del2             =   7.0734418892544E-04
(PID.TID 0000.0001) %MON dynstat_sss_max              =   3.5000000000000E+01
(PID.TID 0000.0001) %MON dynstat_sss_min              =   3.5000000000000E+01
(PID.TID 0000.0001) %MON dynstat_sss_mean             =   3.5000000000000E+01
(PID.TID 0000.0001) %MON dynstat_sss_sd               =   3.5527136788005E-14
(PID.TID 0000.0001) %MON dynstat_sss_del2             =   0.0000000000000E+00
(PID.TID 0000.0001) %MON forcing_qnet_max             =   0.0000000000000E+00
(PID.TID 0000.0001) %MON forcing_qnet_min             =   0.0000000000000E+00
(PID.TID 0000.0001) %MON forcing_qnet_mean            =   0.0000000000000E+00
(PID.TID 0000.0001) %MON forcing_qnet_sd              =   0.0000000000000E+00
(PID.TID 0000.0001) %MON forcing_qnet_del2            =   0.0000000000000E+00
(PID.TID 0000.0001) %MON forcing_qsw_max              =   0.0000000000000E+00
(PID.TID 0000.0001) %MON forcing_qsw_min              =   0.0000000000000E+00
(PID.TID 0000.0001) %MON forcing_qsw_mean             =   0.0000000000000E+00
(PID.TID 0000.0001) %MON forcing_qsw_sd               =   0.0000000000000E+00
(PID.TID 0000.0001) %MON forcing_qsw_del2             =   0.0000000000000E+00
(PID.TID 0000.0001) %MON forcing_empmr_max            =   0.0000000000000E+00
(PID.TID 0000.0001) %MON forcing_empmr_min            =   0.0000000000000E+00
(PID.TID 0000.0001) %MON forcing_empmr_mean           =   0.0000000000000E+00
(PID.TID 0000.0001) %MON forcing_empmr_sd             =   0.0000000000000E+00
(PID.TID 0000.0001) %MON forcing_empmr_del2           =   0.0000000000000E+00
(PID.TID 0000.0001) %MON forcing_fu_max               =   0.0000000000000E+00
(PID.TID 0000.0001) %MON forcing_fu_min               =   0.0000000000000E+00
(PID.TID 0000.0001) %MON forcing_fu_mean              =   0.0000000000000E+00
(PID.TID 0000.0001) %MON forcing_fu_sd                =   0.0000000000000E+00
(PID.TID 0000.0001) %MON forcing_fu_del2              =   0.0000000000000E+00
(PID.TID 0000.0001) %MON forcing_fv_max               =   0.0000000000000E+00
(PID.TID 0000.0001) %MON forcing_fv_min               =   0.0000000000000E+00
(PID.TID 0000.0001) %MON forcing_fv_mean              =   0.0000000000000E+00
(PID.TID 0000.0001) %MON forcing_fv_sd                =   0.0000000000000E+00
(PID.TID 0000.0001) %MON forcing_fv_del2              =   0.0000000000000E+00
(PID.TID 0000.0001) %MON advcfl_uvel_max              =   8.2983597586829E-02
(PID.TID 0000.0001) %MON advcfl_vvel_max              =   0.0000000000000E+00
(PID.TID 0000.0001) %MON advcfl_wvel_max              =   2.0376914199304E-01
(PID.TID 0000.0001) %MON advcfl_W_hf_max              =   2.0532749121093E-01
(PID.TID 0000.0001) %MON pe_b_mean                    =   3.9977119816873E-06
(PID.TID 0000.0001) %MON ke_max                       =   8.5794603116240E-01
(PID.TID 0000.0001) %MON ke_mean                      =   4.3354421147374E-02
(PID.TID 0000.0001) %MON ke_vol                       =   8.5337279889550E+10
(PID.TID 0000.0001) %MON vort_r_min                   =   0.0000000000000E+00
(PID.TID 0000.0001) %MON vort_r_max                   =   0.0000000000000E+00
(PID.TID 0000.0001) %MON vort_a_mean                  =   0.0000000000000E+00
(PID.TID 0000.0001) %MON vort_a_sd                    =   0.0000000000000E+00
(PID.TID 0000.0001) %MON vort_p_mean                  =   0.0000000000000E+00
(PID.TID 0000.0001) %MON vort_p_sd                    =   0.0000000000000E+00
(PID.TID 0000.0001) %MON surfExpan_theta_mean         =  -8.6291110127147E-08
(PID.TID 0000.0001) %MON surfExpan_salt_mean          =   4.7731281914753E-18
(PID.TID 0000.0001) // =======================================================
(PID.TID 0000.0001) // End MONITOR dynamic field statistics
(PID.TID 0000.0001) // =======================================================
(PID.TID 0000.0001) // =======================================================
(PID.TID 0000.0001) // Begin OBCS MONITOR field statistics
(PID.TID 0000.0001) // =======================================================
(PID.TID 0000.0001) %MON obc_E_uVel_max               =   0.0000000000000E+00
(PID.TID 0000.0001) %MON obc_E_uVel_min               =   0.0000000000000E+00
(PID.TID 0000.0001) %MON obc_E_uVel_mean              =   0.0000000000000E+00
(PID.TID 0000.0001) %MON obc_E_uVel_sd                =   0.0000000000000E+00
(PID.TID 0000.0001) %MON obc_E_uVel_Int               =   0.0000000000000E+00
(PID.TID 0000.0001) %MON obc_W_uVel_max               =   0.0000000000000E+00
(PID.TID 0000.0001) %MON obc_W_uVel_min               =   0.0000000000000E+00
(PID.TID 0000.0001) %MON obc_W_uVel_mean              =   0.0000000000000E+00
(PID.TID 0000.0001) %MON obc_W_uVel_sd                =   0.0000000000000E+00
(PID.TID 0000.0001) %MON obc_W_uVel_Int               =   0.0000000000000E+00
(PID.TID 0000.0001) // =======================================================
(PID.TID 0000.0001) // End OBCS MONITOR field statistics
(PID.TID 0000.0001) // =======================================================
(PID.TID 0000.0001) %CHECKPOINT      7200 0000007200
(PID.TID 0000.0001)   Seconds in section "ALL                    [THE_MODEL_MAIN]":
(PID.TID 0000.0001)           User time:   252.44000000000000
(PID.TID 0000.0001)         System time:  0.31000000000000000
(PID.TID 0000.0001)     Wall clock time:   253.45209908485413
(PID.TID 0000.0001)          No. starts:           1
(PID.TID 0000.0001)           No. stops:           1
(PID.TID 0000.0001)   Seconds in section "INITIALISE_FIXED       [THE_MODEL_MAIN]":
(PID.TID 0000.0001)           User time:   5.9999999999999998E-002
(PID.TID 0000.0001)         System time:   0.0000000000000000
(PID.TID 0000.0001)     Wall clock time:  0.12315082550048828
(PID.TID 0000.0001)          No. starts:           1
(PID.TID 0000.0001)           No. stops:           1
(PID.TID 0000.0001)   Seconds in section "THE_MAIN_LOOP          [THE_MODEL_MAIN]":
(PID.TID 0000.0001)           User time:   252.38000000000000
(PID.TID 0000.0001)         System time:  0.31000000000000000
(PID.TID 0000.0001)     Wall clock time:   253.32887482643127
(PID.TID 0000.0001)          No. starts:           1
(PID.TID 0000.0001)           No. stops:           1
(PID.TID 0000.0001)   Seconds in section "INITIALISE_VARIA    [THE_MAIN_LOOP]":
(PID.TID 0000.0001)           User time:   4.0000000000000008E-002
(PID.TID 0000.0001)         System time:   1.0000000000000000E-002
(PID.TID 0000.0001)     Wall clock time:   5.2877902984619141E-002
(PID.TID 0000.0001)          No. starts:           1
(PID.TID 0000.0001)           No. stops:           1
(PID.TID 0000.0001)   Seconds in section "MAIN LOOP           [THE_MAIN_LOOP]":
(PID.TID 0000.0001)           User time:   252.34000000000000
(PID.TID 0000.0001)         System time:  0.29999999999999999
(PID.TID 0000.0001)     Wall clock time:   253.27593493461609
(PID.TID 0000.0001)          No. starts:           1
(PID.TID 0000.0001)           No. stops:           1
(PID.TID 0000.0001)   Seconds in section "MAIN_DO_LOOP        [THE_MAIN_LOOP]":
(PID.TID 0000.0001)           User time:   252.26999999999370
(PID.TID 0000.0001)         System time:  0.30000000000000032
(PID.TID 0000.0001)     Wall clock time:   253.21128916740417
(PID.TID 0000.0001)          No. starts:        7200
(PID.TID 0000.0001)           No. stops:        7200
(PID.TID 0000.0001)   Seconds in section "FORWARD_STEP        [MAIN_DO_LOOP]":
(PID.TID 0000.0001)           User time:   252.05999999999366
(PID.TID 0000.0001)         System time:  0.29000000000000031
(PID.TID 0000.0001)     Wall clock time:   253.07954287528992
(PID.TID 0000.0001)          No. starts:        7200
(PID.TID 0000.0001)           No. stops:        7200
(PID.TID 0000.0001)   Seconds in section "LOAD_FIELDS_DRIVER  [FORWARD_STEP]":
(PID.TID 0000.0001)           User time:  0.18999999999996930
(PID.TID 0000.0001)         System time:   0.0000000000000000
(PID.TID 0000.0001)     Wall clock time:  0.19776391983032227
(PID.TID 0000.0001)          No. starts:        7200
(PID.TID 0000.0001)           No. stops:        7200
(PID.TID 0000.0001)   Seconds in section "EXTERNAL_FLDS_LOAD [LOAD_FLDS_DRIVER]":
(PID.TID 0000.0001)           User time:   7.0000000000021600E-002
(PID.TID 0000.0001)         System time:   0.0000000000000000
(PID.TID 0000.0001)     Wall clock time:   6.6013813018798828E-002
(PID.TID 0000.0001)          No. starts:        7200
(PID.TID 0000.0001)           No. stops:        7200
(PID.TID 0000.0001)   Seconds in section "DO_ATMOSPHERIC_PHYS [FORWARD_STEP]":
(PID.TID 0000.0001)           User time:   3.0000000000001137E-002
(PID.TID 0000.0001)         System time:   0.0000000000000000
(PID.TID 0000.0001)     Wall clock time:   6.5885782241821289E-002
(PID.TID 0000.0001)          No. starts:        7200
(PID.TID 0000.0001)           No. stops:        7200
(PID.TID 0000.0001)   Seconds in section "DO_OCEANIC_PHYS     [FORWARD_STEP]":
(PID.TID 0000.0001)           User time:   79.459999999979544
(PID.TID 0000.0001)         System time:  0.10000000000000009
(PID.TID 0000.0001)     Wall clock time:   79.470957994461060
(PID.TID 0000.0001)          No. starts:        7200
(PID.TID 0000.0001)           No. stops:        7200
(PID.TID 0000.0001)   Seconds in section "DYNAMICS            [FORWARD_STEP]":
(PID.TID 0000.0001)           User time:   83.449999999982452
(PID.TID 0000.0001)         System time:   3.0000000000000027E-002
(PID.TID 0000.0001)     Wall clock time:   83.304414272308350
(PID.TID 0000.0001)          No. starts:        7200
(PID.TID 0000.0001)           No. stops:        7200
(PID.TID 0000.0001)   Seconds in section "SOLVE_FOR_PRESSURE  [FORWARD_STEP]":
(PID.TID 0000.0001)           User time:   2.6899999999999693
(PID.TID 0000.0001)         System time:   0.0000000000000000
(PID.TID 0000.0001)     Wall clock time:   2.8721623420715332
(PID.TID 0000.0001)          No. starts:        7200
(PID.TID 0000.0001)           No. stops:        7200
(PID.TID 0000.0001)   Seconds in section "MOM_CORRECTION_STEP [FORWARD_STEP]":
(PID.TID 0000.0001)           User time:   2.9499999999997044
(PID.TID 0000.0001)         System time:   0.0000000000000000
(PID.TID 0000.0001)     Wall clock time:   2.9405281543731689
(PID.TID 0000.0001)          No. starts:        7200
(PID.TID 0000.0001)           No. stops:        7200
(PID.TID 0000.0001)   Seconds in section "INTEGR_CONTINUITY   [FORWARD_STEP]":
(PID.TID 0000.0001)           User time:   1.5000000000000568
(PID.TID 0000.0001)         System time:   0.0000000000000000
(PID.TID 0000.0001)     Wall clock time:   1.4563744068145752
(PID.TID 0000.0001)          No. starts:        7200
(PID.TID 0000.0001)           No. stops:        7200
(PID.TID 0000.0001)   Seconds in section "BLOCKING_EXCHANGES  [FORWARD_STEP]":
(PID.TID 0000.0001)           User time:   7.7299999999954139
(PID.TID 0000.0001)         System time:   1.0000000000000009E-002
(PID.TID 0000.0001)     Wall clock time:   7.7342975139617920
(PID.TID 0000.0001)          No. starts:       14400
(PID.TID 0000.0001)           No. stops:       14400
(PID.TID 0000.0001)   Seconds in section "THERMODYNAMICS      [FORWARD_STEP]":
(PID.TID 0000.0001)           User time:   72.519999999978666
(PID.TID 0000.0001)         System time:  0.12000000000000005
(PID.TID 0000.0001)     Wall clock time:   72.893802165985107
(PID.TID 0000.0001)          No. starts:        7200
(PID.TID 0000.0001)           No. stops:        7200
(PID.TID 0000.0001)   Seconds in section "TRC_CORRECTION_STEP [FORWARD_STEP]":
(PID.TID 0000.0001)           User time:   7.9999999999984084E-002
(PID.TID 0000.0001)         System time:   0.0000000000000000
(PID.TID 0000.0001)     Wall clock time:   6.6300868988037109E-002
(PID.TID 0000.0001)          No. starts:        7200
(PID.TID 0000.0001)           No. stops:        7200
(PID.TID 0000.0001)   Seconds in section "MONITOR             [FORWARD_STEP]":
(PID.TID 0000.0001)           User time:  0.12000000000000455
(PID.TID 0000.0001)         System time:   0.0000000000000000
(PID.TID 0000.0001)     Wall clock time:  0.10931849479675293
(PID.TID 0000.0001)          No. starts:        7200
(PID.TID 0000.0001)           No. stops:        7200
(PID.TID 0000.0001)   Seconds in section "DO_THE_MODEL_IO     [FORWARD_STEP]":
(PID.TID 0000.0001)           User time:  0.21000000000000796
(PID.TID 0000.0001)         System time:   3.0000000000000027E-002
(PID.TID 0000.0001)     Wall clock time:  0.82993602752685547
(PID.TID 0000.0001)          No. starts:        7200
(PID.TID 0000.0001)           No. stops:        7200
(PID.TID 0000.0001)   Seconds in section "DO_WRITE_PICKUP     [FORWARD_STEP]":
(PID.TID 0000.0001)           User time:  0.12999999999993861
(PID.TID 0000.0001)         System time:   0.0000000000000000
(PID.TID 0000.0001)     Wall clock time:  0.13718938827514648
(PID.TID 0000.0001)          No. starts:        7200
(PID.TID 0000.0001)           No. stops:        7200
(PID.TID 0000.0001) // ======================================================
(PID.TID 0000.0001) // Tile <-> Tile communication statistics
(PID.TID 0000.0001) // ======================================================
(PID.TID 0000.0001) // o Tile number: 000001
(PID.TID 0000.0001) //         No. X exchanges =              0
(PID.TID 0000.0001) //            Max. X spins =              0
(PID.TID 0000.0001) //            Min. X spins =     1000000000
(PID.TID 0000.0001) //          Total. X spins =              0
(PID.TID 0000.0001) //            Avg. X spins =       0.00E+00
(PID.TID 0000.0001) //         No. Y exchanges =              0
(PID.TID 0000.0001) //            Max. Y spins =              0
(PID.TID 0000.0001) //            Min. Y spins =     1000000000
(PID.TID 0000.0001) //          Total. Y spins =              0
(PID.TID 0000.0001) //            Avg. Y spins =       0.00E+00
(PID.TID 0000.0001) // o Thread number: 000001
(PID.TID 0000.0001) //            No. barriers =        1343016
(PID.TID 0000.0001) //      Max. barrier spins =              1
(PID.TID 0000.0001) //      Min. barrier spins =              1
(PID.TID 0000.0001) //     Total barrier spins =        1343016
(PID.TID 0000.0001) //      Avg. barrier spins =       1.00E+00
PROGRAM MAIN: Execution ended Normally
