(PID.TID 0000.0001) 
(PID.TID 0000.0001) // ======================================================
(PID.TID 0000.0001) //                      MITgcm UV
(PID.TID 0000.0001) //                      =========
(PID.TID 0000.0001) // ======================================================
(PID.TID 0000.0001) // execution environment starting up...
(PID.TID 0000.0001) 
(PID.TID 0000.0001) // MITgcmUV version:  checkpoint65d
(PID.TID 0000.0001) // Build user:        hugke729
(PID.TID 0000.0001) // Build host:        hugke729
(PID.TID 0000.0001) // Build date:        Mon Apr 10 14:21:54 PDT 2017
(PID.TID 0000.0001) 
(PID.TID 0000.0001) // =======================================================
(PID.TID 0000.0001) // Execution Environment parameter file "eedata"
(PID.TID 0000.0001) // =======================================================
(PID.TID 0000.0001) ># Example "eedata" file
(PID.TID 0000.0001) ># Lines beginning "#" are comments
(PID.TID 0000.0001) ># nTx - No. threads per process in X
(PID.TID 0000.0001) ># nTy - No. threads per process in Y
(PID.TID 0000.0001) > &EEPARMS
(PID.TID 0000.0001) > /
(PID.TID 0000.0001) ># Note: Some systems use & as the
(PID.TID 0000.0001) ># namelist terminator. Other systems
(PID.TID 0000.0001) ># use a / character (as shown here).
(PID.TID 0000.0001) 
(PID.TID 0000.0001) // =======================================================
(PID.TID 0000.0001) // Computational Grid Specification ( see files "SIZE.h" )
(PID.TID 0000.0001) //                                  ( and "eedata"       )
(PID.TID 0000.0001) // =======================================================
(PID.TID 0000.0001)      nPx =    1 ; /* No. processes in X */
(PID.TID 0000.0001)      nPy =    1 ; /* No. processes in Y */
(PID.TID 0000.0001)      nSx =    1 ; /* No. tiles in X per process */
(PID.TID 0000.0001)      nSy =    1 ; /* No. tiles in Y per process */
(PID.TID 0000.0001)      sNx =  200 ; /* Tile size in X */
(PID.TID 0000.0001)      sNy =    1 ; /* Tile size in Y */
(PID.TID 0000.0001)      OLx =    2 ; /* Tile overlap distance in X */
(PID.TID 0000.0001)      OLy =    2 ; /* Tile overlap distance in Y */
(PID.TID 0000.0001)      nTx =    1 ; /* No. threads in X per process */
(PID.TID 0000.0001)      nTy =    1 ; /* No. threads in Y per process */
(PID.TID 0000.0001)       Nr =  100 ; /* No. levels in the vertical   */
(PID.TID 0000.0001)       Nx =  200 ; /* Total domain size in X ( = nPx*nSx*sNx ) */
(PID.TID 0000.0001)       Ny =    1 ; /* Total domain size in Y ( = nPy*nSy*sNy ) */
(PID.TID 0000.0001)   nTiles =    1 ; /* Total no. tiles per process ( = nSx*nSy ) */
(PID.TID 0000.0001)   nProcs =    1 ; /* Total no. processes ( = nPx*nPy ) */
(PID.TID 0000.0001) nThreads =    1 ; /* Total no. threads per process ( = nTx*nTy ) */
(PID.TID 0000.0001) usingMPI =    F ; /* Flag used to control whether MPI is in use */
(PID.TID 0000.0001)                   /*  note: To execute a program with MPI calls */
(PID.TID 0000.0001)                   /*  it must be launched appropriately e.g     */
(PID.TID 0000.0001)                   /*  "mpirun -np 64 ......"                    */
(PID.TID 0000.0001) useCoupler=    F ;/* Flag used to control communications with   */
(PID.TID 0000.0001)                   /*  other model components, through a coupler */
(PID.TID 0000.0001) debugMode =    F ; /* print debug msg. (sequence of S/R calls)  */
(PID.TID 0000.0001) printMapIncludesZeros=    F ; /* print zeros in Std.Output maps */
(PID.TID 0000.0001) maxLengthPrt1D=   65 /* maxLength of 1D array printed to StdOut */
(PID.TID 0000.0001) 
(PID.TID 0000.0001) // ======================================================
(PID.TID 0000.0001) // Mapping of tiles to threads
(PID.TID 0000.0001) // ======================================================
(PID.TID 0000.0001) // -o- Thread   1, tiles (   1:   1,   1:   1)
(PID.TID 0000.0001) 
(PID.TID 0000.0001) // ======================================================
(PID.TID 0000.0001) // Tile <-> Tile connectvity table
(PID.TID 0000.0001) // ======================================================
(PID.TID 0000.0001) // Tile number: 000001 (process no. = 000000)
(PID.TID 0000.0001) //        WEST: Tile = 000001, Process = 000000, Comm = put
(PID.TID 0000.0001) //                bi = 000001, bj = 000001
(PID.TID 0000.0001) //        EAST: Tile = 000001, Process = 000000, Comm = put
(PID.TID 0000.0001) //                bi = 000001, bj = 000001
(PID.TID 0000.0001) //       SOUTH: Tile = 000001, Process = 000000, Comm = put
(PID.TID 0000.0001) //                bi = 000001, bj = 000001
(PID.TID 0000.0001) //       NORTH: Tile = 000001, Process = 000000, Comm = put
(PID.TID 0000.0001) //                bi = 000001, bj = 000001
(PID.TID 0000.0001) 
(PID.TID 0000.0001)  INI_PARMS: opening model parameter file "data"
(PID.TID 0000.0001)  OPEN_COPY_DATA_FILE: opening file data
(PID.TID 0000.0001) // =======================================================
(PID.TID 0000.0001) // Parameter file "data"
(PID.TID 0000.0001) // =======================================================
(PID.TID 0000.0001) ># ====================
(PID.TID 0000.0001) ># | Model parameters |
(PID.TID 0000.0001) ># ====================
(PID.TID 0000.0001) >#
(PID.TID 0000.0001) ># See src/ini_parms.F for possible parameters.
(PID.TID 0000.0001) >#
(PID.TID 0000.0001) ># Continuous equation parameters
(PID.TID 0000.0001) > &PARM01
(PID.TID 0000.0001) > tRefFile='Tref.bin'
(PID.TID 0000.0001) > sRef= 25*35.,
(PID.TID 0000.0001) > viscAz=1.E-5,
(PID.TID 0000.0001) > viscAh=1.E-4,
(PID.TID 0000.0001) > no_slip_sides=.FALSE.,
(PID.TID 0000.0001) > no_slip_bottom=.FALSE.,
(PID.TID 0000.0001) > viscA4=0.E12,
(PID.TID 0000.0001) > diffKhT=1.E-4,
(PID.TID 0000.0001) > diffKzT=1.E-5,
(PID.TID 0000.0001) > diffKhS=1.E3,
(PID.TID 0000.0001) > diffKzS=1.E-5,
(PID.TID 0000.0001) > f0=0.E-4,
(PID.TID 0000.0001) > beta=0.0E-11,
(PID.TID 0000.0001) > tAlpha=2.E-4,
(PID.TID 0000.0001) > sBeta =0.E-4,
(PID.TID 0000.0001) > gravity=9.81,
(PID.TID 0000.0001) > gBaro=9.81,
(PID.TID 0000.0001) > rigidLid=.FALSE.,
(PID.TID 0000.0001) > implicitFreeSurface=.TRUE.,
(PID.TID 0000.0001) > eosType='LINEAR',
(PID.TID 0000.0001) > nonHydrostatic=.FALSE.,
(PID.TID 0000.0001) > readBinaryPrec=64,
(PID.TID 0000.0001) > useSingleCpuIO=.TRUE.
(PID.TID 0000.0001) > writeBinaryPrec=64,
(PID.TID 0000.0001) > writeStatePrec=64,
(PID.TID 0000.0001) > saltStepping=.FALSE.,
(PID.TID 0000.0001) ># minimum cell fraction.  This reduces steppiness..
(PID.TID 0000.0001) >  hFacMin=0.1,
(PID.TID 0000.0001) >  exactConserv=.FALSE.,
(PID.TID 0000.0001) >  implicitDiffusion=.TRUE.
(PID.TID 0000.0001) >  implicitViscosity=.TRUE.
(PID.TID 0000.0001) ># Superbee on:
(PID.TID 0000.0001) > tempAdvScheme=77,
(PID.TID 0000.0001) > staggerTimeStep=.TRUE.,
(PID.TID 0000.0001) >/
(PID.TID 0000.0001) >
(PID.TID 0000.0001) ># Elliptic solver parameters
(PID.TID 0000.0001) > &PARM02
(PID.TID 0000.0001) > cg2dMaxIters=1000,
(PID.TID 0000.0001) > cg2dTargetResidual=1.E-13,
(PID.TID 0000.0001) > cg3dMaxIters=400,
(PID.TID 0000.0001) > cg3dTargetResidual=1.E-13,
(PID.TID 0000.0001) >/
(PID.TID 0000.0001) >
(PID.TID 0000.0001) ># Time stepping parameters
(PID.TID 0000.0001) > &PARM03
(PID.TID 0000.0001) > niter0=0,
(PID.TID 0000.0001) ># times are in s
(PID.TID 0000.0001) > startTime=0,
(PID.TID 0000.0001) > endTime=108000,
(PID.TID 0000.0001) > deltaT=15,
(PID.TID 0000.0001) > abEps=0.1,
(PID.TID 0000.0001) ># once per tide checkpoint...
(PID.TID 0000.0001) > pChkptFreq=21600,
(PID.TID 0000.0001) > chkptFreq=0.0,
(PID.TID 0000.0001) > dumpFreq=7200,
(PID.TID 0000.0001) > monitorFreq=7200,
(PID.TID 0000.0001) ># Forcing for boundary condition files
(PID.TID 0000.0001) > periodicExternalForcing=.FALSE.,
(PID.TID 0000.0001) >/
(PID.TID 0000.0001) >
(PID.TID 0000.0001) ># Gridding parameters
(PID.TID 0000.0001) > &PARM04
(PID.TID 0000.0001) > usingCartesianGrid=.TRUE.,
(PID.TID 0000.0001) > usingSphericalPolarGrid=.FALSE.,
(PID.TID 0000.0001) > delXfile='delXvar.bin',
(PID.TID 0000.0001) > delY=5.e3,
(PID.TID 0000.0001) > delRfile = 'delZvar.bin',
(PID.TID 0000.0001) >/
(PID.TID 0000.0001) >
(PID.TID 0000.0001) ># Input datasets
(PID.TID 0000.0001) > &PARM05
(PID.TID 0000.0001) > bathyFile='topo.bin',
(PID.TID 0000.0001) > hydrogThetaFile='T0.bin',
(PID.TID 0000.0001) > checkIniTemp=.FALSE.,
(PID.TID 0000.0001) > uVelInitFile='U0.bin',
(PID.TID 0000.0001) > /
(PID.TID 0000.0001) 
(PID.TID 0000.0001)  INI_PARMS ; starts to read PARM01
(PID.TID 0000.0001)  INI_PARMS ; read PARM01 : OK
(PID.TID 0000.0001)  INI_PARMS ; starts to read PARM02
(PID.TID 0000.0001)  INI_PARMS ; read PARM02 : OK
(PID.TID 0000.0001)  INI_PARMS ; starts to read PARM03
(PID.TID 0000.0001)  INI_PARMS ; read PARM03 : OK
(PID.TID 0000.0001)  INI_PARMS ; starts to read PARM04
(PID.TID 0000.0001)  INI_PARMS ; read PARM04 : OK
(PID.TID 0000.0001)  INI_PARMS ; starts to read PARM05
(PID.TID 0000.0001)  INI_PARMS ; read PARM05 : OK
(PID.TID 0000.0001)  INI_PARMS: finished reading file "data"
(PID.TID 0000.0001)  PACKAGES_BOOT: opening data.pkg
(PID.TID 0000.0001)  OPEN_COPY_DATA_FILE: opening file data.pkg
(PID.TID 0000.0001) // =======================================================
(PID.TID 0000.0001) // Parameter file "data.pkg"
(PID.TID 0000.0001) // =======================================================
(PID.TID 0000.0001) ># Packages
(PID.TID 0000.0001) > &PACKAGES
(PID.TID 0000.0001) > useOBCS=.TRUE.,
(PID.TID 0000.0001) > useKL10=.TRUE.,
(PID.TID 0000.0001) > useDIAGNOSTICS=.FALSE.,
(PID.TID 0000.0001) > useMNC=.FALSE.,
(PID.TID 0000.0001) > /
(PID.TID 0000.0001) 
(PID.TID 0000.0001)  PACKAGES_BOOT: finished reading data.pkg
(PID.TID 0000.0001)  PACKAGES_BOOT: On/Off package Summary
 --------  pkgs with a standard "usePKG" On/Off switch in "data.pkg":  --------
 pkg/obcs                 compiled   and   used ( useOBCS                  = T )
 pkg/kl10                 compiled   and   used ( useKL10                  = T )
 -------- pkgs without standard "usePKG" On/Off switch in "data.pkg":  --------
 pkg/generic_advdiff      compiled   and   used ( useGAD                   = T )
 pkg/mom_common           compiled   and   used ( momStepping              = T )
 pkg/mom_vecinv           compiled but not used ( +vectorInvariantMomentum = F )
 pkg/mom_fluxform         compiled   and   used ( & not vectorInvariantMom = T )
 pkg/monitor              compiled   and   used ( monitorFreq > 0.         = T )
 pkg/debug                compiled but not used ( debugMode                = F )
 pkg/rw                   compiled   and   used
 pkg/mdsio                compiled   and   used
(PID.TID 0000.0001)  PACKAGES_BOOT: End of package Summary
(PID.TID 0000.0001) 
(PID.TID 0000.0001)  OBCS_READPARMS: opening data.obcs
(PID.TID 0000.0001)  OPEN_COPY_DATA_FILE: opening file data.obcs
(PID.TID 0000.0001) // =======================================================
(PID.TID 0000.0001) // Parameter file "data.obcs"
(PID.TID 0000.0001) // =======================================================
(PID.TID 0000.0001) ># Open-boundaries
(PID.TID 0000.0001) > &OBCS_PARM01
(PID.TID 0000.0001) > OB_Iwest=1*1,
(PID.TID 0000.0001) > OB_Ieast=1*-1,
(PID.TID 0000.0001) > OB_Jnorth=100*0,
(PID.TID 0000.0001) > OB_Jsouth=100*0,
(PID.TID 0000.0001) > useOBCSsponge=.TRUE.,
(PID.TID 0000.0001) > OBEuFile='U_in.bin',
(PID.TID 0000.0001) > OBWuFile='U_in.bin',
(PID.TID 0000.0001) > OBEtFile='TE.bin',
(PID.TID 0000.0001) > OBWtFile='TW.bin',
(PID.TID 0000.0001) > useOBCSprescribe=.TRUE.,
(PID.TID 0000.0001) > /
(PID.TID 0000.0001) >
(PID.TID 0000.0001) ># Orlanski parameters
(PID.TID 0000.0001) > &OBCS_PARM02
(PID.TID 0000.0001) >/
(PID.TID 0000.0001) >
(PID.TID 0000.0001) ># Sponge layer parameters
(PID.TID 0000.0001) > &OBCS_PARM03
(PID.TID 0000.0001) > Urelaxobcsinner=1000.,
(PID.TID 0000.0001) > Urelaxobcsbound=100.,
(PID.TID 0000.0001) > Vrelaxobcsinner=1000.0,
(PID.TID 0000.0001) > Vrelaxobcsbound=100.0,
(PID.TID 0000.0001) > spongeThickness=10,
(PID.TID 0000.0001) > /
(PID.TID 0000.0001) 
(PID.TID 0000.0001)  OBCS_READPARMS: finished reading data.obcs
(PID.TID 0000.0001)  OB_indexUnset = /* unset OB index value (i.e. no OB) */
(PID.TID 0000.0001)                       0
(PID.TID 0000.0001)     ;
(PID.TID 0000.0001)  Northern OB global indices : OB_Jnorth =
(PID.TID 0000.0001)   200 @        0                            /* I =  1:200 */
(PID.TID 0000.0001)  Southern OB global indices : OB_Jsouth =
(PID.TID 0000.0001)   200 @        0                            /* I =  1:200 */
(PID.TID 0000.0001)  Eastern  OB global indices : OB_Ieast =
(PID.TID 0000.0001)                     200                     /* J =  1 */
(PID.TID 0000.0001)  Western  OB global indices : OB_Iwest =
(PID.TID 0000.0001)                       1                     /* J =  1 */
(PID.TID 0000.0001) 
(PID.TID 0000.0001)  KL10_READPARMS: opening data.kl10
(PID.TID 0000.0001)  OPEN_COPY_DATA_FILE: opening file data.kl10
(PID.TID 0000.0001) // =======================================================
(PID.TID 0000.0001) // Parameter file "data.kl10"
(PID.TID 0000.0001) // =======================================================
(PID.TID 0000.0001) ># =====================================================================
(PID.TID 0000.0001) ># | Parameters for Klymak and Legg (2010) vertical mixing scheme      |
(PID.TID 0000.0001) ># =====================================================================
(PID.TID 0000.0001) > &KL10_PARM01
(PID.TID 0000.0001) > KLwriteState=.TRUE.,
(PID.TID 0000.0001) >/
(PID.TID 0000.0001) 
(PID.TID 0000.0001)  KL10_READPARMS: finished reading data.kl10
(PID.TID 0000.0001) SET_PARMS: done
(PID.TID 0000.0001)  MDS_READVEC_LOC: open file: delXvar.bin
(PID.TID 0000.0001) S/R LOAD_GRID_SPACING: delX loaded from file: delXvar.bin
(PID.TID 0000.0001)  MDS_READVEC_LOC: open file: delZvar.bin
(PID.TID 0000.0001) S/R LOAD_GRID_SPACING: delR loaded from file: delZvar.bin
(PID.TID 0000.0001) Enter INI_VERTICAL_GRID: setInterFDr=    T ; setCenterDr=    F
(PID.TID 0000.0001) %MON XC_max                       =   9.9471849328752E+04
(PID.TID 0000.0001) %MON XC_min                       =   6.3164731900833E+02
(PID.TID 0000.0001) %MON XC_mean                      =   5.2906107272275E+04
(PID.TID 0000.0001) %MON XC_sd                        =   2.2139310392762E+04
(PID.TID 0000.0001) %MON XG_max                       =   9.8943698657505E+04
(PID.TID 0000.0001) %MON XG_min                       =   0.0000000000000E+00
(PID.TID 0000.0001) %MON XG_mean                      =   5.2656107272275E+04
(PID.TID 0000.0001) %MON XG_sd                        =   2.2172561685063E+04
(PID.TID 0000.0001) %MON DXC_max                      =   1.2503953509116E+03
(PID.TID 0000.0001) %MON DXC_min                      =   2.0000000000000E+02
(PID.TID 0000.0001) %MON DXC_mean                     =   5.0000000000000E+02
(PID.TID 0000.0001) %MON DXC_sd                       =   2.8531736750525E+02
(PID.TID 0000.0001) %MON DXF_max                      =   1.2632946380167E+03
(PID.TID 0000.0001) %MON DXF_min                      =   2.0000000000000E+02
(PID.TID 0000.0001) %MON DXF_mean                     =   5.0000000000000E+02
(PID.TID 0000.0001) %MON DXF_sd                       =   2.8547066202794E+02
(PID.TID 0000.0001) %MON DXG_max                      =   1.2632946380167E+03
(PID.TID 0000.0001) %MON DXG_min                      =   2.0000000000000E+02
(PID.TID 0000.0001) %MON DXG_mean                     =   5.0000000000000E+02
(PID.TID 0000.0001) %MON DXG_sd                       =   2.8547066202794E+02
(PID.TID 0000.0001) %MON DXV_max                      =   1.2503953509116E+03
(PID.TID 0000.0001) %MON DXV_min                      =   2.0000000000000E+02
(PID.TID 0000.0001) %MON DXV_mean                     =   5.0000000000000E+02
(PID.TID 0000.0001) %MON DXV_sd                       =   2.8531736750525E+02
(PID.TID 0000.0001) %MON YC_max                       =   2.5000000000000E+03
(PID.TID 0000.0001) %MON YC_min                       =   2.5000000000000E+03
(PID.TID 0000.0001) %MON YC_mean                      =   2.5000000000000E+03
(PID.TID 0000.0001) %MON YC_sd                        =   0.0000000000000E+00
(PID.TID 0000.0001) %MON YG_max                       =   0.0000000000000E+00
(PID.TID 0000.0001) %MON YG_min                       =   0.0000000000000E+00
(PID.TID 0000.0001) %MON YG_mean                      =   0.0000000000000E+00
(PID.TID 0000.0001) %MON YG_sd                        =   0.0000000000000E+00
(PID.TID 0000.0001) %MON DYC_max                      =   5.0000000000000E+03
(PID.TID 0000.0001) %MON DYC_min                      =   5.0000000000000E+03
(PID.TID 0000.0001) %MON DYC_mean                     =   5.0000000000000E+03
(PID.TID 0000.0001) %MON DYC_sd                       =   0.0000000000000E+00
(PID.TID 0000.0001) %MON DYF_max                      =   5.0000000000000E+03
(PID.TID 0000.0001) %MON DYF_min                      =   5.0000000000000E+03
(PID.TID 0000.0001) %MON DYF_mean                     =   5.0000000000000E+03
(PID.TID 0000.0001) %MON DYF_sd                       =   0.0000000000000E+00
(PID.TID 0000.0001) %MON DYG_max                      =   5.0000000000000E+03
(PID.TID 0000.0001) %MON DYG_min                      =   5.0000000000000E+03
(PID.TID 0000.0001) %MON DYG_mean                     =   5.0000000000000E+03
(PID.TID 0000.0001) %MON DYG_sd                       =   0.0000000000000E+00
(PID.TID 0000.0001) %MON DYU_max                      =   5.0000000000000E+03
(PID.TID 0000.0001) %MON DYU_min                      =   5.0000000000000E+03
(PID.TID 0000.0001) %MON DYU_mean                     =   5.0000000000000E+03
(PID.TID 0000.0001) %MON DYU_sd                       =   0.0000000000000E+00
(PID.TID 0000.0001) %MON RA_max                       =   6.3164731900833E+06
(PID.TID 0000.0001) %MON RA_min                       =   1.0000000000000E+06
(PID.TID 0000.0001) %MON RA_mean                      =   2.5000000000000E+06
(PID.TID 0000.0001) %MON RA_sd                        =   1.4273533101397E+06
(PID.TID 0000.0001) %MON RAW_max                      =   6.2519767545581E+06
(PID.TID 0000.0001) %MON RAW_min                      =   1.0000000000000E+06
(PID.TID 0000.0001) %MON RAW_mean                     =   2.5000000000000E+06
(PID.TID 0000.0001) %MON RAW_sd                       =   1.4265868375263E+06
(PID.TID 0000.0001) %MON RAS_max                      =   6.3164731900833E+06
(PID.TID 0000.0001) %MON RAS_min                      =   1.0000000000000E+06
(PID.TID 0000.0001) %MON RAS_mean                     =   2.5000000000000E+06
(PID.TID 0000.0001) %MON RAS_sd                       =   1.4273533101397E+06
(PID.TID 0000.0001) %MON RAZ_max                      =   6.2519767545581E+06
(PID.TID 0000.0001) %MON RAZ_min                      =   1.0000000000000E+06
(PID.TID 0000.0001) %MON RAZ_mean                     =   2.5000000000000E+06
(PID.TID 0000.0001) %MON RAZ_sd                       =   1.4265868375263E+06
(PID.TID 0000.0001) %MON AngleCS_max                  =   1.0000000000000E+00
(PID.TID 0000.0001) %MON AngleCS_min                  =   1.0000000000000E+00
(PID.TID 0000.0001) %MON AngleCS_mean                 =   1.0000000000000E+00
(PID.TID 0000.0001) %MON AngleCS_sd                   =   0.0000000000000E+00
(PID.TID 0000.0001) %MON AngleSN_max                  =   0.0000000000000E+00
(PID.TID 0000.0001) %MON AngleSN_min                  =   0.0000000000000E+00
(PID.TID 0000.0001) %MON AngleSN_mean                 =   0.0000000000000E+00
(PID.TID 0000.0001) %MON AngleSN_sd                   =   0.0000000000000E+00
(PID.TID 0000.0001)  MDS_READVEC_LOC: open file: Tref.bin
(PID.TID 0000.0001) S/R LOAD_REF_FILES: tRef loaded from file: Tref.bin
(PID.TID 0000.0001)  MDS_READ_FIELD: opening global file: topo.bin
(PID.TID 0000.0001) // =======================================================
(PID.TID 0000.0001) // Field Model R_low (ini_masks_etc)
(PID.TID 0000.0001) // CMIN =         -2.000000000000000E+02
(PID.TID 0000.0001) // CMAX =         -1.600000000000000E+02
(PID.TID 0000.0001) // CINT =          1.481481481481481E+00
(PID.TID 0000.0001) // SYMBOLS (CMIN->CMAX): -abcdefghijklmnopqrstuvwxyz+
(PID.TID 0000.0001) //                  0.0: .
(PID.TID 0000.0001) // RANGE I (Lo:Hi:Step):(    -1:   202:     1)
(PID.TID 0000.0001) // RANGE J (Lo:Hi:Step):(     3:    -1:    -1)
(PID.TID 0000.0001) // RANGE K (Lo:Hi:Step):(   1:   1:   1)
(PID.TID 0000.0001) // =======================================================
(PID.TID 0000.0001) K =   1
(PID.TID 0000.0001) //                I=8       I=18      I=28      I=38      I=48      I=58      I=68      I=78      I=88      I=98      I=108     I=118     I=128     I=138     I=148     I=158     I=168     I=178     I=188     I=198
(PID.TID 0000.0001) // |--J--|101234567|901234567|901234567|901234567|901234567|901234567|901234567|901234567|901234567|901234567|901234567|901234567|901234567|901234567|901234567|901234567|901234567|901234567|901234567|901234567|9012
(PID.TID 0000.0001) //      3 --------------------------------------------------------------------------aaaabbccdefghiklnpqstvwxyz++++zyxwvtsqpnlkihgfedccbbaaaa--------------------------------------------------------------------------
(PID.TID 0000.0001) //      2 --------------------------------------------------------------------------aaaabbccdefghiklnpqstvwxyz++++zyxwvtsqpnlkihgfedccbbaaaa--------------------------------------------------------------------------
(PID.TID 0000.0001) //      1 --------------------------------------------------------------------------aaaabbccdefghiklnpqstvwxyz++++zyxwvtsqpnlkihgfedccbbaaaa--------------------------------------------------------------------------
(PID.TID 0000.0001) //      0 --------------------------------------------------------------------------aaaabbccdefghiklnpqstvwxyz++++zyxwvtsqpnlkihgfedccbbaaaa--------------------------------------------------------------------------
(PID.TID 0000.0001) //     -1 --------------------------------------------------------------------------aaaabbccdefghiklnpqstvwxyz++++zyxwvtsqpnlkihgfedccbbaaaa--------------------------------------------------------------------------
(PID.TID 0000.0001) // =======================================================
(PID.TID 0000.0001) // END OF FIELD                                          =
(PID.TID 0000.0001) // =======================================================
(PID.TID 0000.0001) 
(PID.TID 0000.0001) // =======================================================
(PID.TID 0000.0001) // Field Model Ro_surf (ini_masks_etc)
(PID.TID 0000.0001) // CMIN =         -2.753353101070388E-14
(PID.TID 0000.0001) // CMAX =          8.615330671091215E-14
(PID.TID 0000.0001) // CINT =          4.210623619319112E-15
(PID.TID 0000.0001) // SYMBOLS (CMIN->CMAX): -abcdefghijklmnopqrstuvwxyz+
(PID.TID 0000.0001) //                  0.0: .
(PID.TID 0000.0001) // RANGE I (Lo:Hi:Step):(    -1:   202:     1)
(PID.TID 0000.0001) // RANGE J (Lo:Hi:Step):(     3:    -1:    -1)
(PID.TID 0000.0001) // RANGE K (Lo:Hi:Step):(   1:   1:   1)
(PID.TID 0000.0001) // =======================================================
(PID.TID 0000.0001) K =   1
(PID.TID 0000.0001) //                I=8       I=18      I=28      I=38      I=48      I=58      I=68      I=78      I=88      I=98      I=108     I=118     I=128     I=138     I=148     I=158     I=168     I=178     I=188     I=198
(PID.TID 0000.0001) // |--J--|101234567|901234567|901234567|901234567|901234567|901234567|901234567|901234567|901234567|901234567|901234567|901234567|901234567|901234567|901234567|901234567|901234567|901234567|901234567|901234567|9012
(PID.TID 0000.0001) //      3 ------------------g-g-gg--g---g-g-g-g--ggg---g-g-ggg---gggggg--g-g------gnngggg-gngggggnn+ttttng------------gntttt+nngggggng-ggggnng------g-g--gggggg---ggg-g-g---ggg--g-g-g-g---g--gg-g-g------------------
(PID.TID 0000.0001) //      2 ------------------g-g-gg--g---g-g-g-g--ggg---g-g-ggg---gggggg--g-g------gnngggg-gngggggnn+ttttng------------gntttt+nngggggng-ggggnng------g-g--gggggg---ggg-g-g---ggg--g-g-g-g---g--gg-g-g------------------
(PID.TID 0000.0001) //      1 ------------------g-g-gg--g---g-g-g-g--ggg---g-g-ggg---gggggg--g-g------gnngggg-gngggggnn+ttttng------------gntttt+nngggggng-ggggnng------g-g--gggggg---ggg-g-g---ggg--g-g-g-g---g--gg-g-g------------------
(PID.TID 0000.0001) //      0 ------------------g-g-gg--g---g-g-g-g--ggg---g-g-ggg---gggggg--g-g------gnngggg-gngggggnn+ttttng------------gntttt+nngggggng-ggggnng------g-g--gggggg---ggg-g-g---ggg--g-g-g-g---g--gg-g-g------------------
(PID.TID 0000.0001) //     -1 ------------------g-g-gg--g---g-g-g-g--ggg---g-g-ggg---gggggg--g-g------gnngggg-gngggggnn+ttttng------------gntttt+nngggggng-ggggnng------g-g--gggggg---ggg-g-g---ggg--g-g-g-g---g--gg-g-g------------------
(PID.TID 0000.0001) // =======================================================
(PID.TID 0000.0001) // END OF FIELD                                          =
(PID.TID 0000.0001) // =======================================================
(PID.TID 0000.0001) 
(PID.TID 0000.0001) // =======================================================
(PID.TID 0000.0001) // Field hFacC at iteration          0
(PID.TID 0000.0001) // CMIN =          1.000000000000000E+00
(PID.TID 0000.0001) // CMAX =          1.000000000000000E+00
(PID.TID 0000.0001) // CINT =          0.000000000000000E+00
(PID.TID 0000.0001) // SYMBOLS (CMIN->CMAX): -abcdefghijklmnopqrstuvwxyz+
(PID.TID 0000.0001) //                  0.0: .
(PID.TID 0000.0001) // RANGE I (Lo:Hi:Step):(    -1:   202:     1)
(PID.TID 0000.0001) // RANGE J (Lo:Hi:Step):(     3:    -1:    -1)
(PID.TID 0000.0001) // RANGE K (Lo:Hi:Step):(   1:   1:   1)
(PID.TID 0000.0001) // =======================================================
(PID.TID 0000.0001) // =======================================================
(PID.TID 0000.0001) // END OF FIELD                                          =
(PID.TID 0000.0001) // =======================================================
(PID.TID 0000.0001) 
(PID.TID 0000.0001) // =======================================================
(PID.TID 0000.0001) // Field hFacW at iteration          0
(PID.TID 0000.0001) // CMIN =          1.000000000000000E+00
(PID.TID 0000.0001) // CMAX =          1.000000000000000E+00
(PID.TID 0000.0001) // CINT =          0.000000000000000E+00
(PID.TID 0000.0001) // SYMBOLS (CMIN->CMAX): -abcdefghijklmnopqrstuvwxyz+
(PID.TID 0000.0001) //                  0.0: .
(PID.TID 0000.0001) // RANGE I (Lo:Hi:Step):(    -1:   202:     1)
(PID.TID 0000.0001) // RANGE J (Lo:Hi:Step):(     3:    -1:    -1)
(PID.TID 0000.0001) // RANGE K (Lo:Hi:Step):(   1:   1:   1)
(PID.TID 0000.0001) // =======================================================
(PID.TID 0000.0001) // =======================================================
(PID.TID 0000.0001) // END OF FIELD                                          =
(PID.TID 0000.0001) // =======================================================
(PID.TID 0000.0001) 
(PID.TID 0000.0001) // =======================================================
(PID.TID 0000.0001) // Field hFacS at iteration          0
(PID.TID 0000.0001) // CMIN =          1.000000000000000E+00
(PID.TID 0000.0001) // CMAX =          1.000000000000000E+00
(PID.TID 0000.0001) // CINT =          0.000000000000000E+00
(PID.TID 0000.0001) // SYMBOLS (CMIN->CMAX): -abcdefghijklmnopqrstuvwxyz+
(PID.TID 0000.0001) //                  0.0: .
(PID.TID 0000.0001) // RANGE I (Lo:Hi:Step):(    -1:   202:     1)
(PID.TID 0000.0001) // RANGE J (Lo:Hi:Step):(     3:    -1:    -1)
(PID.TID 0000.0001) // RANGE K (Lo:Hi:Step):(   1:   1:   1)
(PID.TID 0000.0001) // =======================================================
(PID.TID 0000.0001) // =======================================================
(PID.TID 0000.0001) // END OF FIELD                                          =
(PID.TID 0000.0001) // =======================================================
(PID.TID 0000.0001) 
(PID.TID 0000.0001) GAD_INIT_FIXED: GAD_OlMinSize=  2  0  1
(PID.TID 0000.0001) 
(PID.TID 0000.0001) // ===================================
(PID.TID 0000.0001) // GAD parameters :
(PID.TID 0000.0001) // ===================================
(PID.TID 0000.0001) tempAdvScheme =   /* Temp. Horiz.Advection scheme selector */
(PID.TID 0000.0001)                      77
(PID.TID 0000.0001)     ;
(PID.TID 0000.0001) tempVertAdvScheme =   /* Temp. Vert. Advection scheme selector */
(PID.TID 0000.0001)                      77
(PID.TID 0000.0001)     ;
(PID.TID 0000.0001) tempMultiDimAdvec =   /* use Muti-Dim Advec method for Temp */
(PID.TID 0000.0001)                   T
(PID.TID 0000.0001)     ;
(PID.TID 0000.0001) tempSOM_Advection = /* use 2nd Order Moment Advection for Temp */
(PID.TID 0000.0001)                   F
(PID.TID 0000.0001)     ;
(PID.TID 0000.0001) AdamsBashforthGt = /* apply Adams-Bashforth extrapolation on Gt */
(PID.TID 0000.0001)                   F
(PID.TID 0000.0001)     ;
(PID.TID 0000.0001) AdamsBashforth_T = /* apply Adams-Bashforth extrapolation on Temp */
(PID.TID 0000.0001)                   F
(PID.TID 0000.0001)     ;
(PID.TID 0000.0001) saltAdvScheme =   /* Salt. Horiz.advection scheme selector */
(PID.TID 0000.0001)                       2
(PID.TID 0000.0001)     ;
(PID.TID 0000.0001) saltVertAdvScheme =   /* Salt. Vert. Advection scheme selector */
(PID.TID 0000.0001)                       2
(PID.TID 0000.0001)     ;
(PID.TID 0000.0001) saltMultiDimAdvec =   /* use Muti-Dim Advec method for Salt */
(PID.TID 0000.0001)                   F
(PID.TID 0000.0001)     ;
(PID.TID 0000.0001) saltSOM_Advection = /* use 2nd Order Moment Advection for Salt */
(PID.TID 0000.0001)                   F
(PID.TID 0000.0001)     ;
(PID.TID 0000.0001) AdamsBashforthGs = /* apply Adams-Bashforth extrapolation on Gs */
(PID.TID 0000.0001)                   F
(PID.TID 0000.0001)     ;
(PID.TID 0000.0001) AdamsBashforth_S = /* apply Adams-Bashforth extrapolation on Salt */
(PID.TID 0000.0001)                   F
(PID.TID 0000.0001)     ;
(PID.TID 0000.0001) // ===================================
(PID.TID 0000.0001) %MON fCori_max                    =   0.0000000000000E+00
(PID.TID 0000.0001) %MON fCori_min                    =   0.0000000000000E+00
(PID.TID 0000.0001) %MON fCori_mean                   =   0.0000000000000E+00
(PID.TID 0000.0001) %MON fCori_sd                     =   0.0000000000000E+00
(PID.TID 0000.0001) %MON fCoriG_max                   =   0.0000000000000E+00
(PID.TID 0000.0001) %MON fCoriG_min                   =   0.0000000000000E+00
(PID.TID 0000.0001) %MON fCoriG_mean                  =   0.0000000000000E+00
(PID.TID 0000.0001) %MON fCoriG_sd                    =   0.0000000000000E+00
(PID.TID 0000.0001) %MON fCoriCos_max                 =   0.0000000000000E+00
(PID.TID 0000.0001) %MON fCoriCos_min                 =   0.0000000000000E+00
(PID.TID 0000.0001) %MON fCoriCos_mean                =   0.0000000000000E+00
(PID.TID 0000.0001) %MON fCoriCos_sd                  =   0.0000000000000E+00
(PID.TID 0000.0001) INI_CG2D: CG2D normalisation factor =  2.0891347990989188E-04
(PID.TID 0000.0001) 
(PID.TID 0000.0001) // =======================================================
(PID.TID 0000.0001) // Model configuration
(PID.TID 0000.0001) // =======================================================
(PID.TID 0000.0001) //
(PID.TID 0000.0001) // "Physical" paramters ( PARM01 in namelist )
(PID.TID 0000.0001) //
(PID.TID 0000.0001) buoyancyRelation = /* Type of relation to get Buoyancy */
(PID.TID 0000.0001)               'OCEANIC'
(PID.TID 0000.0001)     ;
(PID.TID 0000.0001) fluidIsAir   =  /* fluid major constituent is Air */
(PID.TID 0000.0001)                   F
(PID.TID 0000.0001)     ;
(PID.TID 0000.0001) fluidIsWater =  /* fluid major constituent is Water */
(PID.TID 0000.0001)                   T
(PID.TID 0000.0001)     ;
(PID.TID 0000.0001) usingPCoords =  /* use p (or p*) vertical coordinate */
(PID.TID 0000.0001)                   F
(PID.TID 0000.0001)     ;
(PID.TID 0000.0001) usingZCoords =  /* use z (or z*) vertical coordinate */
(PID.TID 0000.0001)                   T
(PID.TID 0000.0001)     ;
(PID.TID 0000.0001) tRef =   /* Reference temperature profile ( oC or K ) */
(PID.TID 0000.0001)     6 @  1.500000000000000E+01,             /* K =  1:  6 */
(PID.TID 0000.0001)                 1.499933084687693E+01,      /* K =  7 */
(PID.TID 0000.0001)                 1.497717153877677E+01,      /* K =  8 */
(PID.TID 0000.0001)                 1.470721590167325E+01,      /* K =  9 */
(PID.TID 0000.0001)                 1.349735867339025E+01,      /* K = 10 */
(PID.TID 0000.0001)                 1.150264132660976E+01,      /* K = 11 */
(PID.TID 0000.0001)                 1.029278409832675E+01,      /* K = 12 */
(PID.TID 0000.0001)                 1.002282846122323E+01,      /* K = 13 */
(PID.TID 0000.0001)                 1.000066915312308E+01,      /* K = 14 */
(PID.TID 0000.0001)    86 @  1.000000000000000E+01              /* K = 15:100 */
(PID.TID 0000.0001)     ;
(PID.TID 0000.0001) sRef =   /* Reference salinity profile ( psu ) */
(PID.TID 0000.0001)   100 @  3.500000000000000E+01              /* K =  1:100 */
(PID.TID 0000.0001)     ;
(PID.TID 0000.0001) useStrainTensionVisc= /* Use StrainTension Form of Viscous Operator */
(PID.TID 0000.0001)                   F
(PID.TID 0000.0001)     ;
(PID.TID 0000.0001) useVariableVisc = /* Use variable horizontal viscosity */
(PID.TID 0000.0001)                   F
(PID.TID 0000.0001)     ;
(PID.TID 0000.0001) useHarmonicVisc = /* Use harmonic horizontal viscosity */
(PID.TID 0000.0001)                   T
(PID.TID 0000.0001)     ;
(PID.TID 0000.0001) useBiharmonicVisc= /* Use biharmonic horiz.  viscosity */
(PID.TID 0000.0001)                   F
(PID.TID 0000.0001)     ;
(PID.TID 0000.0001) useSmag3D = /* Use isotropic 3-D Smagorinsky viscosity */
(PID.TID 0000.0001)                   F
(PID.TID 0000.0001)     ;
(PID.TID 0000.0001) viscAh  =   /* Lateral harmonic viscosity ( m^2/s ) */
(PID.TID 0000.0001)                 1.000000000000000E-04
(PID.TID 0000.0001)     ;
(PID.TID 0000.0001) viscA4  =   /* Lateral biharmonic viscosity ( m^4/s ) */
(PID.TID 0000.0001)                 0.000000000000000E+00
(PID.TID 0000.0001)     ;
(PID.TID 0000.0001) no_slip_sides =  /* Viscous BCs: No-slip sides */
(PID.TID 0000.0001)                   F
(PID.TID 0000.0001)     ;
(PID.TID 0000.0001) sideDragFactor = /* side-drag scaling factor (non-dim) */
(PID.TID 0000.0001)                 2.000000000000000E+00
(PID.TID 0000.0001)     ;
(PID.TID 0000.0001) viscArNr = /* vertical profile of vertical viscosity ( m^2/s )*/
(PID.TID 0000.0001)   100 @  1.000000000000000E-05              /* K =  1:100 */
(PID.TID 0000.0001)     ;
(PID.TID 0000.0001) no_slip_bottom =  /* Viscous BCs: No-slip bottom */
(PID.TID 0000.0001)                   F
(PID.TID 0000.0001)     ;
(PID.TID 0000.0001) bottomDragLinear = /* linear bottom-drag coefficient ( m/s ) */
(PID.TID 0000.0001)                 0.000000000000000E+00
(PID.TID 0000.0001)     ;
(PID.TID 0000.0001) bottomDragQuadratic = /* quadratic bottom-drag coefficient (-) */
(PID.TID 0000.0001)                 0.000000000000000E+00
(PID.TID 0000.0001)     ;
(PID.TID 0000.0001) diffKhT =   /* Laplacian diffusion of heat laterally ( m^2/s ) */
(PID.TID 0000.0001)                 1.000000000000000E-04
(PID.TID 0000.0001)     ;
(PID.TID 0000.0001) diffK4T =   /* Biharmonic diffusion of heat laterally ( m^4/s ) */
(PID.TID 0000.0001)                 0.000000000000000E+00
(PID.TID 0000.0001)     ;
(PID.TID 0000.0001) diffKhS =   /* Laplacian diffusion of salt laterally ( m^2/s ) */
(PID.TID 0000.0001)                 1.000000000000000E+03
(PID.TID 0000.0001)     ;
(PID.TID 0000.0001) diffK4S =   /* Biharmonic diffusion of salt laterally ( m^4/s ) */
(PID.TID 0000.0001)                 0.000000000000000E+00
(PID.TID 0000.0001)     ;
(PID.TID 0000.0001) diffKrNrT = /* vertical profile of vertical diffusion of Temp ( m^2/s )*/
(PID.TID 0000.0001)   100 @  1.000000000000000E-05              /* K =  1:100 */
(PID.TID 0000.0001)     ;
(PID.TID 0000.0001) diffKrNrS = /* vertical profile of vertical diffusion of Salt ( m^2/s )*/
(PID.TID 0000.0001)   100 @  1.000000000000000E-05              /* K =  1:100 */
(PID.TID 0000.0001)     ;
(PID.TID 0000.0001) diffKrBL79surf = /* Surface diffusion for Bryan and Lewis 79 ( m^2/s ) */
(PID.TID 0000.0001)                 0.000000000000000E+00
(PID.TID 0000.0001)     ;
(PID.TID 0000.0001) diffKrBL79deep = /* Deep diffusion for Bryan and Lewis 1979 ( m^2/s ) */
(PID.TID 0000.0001)                 0.000000000000000E+00
(PID.TID 0000.0001)     ;
(PID.TID 0000.0001) diffKrBL79scl = /* Depth scale for Bryan and Lewis 1979 ( m ) */
(PID.TID 0000.0001)                 2.000000000000000E+02
(PID.TID 0000.0001)     ;
(PID.TID 0000.0001) diffKrBL79Ho = /* Turning depth for Bryan and Lewis 1979 ( m ) */
(PID.TID 0000.0001)                -2.000000000000000E+03
(PID.TID 0000.0001)     ;
(PID.TID 0000.0001) ivdc_kappa = /* Implicit Vertical Diffusivity for Convection ( m^2/s) */
(PID.TID 0000.0001)                 0.000000000000000E+00
(PID.TID 0000.0001)     ;
(PID.TID 0000.0001) hMixCriteria=  /* Criteria for mixed-layer diagnostic */
(PID.TID 0000.0001)                -8.000000000000000E-01
(PID.TID 0000.0001)     ;
(PID.TID 0000.0001) dRhoSmall =  /* Parameter for mixed-layer diagnostic */
(PID.TID 0000.0001)                 1.000000000000000E-06
(PID.TID 0000.0001)     ;
(PID.TID 0000.0001) hMixSmooth=  /* Smoothing parameter for mixed-layer diagnostic */
(PID.TID 0000.0001)                 0.000000000000000E+00
(PID.TID 0000.0001)     ;
(PID.TID 0000.0001) eosType =  /* Type of Equation of State */
(PID.TID 0000.0001)               'LINEAR'
(PID.TID 0000.0001)     ;
(PID.TID 0000.0001) tAlpha = /* Linear EOS thermal expansion coefficient ( 1/oC ) */
(PID.TID 0000.0001)                 2.000000000000000E-04
(PID.TID 0000.0001)     ;
(PID.TID 0000.0001) sBeta  = /* Linear EOS haline contraction coefficient ( 1/psu ) */
(PID.TID 0000.0001)                 0.000000000000000E+00
(PID.TID 0000.0001)     ;
(PID.TID 0000.0001) rhoNil    = /* Reference density for Linear EOS ( kg/m^3 ) */
(PID.TID 0000.0001)                 9.998000000000000E+02
(PID.TID 0000.0001)     ;
(PID.TID 0000.0001) HeatCapacity_Cp =  /* Specific heat capacity ( J/kg/K ) */
(PID.TID 0000.0001)                 3.994000000000000E+03
(PID.TID 0000.0001)     ;
(PID.TID 0000.0001) celsius2K = /* 0 degree Celsius converted to Kelvin ( K ) */
(PID.TID 0000.0001)                 2.731500000000000E+02
(PID.TID 0000.0001)     ;
(PID.TID 0000.0001) rhoConst  = /* Reference density (Boussinesq)  ( kg/m^3 ) */
(PID.TID 0000.0001)                 9.998000000000000E+02
(PID.TID 0000.0001)     ;
(PID.TID 0000.0001) rhoFacC = /* normalized Reference density @ cell-Center (-) */
(PID.TID 0000.0001)   100 @  1.000000000000000E+00              /* K =  1:100 */
(PID.TID 0000.0001)     ;
(PID.TID 0000.0001) rhoFacF = /* normalized Reference density @ W-Interface (-) */
(PID.TID 0000.0001)   101 @  1.000000000000000E+00              /* K =  1:101 */
(PID.TID 0000.0001)     ;
(PID.TID 0000.0001) rhoConstFresh = /* Fresh-water reference density ( kg/m^3 ) */
(PID.TID 0000.0001)                 9.998000000000000E+02
(PID.TID 0000.0001)     ;
(PID.TID 0000.0001) gravity =   /* Gravitational acceleration ( m/s^2 ) */
(PID.TID 0000.0001)                 9.810000000000000E+00
(PID.TID 0000.0001)     ;
(PID.TID 0000.0001) gBaro =   /* Barotropic gravity ( m/s^2 ) */
(PID.TID 0000.0001)                 9.810000000000000E+00
(PID.TID 0000.0001)     ;
(PID.TID 0000.0001) rotationPeriod =   /* Rotation Period ( s ) */
(PID.TID 0000.0001)                 8.616400000000000E+04
(PID.TID 0000.0001)     ;
(PID.TID 0000.0001) omega =   /* Angular velocity ( rad/s ) */
(PID.TID 0000.0001)                 7.292123516990375E-05
(PID.TID 0000.0001)     ;
(PID.TID 0000.0001) f0 =   /* Reference coriolis parameter ( 1/s ) */
(PID.TID 0000.0001)                 0.000000000000000E+00
(PID.TID 0000.0001)     ;
(PID.TID 0000.0001) beta =   /* Beta ( 1/(m.s) ) */
(PID.TID 0000.0001)                 0.000000000000000E+00
(PID.TID 0000.0001)     ;
(PID.TID 0000.0001) fPrime =   /* Second coriolis parameter ( 1/s ) */
(PID.TID 0000.0001)                 0.000000000000000E+00
(PID.TID 0000.0001)     ;
(PID.TID 0000.0001) rigidLid =   /* Rigid lid on/off flag */
(PID.TID 0000.0001)                   F
(PID.TID 0000.0001)     ;
(PID.TID 0000.0001) implicitFreeSurface =   /* Implicit free surface on/off flag */
(PID.TID 0000.0001)                   T
(PID.TID 0000.0001)     ;
(PID.TID 0000.0001) freeSurfFac =   /* Implicit free surface factor */
(PID.TID 0000.0001)                 1.000000000000000E+00
(PID.TID 0000.0001)     ;
(PID.TID 0000.0001) implicSurfPress =  /* Surface Pressure implicit factor (0-1)*/
(PID.TID 0000.0001)                 1.000000000000000E+00
(PID.TID 0000.0001)     ;
(PID.TID 0000.0001) implicDiv2Dflow =  /* Barot. Flow Div. implicit factor (0-1)*/
(PID.TID 0000.0001)                 1.000000000000000E+00
(PID.TID 0000.0001)     ;
(PID.TID 0000.0001) uniformLin_PhiSurf = /* use uniform Bo_surf on/off flag*/
(PID.TID 0000.0001)                   T
(PID.TID 0000.0001)     ;
(PID.TID 0000.0001) uniformFreeSurfLev = /* free-surface level-index is uniform */
(PID.TID 0000.0001)                   T
(PID.TID 0000.0001)     ;
(PID.TID 0000.0001) hFacMin =   /* minimum partial cell factor (hFac) */
(PID.TID 0000.0001)                 1.000000000000000E-01
(PID.TID 0000.0001)     ;
(PID.TID 0000.0001) hFacMinDr = /* minimum partial cell thickness ( m) */
(PID.TID 0000.0001)                 0.000000000000000E+00
(PID.TID 0000.0001)     ;
(PID.TID 0000.0001) exactConserv =  /* Exact Volume Conservation on/off flag*/
(PID.TID 0000.0001)                   F
(PID.TID 0000.0001)     ;
(PID.TID 0000.0001) linFSConserveTr = /* Tracer correction for Lin Free Surface on/off flag*/
(PID.TID 0000.0001)                   F
(PID.TID 0000.0001)     ;
(PID.TID 0000.0001) nonlinFreeSurf = /* Non-linear Free Surf. options (-1,0,1,2,3)*/
(PID.TID 0000.0001)                       0
(PID.TID 0000.0001)      -1,0= Off ; 1,2,3= On, 2=+rescale gU,gV, 3=+update cg2d solv.
(PID.TID 0000.0001)     ;
(PID.TID 0000.0001) hFacInf =   /* lower threshold for hFac (nonlinFreeSurf only)*/
(PID.TID 0000.0001)                 2.000000000000000E-01
(PID.TID 0000.0001)     ;
(PID.TID 0000.0001) hFacSup =   /* upper threshold for hFac (nonlinFreeSurf only)*/
(PID.TID 0000.0001)                 2.000000000000000E+00
(PID.TID 0000.0001)     ;
(PID.TID 0000.0001) select_rStar = /* r* Vertical coord. options (=0 r coord.; >0 uses r*)*/
(PID.TID 0000.0001)                       0
(PID.TID 0000.0001)     ;
(PID.TID 0000.0001) useRealFreshWaterFlux = /* Real Fresh Water Flux on/off flag*/
(PID.TID 0000.0001)                   F
(PID.TID 0000.0001)     ;
(PID.TID 0000.0001) temp_EvPrRn = /* Temp. of Evap/Prec/R (UNSET=use local T)(oC)*/
(PID.TID 0000.0001)                 1.234567000000000E+05
(PID.TID 0000.0001)     ;
(PID.TID 0000.0001) salt_EvPrRn = /* Salin. of Evap/Prec/R (UNSET=use local S)(psu)*/
(PID.TID 0000.0001)                 0.000000000000000E+00
(PID.TID 0000.0001)     ;
(PID.TID 0000.0001) selectAddFluid = /* option for mass source/sink of fluid (=0: off) */
(PID.TID 0000.0001)                       0
(PID.TID 0000.0001)     ;
(PID.TID 0000.0001) temp_addMass = /* Temp. of addMass array (UNSET=use local T)(oC)*/
(PID.TID 0000.0001)                 1.234567000000000E+05
(PID.TID 0000.0001)     ;
(PID.TID 0000.0001) salt_addMass = /* Salin. of addMass array (UNSET=use local S)(psu)*/
(PID.TID 0000.0001)                 0.000000000000000E+00
(PID.TID 0000.0001)     ;
(PID.TID 0000.0001) convertFW2Salt = /* convert F.W. Flux to Salt Flux (-1=use local S)(psu)*/
(PID.TID 0000.0001)                 3.500000000000000E+01
(PID.TID 0000.0001)     ;
(PID.TID 0000.0001) use3Dsolver = /* use 3-D pressure solver on/off flag */
(PID.TID 0000.0001)                   F
(PID.TID 0000.0001)     ;
(PID.TID 0000.0001) nonHydrostatic =  /* Non-Hydrostatic on/off flag */
(PID.TID 0000.0001)                   F
(PID.TID 0000.0001)     ;
(PID.TID 0000.0001) nh_Am2 = /* Non-Hydrostatic terms scaling factor */
(PID.TID 0000.0001)                 1.000000000000000E+00
(PID.TID 0000.0001)     ;
(PID.TID 0000.0001) implicitNHPress = /* Non-Hyd Pressure implicit factor (0-1)*/
(PID.TID 0000.0001)                 1.000000000000000E+00
(PID.TID 0000.0001)     ;
(PID.TID 0000.0001) selectNHfreeSurf = /* Non-Hyd (free-)Surface option */
(PID.TID 0000.0001)                       0
(PID.TID 0000.0001)     ;
(PID.TID 0000.0001) quasiHydrostatic = /* Quasi-Hydrostatic on/off flag */
(PID.TID 0000.0001)                   F
(PID.TID 0000.0001)     ;
(PID.TID 0000.0001) calc_wVelocity = /* vertical velocity calculation on/off flag */
(PID.TID 0000.0001)                   T
(PID.TID 0000.0001)     ;
(PID.TID 0000.0001) momStepping =  /* Momentum equation on/off flag */
(PID.TID 0000.0001)                   T
(PID.TID 0000.0001)     ;
(PID.TID 0000.0001) vectorInvariantMomentum= /* Vector-Invariant Momentum on/off */
(PID.TID 0000.0001)                   F
(PID.TID 0000.0001)     ;
(PID.TID 0000.0001) momAdvection =  /* Momentum advection on/off flag */
(PID.TID 0000.0001)                   T
(PID.TID 0000.0001)     ;
(PID.TID 0000.0001) momViscosity =  /* Momentum viscosity on/off flag */
(PID.TID 0000.0001)                   T
(PID.TID 0000.0001)     ;
(PID.TID 0000.0001) momImplVertAdv= /* Momentum implicit vert. advection on/off*/
(PID.TID 0000.0001)                   F
(PID.TID 0000.0001)     ;
(PID.TID 0000.0001) implicitViscosity = /* Implicit viscosity on/off flag */
(PID.TID 0000.0001)                   T
(PID.TID 0000.0001)     ;
(PID.TID 0000.0001) metricTerms =  /* metric-Terms on/off flag */
(PID.TID 0000.0001)                   F
(PID.TID 0000.0001)     ;
(PID.TID 0000.0001) useNHMTerms = /* Non-Hydrostatic Metric-Terms on/off */
(PID.TID 0000.0001)                   F
(PID.TID 0000.0001)     ;
(PID.TID 0000.0001) selectCoriMap = /* Coriolis Map options (0,1,2,3)*/
(PID.TID 0000.0001)                       1
(PID.TID 0000.0001)     0= f-Plane ; 1= Beta-Plane ; 2= Spherical ; 3= read from file
(PID.TID 0000.0001)     ;
(PID.TID 0000.0001) use3dCoriolis = /* 3-D Coriolis on/off flag */
(PID.TID 0000.0001)                   F
(PID.TID 0000.0001)     ;
(PID.TID 0000.0001) useCoriolis =  /* Coriolis on/off flag */
(PID.TID 0000.0001)                   T
(PID.TID 0000.0001)     ;
(PID.TID 0000.0001) useCDscheme =  /* CD scheme on/off flag */
(PID.TID 0000.0001)                   F
(PID.TID 0000.0001)     ;
(PID.TID 0000.0001) useEnergyConservingCoriolis= /* Flx-Form Coriolis scheme flag */
(PID.TID 0000.0001)                   F
(PID.TID 0000.0001)     ;
(PID.TID 0000.0001) useJamartWetPoints= /* Coriolis WetPoints method flag */
(PID.TID 0000.0001)                   F
(PID.TID 0000.0001)     ;
(PID.TID 0000.0001) useJamartMomAdv= /* V.I Non-linear terms Jamart flag */
(PID.TID 0000.0001)                   F
(PID.TID 0000.0001)     ;
(PID.TID 0000.0001) useAbsVorticity= /* V.I Works with f+zeta in Coriolis */
(PID.TID 0000.0001)                   F
(PID.TID 0000.0001)     ;
(PID.TID 0000.0001) selectVortScheme= /* V.I Scheme selector for Vorticity-Term */
(PID.TID 0000.0001)               123456789
(PID.TID 0000.0001)    = 0 : enstrophy (Shallow-Water Eq.) conserving scheme by Sadourny, JAS 75
(PID.TID 0000.0001)    = 1 : same as 0 with modified hFac
(PID.TID 0000.0001)    = 2 : energy conserving scheme (used by Sadourny in JAS 75 paper)
(PID.TID 0000.0001)    = 3 : energy (general) and enstrophy (2D, nonDiv.) conserving scheme
(PID.TID 0000.0001)          from Sadourny (Burridge & Haseler, ECMWF Rep.4, 1977)
(PID.TID 0000.0001)     ;
(PID.TID 0000.0001) upwindVorticity= /* V.I Upwind bias vorticity flag */
(PID.TID 0000.0001)                   F
(PID.TID 0000.0001)     ;
(PID.TID 0000.0001) highOrderVorticity= /* V.I High order vort. advect. flag */
(PID.TID 0000.0001)                   F
(PID.TID 0000.0001)     ;
(PID.TID 0000.0001) upwindShear= /* V.I Upwind vertical Shear advection flag */
(PID.TID 0000.0001)                   F
(PID.TID 0000.0001)     ;
(PID.TID 0000.0001) selectKEscheme= /* V.I Kinetic Energy scheme selector */
(PID.TID 0000.0001)                       0
(PID.TID 0000.0001)     ;
(PID.TID 0000.0001) momForcing =  /* Momentum forcing on/off flag */
(PID.TID 0000.0001)                   T
(PID.TID 0000.0001)     ;
(PID.TID 0000.0001) momPressureForcing =  /* Momentum pressure term on/off flag */
(PID.TID 0000.0001)                   T
(PID.TID 0000.0001)     ;
(PID.TID 0000.0001) implicitIntGravWave= /* Implicit Internal Gravity Wave flag */
(PID.TID 0000.0001)                   F
(PID.TID 0000.0001)     ;
(PID.TID 0000.0001) staggerTimeStep =    /* Stagger time stepping on/off flag */
(PID.TID 0000.0001)                   T
(PID.TID 0000.0001)     ;
(PID.TID 0000.0001) doResetHFactors = /* reset thickness factors @ each time-step */
(PID.TID 0000.0001)                   F
(PID.TID 0000.0001)     ;
(PID.TID 0000.0001) multiDimAdvection =  /* enable/disable Multi-Dim Advection */
(PID.TID 0000.0001)                   T
(PID.TID 0000.0001)     ;
(PID.TID 0000.0001) useMultiDimAdvec =   /* Multi-Dim Advection is/is-not used */
(PID.TID 0000.0001)                   T
(PID.TID 0000.0001)     ;
(PID.TID 0000.0001) implicitDiffusion = /* Implicit Diffusion on/off flag */
(PID.TID 0000.0001)                   T
(PID.TID 0000.0001)     ;
(PID.TID 0000.0001) tempStepping =  /* Temperature equation on/off flag */
(PID.TID 0000.0001)                   T
(PID.TID 0000.0001)     ;
(PID.TID 0000.0001) tempAdvection = /* Temperature advection on/off flag */
(PID.TID 0000.0001)                   T
(PID.TID 0000.0001)     ;
(PID.TID 0000.0001) tempImplVertAdv = /* Temp. implicit vert. advection on/off */
(PID.TID 0000.0001)                   F
(PID.TID 0000.0001)     ;
(PID.TID 0000.0001) tempForcing  =  /* Temperature forcing on/off flag */
(PID.TID 0000.0001)                   T
(PID.TID 0000.0001)     ;
(PID.TID 0000.0001) doThetaClimRelax = /* apply SST relaxation on/off flag */
(PID.TID 0000.0001)                   F
(PID.TID 0000.0001)     ;
(PID.TID 0000.0001) tempIsActiveTr = /* Temp. is a dynamically Active Tracer */
(PID.TID 0000.0001)                   T
(PID.TID 0000.0001)     ;
(PID.TID 0000.0001) saltStepping =  /* Salinity equation on/off flag */
(PID.TID 0000.0001)                   F
(PID.TID 0000.0001)     ;
(PID.TID 0000.0001) saltAdvection = /* Salinity advection on/off flag */
(PID.TID 0000.0001)                   F
(PID.TID 0000.0001)     ;
(PID.TID 0000.0001) saltImplVertAdv = /* Sali. implicit vert. advection on/off */
(PID.TID 0000.0001)                   F
(PID.TID 0000.0001)     ;
(PID.TID 0000.0001) saltForcing  =  /* Salinity forcing on/off flag */
(PID.TID 0000.0001)                   F
(PID.TID 0000.0001)     ;
(PID.TID 0000.0001) doSaltClimRelax = /* apply SSS relaxation on/off flag */
(PID.TID 0000.0001)                   F
(PID.TID 0000.0001)     ;
(PID.TID 0000.0001) saltIsActiveTr = /* Salt  is a dynamically Active Tracer */
(PID.TID 0000.0001)                   F
(PID.TID 0000.0001)     ;
(PID.TID 0000.0001)  readBinaryPrec = /* Precision used for reading binary files */
(PID.TID 0000.0001)                      64
(PID.TID 0000.0001)     ;
(PID.TID 0000.0001) writeBinaryPrec = /* Precision used for writing binary files */
(PID.TID 0000.0001)                      64
(PID.TID 0000.0001)     ;
(PID.TID 0000.0001)  globalFiles = /* write "global" (=not per tile) files */
(PID.TID 0000.0001)                   F
(PID.TID 0000.0001)     ;
(PID.TID 0000.0001)  useSingleCpuIO = /* only master MPI process does I/O */
(PID.TID 0000.0001)                   T
(PID.TID 0000.0001)     ;
(PID.TID 0000.0001)  useSingleCpuInput = /* only master process reads input */
(PID.TID 0000.0001)                   T
(PID.TID 0000.0001)     ;
(PID.TID 0000.0001) /* debLev[*]  : level of debug & auxiliary message printing */
(PID.TID 0000.0001) debLevZero =  0 ; /* level of disabled aux. msg printing */
(PID.TID 0000.0001)    debLevA =  1 ; /* level of minimum  aux. msg printing */
(PID.TID 0000.0001)    debLevB =  2 ; /* level of low aux. print (report read-file opening)*/
(PID.TID 0000.0001)    debLevC =  3 ; /* level of moderate debug prt (most pkgs debug msg) */
(PID.TID 0000.0001)    debLevD =  4 ; /* level of enhanced debug prt (add DEBUG_STATS prt) */
(PID.TID 0000.0001)    debLevE =  5 ; /* level of extensive debug printing */
(PID.TID 0000.0001) debugLevel =  /* select debug printing level */
(PID.TID 0000.0001)                       2
(PID.TID 0000.0001)     ;
(PID.TID 0000.0001) //
(PID.TID 0000.0001) // Elliptic solver(s) paramters ( PARM02 in namelist )
(PID.TID 0000.0001) //
(PID.TID 0000.0001) cg2dMaxIters =   /* Upper limit on 2d con. grad iterations  */
(PID.TID 0000.0001)                    1000
(PID.TID 0000.0001)     ;
(PID.TID 0000.0001) cg2dChkResFreq =   /* 2d con. grad convergence test frequency */
(PID.TID 0000.0001)                       1
(PID.TID 0000.0001)     ;
(PID.TID 0000.0001) cg2dUseMinResSol= /* use cg2d last-iter(=0) / min-resid.(=1) solution */
(PID.TID 0000.0001)                       0
(PID.TID 0000.0001)     ;
(PID.TID 0000.0001) cg2dTargetResidual =   /* 2d con. grad target residual  */
(PID.TID 0000.0001)                 1.000000000000000E-13
(PID.TID 0000.0001)     ;
(PID.TID 0000.0001) cg2dTargetResWunit =   /* CG2d target residual [W units] */
(PID.TID 0000.0001)                -1.000000000000000E+00
(PID.TID 0000.0001)     ;
(PID.TID 0000.0001) cg2dPreCondFreq =   /* Freq. for updating cg2d preconditioner */
(PID.TID 0000.0001)                       1
(PID.TID 0000.0001)     ;
(PID.TID 0000.0001) useSRCGSolver =  /* use single reduction CG solver(s) */
(PID.TID 0000.0001)                   F
(PID.TID 0000.0001)     ;
(PID.TID 0000.0001) printResidualFreq = /* Freq. for printing CG residual */
(PID.TID 0000.0001)                       0
(PID.TID 0000.0001)     ;
(PID.TID 0000.0001) //
(PID.TID 0000.0001) // Time stepping paramters ( PARM03 in namelist )
(PID.TID 0000.0001) //
(PID.TID 0000.0001) deltaTMom =   /* Momentum equation timestep ( s ) */
(PID.TID 0000.0001)                 1.500000000000000E+01
(PID.TID 0000.0001)     ;
(PID.TID 0000.0001) deltaTFreeSurf = /* FreeSurface equation timestep ( s ) */
(PID.TID 0000.0001)                 1.500000000000000E+01
(PID.TID 0000.0001)     ;
(PID.TID 0000.0001) dTtracerLev =  /* Tracer equation timestep ( s ) */
(PID.TID 0000.0001)   100 @  1.500000000000000E+01              /* K =  1:100 */
(PID.TID 0000.0001)     ;
(PID.TID 0000.0001) deltaTClock  =   /* Model clock timestep ( s ) */
(PID.TID 0000.0001)                 1.500000000000000E+01
(PID.TID 0000.0001)     ;
(PID.TID 0000.0001) cAdjFreq =   /* Convective adjustment interval ( s ) */
(PID.TID 0000.0001)                 0.000000000000000E+00
(PID.TID 0000.0001)     ;
(PID.TID 0000.0001) momForcingOutAB = /* =1: take Momentum Forcing out of Adams-Bash. stepping */
(PID.TID 0000.0001)                       0
(PID.TID 0000.0001)     ;
(PID.TID 0000.0001) tracForcingOutAB = /* =1: take T,S,pTr Forcing out of Adams-Bash. stepping */
(PID.TID 0000.0001)                       0
(PID.TID 0000.0001)     ;
(PID.TID 0000.0001) momDissip_In_AB = /* put Dissipation Tendency in Adams-Bash. stepping */
(PID.TID 0000.0001)                   T
(PID.TID 0000.0001)     ;
(PID.TID 0000.0001) doAB_onGtGs = /* apply AB on Tendencies (rather than on T,S)*/
(PID.TID 0000.0001)                   T
(PID.TID 0000.0001)     ;
(PID.TID 0000.0001) abEps =   /* Adams-Bashforth-2 stabilizing weight */
(PID.TID 0000.0001)                 1.000000000000000E-01
(PID.TID 0000.0001)     ;
(PID.TID 0000.0001) pickupStrictlyMatch= /* stop if pickup do not strictly match */
(PID.TID 0000.0001)                   T
(PID.TID 0000.0001)     ;
(PID.TID 0000.0001) nIter0   =   /* Run starting timestep number */
(PID.TID 0000.0001)                       0
(PID.TID 0000.0001)     ;
(PID.TID 0000.0001) nTimeSteps = /* Number of timesteps */
(PID.TID 0000.0001)                    7200
(PID.TID 0000.0001)     ;
(PID.TID 0000.0001) nEndIter =   /* Run ending timestep number */
(PID.TID 0000.0001)                    7200
(PID.TID 0000.0001)     ;
(PID.TID 0000.0001) baseTime =   /* Model base time ( s ) */
(PID.TID 0000.0001)                 0.000000000000000E+00
(PID.TID 0000.0001)     ;
(PID.TID 0000.0001) startTime =  /* Run start time ( s ) */
(PID.TID 0000.0001)                 0.000000000000000E+00
(PID.TID 0000.0001)     ;
(PID.TID 0000.0001) endTime  =   /* Integration ending time ( s ) */
(PID.TID 0000.0001)                 1.080000000000000E+05
(PID.TID 0000.0001)     ;
(PID.TID 0000.0001) pChkPtFreq = /* Permanent restart/pickup file interval ( s ) */
(PID.TID 0000.0001)                 2.160000000000000E+04
(PID.TID 0000.0001)     ;
(PID.TID 0000.0001) chkPtFreq  = /* Rolling restart/pickup file interval ( s ) */
(PID.TID 0000.0001)                 0.000000000000000E+00
(PID.TID 0000.0001)     ;
(PID.TID 0000.0001) pickup_write_mdsio =   /* Model IO flag. */
(PID.TID 0000.0001)                   T
(PID.TID 0000.0001)     ;
(PID.TID 0000.0001) pickup_read_mdsio =   /* Model IO flag. */
(PID.TID 0000.0001)                   T
(PID.TID 0000.0001)     ;
(PID.TID 0000.0001) pickup_write_immed =   /* Model IO flag. */
(PID.TID 0000.0001)                   F
(PID.TID 0000.0001)     ;
(PID.TID 0000.0001) writePickupAtEnd =   /* Model IO flag. */
(PID.TID 0000.0001)                   T
(PID.TID 0000.0001)     ;
(PID.TID 0000.0001) dumpFreq =   /* Model state write out interval ( s ). */
(PID.TID 0000.0001)                 7.200000000000000E+03
(PID.TID 0000.0001)     ;
(PID.TID 0000.0001) dumpInitAndLast= /* write out Initial & Last iter. model state */
(PID.TID 0000.0001)                   T
(PID.TID 0000.0001)     ;
(PID.TID 0000.0001) snapshot_mdsio =   /* Model IO flag. */
(PID.TID 0000.0001)                   T
(PID.TID 0000.0001)     ;
(PID.TID 0000.0001) monitorFreq =   /* Monitor output interval ( s ). */
(PID.TID 0000.0001)                 7.200000000000000E+03
(PID.TID 0000.0001)     ;
(PID.TID 0000.0001) monitorSelect = /* select group of variables to monitor */
(PID.TID 0000.0001)                       3
(PID.TID 0000.0001)     ;
(PID.TID 0000.0001) monitor_stdio =   /* Model IO flag. */
(PID.TID 0000.0001)                   T
(PID.TID 0000.0001)     ;
(PID.TID 0000.0001) externForcingPeriod =   /* forcing period (s) */
(PID.TID 0000.0001)                 0.000000000000000E+00
(PID.TID 0000.0001)     ;
(PID.TID 0000.0001) externForcingCycle =   /* period of the cyle (s). */
(PID.TID 0000.0001)                 0.000000000000000E+00
(PID.TID 0000.0001)     ;
(PID.TID 0000.0001) tauThetaClimRelax =   /* relaxation time scale (s) */
(PID.TID 0000.0001)                 0.000000000000000E+00
(PID.TID 0000.0001)     ;
(PID.TID 0000.0001) tauSaltClimRelax =   /* relaxation time scale (s) */
(PID.TID 0000.0001)                 0.000000000000000E+00
(PID.TID 0000.0001)     ;
(PID.TID 0000.0001) latBandClimRelax =   /* max. Lat. where relaxation */
(PID.TID 0000.0001)                 1.500000000000000E+04
(PID.TID 0000.0001)     ;
(PID.TID 0000.0001) //
(PID.TID 0000.0001) // Gridding paramters ( PARM04 in namelist )
(PID.TID 0000.0001) //
(PID.TID 0000.0001) usingCartesianGrid = /* Cartesian coordinates flag ( True/False ) */
(PID.TID 0000.0001)                   T
(PID.TID 0000.0001)     ;
(PID.TID 0000.0001) usingCylindricalGrid = /* Cylindrical coordinates flag ( True/False ) */
(PID.TID 0000.0001)                   F
(PID.TID 0000.0001)     ;
(PID.TID 0000.0001) usingSphericalPolarGrid = /* Spherical coordinates flag ( True/False ) */
(PID.TID 0000.0001)                   F
(PID.TID 0000.0001)     ;
(PID.TID 0000.0001) usingCurvilinearGrid = /* Curvilinear coordinates flag ( True/False ) */
(PID.TID 0000.0001)                   F
(PID.TID 0000.0001)     ;
(PID.TID 0000.0001) selectSigmaCoord = /* Hybrid-Sigma Vert. Coordinate option */
(PID.TID 0000.0001)                       0
(PID.TID 0000.0001)     ;
(PID.TID 0000.0001) Ro_SeaLevel = /* r(1) ( units of r ==  m ) */
(PID.TID 0000.0001)                 0.000000000000000E+00
(PID.TID 0000.0001)     ;
(PID.TID 0000.0001) rSigmaBnd = /* r/sigma transition ( units of r ==  m ) */
(PID.TID 0000.0001)                 1.234567000000000E+05
(PID.TID 0000.0001)     ;
(PID.TID 0000.0001) rkSign =   /* index orientation relative to vertical coordinate */
(PID.TID 0000.0001)                -1.000000000000000E+00
(PID.TID 0000.0001)     ;
(PID.TID 0000.0001) gravitySign = /* gravity orientation relative to vertical coordinate */
(PID.TID 0000.0001)                -1.000000000000000E+00
(PID.TID 0000.0001)     ;
(PID.TID 0000.0001) mass2rUnit = /* convert mass per unit area [kg/m2] to r-units [m] */
(PID.TID 0000.0001)                 1.000200040008002E-03
(PID.TID 0000.0001)     ;
(PID.TID 0000.0001) rUnit2mass = /* convert r-units [m] to mass per unit area [kg/m2] */
(PID.TID 0000.0001)                 9.998000000000000E+02
(PID.TID 0000.0001)     ;
(PID.TID 0000.0001) drC =   /* C spacing ( units of r ) */
(PID.TID 0000.0001)                 2.188755257190683E+00,      /* K =  1 */
(PID.TID 0000.0001)                 4.330899997470791E+00,      /* K =  2 */
(PID.TID 0000.0001)                 4.238671555342814E+00,      /* K =  3 */
(PID.TID 0000.0001)                 4.148407158919499E+00,      /* K =  4 */
(PID.TID 0000.0001)                 4.060064982973822E+00,      /* K =  5 */
(PID.TID 0000.0001)                 3.973604092965578E+00,      /* K =  6 */
(PID.TID 0000.0001)                 3.888984426073804E+00,      /* K =  7 */
(PID.TID 0000.0001)                 3.806166772633129E+00,      /* K =  8 */
(PID.TID 0000.0001)                 3.725112757965456E+00,      /* K =  9 */
(PID.TID 0000.0001)                 3.645784824598524E+00,      /* K = 10 */
(PID.TID 0000.0001)                 3.568146214863156E+00,      /* K = 11 */
(PID.TID 0000.0001)                 3.492160953861090E+00,      /* K = 12 */
(PID.TID 0000.0001)                 3.417793832795526E+00,      /* K = 13 */
(PID.TID 0000.0001)                 3.345010392656658E+00,      /* K = 14 */
(PID.TID 0000.0001)                 3.273776908254621E+00,      /* K = 15 */
(PID.TID 0000.0001)                 3.204060372592473E+00,      /* K = 16 */
(PID.TID 0000.0001)                 3.135828481571955E+00,      /* K = 17 */
(PID.TID 0000.0001)                 3.069049619024951E+00,      /* K = 18 */
(PID.TID 0000.0001)                 3.003692842063711E+00,      /* K = 19 */
(PID.TID 0000.0001)                 2.939727866743045E+00,      /* K = 20 */
(PID.TID 0000.0001)                 2.877125054027847E+00,      /* K = 21 */
(PID.TID 0000.0001)                 2.815855396059452E+00,      /* K = 22 */
(PID.TID 0000.0001)                 2.755890502714447E+00,      /* K = 23 */
(PID.TID 0000.0001)                 2.697202588449727E+00,      /* K = 24 */
(PID.TID 0000.0001)                 2.639764459427690E+00,      /* K = 25 */
(PID.TID 0000.0001)                 2.583549500915603E+00,      /* K = 26 */
(PID.TID 0000.0001)                 2.528531664953307E+00,      /* K = 27 */
(PID.TID 0000.0001)                 2.474685458283540E+00,      /* K = 28 */
(PID.TID 0000.0001)                 2.421985930539298E+00,      /* K = 29 */
(PID.TID 0000.0001)                 2.370408662682740E+00,      /* K = 30 */
(PID.TID 0000.0001)                 2.319929755690298E+00,      /* K = 31 */
(PID.TID 0000.0001)                 2.270525819478747E+00,      /* K = 32 */
(PID.TID 0000.0001)                 2.222173962067086E+00,      /* K = 33 */
(PID.TID 0000.0001)                 2.174851778969233E+00,      /* K = 34 */
(PID.TID 0000.0001)                 2.128537342812607E+00,      /* K = 35 */
(PID.TID 0000.0001)                 2.083209193177780E+00,      /* K = 36 */
(PID.TID 0000.0001)                 2.038846326654500E+00,      /* K = 37 */
(PID.TID 0000.0001)                 1.995428187109485E+00,      /* K = 38 */
(PID.TID 0000.0001)                 1.952934656161452E+00,      /* K = 39 */
(PID.TID 0000.0001)                 1.911346043858999E+00,      /* K = 40 */
(PID.TID 0000.0001)                 1.870643079556999E+00,      /* K = 41 */
(PID.TID 0000.0001)                 1.830806902987284E+00,      /* K = 42 */
(PID.TID 0000.0001)                 1.791819055519489E+00,      /* K = 43 */
(PID.TID 0000.0001)                 1.753661471607994E+00,      /* K = 44 */
(PID.TID 0000.0001)                 1.716316470421009E+00,      /* K = 45 */
(PID.TID 0000.0001)                 1.679766747647922E+00,      /* K = 46 */
(PID.TID 0000.0001)                 1.643995367481116E+00,      /* K = 47 */
(PID.TID 0000.0001)                 1.608985754768530E+00,      /* K = 48 */
(PID.TID 0000.0001)                 1.574721687333338E+00,      /* K = 49 */
(PID.TID 0000.0001)                 1.541187288457190E+00,      /* K = 50 */
(PID.TID 0000.0001)                 1.508367019523514E+00,      /* K = 51 */
(PID.TID 0000.0001)                 1.476245672817492E+00,      /* K = 52 */
(PID.TID 0000.0001)                 1.444808364479355E+00,      /* K = 53 */
(PID.TID 0000.0001)                 1.414040527607753E+00,      /* K = 54 */
(PID.TID 0000.0001)                 1.383927905509979E+00,      /* K = 55 */
(PID.TID 0000.0001)                 1.354456545095941E+00,      /* K = 56 */
(PID.TID 0000.0001)                 1.325612790412805E+00,      /* K = 57 */
(PID.TID 0000.0001)                 1.297383276317331E+00,      /* K = 58 */
(PID.TID 0000.0001)                 1.269754922282946E+00,      /* K = 59 */
(PID.TID 0000.0001)                 1.242714926338713E+00,      /* K = 60 */
(PID.TID 0000.0001)                 1.216250759137361E+00,      /* K = 61 */
(PID.TID 0000.0001)                 1.190350158149641E+00,      /* K = 62 */
(PID.TID 0000.0001)                 1.165001121982321E+00,      /* K = 63 */
(PID.TID 0000.0001)                 1.140191904817177E+00,      /* K = 64 */
(PID.TID 0000.0001)                 1.115911010968409E+00,      /* K = 65 */
(PID.TID 0000.0001)                 1.092147189555960E+00,      /* K = 66 */
(PID.TID 0000.0001)                 1.068889429292269E+00,      /* K = 67 */
(PID.TID 0000.0001)                 1.046126953380043E+00,      /* K = 68 */
(PID.TID 0000.0001)                 1.017434101955024E+00,      /* K = 69 */
(PID.TID 0000.0001)     3 @  1.000000000000000E+00,             /* K = 70: 72 */
(PID.TID 0000.0001)                 9.998584140034217E-01,      /* K = 73 */
(PID.TID 0000.0001)                 1.010593151450680E+00,      /* K = 74 */
(PID.TID 0000.0001)                 1.032582454175967E+00,      /* K = 75 */
(PID.TID 0000.0001)                 1.055050217925506E+00,      /* K = 76 */
(PID.TID 0000.0001)                 1.078006853441037E+00,      /* K = 77 */
(PID.TID 0000.0001)                 1.101462997989634E+00,      /* K = 78 */
(PID.TID 0000.0001)                 1.125429520292630E+00,      /* K = 79 */
(PID.TID 0000.0001)                 1.149917525561778E+00,      /* K = 80 */
(PID.TID 0000.0001)                 1.174938360645011E+00,      /* K = 81 */
(PID.TID 0000.0001)                 1.200503619284147E+00,      /* K = 82 */
(PID.TID 0000.0001)                 1.226625147487014E+00,      /* K = 83 */
(PID.TID 0000.0001)                 1.253315049016451E+00,      /* K = 84 */
(PID.TID 0000.0001)                 1.280585690998757E+00,      /* K = 85 */
(PID.TID 0000.0001)                 1.308449709654159E+00,      /* K = 86 */
(PID.TID 0000.0001)                 1.336920016151980E+00,      /* K = 87 */
(PID.TID 0000.0001)                 1.366009802593203E+00,      /* K = 88 */
(PID.TID 0000.0001)                 1.395732548123206E+00,      /* K = 89 */
(PID.TID 0000.0001)                 1.426102025177510E+00,      /* K = 90 */
(PID.TID 0000.0001)                 1.457132305863421E+00,      /* K = 91 */
(PID.TID 0000.0001)                 1.488837768480531E+00,      /* K = 92 */
(PID.TID 0000.0001)                 1.521233104183099E+00,      /* K = 93 */
(PID.TID 0000.0001)                 1.554333323787391E+00,      /* K = 94 */
(PID.TID 0000.0001)                 1.588153764727151E+00,      /* K = 95 */
(PID.TID 0000.0001)                 1.622710098160403E+00,      /* K = 96 */
(PID.TID 0000.0001)                 1.658018336230896E+00,      /* K = 97 */
(PID.TID 0000.0001)                 1.694094839487546E+00,      /* K = 98 */
(PID.TID 0000.0001)                 1.730956324465319E+00,      /* K = 99 */
(PID.TID 0000.0001)                 1.768619871431060E+00,      /* K =100 */
(PID.TID 0000.0001)                 8.938271592110918E-01       /* K =101 */
(PID.TID 0000.0001)     ;
(PID.TID 0000.0001) drF =   /* W spacing ( units of r ) */
(PID.TID 0000.0001)                 4.377510514381365E+00,      /* K =  1 */
(PID.TID 0000.0001)                 4.284289480560218E+00,      /* K =  2 */
(PID.TID 0000.0001)                 4.193053630125411E+00,      /* K =  3 */
(PID.TID 0000.0001)                 4.103760687713587E+00,      /* K =  4 */
(PID.TID 0000.0001)                 4.016369278234058E+00,      /* K =  5 */
(PID.TID 0000.0001)                 3.930838907697099E+00,      /* K =  6 */
(PID.TID 0000.0001)                 3.847129944450508E+00,      /* K =  7 */
(PID.TID 0000.0001)                 3.765203600815751E+00,      /* K =  8 */
(PID.TID 0000.0001)                 3.685021915115161E+00,      /* K =  9 */
(PID.TID 0000.0001)                 3.606547734081888E+00,      /* K = 10 */
(PID.TID 0000.0001)                 3.529744695644425E+00,      /* K = 11 */
(PID.TID 0000.0001)                 3.454577212077754E+00,      /* K = 12 */
(PID.TID 0000.0001)                 3.381010453513297E+00,      /* K = 13 */
(PID.TID 0000.0001)                 3.309010331800018E+00,      /* K = 14 */
(PID.TID 0000.0001)                 3.238543484709224E+00,      /* K = 15 */
(PID.TID 0000.0001)                 3.169577260475722E+00,      /* K = 16 */
(PID.TID 0000.0001)                 3.102079702668187E+00,      /* K = 17 */
(PID.TID 0000.0001)                 3.036019535381715E+00,      /* K = 18 */
(PID.TID 0000.0001)                 2.971366148745707E+00,      /* K = 19 */
(PID.TID 0000.0001)                 2.908089584740382E+00,      /* K = 20 */
(PID.TID 0000.0001)                 2.846160523315313E+00,      /* K = 21 */
(PID.TID 0000.0001)                 2.785550268803592E+00,      /* K = 22 */
(PID.TID 0000.0001)                 2.726230736625302E+00,      /* K = 23 */
(PID.TID 0000.0001)                 2.668174440274151E+00,      /* K = 24 */
(PID.TID 0000.0001)                 2.611354478581228E+00,      /* K = 25 */
(PID.TID 0000.0001)                 2.555744523249978E+00,      /* K = 26 */
(PID.TID 0000.0001)                 2.501318806656635E+00,      /* K = 27 */
(PID.TID 0000.0001)                 2.448052109910445E+00,      /* K = 28 */
(PID.TID 0000.0001)                 2.395919751168151E+00,      /* K = 29 */
(PID.TID 0000.0001)                 2.344897574197328E+00,      /* K = 30 */
(PID.TID 0000.0001)                 2.294961937183269E+00,      /* K = 31 */
(PID.TID 0000.0001)                 2.246089701774226E+00,      /* K = 32 */
(PID.TID 0000.0001)                 2.198258222359946E+00,      /* K = 33 */
(PID.TID 0000.0001)                 2.151445335578521E+00,      /* K = 34 */
(PID.TID 0000.0001)                 2.105629350046694E+00,      /* K = 35 */
(PID.TID 0000.0001)                 2.060789036308865E+00,      /* K = 36 */
(PID.TID 0000.0001)                 2.016903617000136E+00,      /* K = 37 */
(PID.TID 0000.0001)                 1.973952757218834E+00,      /* K = 38 */
(PID.TID 0000.0001)                 1.931916555104069E+00,      /* K = 39 */
(PID.TID 0000.0001)                 1.890775532613929E+00,      /* K = 40 */
(PID.TID 0000.0001)                 1.850510626500068E+00,      /* K = 41 */
(PID.TID 0000.0001)                 1.811103179474499E+00,      /* K = 42 */
(PID.TID 0000.0001)                 1.772534931564479E+00,      /* K = 43 */
(PID.TID 0000.0001)                 1.734788011651509E+00,      /* K = 44 */
(PID.TID 0000.0001)                 1.697844929190508E+00,      /* K = 45 */
(PID.TID 0000.0001)                 1.661688566105336E+00,      /* K = 46 */
(PID.TID 0000.0001)                 1.626302168856896E+00,      /* K = 47 */
(PID.TID 0000.0001)                 1.591669340680163E+00,      /* K = 48 */
(PID.TID 0000.0001)                 1.557774033986514E+00,      /* K = 49 */
(PID.TID 0000.0001)                 1.524600542927867E+00,      /* K = 50 */
(PID.TID 0000.0001)                 1.492133496119162E+00,      /* K = 51 */
(PID.TID 0000.0001)                 1.460357849515821E+00,      /* K = 52 */
(PID.TID 0000.0001)                 1.429258879442888E+00,      /* K = 53 */
(PID.TID 0000.0001)                 1.398822175772617E+00,      /* K = 54 */
(PID.TID 0000.0001)                 1.369033635247342E+00,      /* K = 55 */
(PID.TID 0000.0001)                 1.339879454944541E+00,      /* K = 56 */
(PID.TID 0000.0001)                 1.311346125881070E+00,      /* K = 57 */
(PID.TID 0000.0001)                 1.283420426753591E+00,      /* K = 58 */
(PID.TID 0000.0001)                 1.256089417812301E+00,      /* K = 59 */
(PID.TID 0000.0001)                 1.229340434865126E+00,      /* K = 60 */
(PID.TID 0000.0001)                 1.203161083409596E+00,      /* K = 61 */
(PID.TID 0000.0001)                 1.177539232889686E+00,      /* K = 62 */
(PID.TID 0000.0001)                 1.152463011074957E+00,      /* K = 63 */
(PID.TID 0000.0001)                 1.127920798559398E+00,      /* K = 64 */
(PID.TID 0000.0001)                 1.103901223377420E+00,      /* K = 65 */
(PID.TID 0000.0001)                 1.080393155734499E+00,      /* K = 66 */
(PID.TID 0000.0001)                 1.057385702850038E+00,      /* K = 67 */
(PID.TID 0000.0001)                 1.034868203910047E+00,      /* K = 68 */
(PID.TID 0000.0001)     4 @  1.000000000000000E+00,             /* K = 69: 72 */
(PID.TID 0000.0001)                 9.997168280068435E-01,      /* K = 73 */
(PID.TID 0000.0001)                 1.021469474894516E+00,      /* K = 74 */
(PID.TID 0000.0001)                 1.043695433457419E+00,      /* K = 75 */
(PID.TID 0000.0001)                 1.066405002393594E+00,      /* K = 76 */
(PID.TID 0000.0001)                 1.089608704488480E+00,      /* K = 77 */
(PID.TID 0000.0001)                 1.113317291490789E+00,      /* K = 78 */
(PID.TID 0000.0001)                 1.137541749094471E+00,      /* K = 79 */
(PID.TID 0000.0001)                 1.162293302029086E+00,      /* K = 80 */
(PID.TID 0000.0001)                 1.187583419260936E+00,      /* K = 81 */
(PID.TID 0000.0001)                 1.213423819307359E+00,      /* K = 82 */
(PID.TID 0000.0001)                 1.239826475666668E+00,      /* K = 83 */
(PID.TID 0000.0001)                 1.266803622366234E+00,      /* K = 84 */
(PID.TID 0000.0001)                 1.294367759631280E+00,      /* K = 85 */
(PID.TID 0000.0001)                 1.322531659677038E+00,      /* K = 86 */
(PID.TID 0000.0001)                 1.351308372626922E+00,      /* K = 87 */
(PID.TID 0000.0001)                 1.380711232559483E+00,      /* K = 88 */
(PID.TID 0000.0001)                 1.410753863686929E+00,      /* K = 89 */
(PID.TID 0000.0001)                 1.441450186668091E+00,      /* K = 90 */
(PID.TID 0000.0001)                 1.472814425058751E+00,      /* K = 91 */
(PID.TID 0000.0001)                 1.504861111902312E+00,      /* K = 92 */
(PID.TID 0000.0001)                 1.537605096463885E+00,      /* K = 93 */
(PID.TID 0000.0001)                 1.571061551110896E+00,      /* K = 94 */
(PID.TID 0000.0001)                 1.605245978343405E+00,      /* K = 95 */
(PID.TID 0000.0001)                 1.640174217977400E+00,      /* K = 96 */
(PID.TID 0000.0001)                 1.675862454484391E+00,      /* K = 97 */
(PID.TID 0000.0001)                 1.712327224490701E+00,      /* K = 98 */
(PID.TID 0000.0001)                 1.749585424439936E+00,      /* K = 99 */
(PID.TID 0000.0001)                 1.787654318422184E+00       /* K =100 */
(PID.TID 0000.0001)     ;
(PID.TID 0000.0001) delX = /* U spacing ( m - cartesian, degrees - spherical ) */
(PID.TID 0000.0001)                 1.263294638016668E+03,      /* I =  1 */
(PID.TID 0000.0001)                 1.237496063806571E+03,      /* I =  2 */
(PID.TID 0000.0001)                 1.212224339320398E+03,      /* I =  3 */
(PID.TID 0000.0001)      . . .
(PID.TID 0000.0001)                 4.790113490274632E+02,      /* I = 48 */
(PID.TID 0000.0001)                 4.692291418815790E+02,      /* I = 49 */
(PID.TID 0000.0001)                 4.596467036489769E+02,      /* I = 50 */
(PID.TID 0000.0001)                 4.502599547167311E+02,      /* I = 51 */
(PID.TID 0000.0001)                 4.410648987843862E+02,      /* I = 52 */
(PID.TID 0000.0001)                 4.320576211625778E+02,      /* I = 53 */
(PID.TID 0000.0001)      . . .
(PID.TID 0000.0001)                 2.000000000000000E+02,      /* I = 98 */
(PID.TID 0000.0001)                 2.000000000000000E+02,      /* I = 99 */
(PID.TID 0000.0001)                 2.000000000000000E+02,      /* I =100 */
(PID.TID 0000.0001)                 2.000000000000000E+02,      /* I =101 */
(PID.TID 0000.0001)                 2.000000000000000E+02,      /* I =102 */
(PID.TID 0000.0001)                 2.000000000000000E+02,      /* I =103 */
(PID.TID 0000.0001)      . . .
(PID.TID 0000.0001)                 3.612641354876311E+02,      /* I =148 */
(PID.TID 0000.0001)                 3.687955530665730E+02,      /* I =149 */
(PID.TID 0000.0001)                 3.764839811128614E+02,      /* I =150 */
(PID.TID 0000.0001)                 3.843326928863569E+02,      /* I =151 */
(PID.TID 0000.0001)                 3.923450298858749E+02,      /* I =152 */
(PID.TID 0000.0001)                 4.005244032717896E+02,      /* I =153 */
(PID.TID 0000.0001)      . . .
(PID.TID 0000.0001)                 1.013599012055986E+03,      /* I =198 */
(PID.TID 0000.0001)                 1.034729915092050E+03,      /* I =199 */
(PID.TID 0000.0001)                 1.056301342495056E+03       /* I =200 */
(PID.TID 0000.0001)     ;
(PID.TID 0000.0001) delY = /* V spacing ( m - cartesian, degrees - spherical ) */
(PID.TID 0000.0001)                 5.000000000000000E+03       /* J =  1 */
(PID.TID 0000.0001)     ;
(PID.TID 0000.0001) xgOrigin = /* X-axis origin of West  edge (cartesian: m, lat-lon: deg) */
(PID.TID 0000.0001)                 0.000000000000000E+00
(PID.TID 0000.0001)     ;
(PID.TID 0000.0001) ygOrigin = /* Y-axis origin of South edge (cartesian: m, lat-lon: deg) */
(PID.TID 0000.0001)                 0.000000000000000E+00
(PID.TID 0000.0001)     ;
(PID.TID 0000.0001) rSphere =  /* Radius ( ignored - cartesian, m - spherical ) */
(PID.TID 0000.0001)                 6.370000000000000E+06
(PID.TID 0000.0001)     ;
(PID.TID 0000.0001) deepAtmosphere = /* Deep/Shallow Atmosphere flag (True/False) */
(PID.TID 0000.0001)                   F
(PID.TID 0000.0001)     ;
(PID.TID 0000.0001) xC =  /* xC(:,1,:,1) : P-point X coord ( deg. or m if cartesian) */
(PID.TID 0000.0001)                 6.316473190083342E+02,      /* I =  1 */
(PID.TID 0000.0001)                 1.882042669919954E+03,      /* I =  2 */
(PID.TID 0000.0001)                 3.106902871483439E+03,      /* I =  3 */
(PID.TID 0000.0001)      . . .
(PID.TID 0000.0001)                 3.864398747251778E+04,      /* I = 48 */
(PID.TID 0000.0001)                 3.911810771797229E+04,      /* I = 49 */
(PID.TID 0000.0001)                 3.958254564073758E+04,      /* I = 50 */
(PID.TID 0000.0001)                 4.003749896992043E+04,      /* I = 51 */
(PID.TID 0000.0001)                 4.048316139667099E+04,      /* I = 52 */
(PID.TID 0000.0001)                 4.091972265664447E+04,      /* I = 53 */
(PID.TID 0000.0001)      . . .
(PID.TID 0000.0001)                 5.369999999999999E+04,      /* I = 98 */
(PID.TID 0000.0001)                 5.389999999999999E+04,      /* I = 99 */
(PID.TID 0000.0001)                 5.409999999999999E+04,      /* I =100 */
(PID.TID 0000.0001)                 5.429999999999999E+04,      /* I =101 */
(PID.TID 0000.0001)                 5.449999999999999E+04,      /* I =102 */
(PID.TID 0000.0001)                 5.469999999999999E+04,      /* I =103 */
(PID.TID 0000.0001)      . . .
(PID.TID 0000.0001)                 6.578505387737689E+04,      /* I =148 */
(PID.TID 0000.0001)                 6.615008372165399E+04,      /* I =149 */
(PID.TID 0000.0001)                 6.652272348874371E+04,      /* I =150 */
(PID.TID 0000.0001)                 6.690313182574332E+04,      /* I =151 */
(PID.TID 0000.0001)                 6.729147068712943E+04,      /* I =152 */
(PID.TID 0000.0001)                 6.768790540370827E+04,      /* I =153 */
(PID.TID 0000.0001)      . . .
(PID.TID 0000.0001)                 9.740216923638493E+04,      /* I =198 */
(PID.TID 0000.0001)                 9.842633369995895E+04,      /* I =199 */
(PID.TID 0000.0001)                 9.947184932875249E+04       /* I =200 */
(PID.TID 0000.0001)     ;
(PID.TID 0000.0001) yC =  /* yC(1,:,1,:) : P-point Y coord ( deg. or m if cartesian) */
(PID.TID 0000.0001)                 2.500000000000000E+03       /* J =  1 */
(PID.TID 0000.0001)     ;
(PID.TID 0000.0001) rcoord = /* P-point R coordinate (  units of r ) */
(PID.TID 0000.0001)                -2.188755257190683E+00,      /* K =  1 */
(PID.TID 0000.0001)                -6.519655254661473E+00,      /* K =  2 */
(PID.TID 0000.0001)                -1.075832681000429E+01,      /* K =  3 */
(PID.TID 0000.0001)                -1.490673396892379E+01,      /* K =  4 */
(PID.TID 0000.0001)                -1.896679895189761E+01,      /* K =  5 */
(PID.TID 0000.0001)                -2.294040304486319E+01,      /* K =  6 */
(PID.TID 0000.0001)                -2.682938747093699E+01,      /* K =  7 */
(PID.TID 0000.0001)                -3.063555424357012E+01,      /* K =  8 */
(PID.TID 0000.0001)                -3.436066700153558E+01,      /* K =  9 */
(PID.TID 0000.0001)                -3.800645182613410E+01,      /* K = 10 */
(PID.TID 0000.0001)                -4.157459804099726E+01,      /* K = 11 */
(PID.TID 0000.0001)                -4.506675899485835E+01,      /* K = 12 */
(PID.TID 0000.0001)                -4.848455282765387E+01,      /* K = 13 */
(PID.TID 0000.0001)                -5.182956322031053E+01,      /* K = 14 */
(PID.TID 0000.0001)                -5.510334012856515E+01,      /* K = 15 */
(PID.TID 0000.0001)                -5.830740050115762E+01,      /* K = 16 */
(PID.TID 0000.0001)                -6.144322898272958E+01,      /* K = 17 */
(PID.TID 0000.0001)                -6.451227860175453E+01,      /* K = 18 */
(PID.TID 0000.0001)                -6.751597144381824E+01,      /* K = 19 */
(PID.TID 0000.0001)                -7.045569931056129E+01,      /* K = 20 */
(PID.TID 0000.0001)                -7.333282436458913E+01,      /* K = 21 */
(PID.TID 0000.0001)                -7.614867976064858E+01,      /* K = 22 */
(PID.TID 0000.0001)                -7.890457026336303E+01,      /* K = 23 */
(PID.TID 0000.0001)                -8.160177285181275E+01,      /* K = 24 */
(PID.TID 0000.0001)                -8.424153731124045E+01,      /* K = 25 */
(PID.TID 0000.0001)                -8.682508681215606E+01,      /* K = 26 */
(PID.TID 0000.0001)                -8.935361847710936E+01,      /* K = 27 */
(PID.TID 0000.0001)                -9.182830393539291E+01,      /* K = 28 */
(PID.TID 0000.0001)                -9.425028986593220E+01,      /* K = 29 */
(PID.TID 0000.0001)                -9.662069852861494E+01,      /* K = 30 */
(PID.TID 0000.0001)                -9.894062828430523E+01,      /* K = 31 */
(PID.TID 0000.0001)                -1.012111541037840E+02,      /* K = 32 */
(PID.TID 0000.0001)                -1.034333280658511E+02,      /* K = 33 */
(PID.TID 0000.0001)                -1.056081798448203E+02,      /* K = 34 */
(PID.TID 0000.0001)                -1.077367171876329E+02,      /* K = 35 */
(PID.TID 0000.0001)                -1.098199263808107E+02,      /* K = 36 */
(PID.TID 0000.0001)                -1.118587727074652E+02,      /* K = 37 */
(PID.TID 0000.0001)                -1.138542008945747E+02,      /* K = 38 */
(PID.TID 0000.0001)                -1.158071355507361E+02,      /* K = 39 */
(PID.TID 0000.0001)                -1.177184815945951E+02,      /* K = 40 */
(PID.TID 0000.0001)                -1.195891246741521E+02,      /* K = 41 */
(PID.TID 0000.0001)                -1.214199315771394E+02,      /* K = 42 */
(PID.TID 0000.0001)                -1.232117506326589E+02,      /* K = 43 */
(PID.TID 0000.0001)                -1.249654121042669E+02,      /* K = 44 */
(PID.TID 0000.0001)                -1.266817285746879E+02,      /* K = 45 */
(PID.TID 0000.0001)                -1.283614953223358E+02,      /* K = 46 */
(PID.TID 0000.0001)                -1.300054906898169E+02,      /* K = 47 */
(PID.TID 0000.0001)                -1.316144764445854E+02,      /* K = 48 */
(PID.TID 0000.0001)                -1.331891981319188E+02,      /* K = 49 */
(PID.TID 0000.0001)                -1.347303854203760E+02,      /* K = 50 */
(PID.TID 0000.0001)                -1.362387524398995E+02,      /* K = 51 */
(PID.TID 0000.0001)                -1.377149981127170E+02,      /* K = 52 */
(PID.TID 0000.0001)                -1.391598064771964E+02,      /* K = 53 */
(PID.TID 0000.0001)                -1.405738470048041E+02,      /* K = 54 */
(PID.TID 0000.0001)                -1.419577749103141E+02,      /* K = 55 */
(PID.TID 0000.0001)                -1.433122314554100E+02,      /* K = 56 */
(PID.TID 0000.0001)                -1.446378442458228E+02,      /* K = 57 */
(PID.TID 0000.0001)                -1.459352275221402E+02,      /* K = 58 */
(PID.TID 0000.0001)                -1.472049824444231E+02,      /* K = 59 */
(PID.TID 0000.0001)                -1.484476973707618E+02,      /* K = 60 */
(PID.TID 0000.0001)                -1.496639481298992E+02,      /* K = 61 */
(PID.TID 0000.0001)                -1.508542982880488E+02,      /* K = 62 */
(PID.TID 0000.0001)                -1.520192994100312E+02,      /* K = 63 */
(PID.TID 0000.0001)                -1.531594913148483E+02,      /* K = 64 */
(PID.TID 0000.0001)                -1.542754023258167E+02,      /* K = 65 */
(PID.TID 0000.0001)                -1.553675495153727E+02,      /* K = 66 */
(PID.TID 0000.0001)                -1.564364389446650E+02,      /* K = 67 */
(PID.TID 0000.0001)                -1.574825658980450E+02,      /* K = 68 */
(PID.TID 0000.0001)                -1.585000000000000E+02,      /* K = 69 */
(PID.TID 0000.0001)                -1.595000000000000E+02,      /* K = 70 */
(PID.TID 0000.0001)                -1.605000000000000E+02,      /* K = 71 */
(PID.TID 0000.0001)                -1.615000000000000E+02,      /* K = 72 */
(PID.TID 0000.0001)                -1.624998584140035E+02,      /* K = 73 */
(PID.TID 0000.0001)                -1.635104515654541E+02,      /* K = 74 */
(PID.TID 0000.0001)                -1.645430340196301E+02,      /* K = 75 */
(PID.TID 0000.0001)                -1.655980842375556E+02,      /* K = 76 */
(PID.TID 0000.0001)                -1.666760910909966E+02,      /* K = 77 */
(PID.TID 0000.0001)                -1.677775540889863E+02,      /* K = 78 */
(PID.TID 0000.0001)                -1.689029836092789E+02,      /* K = 79 */
(PID.TID 0000.0001)                -1.700529011348407E+02,      /* K = 80 */
(PID.TID 0000.0001)                -1.712278394954857E+02,      /* K = 81 */
(PID.TID 0000.0001)                -1.724283431147699E+02,      /* K = 82 */
(PID.TID 0000.0001)                -1.736549682622569E+02,      /* K = 83 */
(PID.TID 0000.0001)                -1.749082833112734E+02,      /* K = 84 */
(PID.TID 0000.0001)                -1.761888690022721E+02,      /* K = 85 */
(PID.TID 0000.0001)                -1.774973187119263E+02,      /* K = 86 */
(PID.TID 0000.0001)                -1.788342387280782E+02,      /* K = 87 */
(PID.TID 0000.0001)                -1.802002485306714E+02,      /* K = 88 */
(PID.TID 0000.0001)                -1.815959810787946E+02,      /* K = 89 */
(PID.TID 0000.0001)                -1.830220831039721E+02,      /* K = 90 */
(PID.TID 0000.0001)                -1.844792154098355E+02,      /* K = 91 */
(PID.TID 0000.0001)                -1.859680531783161E+02,      /* K = 92 */
(PID.TID 0000.0001)                -1.874892862824992E+02,      /* K = 93 */
(PID.TID 0000.0001)                -1.890436196062866E+02,      /* K = 94 */
(PID.TID 0000.0001)                -1.906317733710137E+02,      /* K = 95 */
(PID.TID 0000.0001)                -1.922544834691741E+02,      /* K = 96 */
(PID.TID 0000.0001)                -1.939125018054050E+02,      /* K = 97 */
(PID.TID 0000.0001)                -1.956065966448926E+02,      /* K = 98 */
(PID.TID 0000.0001)                -1.973375529693579E+02,      /* K = 99 */
(PID.TID 0000.0001)                -1.991061728407890E+02       /* K =100 */
(PID.TID 0000.0001)     ;
(PID.TID 0000.0001) rF =   /* W-Interf. R coordinate (  units of r ) */
(PID.TID 0000.0001)                 0.000000000000000E+00,      /* K =  1 */
(PID.TID 0000.0001)                -4.377510514381365E+00,      /* K =  2 */
(PID.TID 0000.0001)                -8.661799994941582E+00,      /* K =  3 */
(PID.TID 0000.0001)                -1.285485362506699E+01,      /* K =  4 */
(PID.TID 0000.0001)                -1.695861431278058E+01,      /* K =  5 */
(PID.TID 0000.0001)                -2.097498359101464E+01,      /* K =  6 */
(PID.TID 0000.0001)                -2.490582249871174E+01,      /* K =  7 */
(PID.TID 0000.0001)                -2.875295244316225E+01,      /* K =  8 */
(PID.TID 0000.0001)                -3.251815604397800E+01,      /* K =  9 */
(PID.TID 0000.0001)                -3.620317795909315E+01,      /* K = 10 */
(PID.TID 0000.0001)                -3.980972569317504E+01,      /* K = 11 */
(PID.TID 0000.0001)                -4.333947038881946E+01,      /* K = 12 */
(PID.TID 0000.0001)                -4.679404760089722E+01,      /* K = 13 */
(PID.TID 0000.0001)                -5.017505805441051E+01,      /* K = 14 */
(PID.TID 0000.0001)                -5.348406838621053E+01,      /* K = 15 */
(PID.TID 0000.0001)                -5.672261187091976E+01,      /* K = 16 */
(PID.TID 0000.0001)                -5.989218913139548E+01,      /* K = 17 */
(PID.TID 0000.0001)                -6.299426883406366E+01,      /* K = 18 */
(PID.TID 0000.0001)                -6.603028836944537E+01,      /* K = 19 */
(PID.TID 0000.0001)                -6.900165451819107E+01,      /* K = 20 */
(PID.TID 0000.0001)                -7.190974410293146E+01,      /* K = 21 */
(PID.TID 0000.0001)                -7.475590462624677E+01,      /* K = 22 */
(PID.TID 0000.0001)                -7.754145489505036E+01,      /* K = 23 */
(PID.TID 0000.0001)                -8.026768563167566E+01,      /* K = 24 */
(PID.TID 0000.0001)                -8.293586007194982E+01,      /* K = 25 */
(PID.TID 0000.0001)                -8.554721455053105E+01,      /* K = 26 */
(PID.TID 0000.0001)                -8.810295907378104E+01,      /* K = 27 */
(PID.TID 0000.0001)                -9.060427788043768E+01,      /* K = 28 */
(PID.TID 0000.0001)                -9.305232999034813E+01,      /* K = 29 */
(PID.TID 0000.0001)                -9.544824974151628E+01,      /* K = 30 */
(PID.TID 0000.0001)                -9.779314731571361E+01,      /* K = 31 */
(PID.TID 0000.0001)                -1.000881092528969E+02,      /* K = 32 */
(PID.TID 0000.0001)                -1.023341989546711E+02,      /* K = 33 */
(PID.TID 0000.0001)                -1.045324571770310E+02,      /* K = 34 */
(PID.TID 0000.0001)                -1.066839025126096E+02,      /* K = 35 */
(PID.TID 0000.0001)                -1.087895318626563E+02,      /* K = 36 */
(PID.TID 0000.0001)                -1.108503208989651E+02,      /* K = 37 */
(PID.TID 0000.0001)                -1.128672245159653E+02,      /* K = 38 */
(PID.TID 0000.0001)                -1.148411772731841E+02,      /* K = 39 */
(PID.TID 0000.0001)                -1.167730938282882E+02,      /* K = 40 */
(PID.TID 0000.0001)                -1.186638693609021E+02,      /* K = 41 */
(PID.TID 0000.0001)                -1.205143799874022E+02,      /* K = 42 */
(PID.TID 0000.0001)                -1.223254831668767E+02,      /* K = 43 */
(PID.TID 0000.0001)                -1.240980180984411E+02,      /* K = 44 */
(PID.TID 0000.0001)                -1.258328061100926E+02,      /* K = 45 */
(PID.TID 0000.0001)                -1.275306510392832E+02,      /* K = 46 */
(PID.TID 0000.0001)                -1.291923396053885E+02,      /* K = 47 */
(PID.TID 0000.0001)                -1.308186417742454E+02,      /* K = 48 */
(PID.TID 0000.0001)                -1.324103111149256E+02,      /* K = 49 */
(PID.TID 0000.0001)                -1.339680851489121E+02,      /* K = 50 */
(PID.TID 0000.0001)                -1.354926856918399E+02,      /* K = 51 */
(PID.TID 0000.0001)                -1.369848191879591E+02,      /* K = 52 */
(PID.TID 0000.0001)                -1.384451770374749E+02,      /* K = 53 */
(PID.TID 0000.0001)                -1.398744359169178E+02,      /* K = 54 */
(PID.TID 0000.0001)                -1.412732580926904E+02,      /* K = 55 */
(PID.TID 0000.0001)                -1.426422917279378E+02,      /* K = 56 */
(PID.TID 0000.0001)                -1.439821711828823E+02,      /* K = 57 */
(PID.TID 0000.0001)                -1.452935173087634E+02,      /* K = 58 */
(PID.TID 0000.0001)                -1.465769377355170E+02,      /* K = 59 */
(PID.TID 0000.0001)                -1.478330271533293E+02,      /* K = 60 */
(PID.TID 0000.0001)                -1.490623675881944E+02,      /* K = 61 */
(PID.TID 0000.0001)                -1.502655286716040E+02,      /* K = 62 */
(PID.TID 0000.0001)                -1.514430679044937E+02,      /* K = 63 */
(PID.TID 0000.0001)                -1.525955309155686E+02,      /* K = 64 */
(PID.TID 0000.0001)                -1.537234517141280E+02,      /* K = 65 */
(PID.TID 0000.0001)                -1.548273529375054E+02,      /* K = 66 */
(PID.TID 0000.0001)                -1.559077460932399E+02,      /* K = 67 */
(PID.TID 0000.0001)                -1.569651317960900E+02,      /* K = 68 */
(PID.TID 0000.0001)                -1.580000000000000E+02,      /* K = 69 */
(PID.TID 0000.0001)                -1.590000000000000E+02,      /* K = 70 */
(PID.TID 0000.0001)                -1.600000000000000E+02,      /* K = 71 */
(PID.TID 0000.0001)                -1.610000000000000E+02,      /* K = 72 */
(PID.TID 0000.0001)                -1.620000000000000E+02,      /* K = 73 */
(PID.TID 0000.0001)                -1.629997168280069E+02,      /* K = 74 */
(PID.TID 0000.0001)                -1.640211863029014E+02,      /* K = 75 */
(PID.TID 0000.0001)                -1.650648817363588E+02,      /* K = 76 */
(PID.TID 0000.0001)                -1.661312867387524E+02,      /* K = 77 */
(PID.TID 0000.0001)                -1.672208954432409E+02,      /* K = 78 */
(PID.TID 0000.0001)                -1.683342127347317E+02,      /* K = 79 */
(PID.TID 0000.0001)                -1.694717544838261E+02,      /* K = 80 */
(PID.TID 0000.0001)                -1.706340477858552E+02,      /* K = 81 */
(PID.TID 0000.0001)                -1.718216312051162E+02,      /* K = 82 */
(PID.TID 0000.0001)                -1.730350550244235E+02,      /* K = 83 */
(PID.TID 0000.0001)                -1.742748815000902E+02,      /* K = 84 */
(PID.TID 0000.0001)                -1.755416851224564E+02,      /* K = 85 */
(PID.TID 0000.0001)                -1.768360528820877E+02,      /* K = 86 */
(PID.TID 0000.0001)                -1.781585845417648E+02,      /* K = 87 */
(PID.TID 0000.0001)                -1.795098929143917E+02,      /* K = 88 */
(PID.TID 0000.0001)                -1.808906041469512E+02,      /* K = 89 */
(PID.TID 0000.0001)                -1.823013580106381E+02,      /* K = 90 */
(PID.TID 0000.0001)                -1.837428081973062E+02,      /* K = 91 */
(PID.TID 0000.0001)                -1.852156226223649E+02,      /* K = 92 */
(PID.TID 0000.0001)                -1.867204837342672E+02,      /* K = 93 */
(PID.TID 0000.0001)                -1.882580888307311E+02,      /* K = 94 */
(PID.TID 0000.0001)                -1.898291503818420E+02,      /* K = 95 */
(PID.TID 0000.0001)                -1.914343963601854E+02,      /* K = 96 */
(PID.TID 0000.0001)                -1.930745705781628E+02,      /* K = 97 */
(PID.TID 0000.0001)                -1.947504330326472E+02,      /* K = 98 */
(PID.TID 0000.0001)                -1.964627602571379E+02,      /* K = 99 */
(PID.TID 0000.0001)                -1.982123456815779E+02,      /* K =100 */
(PID.TID 0000.0001)                -2.000000000000000E+02       /* K =101 */
(PID.TID 0000.0001)     ;
(PID.TID 0000.0001) deepFacC = /* deep-model grid factor @ cell-Center (-) */
(PID.TID 0000.0001)   100 @  1.000000000000000E+00              /* K =  1:100 */
(PID.TID 0000.0001)     ;
(PID.TID 0000.0001) deepFacF = /* deep-model grid factor @ W-Interface (-) */
(PID.TID 0000.0001)   101 @  1.000000000000000E+00              /* K =  1:101 */
(PID.TID 0000.0001)     ;
(PID.TID 0000.0001) rVel2wUnit = /* convert units: rVel -> wSpeed (=1 if z-coord)*/
(PID.TID 0000.0001)   101 @  1.000000000000000E+00              /* K =  1:101 */
(PID.TID 0000.0001)     ;
(PID.TID 0000.0001) wUnit2rVel = /* convert units: wSpeed -> rVel (=1 if z-coord)*/
(PID.TID 0000.0001)   101 @  1.000000000000000E+00              /* K =  1:101 */
(PID.TID 0000.0001)     ;
(PID.TID 0000.0001) dBdrRef = /* Vertical grad. of reference buoyancy [(m/s/r)^2] */
(PID.TID 0000.0001)     6 @  0.000000000000000E+00,             /* K =  1:  6 */
(PID.TID 0000.0001)                 3.375890164712781E-07,      /* K =  7 */
(PID.TID 0000.0001)                 1.142266355880870E-05,      /* K =  8 */
(PID.TID 0000.0001)                 1.421844100865257E-04,      /* K =  9 */
(PID.TID 0000.0001)                 6.510916019715049E-04,      /* K = 10 */
(PID.TID 0000.0001)                 1.096825970326279E-03,      /* K = 11 */
(PID.TID 0000.0001)                 6.797338133188683E-04,      /* K = 12 */
(PID.TID 0000.0001)                 1.549692538253217E-04,      /* K = 13 */
(PID.TID 0000.0001)                 1.299743719420112E-05,      /* K = 14 */
(PID.TID 0000.0001)                 4.010286785761222E-07,      /* K = 15 */
(PID.TID 0000.0001)    85 @  0.000000000000000E+00              /* K = 16:100 */
(PID.TID 0000.0001)     ;
(PID.TID 0000.0001) rotateGrid = /* use rotated grid ( True/False ) */
(PID.TID 0000.0001)                   F
(PID.TID 0000.0001)     ;
(PID.TID 0000.0001) phiEuler = /* Euler angle, rotation about original z-coordinate [rad] */
(PID.TID 0000.0001)                 0.000000000000000E+00
(PID.TID 0000.0001)     ;
(PID.TID 0000.0001) thetaEuler = /* Euler angle, rotation about new x-coordinate [rad] */
(PID.TID 0000.0001)                 0.000000000000000E+00
(PID.TID 0000.0001)     ;
(PID.TID 0000.0001) psiEuler = /* Euler angle, rotation about new z-coordinate [rad] */
(PID.TID 0000.0001)                 0.000000000000000E+00
(PID.TID 0000.0001)     ;
(PID.TID 0000.0001) dxF =  /* dxF(:,1,:,1) ( units: m ) */
(PID.TID 0000.0001)                 1.263294638016668E+03,      /* I =  1 */
(PID.TID 0000.0001)                 1.237496063806571E+03,      /* I =  2 */
(PID.TID 0000.0001)                 1.212224339320398E+03,      /* I =  3 */
(PID.TID 0000.0001)      . . .
(PID.TID 0000.0001)                 4.790113490274632E+02,      /* I = 48 */
(PID.TID 0000.0001)                 4.692291418815790E+02,      /* I = 49 */
(PID.TID 0000.0001)                 4.596467036489769E+02,      /* I = 50 */
(PID.TID 0000.0001)                 4.502599547167311E+02,      /* I = 51 */
(PID.TID 0000.0001)                 4.410648987843862E+02,      /* I = 52 */
(PID.TID 0000.0001)                 4.320576211625778E+02,      /* I = 53 */
(PID.TID 0000.0001)      . . .
(PID.TID 0000.0001)                 2.000000000000000E+02,      /* I = 98 */
(PID.TID 0000.0001)                 2.000000000000000E+02,      /* I = 99 */
(PID.TID 0000.0001)                 2.000000000000000E+02,      /* I =100 */
(PID.TID 0000.0001)                 2.000000000000000E+02,      /* I =101 */
(PID.TID 0000.0001)                 2.000000000000000E+02,      /* I =102 */
(PID.TID 0000.0001)                 2.000000000000000E+02,      /* I =103 */
(PID.TID 0000.0001)      . . .
(PID.TID 0000.0001)                 3.612641354876311E+02,      /* I =148 */
(PID.TID 0000.0001)                 3.687955530665730E+02,      /* I =149 */
(PID.TID 0000.0001)                 3.764839811128614E+02,      /* I =150 */
(PID.TID 0000.0001)                 3.843326928863569E+02,      /* I =151 */
(PID.TID 0000.0001)                 3.923450298858749E+02,      /* I =152 */
(PID.TID 0000.0001)                 4.005244032717896E+02,      /* I =153 */
(PID.TID 0000.0001)      . . .
(PID.TID 0000.0001)                 1.013599012055986E+03,      /* I =198 */
(PID.TID 0000.0001)                 1.034729915092050E+03,      /* I =199 */
(PID.TID 0000.0001)                 1.056301342495056E+03       /* I =200 */
(PID.TID 0000.0001)     ;
(PID.TID 0000.0001) dxF =  /* dxF(1,:,1,:) ( units: m ) */
(PID.TID 0000.0001)                 1.263294638016668E+03       /* J =  1 */
(PID.TID 0000.0001)     ;
(PID.TID 0000.0001) dyF =  /* dyF(:,1,:,1) ( units: m ) */
(PID.TID 0000.0001)   200 @  5.000000000000000E+03              /* I =  1:200 */
(PID.TID 0000.0001)     ;
(PID.TID 0000.0001) dyF =  /* dyF(1,:,1,:) ( units: m ) */
(PID.TID 0000.0001)                 5.000000000000000E+03       /* J =  1 */
(PID.TID 0000.0001)     ;
(PID.TID 0000.0001) dxG =  /* dxG(:,1,:,1) ( units: m ) */
(PID.TID 0000.0001)                 1.263294638016668E+03,      /* I =  1 */
(PID.TID 0000.0001)                 1.237496063806571E+03,      /* I =  2 */
(PID.TID 0000.0001)                 1.212224339320398E+03,      /* I =  3 */
(PID.TID 0000.0001)      . . .
(PID.TID 0000.0001)                 4.790113490274632E+02,      /* I = 48 */
(PID.TID 0000.0001)                 4.692291418815790E+02,      /* I = 49 */
(PID.TID 0000.0001)                 4.596467036489769E+02,      /* I = 50 */
(PID.TID 0000.0001)                 4.502599547167311E+02,      /* I = 51 */
(PID.TID 0000.0001)                 4.410648987843862E+02,      /* I = 52 */
(PID.TID 0000.0001)                 4.320576211625778E+02,      /* I = 53 */
(PID.TID 0000.0001)      . . .
(PID.TID 0000.0001)                 2.000000000000000E+02,      /* I = 98 */
(PID.TID 0000.0001)                 2.000000000000000E+02,      /* I = 99 */
(PID.TID 0000.0001)                 2.000000000000000E+02,      /* I =100 */
(PID.TID 0000.0001)                 2.000000000000000E+02,      /* I =101 */
(PID.TID 0000.0001)                 2.000000000000000E+02,      /* I =102 */
(PID.TID 0000.0001)                 2.000000000000000E+02,      /* I =103 */
(PID.TID 0000.0001)      . . .
(PID.TID 0000.0001)                 3.612641354876311E+02,      /* I =148 */
(PID.TID 0000.0001)                 3.687955530665730E+02,      /* I =149 */
(PID.TID 0000.0001)                 3.764839811128614E+02,      /* I =150 */
(PID.TID 0000.0001)                 3.843326928863569E+02,      /* I =151 */
(PID.TID 0000.0001)                 3.923450298858749E+02,      /* I =152 */
(PID.TID 0000.0001)                 4.005244032717896E+02,      /* I =153 */
(PID.TID 0000.0001)      . . .
(PID.TID 0000.0001)                 1.013599012055986E+03,      /* I =198 */
(PID.TID 0000.0001)                 1.034729915092050E+03,      /* I =199 */
(PID.TID 0000.0001)                 1.056301342495056E+03       /* I =200 */
(PID.TID 0000.0001)     ;
(PID.TID 0000.0001) dxG =  /* dxG(1,:,1,:) ( units: m ) */
(PID.TID 0000.0001)                 1.263294638016668E+03       /* J =  1 */
(PID.TID 0000.0001)     ;
(PID.TID 0000.0001) dyG =  /* dyG(:,1,:,1) ( units: m ) */
(PID.TID 0000.0001)   200 @  5.000000000000000E+03              /* I =  1:200 */
(PID.TID 0000.0001)     ;
(PID.TID 0000.0001) dyG =  /* dyG(1,:,1,:) ( units: m ) */
(PID.TID 0000.0001)                 5.000000000000000E+03       /* J =  1 */
(PID.TID 0000.0001)     ;
(PID.TID 0000.0001) dxC =  /* dxC(:,1,:,1) ( units: m ) */
(PID.TID 0000.0001)                 1.159797990255862E+03,      /* I =  1 */
(PID.TID 0000.0001)                 1.250395350911620E+03,      /* I =  2 */
(PID.TID 0000.0001)                 1.224860201563485E+03,      /* I =  3 */
(PID.TID 0000.0001)      . . .
(PID.TID 0000.0001)                 4.840044193881684E+02,      /* I = 48 */
(PID.TID 0000.0001)                 4.741202454545211E+02,      /* I = 49 */
(PID.TID 0000.0001)                 4.644379227652780E+02,      /* I = 50 */
(PID.TID 0000.0001)                 4.549533291828540E+02,      /* I = 51 */
(PID.TID 0000.0001)                 4.456624267505587E+02,      /* I = 52 */
(PID.TID 0000.0001)                 4.365612599734820E+02,      /* I = 53 */
(PID.TID 0000.0001)      . . .
(PID.TID 0000.0001)                 2.000000000000000E+02,      /* I = 98 */
(PID.TID 0000.0001)                 2.000000000000000E+02,      /* I = 99 */
(PID.TID 0000.0001)                 2.000000000000000E+02,      /* I =100 */
(PID.TID 0000.0001)                 2.000000000000000E+02,      /* I =101 */
(PID.TID 0000.0001)                 2.000000000000000E+02,      /* I =102 */
(PID.TID 0000.0001)                 2.000000000000000E+02,      /* I =103 */
(PID.TID 0000.0001)      . . .
(PID.TID 0000.0001)                 3.575753287246037E+02,      /* I =148 */
(PID.TID 0000.0001)                 3.650298442771020E+02,      /* I =149 */
(PID.TID 0000.0001)                 3.726397670897172E+02,      /* I =150 */
(PID.TID 0000.0001)                 3.804083369996092E+02,      /* I =151 */
(PID.TID 0000.0001)                 3.883388613861159E+02,      /* I =152 */
(PID.TID 0000.0001)                 3.964347165788323E+02,      /* I =153 */
(PID.TID 0000.0001)      . . .
(PID.TID 0000.0001)                 1.003249324601893E+03,      /* I =198 */
(PID.TID 0000.0001)                 1.024164463574018E+03,      /* I =199 */
(PID.TID 0000.0001)                 1.045515628793553E+03       /* I =200 */
(PID.TID 0000.0001)     ;
(PID.TID 0000.0001) dxC =  /* dxC(1,:,1,:) ( units: m ) */
(PID.TID 0000.0001)                 1.159797990255862E+03       /* J =  1 */
(PID.TID 0000.0001)     ;
(PID.TID 0000.0001) dyC =  /* dyC(:,1,:,1) ( units: m ) */
(PID.TID 0000.0001)   200 @  5.000000000000000E+03              /* I =  1:200 */
(PID.TID 0000.0001)     ;
(PID.TID 0000.0001) dyC =  /* dyC(1,:,1,:) ( units: m ) */
(PID.TID 0000.0001)                 5.000000000000000E+03       /* J =  1 */
(PID.TID 0000.0001)     ;
(PID.TID 0000.0001) dxV =  /* dxV(:,1,:,1) ( units: m ) */
(PID.TID 0000.0001)                 1.159797990255862E+03,      /* I =  1 */
(PID.TID 0000.0001)                 1.250395350911620E+03,      /* I =  2 */
(PID.TID 0000.0001)                 1.224860201563485E+03,      /* I =  3 */
(PID.TID 0000.0001)      . . .
(PID.TID 0000.0001)                 4.840044193881684E+02,      /* I = 48 */
(PID.TID 0000.0001)                 4.741202454545211E+02,      /* I = 49 */
(PID.TID 0000.0001)                 4.644379227652780E+02,      /* I = 50 */
(PID.TID 0000.0001)                 4.549533291828540E+02,      /* I = 51 */
(PID.TID 0000.0001)                 4.456624267505587E+02,      /* I = 52 */
(PID.TID 0000.0001)                 4.365612599734820E+02,      /* I = 53 */
(PID.TID 0000.0001)      . . .
(PID.TID 0000.0001)                 2.000000000000000E+02,      /* I = 98 */
(PID.TID 0000.0001)                 2.000000000000000E+02,      /* I = 99 */
(PID.TID 0000.0001)                 2.000000000000000E+02,      /* I =100 */
(PID.TID 0000.0001)                 2.000000000000000E+02,      /* I =101 */
(PID.TID 0000.0001)                 2.000000000000000E+02,      /* I =102 */
(PID.TID 0000.0001)                 2.000000000000000E+02,      /* I =103 */
(PID.TID 0000.0001)      . . .
(PID.TID 0000.0001)                 3.575753287246037E+02,      /* I =148 */
(PID.TID 0000.0001)                 3.650298442771020E+02,      /* I =149 */
(PID.TID 0000.0001)                 3.726397670897172E+02,      /* I =150 */
(PID.TID 0000.0001)                 3.804083369996092E+02,      /* I =151 */
(PID.TID 0000.0001)                 3.883388613861159E+02,      /* I =152 */
(PID.TID 0000.0001)                 3.964347165788323E+02,      /* I =153 */
(PID.TID 0000.0001)      . . .
(PID.TID 0000.0001)                 1.003249324601893E+03,      /* I =198 */
(PID.TID 0000.0001)                 1.024164463574018E+03,      /* I =199 */
(PID.TID 0000.0001)                 1.045515628793553E+03       /* I =200 */
(PID.TID 0000.0001)     ;
(PID.TID 0000.0001) dxV =  /* dxV(1,:,1,:) ( units: m ) */
(PID.TID 0000.0001)                 1.159797990255862E+03       /* J =  1 */
(PID.TID 0000.0001)     ;
(PID.TID 0000.0001) dyU =  /* dyU(:,1,:,1) ( units: m ) */
(PID.TID 0000.0001)   200 @  5.000000000000000E+03              /* I =  1:200 */
(PID.TID 0000.0001)     ;
(PID.TID 0000.0001) dyU =  /* dyU(1,:,1,:) ( units: m ) */
(PID.TID 0000.0001)                 5.000000000000000E+03       /* J =  1 */
(PID.TID 0000.0001)     ;
(PID.TID 0000.0001) rA  =  /* rA (:,1,:,1) ( units: m^2 ) */
(PID.TID 0000.0001)                 6.316473190083342E+06,      /* I =  1 */
(PID.TID 0000.0001)                 6.187480319032855E+06,      /* I =  2 */
(PID.TID 0000.0001)                 6.061121696601991E+06,      /* I =  3 */
(PID.TID 0000.0001)      . . .
(PID.TID 0000.0001)                 2.395056745137316E+06,      /* I = 48 */
(PID.TID 0000.0001)                 2.346145709407895E+06,      /* I = 49 */
(PID.TID 0000.0001)                 2.298233518244884E+06,      /* I = 50 */
(PID.TID 0000.0001)                 2.251299773583656E+06,      /* I = 51 */
(PID.TID 0000.0001)                 2.205324493921931E+06,      /* I = 52 */
(PID.TID 0000.0001)                 2.160288105812889E+06,      /* I = 53 */
(PID.TID 0000.0001)      . . .
(PID.TID 0000.0001)                 1.000000000000000E+06,      /* I = 98 */
(PID.TID 0000.0001)                 1.000000000000000E+06,      /* I = 99 */
(PID.TID 0000.0001)                 1.000000000000000E+06,      /* I =100 */
(PID.TID 0000.0001)                 1.000000000000000E+06,      /* I =101 */
(PID.TID 0000.0001)                 1.000000000000000E+06,      /* I =102 */
(PID.TID 0000.0001)                 1.000000000000000E+06,      /* I =103 */
(PID.TID 0000.0001)      . . .
(PID.TID 0000.0001)                 1.806320677438155E+06,      /* I =148 */
(PID.TID 0000.0001)                 1.843977765332865E+06,      /* I =149 */
(PID.TID 0000.0001)                 1.882419905564307E+06,      /* I =150 */
(PID.TID 0000.0001)                 1.921663464431785E+06,      /* I =151 */
(PID.TID 0000.0001)                 1.961725149429375E+06,      /* I =152 */
(PID.TID 0000.0001)                 2.002622016358948E+06,      /* I =153 */
(PID.TID 0000.0001)      . . .
(PID.TID 0000.0001)                 5.067995060279928E+06,      /* I =198 */
(PID.TID 0000.0001)                 5.173649575460250E+06,      /* I =199 */
(PID.TID 0000.0001)                 5.281506712475282E+06       /* I =200 */
(PID.TID 0000.0001)     ;
(PID.TID 0000.0001) rA  =  /* rA (1,:,1,:) ( units: m^2 ) */
(PID.TID 0000.0001)                 6.316473190083342E+06       /* J =  1 */
(PID.TID 0000.0001)     ;
(PID.TID 0000.0001) rAw =  /* rAw(:,1,:,1) ( units: m^2 ) */
(PID.TID 0000.0001)                 5.798989951279311E+06,      /* I =  1 */
(PID.TID 0000.0001)                 6.251976754558099E+06,      /* I =  2 */
(PID.TID 0000.0001)                 6.124301007817423E+06,      /* I =  3 */
(PID.TID 0000.0001)      . . .
(PID.TID 0000.0001)                 2.420022096940842E+06,      /* I = 48 */
(PID.TID 0000.0001)                 2.370601227272606E+06,      /* I = 49 */
(PID.TID 0000.0001)                 2.322189613826390E+06,      /* I = 50 */
(PID.TID 0000.0001)                 2.274766645914270E+06,      /* I = 51 */
(PID.TID 0000.0001)                 2.228312133752794E+06,      /* I = 52 */
(PID.TID 0000.0001)                 2.182806299867410E+06,      /* I = 53 */
(PID.TID 0000.0001)      . . .
(PID.TID 0000.0001)                 1.000000000000000E+06,      /* I = 98 */
(PID.TID 0000.0001)                 1.000000000000000E+06,      /* I = 99 */
(PID.TID 0000.0001)                 1.000000000000000E+06,      /* I =100 */
(PID.TID 0000.0001)                 1.000000000000000E+06,      /* I =101 */
(PID.TID 0000.0001)                 1.000000000000000E+06,      /* I =102 */
(PID.TID 0000.0001)                 1.000000000000000E+06,      /* I =103 */
(PID.TID 0000.0001)      . . .
(PID.TID 0000.0001)                 1.787876643623018E+06,      /* I =148 */
(PID.TID 0000.0001)                 1.825149221385510E+06,      /* I =149 */
(PID.TID 0000.0001)                 1.863198835448586E+06,      /* I =150 */
(PID.TID 0000.0001)                 1.902041684998046E+06,      /* I =151 */
(PID.TID 0000.0001)                 1.941694306930580E+06,      /* I =152 */
(PID.TID 0000.0001)                 1.982173582894161E+06,      /* I =153 */
(PID.TID 0000.0001)      . . .
(PID.TID 0000.0001)                 5.016246623009465E+06,      /* I =198 */
(PID.TID 0000.0001)                 5.120822317870088E+06,      /* I =199 */
(PID.TID 0000.0001)                 5.227578143967765E+06       /* I =200 */
(PID.TID 0000.0001)     ;
(PID.TID 0000.0001) rAw =  /* rAw(1,:,1,:) ( units: m^2 ) */
(PID.TID 0000.0001)                 5.798989951279311E+06       /* J =  1 */
(PID.TID 0000.0001)     ;
(PID.TID 0000.0001) rAs =  /* rAs(:,1,:,1) ( units: m^2 ) */
(PID.TID 0000.0001)                 6.316473190083342E+06,      /* I =  1 */
(PID.TID 0000.0001)                 6.187480319032855E+06,      /* I =  2 */
(PID.TID 0000.0001)                 6.061121696601991E+06,      /* I =  3 */
(PID.TID 0000.0001)      . . .
(PID.TID 0000.0001)                 2.395056745137316E+06,      /* I = 48 */
(PID.TID 0000.0001)                 2.346145709407895E+06,      /* I = 49 */
(PID.TID 0000.0001)                 2.298233518244884E+06,      /* I = 50 */
(PID.TID 0000.0001)                 2.251299773583656E+06,      /* I = 51 */
(PID.TID 0000.0001)                 2.205324493921931E+06,      /* I = 52 */
(PID.TID 0000.0001)                 2.160288105812889E+06,      /* I = 53 */
(PID.TID 0000.0001)      . . .
(PID.TID 0000.0001)                 1.000000000000000E+06,      /* I = 98 */
(PID.TID 0000.0001)                 1.000000000000000E+06,      /* I = 99 */
(PID.TID 0000.0001)                 1.000000000000000E+06,      /* I =100 */
(PID.TID 0000.0001)                 1.000000000000000E+06,      /* I =101 */
(PID.TID 0000.0001)                 1.000000000000000E+06,      /* I =102 */
(PID.TID 0000.0001)                 1.000000000000000E+06,      /* I =103 */
(PID.TID 0000.0001)      . . .
(PID.TID 0000.0001)                 1.806320677438155E+06,      /* I =148 */
(PID.TID 0000.0001)                 1.843977765332865E+06,      /* I =149 */
(PID.TID 0000.0001)                 1.882419905564307E+06,      /* I =150 */
(PID.TID 0000.0001)                 1.921663464431785E+06,      /* I =151 */
(PID.TID 0000.0001)                 1.961725149429375E+06,      /* I =152 */
(PID.TID 0000.0001)                 2.002622016358948E+06,      /* I =153 */
(PID.TID 0000.0001)      . . .
(PID.TID 0000.0001)                 5.067995060279928E+06,      /* I =198 */
(PID.TID 0000.0001)                 5.173649575460250E+06,      /* I =199 */
(PID.TID 0000.0001)                 5.281506712475282E+06       /* I =200 */
(PID.TID 0000.0001)     ;
(PID.TID 0000.0001) rAs =  /* rAs(1,:,1,:) ( units: m^2 ) */
(PID.TID 0000.0001)                 6.316473190083342E+06       /* J =  1 */
(PID.TID 0000.0001)     ;
(PID.TID 0000.0001) globalArea = /* Integrated horizontal Area (m^2) */
(PID.TID 0000.0001)                 4.884020200974414E+08
(PID.TID 0000.0001)     ;
(PID.TID 0000.0001) // =======================================================
(PID.TID 0000.0001) // End of Model config. summary
(PID.TID 0000.0001) // =======================================================
(PID.TID 0000.0001) 
(PID.TID 0000.0001) == Packages configuration : Check & print summary ==
(PID.TID 0000.0001) 
(PID.TID 0000.0001) OBCS_CHECK: #define ALLOW_OBCS
(PID.TID 0000.0001) OBCS_CHECK: start summary:
(PID.TID 0000.0001) useOBCSprescribe = /* prescribe OB values */
(PID.TID 0000.0001)                   T
(PID.TID 0000.0001)     ;
(PID.TID 0000.0001) useOBCSbalance = /* balance the flow through OB */
(PID.TID 0000.0001)                   F
(PID.TID 0000.0001)     ;
(PID.TID 0000.0001) OBCS_uvApplyFac = /* Factor to apply to U,V 2nd column/row */
(PID.TID 0000.0001)                 1.000000000000000E+00
(PID.TID 0000.0001)     ;
(PID.TID 0000.0001) OBCS_u1_adv_T = /* Temp uses upwind adv-scheme @ OB */
(PID.TID 0000.0001)                       0
(PID.TID 0000.0001)     ;
(PID.TID 0000.0001) OBCS_u1_adv_S = /* Salt uses upwind adv-scheme @ OB */
(PID.TID 0000.0001)                       0
(PID.TID 0000.0001)     ;
(PID.TID 0000.0001) OBCS_monitorFreq = /* monitor output frequency [s] */
(PID.TID 0000.0001)                 7.200000000000000E+03
(PID.TID 0000.0001)     ;
(PID.TID 0000.0001) OBCS_monSelect = /* select group of variables to monitor */
(PID.TID 0000.0001)                       0
(PID.TID 0000.0001)     ;
(PID.TID 0000.0001) useOBCStides = /* apply tidal forcing through OB */
(PID.TID 0000.0001)                   F
(PID.TID 0000.0001)     ;
(PID.TID 0000.0001) tidalPeriod = /* (s) */
(PID.TID 0000.0001)    10 @  0.000000000000000E+00              /* I =  1: 10 */
(PID.TID 0000.0001)     ;
(PID.TID 0000.0001) OB_indexNone = /* null value for OB index (i.e. no OB) */
(PID.TID 0000.0001)                     -99
(PID.TID 0000.0001)     ;
(PID.TID 0000.0001) ======== Tile bi=   1 , bj=   1 ========
(PID.TID 0000.0001)  OB_Jn = /* Northern OB local indices */
(PID.TID 0000.0001)   204 @      -99                            /* I = -1:202 */
(PID.TID 0000.0001)  OB_Js = /* Southern OB local indices */
(PID.TID 0000.0001)   204 @      -99                            /* I = -1:202 */
(PID.TID 0000.0001)  OB_Ie = /* Eastern OB local indices */
(PID.TID 0000.0001)     5 @      200                            /* J = -1:  3 */
(PID.TID 0000.0001)  OB_Iw = /* Western OB local indices */
(PID.TID 0000.0001)     5 @        1                            /* J = -1:  3 */
(PID.TID 0000.0001) OBCS_CHECK: end summary.
(PID.TID 0000.0001) OBCS_CHECK: set-up OK
(PID.TID 0000.0001) OBCS_CHECK: check Inside Mask and OB locations: OK
(PID.TID 0000.0001) KL10_CHECK: #define ALLOW_KL10
(PID.TID 0000.0001) GAD_CHECK: #define ALLOW_GENERIC_ADVDIFF
(PID.TID 0000.0001) // =======================================================
(PID.TID 0000.0001) // Check Model config. (CONFIG_CHECK):
(PID.TID 0000.0001) // CONFIG_CHECK : Normal End
(PID.TID 0000.0001) // =======================================================
(PID.TID 0000.0001) 
(PID.TID 0000.0001)  MDS_READ_FIELD: opening global file: U0.bin
(PID.TID 0000.0001)  MDS_READ_FIELD: opening global file: T0.bin
(PID.TID 0000.0001) Start initial hydrostatic pressure computation
(PID.TID 0000.0001) Pressure is predetermined for buoyancyRelation OCEANIC
(PID.TID 0000.0001) 
(PID.TID 0000.0001)  OBCS_FIELDS_LOAD: Reading initial data:         0  0.000000000000E+00
(PID.TID 0000.0001)  MDS_READ_SEC_YZ: opening global file: U_in.bin
(PID.TID 0000.0001)  MDS_READ_SEC_YZ: opening global file: TE.bin
(PID.TID 0000.0001)  MDS_READ_SEC_YZ: opening global file: U_in.bin
(PID.TID 0000.0001)  MDS_READ_SEC_YZ: opening global file: TW.bin
(PID.TID 0000.0001) // =======================================================
(PID.TID 0000.0001) // Model current state
(PID.TID 0000.0001) // =======================================================
(PID.TID 0000.0001) 
(PID.TID 0000.0001) // =======================================================
(PID.TID 0000.0001) // Begin MONITOR dynamic field statistics
(PID.TID 0000.0001) // =======================================================
(PID.TID 0000.0001) %MON time_tsnumber                =                     0
(PID.TID 0000.0001) %MON time_secondsf                =   0.0000000000000E+00
(PID.TID 0000.0001) %MON dynstat_eta_max              =   0.0000000000000E+00
(PID.TID 0000.0001) %MON dynstat_eta_min              =   0.0000000000000E+00
(PID.TID 0000.0001) %MON dynstat_eta_mean             =   0.0000000000000E+00
(PID.TID 0000.0001) %MON dynstat_eta_sd               =   0.0000000000000E+00
(PID.TID 0000.0001) %MON dynstat_eta_del2             =   0.0000000000000E+00
(PID.TID 0000.0001) %MON dynstat_uvel_max             =   1.1205712828732E-01
(PID.TID 0000.0001) %MON dynstat_uvel_min             =   1.1205712828732E-01
(PID.TID 0000.0001) %MON dynstat_uvel_mean            =   1.1205712828732E-01
(PID.TID 0000.0001) %MON dynstat_uvel_sd              =   1.6098233857065E-15
(PID.TID 0000.0001) %MON dynstat_uvel_del2            =   0.0000000000000E+00
(PID.TID 0000.0001) %MON dynstat_vvel_max             =   0.0000000000000E+00
(PID.TID 0000.0001) %MON dynstat_vvel_min             =   0.0000000000000E+00
(PID.TID 0000.0001) %MON dynstat_vvel_mean            =   0.0000000000000E+00
(PID.TID 0000.0001) %MON dynstat_vvel_sd              =   0.0000000000000E+00
(PID.TID 0000.0001) %MON dynstat_vvel_del2            =   0.0000000000000E+00
(PID.TID 0000.0001) %MON dynstat_wvel_max             =   1.3679769625783E-03
(PID.TID 0000.0001) %MON dynstat_wvel_min             =  -1.3679769625783E-03
(PID.TID 0000.0001) %MON dynstat_wvel_mean            =   1.2679333408354E-21
(PID.TID 0000.0001) %MON dynstat_wvel_sd              =   2.8231732208752E-04
(PID.TID 0000.0001) %MON dynstat_wvel_del2            =   3.1271089594835E-07
(PID.TID 0000.0001) %MON dynstat_theta_max            =   1.5000000000000E+01
(PID.TID 0000.0001) %MON dynstat_theta_min            =   1.0000000000000E+01
(PID.TID 0000.0001) %MON dynstat_theta_mean           =   1.1004811744065E+01
(PID.TID 0000.0001) %MON dynstat_theta_sd             =   1.9418977513440E+00
(PID.TID 0000.0001) %MON dynstat_theta_del2           =   0.0000000000000E+00
(PID.TID 0000.0001) %MON dynstat_salt_max             =   3.5000000000000E+01
(PID.TID 0000.0001) %MON dynstat_salt_min             =   3.5000000000000E+01
(PID.TID 0000.0001) %MON dynstat_salt_mean            =   3.5000000000000E+01
(PID.TID 0000.0001) %MON dynstat_salt_sd              =   4.0500935938326E-13
(PID.TID 0000.0001) %MON dynstat_salt_del2            =   0.0000000000000E+00
(PID.TID 0000.0001) %MON dynstat_sst_max              =   1.5000000000000E+01
(PID.TID 0000.0001) %MON dynstat_sst_min              =   1.5000000000000E+01
(PID.TID 0000.0001) %MON dynstat_sst_mean             =   1.5000000000000E+01
(PID.TID 0000.0001) %MON dynstat_sst_sd               =   5.3290705182008E-15
(PID.TID 0000.0001) %MON dynstat_sst_del2             =   0.0000000000000E+00
(PID.TID 0000.0001) %MON dynstat_sss_max              =   3.5000000000000E+01
(PID.TID 0000.0001) %MON dynstat_sss_min              =   3.5000000000000E+01
(PID.TID 0000.0001) %MON dynstat_sss_mean             =   3.5000000000000E+01
(PID.TID 0000.0001) %MON dynstat_sss_sd               =   4.2632564145606E-14
(PID.TID 0000.0001) %MON dynstat_sss_del2             =   0.0000000000000E+00
(PID.TID 0000.0001) %MON forcing_qnet_max             =   0.0000000000000E+00
(PID.TID 0000.0001) %MON forcing_qnet_min             =   0.0000000000000E+00
(PID.TID 0000.0001) %MON forcing_qnet_mean            =   0.0000000000000E+00
(PID.TID 0000.0001) %MON forcing_qnet_sd              =   0.0000000000000E+00
(PID.TID 0000.0001) %MON forcing_qnet_del2            =   0.0000000000000E+00
(PID.TID 0000.0001) %MON forcing_qsw_max              =   0.0000000000000E+00
(PID.TID 0000.0001) %MON forcing_qsw_min              =   0.0000000000000E+00
(PID.TID 0000.0001) %MON forcing_qsw_mean             =   0.0000000000000E+00
(PID.TID 0000.0001) %MON forcing_qsw_sd               =   0.0000000000000E+00
(PID.TID 0000.0001) %MON forcing_qsw_del2             =   0.0000000000000E+00
(PID.TID 0000.0001) %MON forcing_empmr_max            =   0.0000000000000E+00
(PID.TID 0000.0001) %MON forcing_empmr_min            =   0.0000000000000E+00
(PID.TID 0000.0001) %MON forcing_empmr_mean           =   0.0000000000000E+00
(PID.TID 0000.0001) %MON forcing_empmr_sd             =   0.0000000000000E+00
(PID.TID 0000.0001) %MON forcing_empmr_del2           =   0.0000000000000E+00
(PID.TID 0000.0001) %MON forcing_fu_max               =   0.0000000000000E+00
(PID.TID 0000.0001) %MON forcing_fu_min               =   0.0000000000000E+00
(PID.TID 0000.0001) %MON forcing_fu_mean              =   0.0000000000000E+00
(PID.TID 0000.0001) %MON forcing_fu_sd                =   0.0000000000000E+00
(PID.TID 0000.0001) %MON forcing_fu_del2              =   0.0000000000000E+00
(PID.TID 0000.0001) %MON forcing_fv_max               =   0.0000000000000E+00
(PID.TID 0000.0001) %MON forcing_fv_min               =   0.0000000000000E+00
(PID.TID 0000.0001) %MON forcing_fv_mean              =   0.0000000000000E+00
(PID.TID 0000.0001) %MON forcing_fv_sd                =   0.0000000000000E+00
(PID.TID 0000.0001) %MON forcing_fv_del2              =   0.0000000000000E+00
(PID.TID 0000.0001) %MON advcfl_uvel_max              =   8.4042846215487E-03
(PID.TID 0000.0001) %MON advcfl_vvel_max              =   0.0000000000000E+00
(PID.TID 0000.0001) %MON advcfl_wvel_max              =   2.0522560145805E-02
(PID.TID 0000.0001) %MON advcfl_W_hf_max              =   2.0525466675984E-02
(PID.TID 0000.0001) %MON pe_b_mean                    =   0.0000000000000E+00
(PID.TID 0000.0001) %MON ke_max                       =   6.3220842996666E-03
(PID.TID 0000.0001) %MON ke_mean                      =   6.2764214151367E-03
(PID.TID 0000.0001) %MON ke_vol                       =   9.6656886657870E+10
(PID.TID 0000.0001) %MON vort_r_min                   =   0.0000000000000E+00
(PID.TID 0000.0001) %MON vort_r_max                   =   0.0000000000000E+00
(PID.TID 0000.0001) %MON vort_a_mean                  =   0.0000000000000E+00
(PID.TID 0000.0001) %MON vort_a_sd                    =   0.0000000000000E+00
(PID.TID 0000.0001) %MON vort_p_mean                  =   0.0000000000000E+00
(PID.TID 0000.0001) %MON vort_p_sd                    =   0.0000000000000E+00
(PID.TID 0000.0001) %MON surfExpan_theta_mean         =   8.9366146582551E-20
(PID.TID 0000.0001) %MON surfExpan_salt_mean          =   3.2140981002299E-20
(PID.TID 0000.0001) // =======================================================
(PID.TID 0000.0001) // End MONITOR dynamic field statistics
(PID.TID 0000.0001) // =======================================================
(PID.TID 0000.0001) // =======================================================
(PID.TID 0000.0001) // Begin OBCS MONITOR field statistics
(PID.TID 0000.0001) // =======================================================
(PID.TID 0000.0001) %MON obc_E_uVel_max               =   1.1205712828732E-01
(PID.TID 0000.0001) %MON obc_E_uVel_min               =   1.1205712828732E-01
(PID.TID 0000.0001) %MON obc_E_uVel_mean              =   1.1205712828732E-01
(PID.TID 0000.0001) %MON obc_E_uVel_sd                =  -1.2143064331838E-17
(PID.TID 0000.0001) %MON obc_E_uVel_Int               =   1.1205712828732E+05
(PID.TID 0000.0001) %MON obc_W_uVel_max               =   1.1205712828732E-01
(PID.TID 0000.0001) %MON obc_W_uVel_min               =   1.1205712828732E-01
(PID.TID 0000.0001) %MON obc_W_uVel_mean              =   1.1205712828732E-01
(PID.TID 0000.0001) %MON obc_W_uVel_sd                =  -1.2143064331838E-17
(PID.TID 0000.0001) %MON obc_W_uVel_Int               =   1.1205712828732E+05
(PID.TID 0000.0001) // =======================================================
(PID.TID 0000.0001) // End OBCS MONITOR field statistics
(PID.TID 0000.0001) // =======================================================
(PID.TID 0000.0001) SOLVE_FOR_PRESSURE: putPmEinXvector =    F
 cg2d: Sum(rhs),rhsMax =  -2.52289831913853E-15  1.90552965730562E-02
 cg2d: Sum(rhs),rhsMax =  -2.78676848478755E-14  3.22764928885942E-02
 cg2d: Sum(rhs),rhsMax =   2.56960524756618E-16  4.07982904055395E-02
 cg2d: Sum(rhs),rhsMax =   4.49701848458578E-14  4.59056103811676E-02
 cg2d: Sum(rhs),rhsMax =   1.47611516189542E-13  4.88539121088729E-02
 cg2d: Sum(rhs),rhsMax =   2.56158097576835E-13  5.07625260049808E-02
 cg2d: Sum(rhs),rhsMax =   3.11865694714159E-13  5.21686137907605E-02
 cg2d: Sum(rhs),rhsMax =   3.61375135016360E-13  5.34393660844753E-02
 cg2d: Sum(rhs),rhsMax =   4.75259425819155E-13  5.46807851124762E-02
 cg2d: Sum(rhs),rhsMax =   5.95655772922071E-13  5.58520430974366E-02
 cg2d: Sum(rhs),rhsMax =   7.17492903341663E-13  5.69902401270305E-02
 cg2d: Sum(rhs),rhsMax =   5.92915615157010E-13  5.81362383167503E-02
 cg2d: Sum(rhs),rhsMax =   5.25330357088781E-13  5.92715891449576E-02
 cg2d: Sum(rhs),rhsMax =   4.11756179566649E-13  6.04121457166774E-02
 cg2d: Sum(rhs),rhsMax =   2.48483012861582E-13  6.15582802846240E-02
 cg2d: Sum(rhs),rhsMax =   1.90294504939380E-13  6.26781312338038E-02
 cg2d: Sum(rhs),rhsMax =   1.39643026492572E-13  6.37349593677023E-02
 cg2d: Sum(rhs),rhsMax =   1.49098943200219E-13  6.47382351466356E-02
 cg2d: Sum(rhs),rhsMax =   5.30433377330309E-14  6.58653840988748E-02
 cg2d: Sum(rhs),rhsMax =   1.03146395513126E-13  6.68215822566350E-02
 cg2d: Sum(rhs),rhsMax =  -8.26091719935597E-15  6.79140335240183E-02
 cg2d: Sum(rhs),rhsMax =  -2.21145988730080E-14  6.88289717579042E-02
 cg2d: Sum(rhs),rhsMax =   9.41047398295002E-14  6.99198274014534E-02
 cg2d: Sum(rhs),rhsMax =   2.21369321407420E-13  7.08261723090839E-02
 cg2d: Sum(rhs),rhsMax =   2.44185664577916E-13  7.18235051257682E-02
 cg2d: Sum(rhs),rhsMax =   2.70833948379373E-13  7.28297322020533E-02
 cg2d: Sum(rhs),rhsMax =   3.49786751619547E-13  7.37237433719169E-02
 cg2d: Sum(rhs),rhsMax =   4.98342410004980E-13  7.45735041264982E-02
 cg2d: Sum(rhs),rhsMax =   6.24184091322115E-13  7.55966700606537E-02
 cg2d: Sum(rhs),rhsMax =   7.46102637476571E-13  7.65526100841640E-02
 cg2d: Sum(rhs),rhsMax =   8.26583810079051E-13  7.74580793701153E-02
 cg2d: Sum(rhs),rhsMax =   9.18597886829815E-13  7.83278322242687E-02
 cg2d: Sum(rhs),rhsMax =   1.00652800438979E-12  7.91745587161532E-02
 cg2d: Sum(rhs),rhsMax =   1.07379017244731E-12  8.00088521319918E-02
 cg2d: Sum(rhs),rhsMax =   1.13013060281525E-12  8.08391935050759E-02
 cg2d: Sum(rhs),rhsMax =   1.19835434977955E-12  8.16719445603138E-02
 cg2d: Sum(rhs),rhsMax =   1.23996125866999E-12  8.25113398146100E-02
 cg2d: Sum(rhs),rhsMax =   1.29086064754036E-12  8.33594735542600E-02
 cg2d: Sum(rhs),rhsMax =   1.35946072107873E-12  8.42162784072215E-02
 cg2d: Sum(rhs),rhsMax =   1.45060265882568E-12  8.50794945843879E-02
 cg2d: Sum(rhs),rhsMax =   1.50031809892370E-12  8.59446307749608E-02
 cg2d: Sum(rhs),rhsMax =   1.53058468677081E-12  8.68049195652425E-02
 cg2d: Sum(rhs),rhsMax =   1.62972760286983E-12  8.76512721422181E-02
 cg2d: Sum(rhs),rhsMax =   1.64045513284528E-12  8.84722389765794E-02
 cg2d: Sum(rhs),rhsMax =   1.64033370220196E-12  8.92539852362377E-02
 cg2d: Sum(rhs),rhsMax =   1.71339331611620E-12  8.99802920047900E-02
 cg2d: Sum(rhs),rhsMax =   1.81868409221408E-12  9.06325972938980E-02
 cg2d: Sum(rhs),rhsMax =   1.85965132182275E-12  9.14303000862508E-02
 cg2d: Sum(rhs),rhsMax =   1.88948856560955E-12  9.23331318306023E-02
 cg2d: Sum(rhs),rhsMax =   1.93439708695564E-12  9.31483231308999E-02
 cg2d: Sum(rhs),rhsMax =   1.98749350310834E-12  9.38492604053639E-02
 cg2d: Sum(rhs),rhsMax =   2.02154959438872E-12  9.44074484113605E-02
 cg2d: Sum(rhs),rhsMax =   2.04658512359401E-12  9.52814650065798E-02
 cg2d: Sum(rhs),rhsMax =   1.93989269092754E-12  9.61533006067715E-02
 cg2d: Sum(rhs),rhsMax =   1.98518979033224E-12  9.68504541597957E-02
 cg2d: Sum(rhs),rhsMax =   2.03270733578620E-12  9.73612809072811E-02
 cg2d: Sum(rhs),rhsMax =   2.01316741055280E-12  1.00037321294645E-01
 cg2d: Sum(rhs),rhsMax =   1.94144700316201E-12  1.03864643265197E-01
 cg2d: Sum(rhs),rhsMax =   1.85695903098804E-12  1.09404413039369E-01
 cg2d: Sum(rhs),rhsMax =   1.77657888400518E-12  1.17174100876487E-01
 cg2d: Sum(rhs),rhsMax =   1.64090963039598E-12  1.28004883782139E-01
 cg2d: Sum(rhs),rhsMax =   1.50157664080552E-12  1.40754383726381E-01
 cg2d: Sum(rhs),rhsMax =   1.38911104841100E-12  1.52879572541934E-01
 cg2d: Sum(rhs),rhsMax =   1.33160149573541E-12  1.63845258214159E-01
 cg2d: Sum(rhs),rhsMax =   1.24900090270330E-12  1.73312638693278E-01
 cg2d: Sum(rhs),rhsMax =   1.21114229756358E-12  1.80989466756660E-01
 cg2d: Sum(rhs),rhsMax =   1.18161036510855E-12  1.86645751616528E-01
 cg2d: Sum(rhs),rhsMax =   1.18194343201594E-12  1.90125582070059E-01
 cg2d: Sum(rhs),rhsMax =   1.20281562487889E-12  1.91354224125759E-01
 cg2d: Sum(rhs),rhsMax =   1.25255361638210E-12  1.90340075083285E-01
 cg2d: Sum(rhs),rhsMax =   1.34481314972845E-12  1.87171510075847E-01
 cg2d: Sum(rhs),rhsMax =   1.44428913273487E-12  1.82009086209097E-01
 cg2d: Sum(rhs),rhsMax =   1.59683377631836E-12  1.75073928924037E-01
 cg2d: Sum(rhs),rhsMax =   1.74482650550090E-12  1.66633382507983E-01
 cg2d: Sum(rhs),rhsMax =   1.74005254649501E-12  1.67453221889014E-01
 cg2d: Sum(rhs),rhsMax =   1.55886414887618E-12  1.78588366122687E-01
 cg2d: Sum(rhs),rhsMax =   1.42352796217438E-12  1.88385068606463E-01
 cg2d: Sum(rhs),rhsMax =   1.32338584535319E-12  1.96584879440292E-01
 cg2d: Sum(rhs),rhsMax =   1.22435395155662E-12  2.02974670985562E-01
 cg2d: Sum(rhs),rhsMax =   1.12726494805315E-12  2.07396305435345E-01
 cg2d: Sum(rhs),rhsMax =   1.06659125975739E-12  2.09753381052068E-01
 cg2d: Sum(rhs),rhsMax =   1.03284047980878E-12  2.10014657038290E-01
 cg2d: Sum(rhs),rhsMax =   1.00014441173357E-12  2.08214008922624E-01
 cg2d: Sum(rhs),rhsMax =   9.64395230340642E-13  2.04447023546149E-01
 cg2d: Sum(rhs),rhsMax =   9.13658038115273E-13  1.98864579800719E-01
 cg2d: Sum(rhs),rhsMax =   8.20871148832225E-13  1.91663959164705E-01
 cg2d: Sum(rhs),rhsMax =   8.23202617183938E-13  1.83078171820058E-01
 cg2d: Sum(rhs),rhsMax =   8.05633337819245E-13  1.73364258620022E-01
 cg2d: Sum(rhs),rhsMax =   7.89229792630408E-13  1.62791350059423E-01
 cg2d: Sum(rhs),rhsMax =   7.40740802029904E-13  1.51629201202854E-01
 cg2d: Sum(rhs),rhsMax =   7.18702874991095E-13  1.40137818493360E-01
 cg2d: Sum(rhs),rhsMax =   7.41462446995911E-13  1.28558656647757E-01
 cg2d: Sum(rhs),rhsMax =   7.73575647983193E-13  1.17107726821946E-01
 cg2d: Sum(rhs),rhsMax =   8.28143109643520E-13  1.05970749316925E-01
 cg2d: Sum(rhs),rhsMax =   8.61505311533506E-13  9.53003579194615E-02
 cg2d: Sum(rhs),rhsMax =   9.06358321728362E-13  8.52152262443727E-02
 cg2d: Sum(rhs),rhsMax =   8.37968583411453E-13  8.01614189516577E-02
 cg2d: Sum(rhs),rhsMax =   8.31112956234392E-13  7.80267575690865E-02
 cg2d: Sum(rhs),rhsMax =   8.10046474342130E-13  7.62460457322206E-02
 cg2d: Sum(rhs),rhsMax =   7.64319163515381E-13  7.47125552463873E-02
 cg2d: Sum(rhs),rhsMax =   7.67441665772139E-13  7.35197641566425E-02
 cg2d: Sum(rhs),rhsMax =   7.26994853206264E-13  7.21745253932526E-02
 cg2d: Sum(rhs),rhsMax =   6.69325705970891E-13  7.07885488304270E-02
 cg2d: Sum(rhs),rhsMax =   5.92310922531425E-13  6.96335777112474E-02
 cg2d: Sum(rhs),rhsMax =   5.51308998453237E-13  6.83621217018375E-02
 cg2d: Sum(rhs),rhsMax =   4.68625138694279E-13  6.70472783210196E-02
 cg2d: Sum(rhs),rhsMax =   4.71747640951037E-13  6.59252708853183E-02
 cg2d: Sum(rhs),rhsMax =   4.03854033548257E-13  6.47123266026208E-02
 cg2d: Sum(rhs),rhsMax =   3.62477409199258E-13  6.34319382358963E-02
 cg2d: Sum(rhs),rhsMax =   3.10185904739413E-13  6.23196049187253E-02
 cg2d: Sum(rhs),rhsMax =   2.75252043380192E-13  6.11678790667109E-02
 cg2d: Sum(rhs),rhsMax =   2.25718749247150E-13  5.99669520280028E-02
 cg2d: Sum(rhs),rhsMax =   1.77991302252600E-13  5.87828292091697E-02
 cg2d: Sum(rhs),rhsMax =   1.25024990360600E-13  5.76924841993526E-02
 cg2d: Sum(rhs),rhsMax =   4.38208497266501E-14  5.65657293369587E-02
 cg2d: Sum(rhs),rhsMax =  -6.77461559073222E-14  5.54147192737661E-02
 cg2d: Sum(rhs),rhsMax =  -2.18717405298108E-13  5.42549277675053E-02
 cg2d: Sum(rhs),rhsMax =  -3.47324599636600E-13  5.31933492862493E-02
 cg2d: Sum(rhs),rhsMax =  -4.41147118834806E-13  5.21125511061982E-02
 cg2d: Sum(rhs),rhsMax =  -4.62024515868187E-13  5.10197715946009E-02
 cg2d: Sum(rhs),rhsMax =  -4.35106811691455E-13  4.99206087020726E-02
 cg2d: Sum(rhs),rhsMax =  -4.44520288633843E-13  4.88190774203575E-02
 cg2d: Sum(rhs),rhsMax =  -4.65424573881101E-13  4.77520606859607E-02
 cg2d: Sum(rhs),rhsMax =  -4.48062593971787E-13  4.67020089165225E-02
 cg2d: Sum(rhs),rhsMax =  -3.66575693411253E-13  4.56426328567726E-02
 cg2d: Sum(rhs),rhsMax =  -3.17368527291695E-13  4.45731318490956E-02
 cg2d: Sum(rhs),rhsMax =  -3.02955577291542E-13  4.34906540827351E-02
 cg2d: Sum(rhs),rhsMax =  -2.88458493202803E-13  4.23900942356719E-02
 cg2d: Sum(rhs),rhsMax =  -2.74049012649602E-13  4.12638885731673E-02
 cg2d: Sum(rhs),rhsMax =  -2.66019845041043E-13  4.01023610256651E-02
 cg2d: Sum(rhs),rhsMax =  -2.55419817241087E-13  3.89296598221587E-02
 cg2d: Sum(rhs),rhsMax =  -2.31964621122405E-13  3.76941730399283E-02
 cg2d: Sum(rhs),rhsMax =  -2.02697233997462E-13  3.63793921456709E-02
 cg2d: Sum(rhs),rhsMax =  -1.84624884824736E-13  3.49667802910364E-02
 cg2d: Sum(rhs),rhsMax =  -1.42785089307651E-13  3.34479620786131E-02
 cg2d: Sum(rhs),rhsMax =  -1.40202086051922E-13  3.18447736159679E-02
 cg2d: Sum(rhs),rhsMax =  -8.98222468626031E-14  3.00889369870534E-02
 cg2d: Sum(rhs),rhsMax =  -5.60974877661380E-14  2.81967896825626E-02
 cg2d: Sum(rhs),rhsMax =  -8.75167993630299E-15  2.61706997867325E-02
 cg2d: Sum(rhs),rhsMax =   5.31085592170299E-14  2.39845435194198E-02
 cg2d: Sum(rhs),rhsMax =   9.34009813935432E-14  2.16656010665598E-02
 cg2d: Sum(rhs),rhsMax =   1.81864939774457E-13  1.92068365771165E-02
 cg2d: Sum(rhs),rhsMax =   2.70630740040190E-13  1.66099372566952E-02
 cg2d: Sum(rhs),rhsMax =   3.94514282353597E-13  1.39236798405264E-02
 cg2d: Sum(rhs),rhsMax =   5.99863908545828E-13  1.11324463538451E-02
 cg2d: Sum(rhs),rhsMax =   9.24184340167500E-13  8.27553944879661E-03
 cg2d: Sum(rhs),rhsMax =   1.47232920300056E-12  5.37995866480558E-03
 cg2d: Sum(rhs),rhsMax =   3.27091131957502E-12  2.49997131824777E-03
 cg2d: Sum(rhs),rhsMax =   6.76109168651351E-12  1.21137914896009E-03
 cg2d: Sum(rhs),rhsMax =   2.28207730490482E-12  3.57090285932525E-03
 cg2d: Sum(rhs),rhsMax =   1.27293314777788E-12  6.37228222411059E-03
 cg2d: Sum(rhs),rhsMax =   9.20964693396087E-13  9.12457641125242E-03
 cg2d: Sum(rhs),rhsMax =   7.32254534785426E-13  1.17854220086370E-02
 cg2d: Sum(rhs),rhsMax =   6.91238732919430E-13  1.43363727081652E-02
 cg2d: Sum(rhs),rhsMax =   6.58733484426577E-13  1.67598743625933E-02
 cg2d: Sum(rhs),rhsMax =   6.26741714082613E-13  1.90393861750416E-02
 cg2d: Sum(rhs),rhsMax =   6.23823909196020E-13  2.11595302490746E-02
 cg2d: Sum(rhs),rhsMax =   6.24160445550359E-13  2.31292897980843E-02
 cg2d: Sum(rhs),rhsMax =   6.29708091226533E-13  2.49534441001723E-02
 cg2d: Sum(rhs),rhsMax =   6.49046788536722E-13  2.66100169383484E-02
 cg2d: Sum(rhs),rhsMax =   6.89955037547207E-13  2.81463971103883E-02
 cg2d: Sum(rhs),rhsMax =   6.99454383301656E-13  2.95392071051497E-02
 cg2d: Sum(rhs),rhsMax =   7.24954818398515E-13  3.08034839862076E-02
 cg2d: Sum(rhs),rhsMax =   7.64173446743399E-13  3.19897511856139E-02
 cg2d: Sum(rhs),rhsMax =   7.84178277868364E-13  3.30737870011079E-02
 cg2d: Sum(rhs),rhsMax =   7.94243143475981E-13  3.40735928810582E-02
 cg2d: Sum(rhs),rhsMax =   8.11552214319278E-13  3.50046248366897E-02
 cg2d: Sum(rhs),rhsMax =   8.22952817003397E-13  3.58978011823698E-02
 cg2d: Sum(rhs),rhsMax =   8.30939483886795E-13  3.67556968570116E-02
 cg2d: Sum(rhs),rhsMax =   8.74793293359488E-13  3.75760591908298E-02
 cg2d: Sum(rhs),rhsMax =   8.83543238572315E-13  3.83655208114198E-02
 cg2d: Sum(rhs),rhsMax =   9.77364023047045E-13  3.91288773206853E-02
 cg2d: Sum(rhs),rhsMax =   1.03360375813821E-12  3.98694105922444E-02
 cg2d: Sum(rhs),rhsMax =   1.12060360990540E-12  4.05891606255538E-02
 cg2d: Sum(rhs),rhsMax =   1.18250548242216E-12  4.13025305462462E-02
 cg2d: Sum(rhs),rhsMax =   1.10442904821539E-12  4.20270377067731E-02
 cg2d: Sum(rhs),rhsMax =   1.10013387288888E-12  4.27380728783025E-02
 cg2d: Sum(rhs),rhsMax =   1.07713837849133E-12  4.34350900951336E-02
 cg2d: Sum(rhs),rhsMax =   1.08896919259749E-12  4.41169920674527E-02
 cg2d: Sum(rhs),rhsMax =   1.06750719375270E-12  4.47822684118514E-02
 cg2d: Sum(rhs),rhsMax =   9.67941005125539E-13  4.54767312067280E-02
 cg2d: Sum(rhs),rhsMax =   8.75056971327837E-13  4.61803794034735E-02
 cg2d: Sum(rhs),rhsMax =   7.39668742921751E-13  4.68715526074362E-02
 cg2d: Sum(rhs),rhsMax =   6.29666457863109E-13  4.75495131792839E-02
 cg2d: Sum(rhs),rhsMax =   5.63358387717372E-13  4.82266034735988E-02
 cg2d: Sum(rhs),rhsMax =   5.60926305404053E-13  4.89751349701766E-02
 cg2d: Sum(rhs),rhsMax =   5.18488030287756E-13  4.97240448226255E-02
 cg2d: Sum(rhs),rhsMax =   4.48129380825613E-13  5.04799187066189E-02
 cg2d: Sum(rhs),rhsMax =   4.17794271401206E-13  5.12539169484261E-02
 cg2d: Sum(rhs),rhsMax =   3.69919372911198E-13  5.21320714476464E-02
 cg2d: Sum(rhs),rhsMax =   3.15643344794836E-13  5.30879081036042E-02
 cg2d: Sum(rhs),rhsMax =   2.43124964605101E-13  5.41275998563013E-02
 cg2d: Sum(rhs),rhsMax =   2.14259165964847E-13  5.52915278933976E-02
 cg2d: Sum(rhs),rhsMax =   1.52156065524878E-13  5.66328698101384E-02
 cg2d: Sum(rhs),rhsMax =   1.11521902823597E-13  5.82679622237712E-02
 cg2d: Sum(rhs),rhsMax =   5.40956168748608E-14  6.00555686068031E-02
 cg2d: Sum(rhs),rhsMax =   3.38062910998360E-14  6.21099928673577E-02
 cg2d: Sum(rhs),rhsMax =  -1.54876111935209E-14  6.45088062830565E-02
 cg2d: Sum(rhs),rhsMax =  -4.28546087505310E-14  6.73271545337215E-02
 cg2d: Sum(rhs),rhsMax =  -8.48765502325932E-14  7.06295480934919E-02
 cg2d: Sum(rhs),rhsMax =  -1.20681242776755E-13  7.44548815240110E-02
 cg2d: Sum(rhs),rhsMax =  -1.85962356624714E-13  7.89730031286918E-02
 cg2d: Sum(rhs),rhsMax =  -2.61679566904149E-13  8.39244346264718E-02
 cg2d: Sum(rhs),rhsMax =  -3.21742632536370E-13  8.88138922022856E-02
 cg2d: Sum(rhs),rhsMax =  -3.62543328691345E-13  9.35971565981072E-02
 cg2d: Sum(rhs),rhsMax =  -4.02344824124157E-13  9.82291978659051E-02
 cg2d: Sum(rhs),rhsMax =  -4.28601598656542E-13  1.02664912067684E-01
 cg2d: Sum(rhs),rhsMax =  -4.57578419599258E-13  1.06859890318417E-01
 cg2d: Sum(rhs),rhsMax =  -4.85445017517350E-13  1.10771201400091E-01
 cg2d: Sum(rhs),rhsMax =  -5.24857934891543E-13  1.14358168144476E-01
 cg2d: Sum(rhs),rhsMax =  -5.62661028880029E-13  1.17583117379548E-01
 cg2d: Sum(rhs),rhsMax =  -6.49924558615567E-13  1.20412083523198E-01
 cg2d: Sum(rhs),rhsMax =  -7.24975635080227E-13  1.22815446889602E-01
 cg2d: Sum(rhs),rhsMax =  -8.13349387840390E-13  1.24768489421314E-01
 cg2d: Sum(rhs),rhsMax =  -8.81961170762224E-13  1.26251852816511E-01
 cg2d: Sum(rhs),rhsMax =  -9.41802191789520E-13  1.27251886804547E-01
 cg2d: Sum(rhs),rhsMax =  -9.92761428619815E-13  1.27760878529636E-01
 cg2d: Sum(rhs),rhsMax =  -1.04816155754861E-12  1.27777157483668E-01
 cg2d: Sum(rhs),rhsMax =  -1.05604414102345E-12  1.27305074026589E-01
 cg2d: Sum(rhs),rhsMax =  -1.09934283898383E-12  1.26354853302154E-01
 cg2d: Sum(rhs),rhsMax =  -1.20936594072418E-12  1.24942331053532E-01
 cg2d: Sum(rhs),rhsMax =  -1.29962707262621E-12  1.23088579043255E-01
 cg2d: Sum(rhs),rhsMax =  -1.39555034195382E-12  1.20819431827851E-01
 cg2d: Sum(rhs),rhsMax =  -1.49613654798486E-12  1.18164929298283E-01
 cg2d: Sum(rhs),rhsMax =  -1.56807899998057E-12  1.15158691715245E-01
 cg2d: Sum(rhs),rhsMax =  -1.63635771599502E-12  1.11837244505997E-01
 cg2d: Sum(rhs),rhsMax =  -1.70763403417595E-12  1.08543843020003E-01
 cg2d: Sum(rhs),rhsMax =  -1.71784808600250E-12  1.09201770861505E-01
 cg2d: Sum(rhs),rhsMax =  -1.71707092988527E-12  1.09466065718590E-01
 cg2d: Sum(rhs),rhsMax =  -1.76425540843184E-12  1.09336876920597E-01
 cg2d: Sum(rhs),rhsMax =  -1.81210602079318E-12  1.08818616860224E-01
 cg2d: Sum(rhs),rhsMax =  -1.91113791458974E-12  1.07919850493291E-01
 cg2d: Sum(rhs),rhsMax =  -2.00950367457153E-12  1.06653108499516E-01
 cg2d: Sum(rhs),rhsMax =  -2.15727435914914E-12  1.05034630437982E-01
 cg2d: Sum(rhs),rhsMax =  -2.32791563803403E-12  1.03084045066949E-01
 cg2d: Sum(rhs),rhsMax =  -2.45925502184718E-12  1.00823996447777E-01
 cg2d: Sum(rhs),rhsMax =  -2.55839793794621E-12  9.82797254541045E-02
 cg2d: Sum(rhs),rhsMax =  -2.64355204393496E-12  9.54786176070072E-02
 cg2d: Sum(rhs),rhsMax =  -2.83140177970154E-12  9.24497294414583E-02
 cg2d: Sum(rhs),rhsMax =  -2.90190094176523E-12  8.92233041127285E-02
 cg2d: Sum(rhs),rhsMax =  -2.95974356134820E-12  8.58302862116129E-02
 cg2d: Sum(rhs),rhsMax =  -3.01703106941886E-12  8.23018468502215E-02
 cg2d: Sum(rhs),rhsMax =  -3.04001268602860E-12  7.86689303782863E-02
 cg2d: Sum(rhs),rhsMax =  -3.11484171788834E-12  7.49618314104473E-02
 cg2d: Sum(rhs),rhsMax =  -3.14082093666457E-12  7.12098090107560E-02
 cg2d: Sum(rhs),rhsMax =  -3.20243831453126E-12  6.74407437500252E-02
 cg2d: Sum(rhs),rhsMax =  -3.26816351758907E-12  6.36808421475952E-02
 cg2d: Sum(rhs),rhsMax =  -3.31057403712975E-12  5.99543916923523E-02
 cg2d: Sum(rhs),rhsMax =  -3.39162031792739E-12  5.62835679440534E-02
 cg2d: Sum(rhs),rhsMax =  -3.54161144855425E-12  5.26882938833675E-02
 cg2d: Sum(rhs),rhsMax =  -3.69904107344610E-12  4.91861501557113E-02
 cg2d: Sum(rhs),rhsMax =  -3.87323506600978E-12  4.57923337168654E-02
 cg2d: Sum(rhs),rhsMax =  -4.02822220024746E-12  4.25196613961107E-02
 cg2d: Sum(rhs),rhsMax =  -4.26714219514679E-12  3.93786143384284E-02
 cg2d: Sum(rhs),rhsMax =  -4.43189929200116E-12  3.71832042219248E-02
 cg2d: Sum(rhs),rhsMax =  -4.43944880856861E-12  3.61979112745807E-02
 cg2d: Sum(rhs),rhsMax =  -4.42756942220512E-12  3.52885405899203E-02
 cg2d: Sum(rhs),rhsMax =  -4.39526193218853E-12  3.44355133578317E-02
 cg2d: Sum(rhs),rhsMax =  -4.38171721128811E-12  3.36243201989703E-02
 cg2d: Sum(rhs),rhsMax =  -4.38871161634324E-12  3.28443325034757E-02
 cg2d: Sum(rhs),rhsMax =  -4.37039293643693E-12  3.20988364226580E-02
 cg2d: Sum(rhs),rhsMax =  -4.36950475801723E-12  3.14144645976817E-02
 cg2d: Sum(rhs),rhsMax =  -4.37594405156005E-12  3.07786602049144E-02
 cg2d: Sum(rhs),rhsMax =  -4.36339853138179E-12  3.01636940303735E-02
 cg2d: Sum(rhs),rhsMax =  -4.31971125536279E-12  2.95499804644507E-02
 cg2d: Sum(rhs),rhsMax =  -4.33142410827259E-12  2.89368772656825E-02
 cg2d: Sum(rhs),rhsMax =  -4.35651514862911E-12  2.83232473470898E-02
 cg2d: Sum(rhs),rhsMax =  -4.27696766891472E-12  2.77074226235098E-02
 cg2d: Sum(rhs),rhsMax =  -4.26547686060985E-12  2.70871893900158E-02
 cg2d: Sum(rhs),rhsMax =  -4.35845803892221E-12  2.64689039484692E-02
 cg2d: Sum(rhs),rhsMax =  -4.39626113291069E-12  2.58450286733211E-02
 cg2d: Sum(rhs),rhsMax =  -4.39454028722253E-12  2.52069471839283E-02
 cg2d: Sum(rhs),rhsMax =  -4.51988446670271E-12  2.45508173943788E-02
 cg2d: Sum(rhs),rhsMax =  -4.57503479545096E-12  2.38724657862624E-02
 cg2d: Sum(rhs),rhsMax =  -4.67792471425810E-12  2.31821441225472E-02
 cg2d: Sum(rhs),rhsMax =  -4.76993444742391E-12  2.24647353271570E-02
 cg2d: Sum(rhs),rhsMax =  -4.77975992119184E-12  2.17121453817234E-02
 cg2d: Sum(rhs),rhsMax =  -4.86691242862491E-12  2.09337796368374E-02
 cg2d: Sum(rhs),rhsMax =  -5.06419906010080E-12  2.01209225967528E-02
 cg2d: Sum(rhs),rhsMax =  -5.34988719991247E-12  1.92664786689835E-02
 cg2d: Sum(rhs),rhsMax =  -5.63020463584252E-12  1.83819875513349E-02
 cg2d: Sum(rhs),rhsMax =  -5.97555338543998E-12  1.74513732340151E-02
 cg2d: Sum(rhs),rhsMax =  -6.50546283509357E-12  1.64864450106125E-02
 cg2d: Sum(rhs),rhsMax =  -7.00066393743981E-12  1.54806863622064E-02
 cg2d: Sum(rhs),rhsMax =  -7.60359830653812E-12  1.44319582044600E-02
 cg2d: Sum(rhs),rhsMax =  -8.35513602748250E-12  1.33525338726812E-02
 cg2d: Sum(rhs),rhsMax =  -9.25265419837729E-12  1.22363463419536E-02
 cg2d: Sum(rhs),rhsMax =  -1.03689001829110E-11  1.10862163544080E-02
 cg2d: Sum(rhs),rhsMax =  -1.17391374399034E-11  9.90639313294148E-03
 cg2d: Sum(rhs),rhsMax =  -1.33882488428938E-11  8.70105278367034E-03
 cg2d: Sum(rhs),rhsMax =  -1.57055618510427E-11  7.47428463980641E-03
 cg2d: Sum(rhs),rhsMax =  -1.88190921179832E-11  6.23152817873340E-03
 cg2d: Sum(rhs),rhsMax =  -2.35639147083688E-11  4.98327817999937E-03
 cg2d: Sum(rhs),rhsMax =  -3.13824660702622E-11  3.74736075715545E-03
 cg2d: Sum(rhs),rhsMax =  -4.51493755576626E-11  2.60763650007313E-03
 cg2d: Sum(rhs),rhsMax =  -6.13200185073381E-11  1.92058650864676E-03
 cg2d: Sum(rhs),rhsMax =  -7.73429376099699E-11  1.52256844564314E-03
 cg2d: Sum(rhs),rhsMax =  -7.07157110646506E-11  1.66679905234538E-03
 cg2d: Sum(rhs),rhsMax =  -4.09420275460093E-11  2.87996988158673E-03
 cg2d: Sum(rhs),rhsMax =  -2.87434381851526E-11  4.10360271942736E-03
 cg2d: Sum(rhs),rhsMax =  -2.22599022547953E-11  5.31871816034289E-03
 cg2d: Sum(rhs),rhsMax =  -1.82673182136384E-11  6.51504774057636E-03
 cg2d: Sum(rhs),rhsMax =  -1.55021828707191E-11  7.68421391947268E-03
 cg2d: Sum(rhs),rhsMax =  -1.35380595622792E-11  8.83052093999030E-03
 cg2d: Sum(rhs),rhsMax =  -1.20789767077412E-11  9.94029598952845E-03
 cg2d: Sum(rhs),rhsMax =  -1.09696418615357E-11  1.10242072129467E-02
 cg2d: Sum(rhs),rhsMax =  -1.00374708544848E-11  1.20669631393447E-02
 cg2d: Sum(rhs),rhsMax =  -9.32687260757348E-12  1.30824253435695E-02
 cg2d: Sum(rhs),rhsMax =  -8.73276451152094E-12  1.40566363782881E-02
 cg2d: Sum(rhs),rhsMax =  -8.20821188796117E-12  1.50005448699368E-02
 cg2d: Sum(rhs),rhsMax =  -7.77697350962114E-12  1.59092831313738E-02
 cg2d: Sum(rhs),rhsMax =  -7.44598827040477E-12  1.67804051446656E-02
 cg2d: Sum(rhs),rhsMax =  -7.16748882467755E-12  1.76297769210477E-02
 cg2d: Sum(rhs),rhsMax =  -6.91349755221893E-12  1.84457924295945E-02
 cg2d: Sum(rhs),rhsMax =  -6.65281718603694E-12  1.92310180162898E-02
 cg2d: Sum(rhs),rhsMax =  -6.40598685208715E-12  1.99949580701649E-02
 cg2d: Sum(rhs),rhsMax =  -6.25680063315315E-12  2.07389928912787E-02
 cg2d: Sum(rhs),rhsMax =  -6.14158723877267E-12  2.14599354044599E-02
 cg2d: Sum(rhs),rhsMax =  -5.99736926787386E-12  2.21599501791684E-02
 cg2d: Sum(rhs),rhsMax =  -5.91349191836343E-12  2.28408842251387E-02
 cg2d: Sum(rhs),rhsMax =  -5.81606984795258E-12  2.35117971927197E-02
 cg2d: Sum(rhs),rhsMax =  -5.77371483956313E-12  2.41711487215794E-02
 cg2d: Sum(rhs),rhsMax =  -5.74429392941056E-12  2.48160559391621E-02
 cg2d: Sum(rhs),rhsMax =  -5.65325564139130E-12  2.54472459695900E-02
 cg2d: Sum(rhs),rhsMax =  -5.61012347688461E-12  2.60651592490536E-02
 cg2d: Sum(rhs),rhsMax =  -5.55400170298981E-12  2.66699853808454E-02
 cg2d: Sum(rhs),rhsMax =  -5.51725332087472E-12  2.72777023711774E-02
 cg2d: Sum(rhs),rhsMax =  -5.48239231790149E-12  2.78743893095264E-02
 cg2d: Sum(rhs),rhsMax =  -5.44742029262579E-12  2.84597826502095E-02
 cg2d: Sum(rhs),rhsMax =  -5.44075895447804E-12  2.90336582584781E-02
 cg2d: Sum(rhs),rhsMax =  -5.44675415881102E-12  2.95957381921962E-02
 cg2d: Sum(rhs),rhsMax =  -5.39135402988222E-12  3.01671681680672E-02
 cg2d: Sum(rhs),rhsMax =  -5.31374944046092E-12  3.07305220855950E-02
 cg2d: Sum(rhs),rhsMax =  -5.22393239776875E-12  3.12843529080926E-02
 cg2d: Sum(rhs),rhsMax =  -5.05040453901984E-12  3.18289403514201E-02
 cg2d: Sum(rhs),rhsMax =  -4.86877205219116E-12  3.23759954146002E-02
 cg2d: Sum(rhs),rhsMax =  -4.72066830070617E-12  3.29346109811478E-02
 cg2d: Sum(rhs),rhsMax =  -4.56079618516014E-12  3.41444866544060E-02
 cg2d: Sum(rhs),rhsMax =  -4.28534985275064E-12  3.57541464801790E-02
 cg2d: Sum(rhs),rhsMax =  -3.98137078860827E-12  3.78651440231824E-02
 cg2d: Sum(rhs),rhsMax =  -3.68904906622447E-12  4.01946802335951E-02
 cg2d: Sum(rhs),rhsMax =  -3.40538708343274E-12  4.25664902036352E-02
 cg2d: Sum(rhs),rhsMax =  -3.16546788781125E-12  4.49713816028062E-02
 cg2d: Sum(rhs),rhsMax =  -2.94497759512069E-12  4.73994110184410E-02
 cg2d: Sum(rhs),rhsMax =  -2.75024447660144E-12  4.98399446317336E-02
 cg2d: Sum(rhs),rhsMax =  -2.57482923871066E-12  5.22817307072634E-02
 cg2d: Sum(rhs),rhsMax =  -2.43094433471924E-12  5.47129833952388E-02
 cg2d: Sum(rhs),rhsMax =  -2.25153229393982E-12  5.71214770735915E-02
 cg2d: Sum(rhs),rhsMax =  -2.13407069793448E-12  5.94946502357096E-02
 cg2d: Sum(rhs),rhsMax =  -2.00017780116468E-12  6.18197177237274E-02
 cg2d: Sum(rhs),rhsMax =  -1.86961557346876E-12  6.40837899046277E-02
 cg2d: Sum(rhs),rhsMax =  -1.77236003651160E-12  6.62739971984409E-02
 cg2d: Sum(rhs),rhsMax =  -1.66822111680176E-12  6.83776182757461E-02
 cg2d: Sum(rhs),rhsMax =  -1.58228985469577E-12  7.03822100835203E-02
 cg2d: Sum(rhs),rhsMax =  -1.37934108579429E-12  7.22757377773315E-02
 cg2d: Sum(rhs),rhsMax =  -1.19371179607697E-12  7.40467025942061E-02
 cg2d: Sum(rhs),rhsMax =  -1.09778852674935E-12  7.56842656913796E-02
 cg2d: Sum(rhs),rhsMax =  -9.97424365323241E-13  7.71783660109322E-02
 cg2d: Sum(rhs),rhsMax =  -9.54569756572710E-13  7.85198303030601E-02
 cg2d: Sum(rhs),rhsMax =  -8.67084182232247E-13  7.97004735514399E-02
 cg2d: Sum(rhs),rhsMax =  -8.08020317322189E-13  8.07131882015496E-02
 cg2d: Sum(rhs),rhsMax =  -9.15711950710829E-13  8.15520207616047E-02
 cg2d: Sum(rhs),rhsMax =  -9.84545778237589E-13  8.22122345815928E-02
 cg2d: Sum(rhs),rhsMax =  -9.94537785459215E-13  8.26903578569225E-02
 cg2d: Sum(rhs),rhsMax =  -1.05404573957912E-12  8.31074652570166E-02
 cg2d: Sum(rhs),rhsMax =  -1.08379971663908E-12  8.56371739192823E-02
 cg2d: Sum(rhs),rhsMax =  -1.09601216990995E-12  8.80326478394990E-02
 cg2d: Sum(rhs),rhsMax =  -1.10245146345278E-12  9.02802417809958E-02
 cg2d: Sum(rhs),rhsMax =  -1.04860564675846E-12  9.23670725363610E-02
 cg2d: Sum(rhs),rhsMax =  -1.04882769136339E-12  9.42811472509498E-02
 cg2d: Sum(rhs),rhsMax =  -1.05204733813480E-12  9.60114834460325E-02
 cg2d: Sum(rhs),rhsMax =  -1.08857367564497E-12  9.75482189895813E-02
 cg2d: Sum(rhs),rhsMax =  -1.12887477143886E-12  9.88827103834407E-02
 cg2d: Sum(rhs),rhsMax =  -1.14019904629004E-12  1.00007617971116E-01
 cg2d: Sum(rhs),rhsMax =  -1.17528209386819E-12  1.00916976722758E-01
 cg2d: Sum(rhs),rhsMax =  -1.18516307878735E-12  1.01606251691466E-01
 cg2d: Sum(rhs),rhsMax =  -1.22801768753789E-12  1.02072377544875E-01
 cg2d: Sum(rhs),rhsMax =  -1.26099131136925E-12  1.02313781406969E-01
 cg2d: Sum(rhs),rhsMax =  -1.29363186829323E-12  1.02330388801247E-01
 cg2d: Sum(rhs),rhsMax =  -1.33526523171668E-12  1.02123612691169E-01
 cg2d: Sum(rhs),rhsMax =  -1.36435307496185E-12  1.01696325981837E-01
 cg2d: Sum(rhs),rhsMax =  -1.43196565716153E-12  1.01052818055649E-01
 cg2d: Sum(rhs),rhsMax =  -1.48048240333765E-12  1.00198736166091E-01
 cg2d: Sum(rhs),rhsMax =  -1.56552548702393E-12  9.91410127766430E-02
 cg2d: Sum(rhs),rhsMax =  -1.65578661892596E-12  9.78877801736033E-02
 cg2d: Sum(rhs),rhsMax =  -1.76225700698751E-12  9.64482734500166E-02
 cg2d: Sum(rhs),rhsMax =  -1.86184401229639E-12  9.48327233387083E-02
 cg2d: Sum(rhs),rhsMax =  -1.99418259683171E-12  9.30522410274059E-02
 cg2d: Sum(rhs),rhsMax =  -2.12518891373747E-12  9.11186966428297E-02
 cg2d: Sum(rhs),rhsMax =  -2.21189733196070E-12  8.90445931371046E-02
 cg2d: Sum(rhs),rhsMax =  -2.32092123297889E-12  8.68429380841614E-02
 cg2d: Sum(rhs),rhsMax =  -2.41795472533113E-12  8.45271142692535E-02
 cg2d: Sum(rhs),rhsMax =  -2.52309284576313E-12  8.21107506364784E-02
 cg2d: Sum(rhs),rhsMax =  -2.61962673775429E-12  7.96075954915218E-02
 cg2d: Sum(rhs),rhsMax =  -2.78083112092986E-12  7.70313935548049E-02
 cg2d: Sum(rhs),rhsMax =  -2.89596124858349E-12  7.43957687607327E-02
 cg2d: Sum(rhs),rhsMax =  -3.04828384756206E-12  7.17141138117858E-02
 cg2d: Sum(rhs),rhsMax =  -3.23419069303554E-12  6.89994876852194E-02
 cg2d: Sum(rhs),rhsMax =  -3.39700489959682E-12  6.62645219112396E-02
 cg2d: Sum(rhs),rhsMax =  -3.57958107599643E-12  6.35213363233766E-02
 cg2d: Sum(rhs),rhsMax =  -3.81311648922633E-12  6.07814647809966E-02
 cg2d: Sum(rhs),rhsMax =  -4.04032363121587E-12  5.80557913094148E-02
 cg2d: Sum(rhs),rhsMax =  -4.31016333735101E-12  5.53544967576164E-02
 cg2d: Sum(rhs),rhsMax =  -4.59221549675703E-12  5.26870160830819E-02
 cg2d: Sum(rhs),rhsMax =  -4.89275286952306E-12  5.00620061165140E-02
 cg2d: Sum(rhs),rhsMax =  -5.21022114341463E-12  4.74873234926291E-02
 cg2d: Sum(rhs),rhsMax =  -5.55178125694056E-12  4.49700123128836E-02
 cg2d: Sum(rhs),rhsMax =  -5.94413407384309E-12  4.25163008309458E-02
 cg2d: Sum(rhs),rhsMax =  -6.37057073760161E-12  4.01316069559061E-02
 cg2d: Sum(rhs),rhsMax =  -6.83947343205205E-12  3.78205515929840E-02
 cg2d: Sum(rhs),rhsMax =  -7.34173832839247E-12  3.55869788816106E-02
 cg2d: Sum(rhs),rhsMax =  -7.86998244350912E-12  3.35158770085639E-02
 cg2d: Sum(rhs),rhsMax =  -8.10429501285626E-12  3.27292401042066E-02
 cg2d: Sum(rhs),rhsMax =  -8.33910718256448E-12  3.19812063610543E-02
 cg2d: Sum(rhs),rhsMax =  -8.54405435291028E-12  3.12516338624792E-02
 cg2d: Sum(rhs),rhsMax =  -8.75799432975555E-12  3.05276843267502E-02
 cg2d: Sum(rhs),rhsMax =  -8.87123707826731E-12  2.98133925311259E-02
 cg2d: Sum(rhs),rhsMax =  -9.11648534440701E-12  2.91069056351346E-02
 cg2d: Sum(rhs),rhsMax =  -9.33364496802369E-12  2.83804471434559E-02
 cg2d: Sum(rhs),rhsMax =  -9.51405620952528E-12  2.76552406279033E-02
 cg2d: Sum(rhs),rhsMax =  -9.74245684126629E-12  2.69104312148698E-02
 cg2d: Sum(rhs),rhsMax =  -9.92189663762133E-12  2.61450541489195E-02
 cg2d: Sum(rhs),rhsMax =  -1.02010622171633E-11  2.53641620678192E-02
 cg2d: Sum(rhs),rhsMax =  -1.05500053138030E-11  2.45525873130891E-02
 cg2d: Sum(rhs),rhsMax =  -1.08462683279242E-11  2.37207308034550E-02
 cg2d: Sum(rhs),rhsMax =  -1.12501397087073E-11  2.28579080466649E-02
 cg2d: Sum(rhs),rhsMax =  -1.16177067965850E-11  2.19633184946196E-02
 cg2d: Sum(rhs),rhsMax =  -1.20772003509018E-11  2.10454507011431E-02
 cg2d: Sum(rhs),rhsMax =  -1.25955634810992E-11  2.00849863113649E-02
 cg2d: Sum(rhs),rhsMax =  -1.32462651958321E-11  1.91049790769176E-02
 cg2d: Sum(rhs),rhsMax =  -1.39187272818475E-11  1.80892586054088E-02
 cg2d: Sum(rhs),rhsMax =  -1.46859746585903E-11  1.70357483204385E-02
 cg2d: Sum(rhs),rhsMax =  -1.55868096207712E-11  1.59625006280864E-02
 cg2d: Sum(rhs),rhsMax =  -1.66714975158300E-11  1.48572158635844E-02
 cg2d: Sum(rhs),rhsMax =  -1.79310177816916E-11  1.37200633835270E-02
 cg2d: Sum(rhs),rhsMax =  -1.95307381378740E-11  1.25589456938303E-02
 cg2d: Sum(rhs),rhsMax =  -2.14460393888061E-11  1.13783651636054E-02
 cg2d: Sum(rhs),rhsMax =  -2.39381015010309E-11  1.01732785014072E-02
 cg2d: Sum(rhs),rhsMax =  -2.71812850005659E-11  8.94713687712802E-03
 cg2d: Sum(rhs),rhsMax =  -3.13849501942798E-11  7.71066186297740E-03
 cg2d: Sum(rhs),rhsMax =  -3.73897579564186E-11  6.46067052149971E-03
 cg2d: Sum(rhs),rhsMax =  -4.63465932298845E-11  5.20244973675093E-03
 cg2d: Sum(rhs),rhsMax =  -6.10863581940180E-11  3.94362994041265E-03
 cg2d: Sum(rhs),rhsMax =  -8.91736684494049E-11  2.69953446033383E-03
 cg2d: Sum(rhs),rhsMax =  -1.46368361875204E-10  1.64371133042756E-03
 cg2d: Sum(rhs),rhsMax =  -1.51476275966900E-10  1.58875033266351E-03
 cg2d: Sum(rhs),rhsMax =  -1.56575641341306E-10  1.53637225476089E-03
 cg2d: Sum(rhs),rhsMax =  -9.42764755151870E-11  2.55179419193724E-03
 cg2d: Sum(rhs),rhsMax =  -6.35855812447517E-11  3.78147806798993E-03
 cg2d: Sum(rhs),rhsMax =  -4.80138706571154E-11  5.00260634901940E-03
 cg2d: Sum(rhs),rhsMax =  -3.86434217958254E-11  6.21366244744209E-03
 cg2d: Sum(rhs),rhsMax =  -3.23476523345079E-11  7.40566159516219E-03
 cg2d: Sum(rhs),rhsMax =  -2.78335687831088E-11  8.57547587410869E-03
 cg2d: Sum(rhs),rhsMax =  -2.44709252861242E-11  9.72060074702631E-03
 cg2d: Sum(rhs),rhsMax =  -2.18597223655692E-11  1.08385842590807E-02
 cg2d: Sum(rhs),rhsMax =  -1.98385752270269E-11  1.19270333479753E-02
 cg2d: Sum(rhs),rhsMax =  -1.80636477997709E-11  1.29868799916168E-02
 cg2d: Sum(rhs),rhsMax =  -1.66580638172320E-11  1.40199745457650E-02
 cg2d: Sum(rhs),rhsMax =  -1.54834617349664E-11  1.50197090523644E-02
 cg2d: Sum(rhs),rhsMax =  -1.44159198467442E-11  1.59840531411532E-02
 cg2d: Sum(rhs),rhsMax =  -1.35544839241497E-11  1.69140501381129E-02
 cg2d: Sum(rhs),rhsMax =  -1.27647050915392E-11  1.78224185594505E-02
 cg2d: Sum(rhs),rhsMax =  -1.21126433536012E-11  1.86930528087658E-02
 cg2d: Sum(rhs),rhsMax =  -1.15362892849635E-11  1.95316524455154E-02
 cg2d: Sum(rhs),rhsMax =  -1.09533181136268E-11  2.03508187400567E-02
 cg2d: Sum(rhs),rhsMax =  -1.04770289666156E-11  2.11307248630500E-02
 cg2d: Sum(rhs),rhsMax =  -1.00977559647220E-11  2.19029910782863E-02
 cg2d: Sum(rhs),rhsMax =  -9.62424584471933E-12  2.26383971614516E-02
 cg2d: Sum(rhs),rhsMax =  -9.26778098708780E-12  2.33732064710675E-02
 cg2d: Sum(rhs),rhsMax =  -8.94870288981053E-12  2.40812585092494E-02
 cg2d: Sum(rhs),rhsMax =  -8.70198357816321E-12  2.47892926917950E-02
 cg2d: Sum(rhs),rhsMax =  -8.27987678420072E-12  2.54942009935684E-02
 cg2d: Sum(rhs),rhsMax =  -7.97961696719085E-12  2.61966360457077E-02
 cg2d: Sum(rhs),rhsMax =  -7.68321517519155E-12  2.69096801985676E-02
 cg2d: Sum(rhs),rhsMax =  -7.46164241505198E-12  2.76524409572988E-02
 cg2d: Sum(rhs),rhsMax =  -7.30779325941455E-12  2.84243717123742E-02
 cg2d: Sum(rhs),rhsMax =  -7.14792114386853E-12  2.92403564175672E-02
 cg2d: Sum(rhs),rhsMax =  -6.88893386779910E-12  3.01225939225051E-02
 cg2d: Sum(rhs),rhsMax =  -6.80683287512807E-12  3.11027500754967E-02
 cg2d: Sum(rhs),rhsMax =  -6.55370202551353E-12  3.22535185942928E-02
(PID.TID 0000.0001)      cg2d_init_res =   2.19579137844932E-01
(PID.TID 0000.0001)      cg2d_iters(min,last) =      -1      39
(PID.TID 0000.0001)      cg2d_last_res =   4.33787563694521E-14
(PID.TID 0000.0001) // =======================================================
(PID.TID 0000.0001) // Begin MONITOR dynamic field statistics
(PID.TID 0000.0001) // =======================================================
(PID.TID 0000.0001) %MON time_tsnumber                =                   480
(PID.TID 0000.0001) %MON time_secondsf                =   7.2000000000000E+03
(PID.TID 0000.0001) %MON dynstat_eta_max              =   7.7375507490751E-03
(PID.TID 0000.0001) %MON dynstat_eta_min              =  -7.5538557032398E-03
(PID.TID 0000.0001) %MON dynstat_eta_mean             =   4.6861512018144E-16
(PID.TID 0000.0001) %MON dynstat_eta_sd               =   5.6628121278199E-03
(PID.TID 0000.0001) %MON dynstat_eta_del2             =   6.3719214726556E-07
(PID.TID 0000.0001) %MON dynstat_uvel_max             =   1.8560448629648E-01
(PID.TID 0000.0001) %MON dynstat_uvel_min             =   7.1947890366276E-02
(PID.TID 0000.0001) %MON dynstat_uvel_mean            =   1.1453721230240E-01
(PID.TID 0000.0001) %MON dynstat_uvel_sd              =   5.5018651909651E-03
(PID.TID 0000.0001) %MON dynstat_uvel_del2            =   3.5316262058812E-05
(PID.TID 0000.0001) %MON dynstat_vvel_max             =   0.0000000000000E+00
(PID.TID 0000.0001) %MON dynstat_vvel_min             =   0.0000000000000E+00
(PID.TID 0000.0001) %MON dynstat_vvel_mean            =   0.0000000000000E+00
(PID.TID 0000.0001) %MON dynstat_vvel_sd              =   0.0000000000000E+00
(PID.TID 0000.0001) %MON dynstat_vvel_del2            =   0.0000000000000E+00
(PID.TID 0000.0001) %MON dynstat_wvel_max             =   2.7842793284539E-03
(PID.TID 0000.0001) %MON dynstat_wvel_min             =  -1.6238922634342E-03
(PID.TID 0000.0001) %MON dynstat_wvel_mean            =  -1.8585898947474E-23
(PID.TID 0000.0001) %MON dynstat_wvel_sd              =   1.7028891127032E-04
(PID.TID 0000.0001) %MON dynstat_wvel_del2            =   2.3056432208667E-06
(PID.TID 0000.0001) %MON dynstat_theta_max            =   1.5000000000001E+01
(PID.TID 0000.0001) %MON dynstat_theta_min            =   9.9999999999983E+00
(PID.TID 0000.0001) %MON dynstat_theta_mean           =   1.1004810653189E+01
(PID.TID 0000.0001) %MON dynstat_theta_sd             =   1.9416260419604E+00
(PID.TID 0000.0001) %MON dynstat_theta_del2           =   4.2137302584323E-06
(PID.TID 0000.0001) %MON dynstat_salt_max             =   3.5000000000000E+01
(PID.TID 0000.0001) %MON dynstat_salt_min             =   3.5000000000000E+01
(PID.TID 0000.0001) %MON dynstat_salt_mean            =   3.5000000000000E+01
(PID.TID 0000.0001) %MON dynstat_salt_sd              =   4.0500935938326E-13
(PID.TID 0000.0001) %MON dynstat_salt_del2            =   0.0000000000000E+00
(PID.TID 0000.0001) %MON dynstat_sst_max              =   1.5000000000001E+01
(PID.TID 0000.0001) %MON dynstat_sst_min              =   1.5000000000000E+01
(PID.TID 0000.0001) %MON dynstat_sst_mean             =   1.5000000000001E+01
(PID.TID 0000.0001) %MON dynstat_sst_sd               =   2.9448902870141E-13
(PID.TID 0000.0001) %MON dynstat_sst_del2             =   2.6854920683517E-15
(PID.TID 0000.0001) %MON dynstat_sss_max              =   3.5000000000000E+01
(PID.TID 0000.0001) %MON dynstat_sss_min              =   3.5000000000000E+01
(PID.TID 0000.0001) %MON dynstat_sss_mean             =   3.5000000000000E+01
(PID.TID 0000.0001) %MON dynstat_sss_sd               =   4.2632564145606E-14
(PID.TID 0000.0001) %MON dynstat_sss_del2             =   0.0000000000000E+00
(PID.TID 0000.0001) %MON forcing_qnet_max             =   0.0000000000000E+00
(PID.TID 0000.0001) %MON forcing_qnet_min             =   0.0000000000000E+00
(PID.TID 0000.0001) %MON forcing_qnet_mean            =   0.0000000000000E+00
(PID.TID 0000.0001) %MON forcing_qnet_sd              =   0.0000000000000E+00
(PID.TID 0000.0001) %MON forcing_qnet_del2            =   0.0000000000000E+00
(PID.TID 0000.0001) %MON forcing_qsw_max              =   0.0000000000000E+00
(PID.TID 0000.0001) %MON forcing_qsw_min              =   0.0000000000000E+00
(PID.TID 0000.0001) %MON forcing_qsw_mean             =   0.0000000000000E+00
(PID.TID 0000.0001) %MON forcing_qsw_sd               =   0.0000000000000E+00
(PID.TID 0000.0001) %MON forcing_qsw_del2             =   0.0000000000000E+00
(PID.TID 0000.0001) %MON forcing_empmr_max            =   0.0000000000000E+00
(PID.TID 0000.0001) %MON forcing_empmr_min            =   0.0000000000000E+00
(PID.TID 0000.0001) %MON forcing_empmr_mean           =   0.0000000000000E+00
(PID.TID 0000.0001) %MON forcing_empmr_sd             =   0.0000000000000E+00
(PID.TID 0000.0001) %MON forcing_empmr_del2           =   0.0000000000000E+00
(PID.TID 0000.0001) %MON forcing_fu_max               =   0.0000000000000E+00
(PID.TID 0000.0001) %MON forcing_fu_min               =   0.0000000000000E+00
(PID.TID 0000.0001) %MON forcing_fu_mean              =   0.0000000000000E+00
(PID.TID 0000.0001) %MON forcing_fu_sd                =   0.0000000000000E+00
(PID.TID 0000.0001) %MON forcing_fu_del2              =   0.0000000000000E+00
(PID.TID 0000.0001) %MON forcing_fv_max               =   0.0000000000000E+00
(PID.TID 0000.0001) %MON forcing_fv_min               =   0.0000000000000E+00
(PID.TID 0000.0001) %MON forcing_fv_mean              =   0.0000000000000E+00
(PID.TID 0000.0001) %MON forcing_fv_sd                =   0.0000000000000E+00
(PID.TID 0000.0001) %MON forcing_fv_del2              =   0.0000000000000E+00
(PID.TID 0000.0001) %MON advcfl_uvel_max              =   1.3920336472236E-02
(PID.TID 0000.0001) %MON advcfl_vvel_max              =   0.0000000000000E+00
(PID.TID 0000.0001) %MON advcfl_wvel_max              =   3.7731808734161E-02
(PID.TID 0000.0001) %MON advcfl_W_hf_max              =   3.8142308332064E-02
(PID.TID 0000.0001) %MON pe_b_mean                    =   7.9478189977549E-07
(PID.TID 0000.0001) %MON ke_max                       =   1.3779120030977E-02
(PID.TID 0000.0001) %MON ke_mean                      =   6.5759667768099E-03
(PID.TID 0000.0001) %MON ke_vol                       =   9.6656886657870E+10
(PID.TID 0000.0001) %MON vort_r_min                   =   0.0000000000000E+00
(PID.TID 0000.0001) %MON vort_r_max                   =   0.0000000000000E+00
(PID.TID 0000.0001) %MON vort_a_mean                  =   0.0000000000000E+00
(PID.TID 0000.0001) %MON vort_a_sd                    =   0.0000000000000E+00
(PID.TID 0000.0001) %MON vort_p_mean                  =   0.0000000000000E+00
(PID.TID 0000.0001) %MON vort_p_sd                    =   0.0000000000000E+00
(PID.TID 0000.0001) %MON surfExpan_theta_mean         =   5.9915788275621E-19
(PID.TID 0000.0001) %MON surfExpan_salt_mean          =  -3.7243691235817E-20
(PID.TID 0000.0001) // =======================================================
(PID.TID 0000.0001) // End MONITOR dynamic field statistics
(PID.TID 0000.0001) // =======================================================
(PID.TID 0000.0001) // =======================================================
(PID.TID 0000.0001) // Begin OBCS MONITOR field statistics
(PID.TID 0000.0001) // =======================================================
(PID.TID 0000.0001) %MON obc_E_uVel_max               =   1.1205712828732E-01
(PID.TID 0000.0001) %MON obc_E_uVel_min               =   1.1205712828732E-01
(PID.TID 0000.0001) %MON obc_E_uVel_mean              =   1.1205712828732E-01
(PID.TID 0000.0001) %MON obc_E_uVel_sd                =  -1.2143064331838E-17
(PID.TID 0000.0001) %MON obc_E_uVel_Int               =   1.1205712828732E+05
(PID.TID 0000.0001) %MON obc_W_uVel_max               =   1.1205712828732E-01
(PID.TID 0000.0001) %MON obc_W_uVel_min               =   1.1205712828732E-01
(PID.TID 0000.0001) %MON obc_W_uVel_mean              =   1.1205712828732E-01
(PID.TID 0000.0001) %MON obc_W_uVel_sd                =  -1.2143064331838E-17
(PID.TID 0000.0001) %MON obc_W_uVel_Int               =   1.1205712828732E+05
(PID.TID 0000.0001) // =======================================================
(PID.TID 0000.0001) // End OBCS MONITOR field statistics
(PID.TID 0000.0001) // =======================================================
 cg2d: Sum(rhs),rhsMax =  -6.35447250374455E-12  3.34786112779273E-02
 cg2d: Sum(rhs),rhsMax =  -6.16395823271887E-12  3.48109077289994E-02
 cg2d: Sum(rhs),rhsMax =  -5.97188964945872E-12  3.62560877657854E-02
 cg2d: Sum(rhs),rhsMax =  -5.74079672688299E-12  3.78878509871859E-02
 cg2d: Sum(rhs),rhsMax =  -5.51036993812204E-12  3.98260035106518E-02
 cg2d: Sum(rhs),rhsMax =  -5.29043475694380E-12  4.17909024540665E-02
 cg2d: Sum(rhs),rhsMax =  -5.11191089458407E-12  4.37772117218649E-02
 cg2d: Sum(rhs),rhsMax =  -4.91184870554662E-12  4.57792393190366E-02
 cg2d: Sum(rhs),rhsMax =  -4.75114392273213E-12  4.77909626840017E-02
 cg2d: Sum(rhs),rhsMax =  -4.58483251364328E-12  4.98060579410494E-02
 cg2d: Sum(rhs),rhsMax =  -4.45488090861090E-12  5.18179329255353E-02
 cg2d: Sum(rhs),rhsMax =  -4.33364455432184E-12  5.38197637933254E-02
 cg2d: Sum(rhs),rhsMax =  -4.20852241944658E-12  5.58045349532355E-02
 cg2d: Sum(rhs),rhsMax =  -4.12803125016126E-12  5.77650820079066E-02
 cg2d: Sum(rhs),rhsMax =  -4.01434441243964E-12  5.96941373455070E-02
 cg2d: Sum(rhs),rhsMax =  -3.91831012080956E-12  6.15843779784534E-02
 cg2d: Sum(rhs),rhsMax =  -3.84392517815968E-12  6.34284751829256E-02
 cg2d: Sum(rhs),rhsMax =  -3.79096753988506E-12  6.52191454535727E-02
 cg2d: Sum(rhs),rhsMax =  -3.71724873104995E-12  6.69492022652750E-02
 cg2d: Sum(rhs),rhsMax =  -3.66873198487383E-12  6.86116081024225E-02
 cg2d: Sum(rhs),rhsMax =  -3.62565533151837E-12  7.01995261742796E-02
 cg2d: Sum(rhs),rhsMax =  -3.58524321342202E-12  7.17063713224536E-02
 cg2d: Sum(rhs),rhsMax =  -3.53694851185082E-12  7.31258595382643E-02
 cg2d: Sum(rhs),rhsMax =  -3.51996209957406E-12  7.44520554852768E-02
 cg2d: Sum(rhs),rhsMax =  -3.52484708088241E-12  7.56794175864073E-02
 cg2d: Sum(rhs),rhsMax =  -3.59257068538454E-12  7.68028401466525E-02
 cg2d: Sum(rhs),rhsMax =  -3.60855789693915E-12  7.78176920070928E-02
 cg2d: Sum(rhs),rhsMax =  -3.61943808258047E-12  7.87198512941939E-02
 cg2d: Sum(rhs),rhsMax =  -3.67483821150927E-12  7.95057359364778E-02
 cg2d: Sum(rhs),rhsMax =  -3.71447317348839E-12  8.01723295806967E-02
 cg2d: Sum(rhs),rhsMax =  -3.76809694557778E-12  8.07172026458217E-02
 cg2d: Sum(rhs),rhsMax =  -3.80107056940915E-12  8.11385282880797E-02
 cg2d: Sum(rhs),rhsMax =  -3.82527343134598E-12  8.14350931335063E-02
 cg2d: Sum(rhs),rhsMax =  -3.89321908045304E-12  8.16063026933773E-02
 cg2d: Sum(rhs),rhsMax =  -3.93163279710507E-12  8.16521814326887E-02
 cg2d: Sum(rhs),rhsMax =  -3.95716792667145E-12  8.15733675473356E-02
 cg2d: Sum(rhs),rhsMax =  -3.97060162526941E-12  8.13711025611183E-02
 cg2d: Sum(rhs),rhsMax =  -4.03044264629671E-12  8.10472158791916E-02
 cg2d: Sum(rhs),rhsMax =  -4.07018863057829E-12  8.06041045861118E-02
 cg2d: Sum(rhs),rhsMax =  -4.15312229051779E-12  8.00447087218605E-02
 cg2d: Sum(rhs),rhsMax =  -4.21385148996478E-12  7.93724822202978E-02
 cg2d: Sum(rhs),rhsMax =  -4.25615098720300E-12  7.85913601510294E-02
 cg2d: Sum(rhs),rhsMax =  -4.32021085572387E-12  7.77057226220083E-02
 cg2d: Sum(rhs),rhsMax =  -4.38715730410877E-12  7.67203556283333E-02
 cg2d: Sum(rhs),rhsMax =  -4.48341364034377E-12  7.56404096386499E-02
 cg2d: Sum(rhs),rhsMax =  -4.62541116519333E-12  7.44713560824146E-02
 cg2d: Sum(rhs),rhsMax =  -4.80848694195402E-12  7.34765380332277E-02
 cg2d: Sum(rhs),rhsMax =  -4.96191976395721E-12  7.33271428685626E-02
 cg2d: Sum(rhs),rhsMax =  -5.03475039437262E-12  7.30613421699728E-02
 cg2d: Sum(rhs),rhsMax =  -5.18352027967239E-12  7.26811063169614E-02
 cg2d: Sum(rhs),rhsMax =  -5.33106891964508E-12  7.21889213024867E-02
 cg2d: Sum(rhs),rhsMax =  -5.48194822869164E-12  7.15877653723551E-02
 cg2d: Sum(rhs),rhsMax =  -5.66946489755082E-12  7.08810822199478E-02
 cg2d: Sum(rhs),rhsMax =  -5.80258063820338E-12  7.00727509975392E-02
 cg2d: Sum(rhs),rhsMax =  -5.99598148909308E-12  6.91670534422197E-02
 cg2d: Sum(rhs),rhsMax =  -6.15030248951598E-12  6.81686385869983E-02
 cg2d: Sum(rhs),rhsMax =  -6.34403640731307E-12  6.70824853524744E-02
 cg2d: Sum(rhs),rhsMax =  -6.40065778156895E-12  6.59138633821429E-02
 cg2d: Sum(rhs),rhsMax =  -6.38944452902024E-12  6.46682925144456E-02
 cg2d: Sum(rhs),rhsMax =  -6.40554276287730E-12  6.33515011975392E-02
 cg2d: Sum(rhs),rhsMax =  -6.40609787438962E-12  6.19693849897153E-02
 cg2d: Sum(rhs),rhsMax =  -6.53432863373382E-12  6.05279647717000E-02
 cg2d: Sum(rhs),rhsMax =  -6.67954580535479E-12  5.90333453847350E-02
 cg2d: Sum(rhs),rhsMax =  -6.79112321932962E-12  5.74916751351009E-02
 cg2d: Sum(rhs),rhsMax =  -6.94844182191900E-12  5.59091062620011E-02
 cg2d: Sum(rhs),rhsMax =  -7.07811587119522E-12  5.42917567070944E-02
 cg2d: Sum(rhs),rhsMax =  -7.20801196507637E-12  5.26456736285875E-02
 cg2d: Sum(rhs),rhsMax =  -7.38131777922035E-12  5.09767989114944E-02
 cg2d: Sum(rhs),rhsMax =  -7.55973061927762E-12  4.92909368395356E-02
 cg2d: Sum(rhs),rhsMax =  -7.75823849608059E-12  4.75937241126201E-02
 cg2d: Sum(rhs),rhsMax =  -7.95707943979096E-12  4.58906023581544E-02
 cg2d: Sum(rhs),rhsMax =  -8.16868794828451E-12  4.41867933651160E-02
 cg2d: Sum(rhs),rhsMax =  -8.39683877984498E-12  4.24872769191816E-02
 cg2d: Sum(rhs),rhsMax =  -8.64053273375021E-12  4.07967715812499E-02
 cg2d: Sum(rhs),rhsMax =  -8.86479778472449E-12  3.91197182396902E-02
 cg2d: Sum(rhs),rhsMax =  -9.18054521292788E-12  3.74602663900217E-02
 cg2d: Sum(rhs),rhsMax =  -9.47675271589787E-12  3.58222632953389E-02
 cg2d: Sum(rhs),rhsMax =  -9.82747216937696E-12  3.42092457392404E-02
 cg2d: Sum(rhs),rhsMax =  -1.01597619206473E-11  3.26244342734928E-02
 cg2d: Sum(rhs),rhsMax =  -1.05411235296060E-11  3.10707300927612E-02
 cg2d: Sum(rhs),rhsMax =  -1.09677822379695E-11  2.95507143388042E-02
 cg2d: Sum(rhs),rhsMax =  -1.13972165038945E-11  2.80666498335024E-02
 cg2d: Sum(rhs),rhsMax =  -1.18645093749592E-11  2.66204845986844E-02
 cg2d: Sum(rhs),rhsMax =  -1.24475985074923E-11  2.52138572116103E-02
 cg2d: Sum(rhs),rhsMax =  -1.30357946659387E-11  2.38481040170034E-02
 cg2d: Sum(rhs),rhsMax =  -1.37564404312229E-11  2.25242679586975E-02
 cg2d: Sum(rhs),rhsMax =  -1.46207490558936E-11  2.12431086653156E-02
 cg2d: Sum(rhs),rhsMax =  -1.54483092984492E-11  2.00051136948207E-02
 cg2d: Sum(rhs),rhsMax =  -1.63227209526440E-11  1.88105106921765E-02
 cg2d: Sum(rhs),rhsMax =  -1.70594649517852E-11  1.79465146708454E-02
 cg2d: Sum(rhs),rhsMax =  -1.74801284558157E-11  1.73933507044151E-02
 cg2d: Sum(rhs),rhsMax =  -1.80818693351625E-11  1.68216695945418E-02
 cg2d: Sum(rhs),rhsMax =  -1.86504145460731E-11  1.62408957428907E-02
 cg2d: Sum(rhs),rhsMax =  -1.92887927852325E-11  1.56446221154333E-02
 cg2d: Sum(rhs),rhsMax =  -2.00053307253256E-11  1.50306278249862E-02
 cg2d: Sum(rhs),rhsMax =  -2.08320027894615E-11  1.43998070924830E-02
 cg2d: Sum(rhs),rhsMax =  -2.17645901301466E-11  1.37575068319412E-02
 cg2d: Sum(rhs),rhsMax =  -2.28708163518831E-11  1.30991142579626E-02
 cg2d: Sum(rhs),rhsMax =  -2.40364395054371E-11  1.24247992575304E-02
 cg2d: Sum(rhs),rhsMax =  -2.53074228240280E-11  1.17354348527542E-02
 cg2d: Sum(rhs),rhsMax =  -2.69750888293174E-11  1.10318782593614E-02
 cg2d: Sum(rhs),rhsMax =  -2.88558066330324E-11  1.03149709904229E-02
 cg2d: Sum(rhs),rhsMax =  -3.11922709883561E-11  9.58553963565809E-03
 cg2d: Sum(rhs),rhsMax =  -3.38994388116021E-11  8.84704475485915E-03
 cg2d: Sum(rhs),rhsMax =  -3.71360719952918E-11  8.10109563717330E-03
 cg2d: Sum(rhs),rhsMax =  -4.11081169104932E-11  7.34595778973832E-03
 cg2d: Sum(rhs),rhsMax =  -4.58925120128129E-11  6.59154423754093E-03
 cg2d: Sum(rhs),rhsMax =  -5.18582954356361E-11  5.83746748523730E-03
 cg2d: Sum(rhs),rhsMax =  -5.96930282981134E-11  5.09173600840698E-03
 cg2d: Sum(rhs),rhsMax =  -6.95826174457181E-11  4.36744564617402E-03
 cg2d: Sum(rhs),rhsMax =  -8.25619017597035E-11  3.68191440164562E-03
 cg2d: Sum(rhs),rhsMax =  -9.38655264626220E-11  3.23908658241062E-03
 cg2d: Sum(rhs),rhsMax =  -1.01592179113652E-10  2.99321433325546E-03
 cg2d: Sum(rhs),rhsMax =  -1.10598116168786E-10  2.75167357182880E-03
 cg2d: Sum(rhs),rhsMax =  -1.21160859123393E-10  2.51285862526007E-03
 cg2d: Sum(rhs),rhsMax =  -1.33930144752270E-10  2.27513039575205E-03
 cg2d: Sum(rhs),rhsMax =  -1.31448629758779E-10  2.32009698655217E-03
 cg2d: Sum(rhs),rhsMax =  -1.00153663140645E-10  3.04740788016672E-03
 cg2d: Sum(rhs),rhsMax =  -8.04245559038463E-11  3.79771685771334E-03
 cg2d: Sum(rhs),rhsMax =  -6.70352662268670E-11  4.55933680685425E-03
 cg2d: Sum(rhs),rhsMax =  -5.74493785876484E-11  5.32427606203678E-03
 cg2d: Sum(rhs),rhsMax =  -5.02939911939393E-11  6.08840291936018E-03
 cg2d: Sum(rhs),rhsMax =  -4.47695214234045E-11  6.84777079731779E-03
 cg2d: Sum(rhs),rhsMax =  -4.03366229306812E-11  7.59975965747908E-03
 cg2d: Sum(rhs),rhsMax =  -3.68756136737147E-11  8.34662901770779E-03
 cg2d: Sum(rhs),rhsMax =  -3.40147909838606E-11  9.08079551298709E-03
 cg2d: Sum(rhs),rhsMax =  -3.15587556087848E-11  9.80687026398508E-03
 cg2d: Sum(rhs),rhsMax =  -2.94937407829821E-11  1.05198543484240E-02
 cg2d: Sum(rhs),rhsMax =  -2.76685341304983E-11  1.12215829323067E-02
 cg2d: Sum(rhs),rhsMax =  -2.61528576572800E-11  1.19105125267949E-02
 cg2d: Sum(rhs),rhsMax =  -2.48111531320205E-11  1.25862538895894E-02
 cg2d: Sum(rhs),rhsMax =  -2.36349828597326E-11  1.32497464197526E-02
 cg2d: Sum(rhs),rhsMax =  -2.26101359857012E-11  1.38985816451580E-02
 cg2d: Sum(rhs),rhsMax =  -2.16524576046595E-11  1.45366328911205E-02
 cg2d: Sum(rhs),rhsMax =  -2.07908135152479E-11  1.51582769264231E-02
 cg2d: Sum(rhs),rhsMax =  -2.00582883636002E-11  1.57721613066008E-02
 cg2d: Sum(rhs),rhsMax =  -1.93742799581287E-11  1.63668928048090E-02
 cg2d: Sum(rhs),rhsMax =  -1.87397874995554E-11  1.69591027253943E-02
 cg2d: Sum(rhs),rhsMax =  -1.79025683166856E-11  1.77641530813641E-02
 cg2d: Sum(rhs),rhsMax =  -1.71826997075186E-11  1.86874958373767E-02
 cg2d: Sum(rhs),rhsMax =  -1.63442592793217E-11  1.97560248142771E-02
 cg2d: Sum(rhs),rhsMax =  -1.55635504484053E-11  2.08530030582581E-02
 cg2d: Sum(rhs),rhsMax =  -1.47615253354161E-11  2.19774767990501E-02
 cg2d: Sum(rhs),rhsMax =  -1.39988021174986E-11  2.31282968031963E-02
 cg2d: Sum(rhs),rhsMax =  -1.33519861833520E-11  2.43041177337427E-02
 cg2d: Sum(rhs),rhsMax =  -1.27494681478879E-11  2.55033985885130E-02
 cg2d: Sum(rhs),rhsMax =  -1.22351018205791E-11  2.67244042950129E-02
 cg2d: Sum(rhs),rhsMax =  -1.17412746192258E-11  2.79652085053764E-02
 cg2d: Sum(rhs),rhsMax =  -1.12878595359689E-11  2.92236976324822E-02
 cg2d: Sum(rhs),rhsMax =  -1.08918429830851E-11  3.04975761539874E-02
 cg2d: Sum(rhs),rhsMax =  -1.05520037152473E-11  3.17843732168116E-02
 cg2d: Sum(rhs),rhsMax =  -1.02522434985985E-11  3.30814505600118E-02
 cg2d: Sum(rhs),rhsMax =  -1.00279784476243E-11  3.43860117201600E-02
 cg2d: Sum(rhs),rhsMax =  -9.69868629852044E-12  3.56951125254566E-02
 cg2d: Sum(rhs),rhsMax =  -9.47919520655205E-12  3.70056728480198E-02
 cg2d: Sum(rhs),rhsMax =  -9.27458110311363E-12  3.83144895669883E-02
 cg2d: Sum(rhs),rhsMax =  -9.08340069827318E-12  3.96182506784177E-02
 cg2d: Sum(rhs),rhsMax =  -8.89965878769772E-12  4.09135504942895E-02
 cg2d: Sum(rhs),rhsMax =  -8.73312533400394E-12  4.21969058335557E-02
 cg2d: Sum(rhs),rhsMax =  -8.61044568978286E-12  4.34647731074988E-02
 cg2d: Sum(rhs),rhsMax =  -8.44357916918170E-12  4.47135661953639E-02
 cg2d: Sum(rhs),rhsMax =  -8.30757684866512E-12  4.59396749930032E-02
 cg2d: Sum(rhs),rhsMax =  -8.22542034484286E-12  4.71394845053861E-02
 cg2d: Sum(rhs),rhsMax =  -8.07354183507414E-12  4.83093943444754E-02
 cg2d: Sum(rhs),rhsMax =  -7.96440691175349E-12  4.94458384870276E-02
 cg2d: Sum(rhs),rhsMax =  -7.89723841876366E-12  5.05453051448361E-02
 cg2d: Sum(rhs),rhsMax =  -7.82840459123690E-12  5.16043565978337E-02
 cg2d: Sum(rhs),rhsMax =  -7.78932474077010E-12  5.26196488021627E-02
 cg2d: Sum(rhs),rhsMax =  -7.69850849735576E-12  5.35879506426373E-02
 cg2d: Sum(rhs),rhsMax =  -7.66942065411058E-12  5.45061626727971E-02
 cg2d: Sum(rhs),rhsMax =  -7.63666907488414E-12  5.53713351858642E-02
 cg2d: Sum(rhs),rhsMax =  -7.62434559931080E-12  5.61806854679255E-02
 cg2d: Sum(rhs),rhsMax =  -7.59015073015235E-12  5.69316140749477E-02
 cg2d: Sum(rhs),rhsMax =  -7.59825535823211E-12  5.76217200006970E-02
 cg2d: Sum(rhs),rhsMax =  -7.52120588032312E-12  5.86426025575452E-02
 cg2d: Sum(rhs),rhsMax =  -7.42161887501425E-12  6.02355339821153E-02
 cg2d: Sum(rhs),rhsMax =  -7.28506144298535E-12  6.17845136073957E-02
 cg2d: Sum(rhs),rhsMax =  -7.19657666792273E-12  6.32846761840098E-02
 cg2d: Sum(rhs),rhsMax =  -7.08899605683655E-12  6.47312633043969E-02
 cg2d: Sum(rhs),rhsMax =  -7.00284275012564E-12  6.61196493565596E-02
 cg2d: Sum(rhs),rhsMax =  -6.91879886716151E-12  6.74453669516932E-02
 cg2d: Sum(rhs),rhsMax =  -6.87094825480017E-12  6.87041316597035E-02
 cg2d: Sum(rhs),rhsMax =  -6.80078215964386E-12  6.98918657834235E-02
 cg2d: Sum(rhs),rhsMax =  -6.72961686376539E-12  7.10047210132793E-02
 cg2d: Sum(rhs),rhsMax =  -6.65556498802289E-12  7.20390998284695E-02
 cg2d: Sum(rhs),rhsMax =  -6.62636612247525E-12  7.29916754147534E-02
 cg2d: Sum(rhs),rhsMax =  -6.54798437693671E-12  7.38594099488766E-02
 cg2d: Sum(rhs),rhsMax =  -6.50091092069260E-12  7.46395710993314E-02
 cg2d: Sum(rhs),rhsMax =  -6.47870646020010E-12  7.53297466567705E-02
 cg2d: Sum(rhs),rhsMax =  -6.40465458445760E-12  7.59278571585935E-02
 cg2d: Sum(rhs),rhsMax =  -6.38122887863801E-12  7.64321664082138E-02
 cg2d: Sum(rhs),rhsMax =  -6.37456754049026E-12  7.68412898134011E-02
 cg2d: Sum(rhs),rhsMax =  -6.34647889796724E-12  7.71542004876787E-02
 cg2d: Sum(rhs),rhsMax =  -6.32094376840087E-12  7.73702330782710E-02
 cg2d: Sum(rhs),rhsMax =  -6.33904040370226E-12  7.74890853034936E-02
 cg2d: Sum(rhs),rhsMax =  -6.36890540306467E-12  7.75108171975712E-02
 cg2d: Sum(rhs),rhsMax =  -6.39888142472955E-12  7.74358481187932E-02
 cg2d: Sum(rhs),rhsMax =  -6.47970566092226E-12  7.72649514946901E-02
 cg2d: Sum(rhs),rhsMax =  -6.56386056618885E-12  7.69992474565263E-02
 cg2d: Sum(rhs),rhsMax =  -6.69175825862567E-12  7.66401933311131E-02
 cg2d: Sum(rhs),rhsMax =  -6.75504097102930E-12  7.61895721800762E-02
 cg2d: Sum(rhs),rhsMax =  -6.82731648993240E-12  7.56494793945055E-02
 cg2d: Sum(rhs),rhsMax =  -6.92690349524128E-12  7.50223076473589E-02
 cg2d: Sum(rhs),rhsMax =  -7.04769576032049E-12  7.43107300871525E-02
 cg2d: Sum(rhs),rhsMax =  -7.18392012544200E-12  7.35176820283254E-02
 cg2d: Sum(rhs),rhsMax =  -7.28905824587400E-12  7.26463416314872E-02
 cg2d: Sum(rhs),rhsMax =  -7.43871630959347E-12  7.17001092427360E-02
 cg2d: Sum(rhs),rhsMax =  -7.62201413095909E-12  7.06825859397278E-02
 cg2d: Sum(rhs),rhsMax =  -7.78799247314055E-12  6.95975513778154E-02
 cg2d: Sum(rhs),rhsMax =  -7.97184540601847E-12  6.84489406295678E-02
 cg2d: Sum(rhs),rhsMax =  -8.16535727921064E-12  6.72408206090372E-02
 cg2d: Sum(rhs),rhsMax =  -8.39472935609820E-12  6.59773665355776E-02
 cg2d: Sum(rhs),rhsMax =  -8.62421245528822E-12  6.46628380929351E-02
 cg2d: Sum(rhs),rhsMax =  -8.86435369551464E-12  6.33015556849603E-02
 cg2d: Sum(rhs),rhsMax =  -9.13369380128870E-12  6.18978770174594E-02
 cg2d: Sum(rhs),rhsMax =  -9.44389011436897E-12  6.04561741419444E-02
 cg2d: Sum(rhs),rhsMax =  -9.71711600072922E-12  5.89808110859728E-02
 cg2d: Sum(rhs),rhsMax =  -1.00665031865788E-11  5.74761221783243E-02
 cg2d: Sum(rhs),rhsMax =  -1.04065644990214E-11  5.59463911787781E-02
 cg2d: Sum(rhs),rhsMax =  -1.07465147891617E-11  5.43958313054952E-02
 cg2d: Sum(rhs),rhsMax =  -1.11369802269223E-11  5.28285663432922E-02
 cg2d: Sum(rhs),rhsMax =  -1.15457643445893E-11  5.12486129212141E-02
 cg2d: Sum(rhs),rhsMax =  -1.19745324766996E-11  4.96598639657665E-02
 cg2d: Sum(rhs),rhsMax =  -1.24382726340855E-11  4.80660734649695E-02
 cg2d: Sum(rhs),rhsMax =  -1.28795862863740E-11  4.64708425780763E-02
 cg2d: Sum(rhs),rhsMax =  -1.33629773912958E-11  4.48776070106969E-02
 cg2d: Sum(rhs),rhsMax =  -1.39730449433273E-11  4.32896259554282E-02
 cg2d: Sum(rhs),rhsMax =  -1.44381173683428E-11  4.17099724472222E-02
 cg2d: Sum(rhs),rhsMax =  -1.49178447372833E-11  4.01415250665450E-02
 cg2d: Sum(rhs),rhsMax =  -1.54969370669278E-11  3.85869610045259E-02
 cg2d: Sum(rhs),rhsMax =  -1.60993440800894E-11  3.70487504819199E-02
 cg2d: Sum(rhs),rhsMax =  -1.67388325422735E-11  3.55291524388291E-02
 cg2d: Sum(rhs),rhsMax =  -1.74402714492317E-11  3.40302117640828E-02
 cg2d: Sum(rhs),rhsMax =  -1.81841208757305E-11  3.25537577167983E-02
 cg2d: Sum(rhs),rhsMax =  -1.90426563406731E-11  3.11014035041561E-02
 cg2d: Sum(rhs),rhsMax =  -1.98994154487764E-11  2.96745469808549E-02
 cg2d: Sum(rhs),rhsMax =  -2.08510986254851E-11  2.82743724173546E-02
 cg2d: Sum(rhs),rhsMax =  -2.18447482325246E-11  2.69018532994668E-02
 cg2d: Sum(rhs),rhsMax =  -2.29259944362070E-11  2.55577560896283E-02
 cg2d: Sum(rhs),rhsMax =  -2.40948372365324E-11  2.42426447896706E-02
 cg2d: Sum(rhs),rhsMax =  -2.54416487877052E-11  2.29568863380093E-02
 cg2d: Sum(rhs),rhsMax =  -2.68588484786392E-11  2.17006567733720E-02
 cg2d: Sum(rhs),rhsMax =  -2.84606782585684E-11  2.04739480305975E-02
 cg2d: Sum(rhs),rhsMax =  -3.01638714006458E-11  1.92765752945602E-02
 cg2d: Sum(rhs),rhsMax =  -3.21118687196531E-11  1.81081848500785E-02
 cg2d: Sum(rhs),rhsMax =  -3.41517925050994E-11  1.69682623710730E-02
 cg2d: Sum(rhs),rhsMax =  -3.65371066735065E-11  1.58561415914616E-02
 cg2d: Sum(rhs),rhsMax =  -3.91633392382573E-11  1.47710133277929E-02
 cg2d: Sum(rhs),rhsMax =  -4.21043200304894E-11  1.37119347031427E-02
 cg2d: Sum(rhs),rhsMax =  -4.54564164087401E-11  1.26778386167716E-02
 cg2d: Sum(rhs),rhsMax =  -4.92741403235186E-11  1.16675433756248E-02
 cg2d: Sum(rhs),rhsMax =  -5.38159516949577E-11  1.06797624409480E-02
 cg2d: Sum(rhs),rhsMax =  -5.90825166568720E-11  9.71311424473552E-03
 cg2d: Sum(rhs),rhsMax =  -6.54291065771417E-11  8.76613210309855E-03
 cg2d: Sum(rhs),rhsMax =  -7.31037452794681E-11  7.83727403363866E-03
 cg2d: Sum(rhs),rhsMax =  -8.26708701495704E-11  6.92493254820177E-03
 cg2d: Sum(rhs),rhsMax =  -9.49101908176431E-11  6.02744446104221E-03
 cg2d: Sum(rhs),rhsMax =  -1.11215259224196E-10  5.14310055119800E-03
 cg2d: Sum(rhs),rhsMax =  -1.33777766642140E-10  4.27015516533803E-03
 cg2d: Sum(rhs),rhsMax =  -1.49151802020242E-10  3.82727496347723E-03
 cg2d: Sum(rhs),rhsMax =  -1.62470703557460E-10  3.51292362552444E-03
 cg2d: Sum(rhs),rhsMax =  -1.78311587717417E-10  3.20038102224503E-03
 cg2d: Sum(rhs),rhsMax =  -1.97584615335700E-10  2.88827463596321E-03
 cg2d: Sum(rhs),rhsMax =  -2.21517026943729E-10  2.57521845290771E-03
 cg2d: Sum(rhs),rhsMax =  -2.52355469854137E-10  2.25981530882602E-03
 cg2d: Sum(rhs),rhsMax =  -1.99428806801905E-10  2.85866135468628E-03
 cg2d: Sum(rhs),rhsMax =  -1.52869883418560E-10  3.72839107448478E-03
 cg2d: Sum(rhs),rhsMax =  -1.23891674697063E-10  4.59914942948810E-03
 cg2d: Sum(rhs),rhsMax =  -1.04053710092700E-10  5.47135603144466E-03
 cg2d: Sum(rhs),rhsMax =  -8.96280133444449E-11  6.34539354475721E-03
 cg2d: Sum(rhs),rhsMax =  -7.86387621687368E-11  7.22546789915624E-03
 cg2d: Sum(rhs),rhsMax =  -6.99906417545026E-11  8.10938777757449E-03
 cg2d: Sum(rhs),rhsMax =  -6.30761623487963E-11  8.99262900732973E-03
 cg2d: Sum(rhs),rhsMax =  -5.73804476156070E-11  9.87513311269236E-03
 cg2d: Sum(rhs),rhsMax =  -5.26650945076312E-11  1.07568036373786E-02
 cg2d: Sum(rhs),rhsMax =  -4.85388396143094E-11  1.16438212578789E-02
 cg2d: Sum(rhs),rhsMax =  -4.49590087381324E-11  1.25374606605713E-02
 cg2d: Sum(rhs),rhsMax =  -4.18889367637121E-11  1.34342124559557E-02
 cg2d: Sum(rhs),rhsMax =  -3.91666421517556E-11  1.43339724943925E-02
 cg2d: Sum(rhs),rhsMax =  -3.67714192428537E-11  1.52365721264995E-02
 cg2d: Sum(rhs),rhsMax =  -3.46603301615289E-11  1.61421530092980E-02
 cg2d: Sum(rhs),rhsMax =  -3.27017857237877E-11  1.70674902905902E-02
 cg2d: Sum(rhs),rhsMax =  -3.09700043388261E-11  1.80024155402288E-02
 cg2d: Sum(rhs),rhsMax =  -2.93586266408852E-11  1.89583277467365E-02
 cg2d: Sum(rhs),rhsMax =  -2.78911338469356E-11  1.99338461847024E-02
 cg2d: Sum(rhs),rhsMax =  -2.64975819064261E-11  2.09339656859801E-02
 cg2d: Sum(rhs),rhsMax =  -2.51909604287448E-11  2.20045575479599E-02
 cg2d: Sum(rhs),rhsMax =  -2.38837283283999E-11  2.31612074194658E-02
 cg2d: Sum(rhs),rhsMax =  -2.25859886349156E-11  2.43349798246965E-02
 cg2d: Sum(rhs),rhsMax =  -2.14835926826140E-11  2.55250236135864E-02
 cg2d: Sum(rhs),rhsMax =  -2.04541938941816E-11  2.67303408336262E-02
 cg2d: Sum(rhs),rhsMax =  -1.94393945385229E-11  2.79497884859419E-02
 cg2d: Sum(rhs),rhsMax =  -1.85616522152543E-11  2.91820810013463E-02
 cg2d: Sum(rhs),rhsMax =  -1.76874626056645E-11  3.04257934496490E-02
 cg2d: Sum(rhs),rhsMax =  -1.69360636625981E-11  3.16793654912057E-02
 cg2d: Sum(rhs),rhsMax =  -1.63210001069558E-11  3.29411060747735E-02
 cg2d: Sum(rhs),rhsMax =  -1.57980850623574E-11  3.42091988801936E-02
 cg2d: Sum(rhs),rhsMax =  -1.52623469418245E-11  3.54817084983207E-02
 cg2d: Sum(rhs),rhsMax =  -1.47497569713551E-11  3.67565873339014E-02
 cg2d: Sum(rhs),rhsMax =  -1.42990064233572E-11  3.80316832114782E-02
 cg2d: Sum(rhs),rhsMax =  -1.38447031616806E-11  3.93047476573590E-02
 cg2d: Sum(rhs),rhsMax =  -1.34070532453734E-11  4.05734448237309E-02
 cg2d: Sum(rhs),rhsMax =  -1.29753985333991E-11  4.18353610152445E-02
 cg2d: Sum(rhs),rhsMax =  -1.27048371822980E-11  4.30880147728918E-02
 cg2d: Sum(rhs),rhsMax =  -1.23828725051567E-11  4.43288674645756E-02
 cg2d: Sum(rhs),rhsMax =  -1.20603527165031E-11  4.55553343265447E-02
 cg2d: Sum(rhs),rhsMax =  -1.17388321285716E-11  4.67647958951258E-02
 cg2d: Sum(rhs),rhsMax =  -1.14921405724999E-11  4.79546097641472E-02
 cg2d: Sum(rhs),rhsMax =  -1.12649889416616E-11  4.91221226002464E-02
 cg2d: Sum(rhs),rhsMax =  -1.10389475338479E-11  5.02646823458514E-02
 cg2d: Sum(rhs),rhsMax =  -1.08192343972746E-11  5.13796505382567E-02
 cg2d: Sum(rhs),rhsMax =  -1.06225028773110E-11  5.24644146714849E-02
 cg2d: Sum(rhs),rhsMax =  -1.04919406496151E-11  5.35164005262233E-02
 cg2d: Sum(rhs),rhsMax =  -1.03184127908662E-11  5.45330843972604E-02
 cg2d: Sum(rhs),rhsMax =  -1.01685326825418E-11  5.55120051431964E-02
 cg2d: Sum(rhs),rhsMax =  -1.00482955289749E-11  5.64507759863438E-02
 cg2d: Sum(rhs),rhsMax =  -9.90774129405736E-12  5.73470959916864E-02
 cg2d: Sum(rhs),rhsMax =  -9.79927250455148E-12  5.81987611547374E-02
 cg2d: Sum(rhs),rhsMax =  -9.69857527621798E-12  5.90036750296769E-02
 cg2d: Sum(rhs),rhsMax =  -9.59743395867463E-12  5.97598588312534E-02
 cg2d: Sum(rhs),rhsMax =  -9.49562650731650E-12  6.04654609465609E-02
 cg2d: Sum(rhs),rhsMax =  -9.42856903662914E-12  6.11187657955114E-02
 cg2d: Sum(rhs),rhsMax =  -9.36362098968857E-12  6.17182019827004E-02
 cg2d: Sum(rhs),rhsMax =  -9.27746768297766E-12  6.22623496878731E-02
 cg2d: Sum(rhs),rhsMax =  -9.26192456063291E-12  6.27499472467253E-02
 cg2d: Sum(rhs),rhsMax =  -9.20818976624105E-12  6.31798968794150E-02
 cg2d: Sum(rhs),rhsMax =  -9.16466902367574E-12  6.35512695304638E-02
 cg2d: Sum(rhs),rhsMax =  -9.18254361437221E-12  6.38633087936129E-02
 cg2d: Sum(rhs),rhsMax =  -9.19675446908741E-12  6.41154338991883E-02
 cg2d: Sum(rhs),rhsMax =  -9.22739662456706E-12  6.43072417308206E-02
 cg2d: Sum(rhs),rhsMax =  -9.23605636415914E-12  6.44385078853581E-02
 cg2d: Sum(rhs),rhsMax =  -9.25148846420143E-12  6.45091867857257E-02
 cg2d: Sum(rhs),rhsMax =  -9.25748366853441E-12  6.45194108577374E-02
 cg2d: Sum(rhs),rhsMax =  -9.31088539601888E-12  6.44694886946375E-02
 cg2d: Sum(rhs),rhsMax =  -9.32875998671534E-12  6.43599024162880E-02
 cg2d: Sum(rhs),rhsMax =  -9.36417610120088E-12  6.41913040732752E-02
 cg2d: Sum(rhs),rhsMax =  -9.39825994805688E-12  6.39645112454224E-02
 cg2d: Sum(rhs),rhsMax =  -9.44544442660344E-12  6.36805018193880E-02
 cg2d: Sum(rhs),rhsMax =  -9.52349310523459E-12  6.33404080181008E-02
 cg2d: Sum(rhs),rhsMax =  -9.56812407082452E-12  6.29455096621249E-02
 cg2d: Sum(rhs),rhsMax =  -9.67903535098458E-12  6.24972269182074E-02
 cg2d: Sum(rhs),rhsMax =  -9.79138992107664E-12  6.19971124898241E-02
 cg2d: Sum(rhs),rhsMax =  -9.95226123734483E-12  6.14468432360558E-02
 cg2d: Sum(rhs),rhsMax =  -1.01202379809706E-11  6.08482112046588E-02
 cg2d: Sum(rhs),rhsMax =  -1.02916564159727E-11  6.02031145163258E-02
 cg2d: Sum(rhs),rhsMax =  -1.05118136417559E-11  5.95135477361623E-02
 cg2d: Sum(rhs),rhsMax =  -1.07576170194079E-11  5.87815919248394E-02
 cg2d: Sum(rhs),rhsMax =  -1.09179332241638E-11  5.84816881027773E-02
 cg2d: Sum(rhs),rhsMax =  -1.10436104705514E-11  5.81805107055100E-02
 cg2d: Sum(rhs),rhsMax =  -1.12477804847799E-11  5.78216618902504E-02
 cg2d: Sum(rhs),rhsMax =  -1.14401821349475E-11  5.74064506203744E-02
 cg2d: Sum(rhs),rhsMax =  -1.16687770557178E-11  5.69363346794780E-02
 cg2d: Sum(rhs),rhsMax =  -1.18605125720705E-11  5.64129121584268E-02
 cg2d: Sum(rhs),rhsMax =  -1.20845555784399E-11  5.58379122025333E-02
 cg2d: Sum(rhs),rhsMax =  -1.22942767077916E-11  5.52131852983439E-02
 cg2d: Sum(rhs),rhsMax =  -1.25697230402011E-11  5.45406932170276E-02
 cg2d: Sum(rhs),rhsMax =  -1.28570487589741E-11  5.38224982619215E-02
 cg2d: Sum(rhs),rhsMax =  -1.31095134747738E-11  5.30607524699794E-02
 cg2d: Sum(rhs),rhsMax =  -1.34089406245153E-11  5.22576865202687E-02
 cg2d: Sum(rhs),rhsMax =  -1.36775035741721E-11  5.14155984200173E-02
 cg2d: Sum(rhs),rhsMax =  -1.39200873050527E-11  5.05368419896310E-02
 cg2d: Sum(rhs),rhsMax =  -1.41543443632486E-11  4.96238154224721E-02
 cg2d: Sum(rhs),rhsMax =  -1.43169920363562E-11  4.86789498841844E-02
 cg2d: Sum(rhs),rhsMax =  -1.45522482952742E-11  4.77046982080182E-02
 cg2d: Sum(rhs),rhsMax =  -1.47728496102673E-11  4.67035236716720E-02
 cg2d: Sum(rhs),rhsMax =  -1.50197632109439E-11  4.56778890308777E-02
 cg2d: Sum(rhs),rhsMax =  -1.53341783715177E-11  4.46302458066449E-02
 cg2d: Sum(rhs),rhsMax =  -1.56282764507409E-11  4.35630240360126E-02
 cg2d: Sum(rhs),rhsMax =  -1.59335877825129E-11  4.24786224221258E-02
 cg2d: Sum(rhs),rhsMax =  -1.62726498942334E-11  4.13793988570379E-02
 cg2d: Sum(rhs),rhsMax =  -1.66203717455460E-11  4.02676613848706E-02
 cg2d: Sum(rhs),rhsMax =  -1.70113922948190E-11  3.91456597480502E-02
 cg2d: Sum(rhs),rhsMax =  -1.74333880664790E-11  3.80155773967280E-02
 cg2d: Sum(rhs),rhsMax =  -1.78235204373323E-11  3.68795240092096E-02
 cg2d: Sum(rhs),rhsMax =  -1.82605042198247E-11  3.57395286491868E-02
 cg2d: Sum(rhs),rhsMax =  -1.88367099696052E-11  3.45975333628281E-02
 cg2d: Sum(rhs),rhsMax =  -1.94287919086378E-11  3.34553873104131E-02
 cg2d: Sum(rhs),rhsMax =  -2.01197947191645E-11  3.23148415786242E-02
 cg2d: Sum(rhs),rhsMax =  -2.07833750209829E-11  3.11775446403612E-02
 cg2d: Sum(rhs),rhsMax =  -2.14888107308298E-11  3.00450384561178E-02
 cg2d: Sum(rhs),rhsMax =  -2.22869500632328E-11  2.89187551449143E-02
 cg2d: Sum(rhs),rhsMax =  -2.31069607892209E-11  2.78000143940792E-02
 cg2d: Sum(rhs),rhsMax =  -2.39783748412492E-11  2.66900213894132E-02
 cg2d: Sum(rhs),rhsMax =  -2.49935627749664E-11  2.55898653242257E-02
 cg2d: Sum(rhs),rhsMax =  -2.59918753187094E-11  2.45005186343585E-02
 cg2d: Sum(rhs),rhsMax =  -2.70968802951188E-11  2.34228368432476E-02
 cg2d: Sum(rhs),rhsMax =  -2.83267853617986E-11  2.23575590114237E-02
 cg2d: Sum(rhs),rhsMax =  -2.96668245525211E-11  2.13053086588629E-02
 cg2d: Sum(rhs),rhsMax =  -3.11040082578984E-11  2.02665954367820E-02
 cg2d: Sum(rhs),rhsMax =  -3.26599858269105E-11  1.92418172549926E-02
 cg2d: Sum(rhs),rhsMax =  -3.44103634475346E-11  1.82312627959261E-02
 cg2d: Sum(rhs),rhsMax =  -3.64090979587672E-11  1.72351144343706E-02
 cg2d: Sum(rhs),rhsMax =  -3.84715592716134E-11  1.62534515692388E-02
 cg2d: Sum(rhs),rhsMax =  -4.08484357450334E-11  1.52862543556105E-02
 cg2d: Sum(rhs),rhsMax =  -4.34355884593174E-11  1.43334077257421E-02
 cg2d: Sum(rhs),rhsMax =  -4.65411043037989E-11  1.33947057385257E-02
 cg2d: Sum(rhs),rhsMax =  -5.00065544528638E-11  1.24698562175130E-02
 cg2d: Sum(rhs),rhsMax =  -5.34391420003999E-11  1.16806817421799E-02
 cg2d: Sum(rhs),rhsMax =  -5.64169821970495E-11  1.10785058742559E-02
 cg2d: Sum(rhs),rhsMax =  -5.96747096182071E-11  1.04889413026030E-02
 cg2d: Sum(rhs),rhsMax =  -6.32629504337956E-11  9.91105200990706E-03
 cg2d: Sum(rhs),rhsMax =  -6.71808164653953E-11  9.34385754692050E-03
 cg2d: Sum(rhs),rhsMax =  -7.16133818912112E-11  8.78633587850273E-03
 cg2d: Sum(rhs),rhsMax =  -7.65332242025352E-11  8.23742628732103E-03
 cg2d: Sum(rhs),rhsMax =  -8.20210566132573E-11  7.69603234876404E-03
 cg2d: Sum(rhs),rhsMax =  -8.82336426144548E-11  7.16102496920506E-03
 cg2d: Sum(rhs),rhsMax =  -9.53729317743068E-11  6.63124552225850E-03
 cg2d: Sum(rhs),rhsMax =  -1.03662189943066E-10  6.10550907825996E-03
 cg2d: Sum(rhs),rhsMax =  -1.13515585820068E-10  5.58260771886893E-03
 cg2d: Sum(rhs),rhsMax =  -1.25212784585216E-10  5.06131394562125E-03
 cg2d: Sum(rhs),rhsMax =  -1.39639133589498E-10  4.54038418665453E-03
 cg2d: Sum(rhs),rhsMax =  -1.57803749234464E-10  4.01856240108896E-03
 cg2d: Sum(rhs),rhsMax =  -1.81527237685941E-10  3.49458378792404E-03
 cg2d: Sum(rhs),rhsMax =  -2.13822626271565E-10  2.96717859594319E-03
 cg2d: Sum(rhs),rhsMax =  -2.14239737061916E-10  2.96237389782397E-03
 cg2d: Sum(rhs),rhsMax =  -1.71868297371702E-10  3.69420025524046E-03
 cg2d: Sum(rhs),rhsMax =  -1.43461242885223E-10  4.42730287331319E-03
 cg2d: Sum(rhs),rhsMax =  -1.23040466704083E-10  5.16180050327362E-03
 cg2d: Sum(rhs),rhsMax =  -1.07648889802192E-10  5.90241799203077E-03
 cg2d: Sum(rhs),rhsMax =  -9.56221768433352E-11  6.64910484716876E-03
 cg2d: Sum(rhs),rhsMax =  -8.58749737986386E-11  7.40243114965284E-03
 cg2d: Sum(rhs),rhsMax =  -7.79261100092299E-11  8.16555984884388E-03
 cg2d: Sum(rhs),rhsMax =  -7.12572223449115E-11  8.94228226991998E-03
 cg2d: Sum(rhs),rhsMax =  -6.53979093101498E-11  9.75936798871782E-03
 cg2d: Sum(rhs),rhsMax =  -6.03384009423280E-11  1.05896967912043E-02
 cg2d: Sum(rhs),rhsMax =  -5.59692292512182E-11  1.14269095525686E-02
 cg2d: Sum(rhs),rhsMax =  -5.21866994063203E-11  1.22712940475830E-02
 cg2d: Sum(rhs),rhsMax =  -4.88218354632863E-11  1.31230644502118E-02
 cg2d: Sum(rhs),rhsMax =  -4.58776350242829E-11  1.39823589765115E-02
 cg2d: Sum(rhs),rhsMax =  -4.32143210105096E-11  1.48492378813923E-02
 cg2d: Sum(rhs),rhsMax =  -4.08941769336479E-11  1.57236818196973E-02
 cg2d: Sum(rhs),rhsMax =  -3.87889720343537E-11  1.66055905784419E-02
 cg2d: Sum(rhs),rhsMax =  -3.68514108117779E-11  1.74947821831897E-02
 cg2d: Sum(rhs),rhsMax =  -3.51139117782395E-11  1.83909923777469E-02
 cg2d: Sum(rhs),rhsMax =  -3.35773631121583E-11  1.92938744735175E-02
 cg2d: Sum(rhs),rhsMax =  -3.20996562663822E-11  2.02029995698859E-02
 cg2d: Sum(rhs),rhsMax =  -3.08351122413342E-11  2.11178571163182E-02
 cg2d: Sum(rhs),rhsMax =  -2.96798141619092E-11  2.20378558236737E-02
 cg2d: Sum(rhs),rhsMax =  -2.85336199112862E-11  2.29623249289856E-02
 cg2d: Sum(rhs),rhsMax =  -2.75486300438388E-11  2.38905158045898E-02
 cg2d: Sum(rhs),rhsMax =  -2.65791832987361E-11  2.48216038908507E-02
 cg2d: Sum(rhs),rhsMax =  -2.56912269236409E-11  2.57546909563559E-02
 cg2d: Sum(rhs),rhsMax =  -2.48139286895821E-11  2.66888076918210E-02
 cg2d: Sum(rhs),rhsMax =  -2.40070185952845E-11  2.76229166452944E-02
 cg2d: Sum(rhs),rhsMax =  -2.32764918450812E-11  2.85559154981131E-02
 cg2d: Sum(rhs),rhsMax =  -2.25539587006551E-11  2.94866406778797E-02
 cg2d: Sum(rhs),rhsMax =  -2.19202433981991E-11  3.04138713083166E-02
 cg2d: Sum(rhs),rhsMax =  -2.12827533374593E-11  3.13363334951142E-02
 cg2d: Sum(rhs),rhsMax =  -2.06583639084101E-11  3.22527049417372E-02
 cg2d: Sum(rhs),rhsMax =  -2.01261229904048E-11  3.31616198822413E-02
 cg2d: Sum(rhs),rhsMax =  -1.95892191356961E-11  3.40616743116957E-02
 cg2d: Sum(rhs),rhsMax =  -1.91264781790323E-11  3.49514314895431E-02
 cg2d: Sum(rhs),rhsMax =  -1.87241333549082E-11  3.58294276869503E-02
 cg2d: Sum(rhs),rhsMax =  -1.82942549997733E-11  3.66941781455747E-02
 cg2d: Sum(rhs),rhsMax =  -1.79349868290046E-11  3.75441832156927E-02
 cg2d: Sum(rhs),rhsMax =  -1.75832681748034E-11  3.83779346272105E-02
 cg2d: Sum(rhs),rhsMax =  -1.73057124186471E-11  3.91939218522358E-02
 cg2d: Sum(rhs),rhsMax =  -1.70032876667392E-11  3.99906385417981E-02
 cg2d: Sum(rhs),rhsMax =  -1.67177383048056E-11  4.07665889770118E-02
 cg2d: Sum(rhs),rhsMax =  -1.65034652610530E-11  4.15202944994934E-02
 cg2d: Sum(rhs),rhsMax =  -1.62683200244373E-11  4.22502998866836E-02
 cg2d: Sum(rhs),rhsMax =  -1.60482738209566E-11  4.29551796375906E-02
 cg2d: Sum(rhs),rhsMax =  -1.58988378018421E-11  4.36335441350332E-02
 cg2d: Sum(rhs),rhsMax =  -1.57115431775878E-11  4.42840456526022E-02
 cg2d: Sum(rhs),rhsMax =  -1.55111479216430E-11  4.51132277711681E-02
 cg2d: Sum(rhs),rhsMax =  -1.51568757544851E-11  4.63084003929364E-02
 cg2d: Sum(rhs),rhsMax =  -1.48225876017705E-11  4.74854389273781E-02
 cg2d: Sum(rhs),rhsMax =  -1.45281564556399E-11  4.86419210242010E-02
 cg2d: Sum(rhs),rhsMax =  -1.42623690635446E-11  4.97754316764734E-02
 cg2d: Sum(rhs),rhsMax =  -1.39953604261223E-11  5.08835723641448E-02
 cg2d: Sum(rhs),rhsMax =  -1.37677647060741E-11  5.19639702349631E-02
 cg2d: Sum(rhs),rhsMax =  -1.35326194694585E-11  5.30142872734465E-02
 cg2d: Sum(rhs),rhsMax =  -1.33221211839896E-11  5.40322294071702E-02
 cg2d: Sum(rhs),rhsMax =  -1.31185062812733E-11  5.50155554989183E-02
 cg2d: Sum(rhs),rhsMax =  -1.29449784225244E-11  5.59620861732036E-02
 cg2d: Sum(rhs),rhsMax =  -1.27761135004789E-11  5.68697124259090E-02
 cg2d: Sum(rhs),rhsMax =  -1.26003651956808E-11  5.77364039642872E-02
 cg2d: Sum(rhs),rhsMax =  -1.24881216478911E-11  5.85602172335045E-02
 cg2d: Sum(rhs),rhsMax =  -1.23717702749104E-11  5.93393030863051E-02
 cg2d: Sum(rhs),rhsMax =  -1.22670762436883E-11  6.00719140429035E-02
(PID.TID 0000.0001)      cg2d_init_res =   3.38497679369869E-02
(PID.TID 0000.0001)      cg2d_iters(min,last) =      -1      37
(PID.TID 0000.0001)      cg2d_last_res =   7.31516721457680E-14
(PID.TID 0000.0001) // =======================================================
(PID.TID 0000.0001) // Begin MONITOR dynamic field statistics
(PID.TID 0000.0001) // =======================================================
(PID.TID 0000.0001) %MON time_tsnumber                =                   960
(PID.TID 0000.0001) %MON time_secondsf                =   1.4400000000000E+04
(PID.TID 0000.0001) %MON dynstat_eta_max              =   1.0460713565458E-02
(PID.TID 0000.0001) %MON dynstat_eta_min              =  -1.0410546028181E-02
(PID.TID 0000.0001) %MON dynstat_eta_mean             =   1.6342364841581E-15
(PID.TID 0000.0001) %MON dynstat_eta_sd               =   6.7990958724804E-03
(PID.TID 0000.0001) %MON dynstat_eta_del2             =   6.3261569563162E-07
(PID.TID 0000.0001) %MON dynstat_uvel_max             =   1.8790229824080E-01
(PID.TID 0000.0001) %MON dynstat_uvel_min             =   6.1251069068602E-02
(PID.TID 0000.0001) %MON dynstat_uvel_mean            =   1.1304598034722E-01
(PID.TID 0000.0001) %MON dynstat_uvel_sd              =   5.9811350625556E-03
(PID.TID 0000.0001) %MON dynstat_uvel_del2            =   4.2136762192977E-05
(PID.TID 0000.0001) %MON dynstat_vvel_max             =   0.0000000000000E+00
(PID.TID 0000.0001) %MON dynstat_vvel_min             =   0.0000000000000E+00
(PID.TID 0000.0001) %MON dynstat_vvel_mean            =   0.0000000000000E+00
(PID.TID 0000.0001) %MON dynstat_vvel_sd              =   0.0000000000000E+00
(PID.TID 0000.0001) %MON dynstat_vvel_del2            =   0.0000000000000E+00
(PID.TID 0000.0001) %MON dynstat_wvel_max             =   2.3408521469487E-03
(PID.TID 0000.0001) %MON dynstat_wvel_min             =  -1.5629375239616E-03
(PID.TID 0000.0001) %MON dynstat_wvel_mean            =  -6.7374301688588E-22
(PID.TID 0000.0001) %MON dynstat_wvel_sd              =   1.8046630258359E-04
(PID.TID 0000.0001) %MON dynstat_wvel_del2            =   3.4923803099831E-06
(PID.TID 0000.0001) %MON dynstat_theta_max            =   1.5000000000002E+01
(PID.TID 0000.0001) %MON dynstat_theta_min            =   9.9999999999966E+00
(PID.TID 0000.0001) %MON dynstat_theta_mean           =   1.1004811006155E+01
(PID.TID 0000.0001) %MON dynstat_theta_sd             =   1.9413384006359E+00
(PID.TID 0000.0001) %MON dynstat_theta_del2           =   5.4135862716309E-06
(PID.TID 0000.0001) %MON dynstat_salt_max             =   3.5000000000000E+01
(PID.TID 0000.0001) %MON dynstat_salt_min             =   3.5000000000000E+01
(PID.TID 0000.0001) %MON dynstat_salt_mean            =   3.5000000000000E+01
(PID.TID 0000.0001) %MON dynstat_salt_sd              =   4.0500935938326E-13
(PID.TID 0000.0001) %MON dynstat_salt_del2            =   0.0000000000000E+00
(PID.TID 0000.0001) %MON dynstat_sst_max              =   1.5000000000002E+01
(PID.TID 0000.0001) %MON dynstat_sst_min              =   1.5000000000000E+01
(PID.TID 0000.0001) %MON dynstat_sst_mean             =   1.5000000000001E+01
(PID.TID 0000.0001) %MON dynstat_sst_sd               =   6.1409775245871E-13
(PID.TID 0000.0001) %MON dynstat_sst_del2             =   5.5321351411936E-15
(PID.TID 0000.0001) %MON dynstat_sss_max              =   3.5000000000000E+01
(PID.TID 0000.0001) %MON dynstat_sss_min              =   3.5000000000000E+01
(PID.TID 0000.0001) %MON dynstat_sss_mean             =   3.5000000000000E+01
(PID.TID 0000.0001) %MON dynstat_sss_sd               =   4.2632564145606E-14
(PID.TID 0000.0001) %MON dynstat_sss_del2             =   0.0000000000000E+00
(PID.TID 0000.0001) %MON forcing_qnet_max             =   0.0000000000000E+00
(PID.TID 0000.0001) %MON forcing_qnet_min             =   0.0000000000000E+00
(PID.TID 0000.0001) %MON forcing_qnet_mean            =   0.0000000000000E+00
(PID.TID 0000.0001) %MON forcing_qnet_sd              =   0.0000000000000E+00
(PID.TID 0000.0001) %MON forcing_qnet_del2            =   0.0000000000000E+00
(PID.TID 0000.0001) %MON forcing_qsw_max              =   0.0000000000000E+00
(PID.TID 0000.0001) %MON forcing_qsw_min              =   0.0000000000000E+00
(PID.TID 0000.0001) %MON forcing_qsw_mean             =   0.0000000000000E+00
(PID.TID 0000.0001) %MON forcing_qsw_sd               =   0.0000000000000E+00
(PID.TID 0000.0001) %MON forcing_qsw_del2             =   0.0000000000000E+00
(PID.TID 0000.0001) %MON forcing_empmr_max            =   0.0000000000000E+00
(PID.TID 0000.0001) %MON forcing_empmr_min            =   0.0000000000000E+00
(PID.TID 0000.0001) %MON forcing_empmr_mean           =   0.0000000000000E+00
(PID.TID 0000.0001) %MON forcing_empmr_sd             =   0.0000000000000E+00
(PID.TID 0000.0001) %MON forcing_empmr_del2           =   0.0000000000000E+00
(PID.TID 0000.0001) %MON forcing_fu_max               =   0.0000000000000E+00
(PID.TID 0000.0001) %MON forcing_fu_min               =   0.0000000000000E+00
(PID.TID 0000.0001) %MON forcing_fu_mean              =   0.0000000000000E+00
(PID.TID 0000.0001) %MON forcing_fu_sd                =   0.0000000000000E+00
(PID.TID 0000.0001) %MON forcing_fu_del2              =   0.0000000000000E+00
(PID.TID 0000.0001) %MON forcing_fv_max               =   0.0000000000000E+00
(PID.TID 0000.0001) %MON forcing_fv_min               =   0.0000000000000E+00
(PID.TID 0000.0001) %MON forcing_fv_mean              =   0.0000000000000E+00
(PID.TID 0000.0001) %MON forcing_fv_sd                =   0.0000000000000E+00
(PID.TID 0000.0001) %MON forcing_fv_del2              =   0.0000000000000E+00
(PID.TID 0000.0001) %MON advcfl_uvel_max              =   1.3946928829950E-02
(PID.TID 0000.0001) %MON advcfl_vvel_max              =   0.0000000000000E+00
(PID.TID 0000.0001) %MON advcfl_wvel_max              =   3.2407058678153E-02
(PID.TID 0000.0001) %MON advcfl_W_hf_max              =   3.2452072437926E-02
(PID.TID 0000.0001) %MON pe_b_mean                    =   1.1457397778313E-06
(PID.TID 0000.0001) %MON ke_max                       =   1.5803893083037E-02
(PID.TID 0000.0001) %MON ke_mean                      =   6.4070987936189E-03
(PID.TID 0000.0001) %MON ke_vol                       =   9.6656886657870E+10
(PID.TID 0000.0001) %MON vort_r_min                   =   0.0000000000000E+00
(PID.TID 0000.0001) %MON vort_r_max                   =   0.0000000000000E+00
(PID.TID 0000.0001) %MON vort_a_mean                  =   0.0000000000000E+00
(PID.TID 0000.0001) %MON vort_a_sd                    =   0.0000000000000E+00
(PID.TID 0000.0001) %MON vort_p_mean                  =   0.0000000000000E+00
(PID.TID 0000.0001) %MON vort_p_sd                    =   0.0000000000000E+00
(PID.TID 0000.0001) %MON surfExpan_theta_mean         =  -1.1478622025414E-18
(PID.TID 0000.0001) %MON surfExpan_salt_mean          =  -1.8156299477461E-20
(PID.TID 0000.0001) // =======================================================
(PID.TID 0000.0001) // End MONITOR dynamic field statistics
(PID.TID 0000.0001) // =======================================================
(PID.TID 0000.0001) // =======================================================
(PID.TID 0000.0001) // Begin OBCS MONITOR field statistics
(PID.TID 0000.0001) // =======================================================
(PID.TID 0000.0001) %MON obc_E_uVel_max               =   1.1205712828732E-01
(PID.TID 0000.0001) %MON obc_E_uVel_min               =   1.1205712828732E-01
(PID.TID 0000.0001) %MON obc_E_uVel_mean              =   1.1205712828732E-01
(PID.TID 0000.0001) %MON obc_E_uVel_sd                =  -1.2143064331838E-17
(PID.TID 0000.0001) %MON obc_E_uVel_Int               =   1.1205712828732E+05
(PID.TID 0000.0001) %MON obc_W_uVel_max               =   1.1205712828732E-01
(PID.TID 0000.0001) %MON obc_W_uVel_min               =   1.1205712828732E-01
(PID.TID 0000.0001) %MON obc_W_uVel_mean              =   1.1205712828732E-01
(PID.TID 0000.0001) %MON obc_W_uVel_sd                =  -1.2143064331838E-17
(PID.TID 0000.0001) %MON obc_W_uVel_Int               =   1.1205712828732E+05
(PID.TID 0000.0001) // =======================================================
(PID.TID 0000.0001) // End OBCS MONITOR field statistics
(PID.TID 0000.0001) // =======================================================
 cg2d: Sum(rhs),rhsMax =  -1.21957999255073E-11  6.07564111007849E-02
 cg2d: Sum(rhs),rhsMax =  -1.20962129201985E-11  6.13912700577023E-02
 cg2d: Sum(rhs),rhsMax =  -1.20061738329014E-11  6.19750873144025E-02
 cg2d: Sum(rhs),rhsMax =  -1.19260157305234E-11  6.25065851266006E-02
 cg2d: Sum(rhs),rhsMax =  -1.18468568288677E-11  6.29846162779803E-02
 cg2d: Sum(rhs),rhsMax =  -1.17615917005764E-11  6.34081681514748E-02
 cg2d: Sum(rhs),rhsMax =  -1.16879839140438E-11  6.37763661821665E-02
 cg2d: Sum(rhs),rhsMax =  -1.16462395283179E-11  6.40884766707757E-02
 cg2d: Sum(rhs),rhsMax =  -1.16079368339683E-11  6.43439089556773E-02
 cg2d: Sum(rhs),rhsMax =  -1.15575327086503E-11  6.45422169113121E-02
 cg2d: Sum(rhs),rhsMax =  -1.15568665748356E-11  6.46830997884083E-02
 cg2d: Sum(rhs),rhsMax =  -1.15273346423805E-11  6.47664023981686E-02
 cg2d: Sum(rhs),rhsMax =  -1.15334408690160E-11  6.47921146324115E-02
 cg2d: Sum(rhs),rhsMax =  -1.15715215187606E-11  6.47603703852538E-02
 cg2d: Sum(rhs),rhsMax =  -1.16254783577574E-11  6.46714457786866E-02
 cg2d: Sum(rhs),rhsMax =  -1.16536780225829E-11  6.45257568458156E-02
 cg2d: Sum(rhs),rhsMax =  -1.17251763853687E-11  6.43238564737124E-02
 cg2d: Sum(rhs),rhsMax =  -1.17950094136177E-11  6.40664308081594E-02
 cg2d: Sum(rhs),rhsMax =  -1.18886012145936E-11  6.37542951296075E-02
 cg2d: Sum(rhs),rhsMax =  -1.20099485911851E-11  6.33883891927211E-02
 cg2d: Sum(rhs),rhsMax =  -1.21032073252536E-11  6.29697720224517E-02
 cg2d: Sum(rhs),rhsMax =  -1.22197807428392E-11  6.24996163752072E-02
 cg2d: Sum(rhs),rhsMax =  -1.23472343460662E-11  6.19792027094096E-02
 cg2d: Sum(rhs),rhsMax =  -1.24983356997177E-11  6.14099126851150E-02
 cg2d: Sum(rhs),rhsMax =  -1.26876287254163E-11  6.07932223129983E-02
 cg2d: Sum(rhs),rhsMax =  -1.28740351712509E-11  6.01306948632714E-02
 cg2d: Sum(rhs),rhsMax =  -1.30538913012401E-11  5.94239733365062E-02
 cg2d: Sum(rhs),rhsMax =  -1.32989175227749E-11  5.86747727126594E-02
 cg2d: Sum(rhs),rhsMax =  -1.35090827413364E-11  5.78848720231686E-02
 cg2d: Sum(rhs),rhsMax =  -1.37574396319451E-11  5.70561062952162E-02
 cg2d: Sum(rhs),rhsMax =  -1.40212286225960E-11  5.61903584432110E-02
 cg2d: Sum(rhs),rhsMax =  -1.43144385233995E-11  5.52895509172036E-02
 cg2d: Sum(rhs),rhsMax =  -1.46117562493941E-11  5.43556373926859E-02
 cg2d: Sum(rhs),rhsMax =  -1.49261714099680E-11  5.33905945134312E-02
 cg2d: Sum(rhs),rhsMax =  -1.52802215325210E-11  5.23964137008907E-02
 cg2d: Sum(rhs),rhsMax =  -1.56623602975969E-11  5.13750930535901E-02
 cg2d: Sum(rhs),rhsMax =  -1.61182178715080E-11  5.03286294094634E-02
 cg2d: Sum(rhs),rhsMax =  -1.64201985342061E-11  4.92590105905360E-02
 cg2d: Sum(rhs),rhsMax =  -1.67870162215422E-11  4.81682079119683E-02
 cg2d: Sum(rhs),rhsMax =  -1.71751501909512E-11  4.70581688869154E-02
 cg2d: Sum(rhs),rhsMax =  -1.76160197540298E-11  4.59308102266872E-02
 cg2d: Sum(rhs),rhsMax =  -1.80818693351625E-11  4.47880111912632E-02
 cg2d: Sum(rhs),rhsMax =  -1.85236270766609E-11  4.36316072562344E-02
 cg2d: Sum(rhs),rhsMax =  -1.90027993340891E-11  4.24633842209240E-02
 cg2d: Sum(rhs),rhsMax =  -1.94958493793251E-11  4.12850727737355E-02
 cg2d: Sum(rhs),rhsMax =  -2.00177652232014E-11  4.00983434216844E-02
 cg2d: Sum(rhs),rhsMax =  -2.06161754334744E-11  3.89048018105181E-02
 cg2d: Sum(rhs),rhsMax =  -2.12345696581906E-11  3.77059844809227E-02
 cg2d: Sum(rhs),rhsMax =  -2.18304263555069E-11  3.65033550772753E-02
 cg2d: Sum(rhs),rhsMax =  -2.25623963956423E-11  3.52983010207893E-02
 cg2d: Sum(rhs),rhsMax =  -2.33161268070603E-11  3.40921305614160E-02
 cg2d: Sum(rhs),rhsMax =  -2.41420217150790E-11  3.28860704406390E-02
 cg2d: Sum(rhs),rhsMax =  -2.50075515850767E-11  3.16812639752681E-02
 cg2d: Sum(rhs),rhsMax =  -2.59450239070702E-11  3.04787695404522E-02
 cg2d: Sum(rhs),rhsMax =  -2.69744226955027E-11  2.92795594581855E-02
 cg2d: Sum(rhs),rhsMax =  -2.80399037322354E-11  2.80845193192154E-02
 cg2d: Sum(rhs),rhsMax =  -2.92174062721529E-11  2.68944477125722E-02
 cg2d: Sum(rhs),rhsMax =  -3.05133696087978E-11  2.57100563559781E-02
 cg2d: Sum(rhs),rhsMax =  -3.18830517542779E-11  2.45319706568102E-02
 cg2d: Sum(rhs),rhsMax =  -3.34113847699768E-11  2.33607306758495E-02
 cg2d: Sum(rhs),rhsMax =  -3.51602080783664E-11  2.21967924680978E-02
 cg2d: Sum(rhs),rhsMax =  -3.70525832238400E-11  2.10405297830176E-02
 cg2d: Sum(rhs),rhsMax =  -3.91744414685036E-11  1.98922361124902E-02
 cg2d: Sum(rhs),rhsMax =  -4.14971390583219E-11  1.87521270605545E-02
 cg2d: Sum(rhs),rhsMax =  -4.41279235374736E-11  1.76203430766923E-02
 cg2d: Sum(rhs),rhsMax =  -4.70683492181934E-11  1.64969524912500E-02
 cg2d: Sum(rhs),rhsMax =  -5.04067898532412E-11  1.53819548432670E-02
 cg2d: Sum(rhs),rhsMax =  -5.42985656437622E-11  1.42752844912542E-02
 cg2d: Sum(rhs),rhsMax =  -5.87460080581081E-11  1.31768144295770E-02
 cg2d: Sum(rhs),rhsMax =  -6.39731601026483E-11  1.20863603593650E-02
 cg2d: Sum(rhs),rhsMax =  -7.01571023498104E-11  1.10036849856012E-02
 cg2d: Sum(rhs),rhsMax =  -7.76947395308980E-11  9.92850249543663E-03
 cg2d: Sum(rhs),rhsMax =  -8.69355698540630E-11  8.86048317877125E-03
 cg2d: Sum(rhs),rhsMax =  -9.87289139331438E-11  7.79925817060557E-03
 cg2d: Sum(rhs),rhsMax =  -1.14089626634950E-10  6.74442429576690E-03
 cg2d: Sum(rhs),rhsMax =  -1.32633126703752E-10  5.79986021994061E-03
 cg2d: Sum(rhs),rhsMax =  -1.45520151484391E-10  5.28298159491316E-03
 cg2d: Sum(rhs),rhsMax =  -1.61221258565547E-10  4.76604745558729E-03
 cg2d: Sum(rhs),rhsMax =  -1.80750303613308E-10  4.24825403290906E-03
 cg2d: Sum(rhs),rhsMax =  -2.05812256126592E-10  3.72879206727182E-03
 cg2d: Sum(rhs),rhsMax =  -2.39206987551199E-10  3.20684993059751E-03
 cg2d: Sum(rhs),rhsMax =  -2.86044521402573E-10  2.68161681242038E-03
 cg2d: Sum(rhs),rhsMax =  -2.92831758841317E-10  2.61858715881829E-03
 cg2d: Sum(rhs),rhsMax =  -2.17330597962473E-10  3.52759117843647E-03
 cg2d: Sum(rhs),rhsMax =  -1.72797248731982E-10  4.43540694811552E-03
 cg2d: Sum(rhs),rhsMax =  -1.43075329361864E-10  5.35390921086842E-03
 cg2d: Sum(rhs),rhsMax =  -1.22076768398899E-10  6.27099337201712E-03
 cg2d: Sum(rhs),rhsMax =  -1.06498962426649E-10  7.18675635618212E-03
 cg2d: Sum(rhs),rhsMax =  -9.42734779130205E-11  8.11292768811606E-03
 cg2d: Sum(rhs),rhsMax =  -8.45463143939185E-11  9.04145284153089E-03
 cg2d: Sum(rhs),rhsMax =  -7.65761343224369E-11  9.96934291341238E-03
 cg2d: Sum(rhs),rhsMax =  -6.98714974767256E-11  1.09128745762662E-02
 cg2d: Sum(rhs),rhsMax =  -6.42284558871609E-11  1.18568497131086E-02
 cg2d: Sum(rhs),rhsMax =  -5.93940452375818E-11  1.28128309727917E-02
 cg2d: Sum(rhs),rhsMax =  -5.51825807271200E-11  1.37755553982156E-02
 cg2d: Sum(rhs),rhsMax =  -5.14591147471322E-11  1.47559551861982E-02
 cg2d: Sum(rhs),rhsMax =  -4.80924189361076E-11  1.57732578860597E-02
 cg2d: Sum(rhs),rhsMax =  -4.51037540649679E-11  1.67991561389778E-02
 cg2d: Sum(rhs),rhsMax =  -4.24569823742615E-11  1.78264324697029E-02
 cg2d: Sum(rhs),rhsMax =  -4.00853239490573E-11  1.88549173422071E-02
 cg2d: Sum(rhs),rhsMax =  -3.79757336688158E-11  1.98843810958114E-02
 cg2d: Sum(rhs),rhsMax =  -3.60750873618088E-11  2.09145333775598E-02
 cg2d: Sum(rhs),rhsMax =  -3.43265971203266E-11  2.19450228723814E-02
 cg2d: Sum(rhs),rhsMax =  -3.27106119968334E-11  2.29754373341092E-02
 cg2d: Sum(rhs),rhsMax =  -3.12090908671792E-11  2.40053039079445E-02
 cg2d: Sum(rhs),rhsMax =  -2.98409075227823E-11  2.50340897489017E-02
 cg2d: Sum(rhs),rhsMax =  -2.85693690926792E-11  2.60612029411998E-02
 cg2d: Sum(rhs),rhsMax =  -2.74054112736621E-11  2.70859937184684E-02
 cg2d: Sum(rhs),rhsMax =  -2.63681299017549E-11  2.81077559823896E-02
 cg2d: Sum(rhs),rhsMax =  -2.54143373012994E-11  2.91257291171435E-02
 cg2d: Sum(rhs),rhsMax =  -2.44086972855939E-11  3.01391000962264E-02
 cg2d: Sum(rhs),rhsMax =  -2.35188535313569E-11  3.11470058765887E-02
 cg2d: Sum(rhs),rhsMax =  -2.26949570247825E-11  3.21485360724487E-02
 cg2d: Sum(rhs),rhsMax =  -2.19377849219882E-11  3.31427358984474E-02
 cg2d: Sum(rhs),rhsMax =  -2.12321271675364E-11  3.41286093692645E-02
 cg2d: Sum(rhs),rhsMax =  -2.06865635732356E-11  3.51051227379554E-02
 cg2d: Sum(rhs),rhsMax =  -2.01786365394696E-11  3.60712081614386E-02
 cg2d: Sum(rhs),rhsMax =  -1.96928029438936E-11  3.70257675673333E-02
 cg2d: Sum(rhs),rhsMax =  -1.92214022476378E-11  3.79676766980134E-02
 cg2d: Sum(rhs),rhsMax =  -1.87821980190961E-11  3.88957893085227E-02
 cg2d: Sum(rhs),rhsMax =  -1.84243731382594E-11  3.98089414938206E-02
 cg2d: Sum(rhs),rhsMax =  -1.80561121609912E-11  4.07059561217745E-02
 cg2d: Sum(rhs),rhsMax =  -1.77069470197466E-11  4.15856473468300E-02
 cg2d: Sum(rhs),rhsMax =  -1.74009695541599E-11  4.24468251799620E-02
 cg2d: Sum(rhs),rhsMax =  -1.70847780367467E-11  4.32883000919574E-02
 cg2d: Sum(rhs),rhsMax =  -1.67735825229443E-11  4.41088876274039E-02
 cg2d: Sum(rhs),rhsMax =  -1.64950275660658E-11  4.49074130114467E-02
 cg2d: Sum(rhs),rhsMax =  -1.61988200630958E-11  4.56827157309778E-02
 cg2d: Sum(rhs),rhsMax =  -1.59627866480605E-11  4.64336540675505E-02
 cg2d: Sum(rhs),rhsMax =  -1.56763491077072E-11  4.71591095643521E-02
 cg2d: Sum(rhs),rhsMax =  -1.54688484244048E-11  4.78579914097396E-02
 cg2d: Sum(rhs),rhsMax =  -1.52479140425044E-11  4.85292407200619E-02
 cg2d: Sum(rhs),rhsMax =  -1.50436330059733E-11  4.91718347045774E-02
 cg2d: Sum(rhs),rhsMax =  -1.48786538645140E-11  4.97847906951599E-02
 cg2d: Sum(rhs),rhsMax =  -1.46856971028342E-11  5.03671700232500E-02
 cg2d: Sum(rhs),rhsMax =  -1.45545797636260E-11  5.09180817264077E-02
 cg2d: Sum(rhs),rhsMax =  -1.44149137071281E-11  5.14366860667731E-02
 cg2d: Sum(rhs),rhsMax =  -1.43044465161779E-11  5.19221978478088E-02
 cg2d: Sum(rhs),rhsMax =  -1.42045264439616E-11  5.23738895105751E-02
 cg2d: Sum(rhs),rhsMax =  -1.40881750709809E-11  5.27910939886012E-02
 cg2d: Sum(rhs),rhsMax =  -1.39925848685607E-11  5.31732073162690E-02
 cg2d: Sum(rhs),rhsMax =  -1.39205313942625E-11  5.35196909788964E-02
 cg2d: Sum(rhs),rhsMax =  -1.38568045926490E-11  5.38300739917218E-02
 cg2d: Sum(rhs),rhsMax =  -1.38032918428621E-11  5.41039546985588E-02
 cg2d: Sum(rhs),rhsMax =  -1.37463374016988E-11  5.43410022800225E-02
 cg2d: Sum(rhs),rhsMax =  -1.36817224216657E-11  5.45409579820544E-02
 cg2d: Sum(rhs),rhsMax =  -1.36703981468145E-11  5.47036360336822E-02
 cg2d: Sum(rhs),rhsMax =  -1.36347599877240E-11  5.48289242619022E-02
 cg2d: Sum(rhs),rhsMax =  -1.36258782035270E-11  5.49167844106774E-02
 cg2d: Sum(rhs),rhsMax =  -1.36129996164414E-11  5.49672522055677E-02
 cg2d: Sum(rhs),rhsMax =  -1.35909061782513E-11  5.49804370509537E-02
 cg2d: Sum(rhs),rhsMax =  -1.36185507315645E-11  5.49565214395603E-02
 cg2d: Sum(rhs),rhsMax =  -1.36104461034847E-11  5.48957600967281E-02
 cg2d: Sum(rhs),rhsMax =  -1.36393119021250E-11  5.47984788533794E-02
 cg2d: Sum(rhs),rhsMax =  -1.36709532583268E-11  5.46650732539553E-02
 cg2d: Sum(rhs),rhsMax =  -1.37158062685216E-11  5.44960068642152E-02
 cg2d: Sum(rhs),rhsMax =  -1.38034028651646E-11  5.42918093612134E-02
 cg2d: Sum(rhs),rhsMax =  -1.38703493135495E-11  5.40530744396003E-02
 cg2d: Sum(rhs),rhsMax =  -1.39550593303284E-11  5.37804574477527E-02
 cg2d: Sum(rhs),rhsMax =  -1.40651934543712E-11  5.34746727957162E-02
 cg2d: Sum(rhs),rhsMax =  -1.41262557207256E-11  5.31364911509744E-02
 cg2d: Sum(rhs),rhsMax =  -1.42359457555585E-11  5.27667364685153E-02
 cg2d: Sum(rhs),rhsMax =  -1.43793865703401E-11  5.23662828469943E-02
 cg2d: Sum(rhs),rhsMax =  -1.45339296153679E-11  5.19360512238359E-02
 cg2d: Sum(rhs),rhsMax =  -1.47069023626045E-11  5.14770059474932E-02
 cg2d: Sum(rhs),rhsMax =  -1.48823176004953E-11  5.09901512259842E-02
 cg2d: Sum(rhs),rhsMax =  -1.50708334700766E-11  5.04765274967743E-02
 cg2d: Sum(rhs),rhsMax =  -1.53024259930135E-11  4.99372077148512E-02
 cg2d: Sum(rhs),rhsMax =  -1.55337964713453E-11  4.93732935629650E-02
 cg2d: Sum(rhs),rhsMax =  -1.56842316911820E-11  4.89880498355031E-02
 cg2d: Sum(rhs),rhsMax =  -1.59002810917741E-11  4.86144312280238E-02
 cg2d: Sum(rhs),rhsMax =  -1.60946811433860E-11  4.82059637209315E-02
 cg2d: Sum(rhs),rhsMax =  -1.63232760641563E-11  4.77635313320061E-02
 cg2d: Sum(rhs),rhsMax =  -1.65253366546381E-11  4.72880714286129E-02
 cg2d: Sum(rhs),rhsMax =  -1.67624802926980E-11  4.67805706554050E-02
 cg2d: Sum(rhs),rhsMax =  -1.70677916244699E-11  4.62420607191323E-02
 cg2d: Sum(rhs),rhsMax =  -1.73473457820705E-11  4.56736140364246E-02
 cg2d: Sum(rhs),rhsMax =  -1.76443304411578E-11  4.50763392714766E-02
 cg2d: Sum(rhs),rhsMax =  -1.80269132954436E-11  4.44513768039464E-02
 cg2d: Sum(rhs),rhsMax =  -1.83565385114548E-11  4.37998941329127E-02
 cg2d: Sum(rhs),rhsMax =  -1.86173298999393E-11  4.31230813902528E-02
 cg2d: Sum(rhs),rhsMax =  -1.88656867905479E-11  4.24221468128363E-02
 cg2d: Sum(rhs),rhsMax =  -1.92158511325147E-11  4.16983121557844E-02
 cg2d: Sum(rhs),rhsMax =  -1.95620186715928E-11  4.09528082351768E-02
 cg2d: Sum(rhs),rhsMax =  -1.99598115813160E-11  4.01868705263966E-02
 cg2d: Sum(rhs),rhsMax =  -2.02022842898941E-11  3.94017348284160E-02
 cg2d: Sum(rhs),rhsMax =  -2.05611083714530E-11  3.85986330244602E-02
 cg2d: Sum(rhs),rhsMax =  -2.08687511715766E-11  3.77787889189312E-02
 cg2d: Sum(rhs),rhsMax =  -2.12385664610792E-11  3.69434143065066E-02
 cg2d: Sum(rhs),rhsMax =  -2.16321405233089E-11  3.60937051539755E-02
 cg2d: Sum(rhs),rhsMax =  -2.20008455897869E-11  3.52308379483914E-02
 cg2d: Sum(rhs),rhsMax =  -2.24332774578784E-11  3.43559662448494E-02
 cg2d: Sum(rhs),rhsMax =  -2.30159225012017E-11  3.34702173856603E-02
 cg2d: Sum(rhs),rhsMax =  -2.36023423028087E-11  3.25746892862756E-02
 cg2d: Sum(rhs),rhsMax =  -2.42397213412460E-11  3.16704475043489E-02
 cg2d: Sum(rhs),rhsMax =  -2.49588127942957E-11  3.07585225567878E-02
 cg2d: Sum(rhs),rhsMax =  -2.57104337819669E-11  2.98399075197167E-02
 cg2d: Sum(rhs),rhsMax =  -2.64428479113121E-11  2.89155557983237E-02
 cg2d: Sum(rhs),rhsMax =  -2.73148170748527E-11  2.79863791489277E-02
 cg2d: Sum(rhs),rhsMax =  -2.82047718513923E-11  2.70532459504546E-02
 cg2d: Sum(rhs),rhsMax =  -2.91536794705394E-11  2.61169797697358E-02
 cg2d: Sum(rhs),rhsMax =  -3.01991764928289E-11  2.51783581492937E-02
 cg2d: Sum(rhs),rhsMax =  -3.13067349821949E-11  2.42381115332272E-02
 cg2d: Sum(rhs),rhsMax =  -3.25546256618736E-11  2.32969225194961E-02
 cg2d: Sum(rhs),rhsMax =  -3.37864181076952E-11  2.23554253435667E-02
 cg2d: Sum(rhs),rhsMax =  -3.50393047909847E-11  2.14142055966416E-02
 cg2d: Sum(rhs),rhsMax =  -3.64676067121650E-11  2.04738003735830E-02
 cg2d: Sum(rhs),rhsMax =  -3.79020148599807E-11  1.96920759242354E-02
 cg2d: Sum(rhs),rhsMax =  -3.93309829149757E-11  1.89510819508630E-02
 cg2d: Sum(rhs),rhsMax =  -4.09219325092636E-11  1.82158077128039E-02
 cg2d: Sum(rhs),rhsMax =  -4.25882662469235E-11  1.74860912066021E-02
 cg2d: Sum(rhs),rhsMax =  -4.44764225449035E-11  1.67617268852774E-02
 cg2d: Sum(rhs),rhsMax =  -4.66097160867207E-11  1.60424672827264E-02
 cg2d: Sum(rhs),rhsMax =  -4.88525886410685E-11  1.53280247192251E-02
 cg2d: Sum(rhs),rhsMax =  -5.12661024743011E-11  1.46180731327461E-02
 cg2d: Sum(rhs),rhsMax =  -5.39431832535797E-11  1.39122500415615E-02
 cg2d: Sum(rhs),rhsMax =  -5.69174707365505E-11  1.32101585833650E-02
 cg2d: Sum(rhs),rhsMax =  -6.02279337513778E-11  1.25113696704566E-02
 cg2d: Sum(rhs),rhsMax =  -6.38751274095739E-11  1.18154242522371E-02
 cg2d: Sum(rhs),rhsMax =  -6.79833966898968E-11  1.11218356771761E-02
 cg2d: Sum(rhs),rhsMax =  -7.26423365904338E-11  1.04300921474151E-02
 cg2d: Sum(rhs),rhsMax =  -7.79866171640720E-11  9.73965926555602E-03
 cg2d: Sum(rhs),rhsMax =  -8.39643909955612E-11  9.04998266187624E-03
 cg2d: Sum(rhs),rhsMax =  -9.09788910874454E-11  8.36049068015805E-03
 cg2d: Sum(rhs),rhsMax =  -9.92237403352192E-11  7.67059714523419E-03
 cg2d: Sum(rhs),rhsMax =  -1.09082798349647E-10  6.97970419670047E-03
 cg2d: Sum(rhs),rhsMax =  -1.21202214931060E-10  6.28720517965853E-03
 cg2d: Sum(rhs),rhsMax =  -1.36352373836246E-10  5.59248757186992E-03
 cg2d: Sum(rhs),rhsMax =  -1.55839854909523E-10  4.89493597141814E-03
 cg2d: Sum(rhs),rhsMax =  -1.81903783702531E-10  4.19393510794439E-03
 cg2d: Sum(rhs),rhsMax =  -2.18711770916258E-10  3.48887286856884E-03
 cg2d: Sum(rhs),rhsMax =  -2.74639422315204E-10  2.77914333294189E-03
 cg2d: Sum(rhs),rhsMax =  -2.31191621402616E-10  3.30152814495486E-03
 cg2d: Sum(rhs),rhsMax =  -1.87266757656346E-10  4.07749592104659E-03
 cg2d: Sum(rhs),rhsMax =  -1.57235668929445E-10  4.85800594982063E-03
 cg2d: Sum(rhs),rhsMax =  -1.35328304118332E-10  5.64549748408331E-03
 cg2d: Sum(rhs),rhsMax =  -1.18627441203500E-10  6.44282571194319E-03
 cg2d: Sum(rhs),rhsMax =  -1.05497277580469E-10  7.24719386046025E-03
 cg2d: Sum(rhs),rhsMax =  -9.48705558556640E-11  8.06529646620520E-03
 cg2d: Sum(rhs),rhsMax =  -8.60151949666488E-11  8.90298543220747E-03
 cg2d: Sum(rhs),rhsMax =  -7.86549714248963E-11  9.74933928162853E-03
 cg2d: Sum(rhs),rhsMax =  -7.23987536588311E-11  1.05940690663658E-02
 cg2d: Sum(rhs),rhsMax =  -6.71489530645886E-11  1.14371427747946E-02
 cg2d: Sum(rhs),rhsMax =  -6.25695051326147E-11  1.22785006418223E-02
 cg2d: Sum(rhs),rhsMax =  -5.85966830612961E-11  1.31180538957618E-02
 cg2d: Sum(rhs),rhsMax =  -5.51279022431572E-11  1.39556836887217E-02
 cg2d: Sum(rhs),rhsMax =  -5.20599119369081E-11  1.47912402056257E-02
 cg2d: Sum(rhs),rhsMax =  -4.93542984258966E-11  1.56245419505847E-02
 cg2d: Sum(rhs),rhsMax =  -4.69166927530296E-11  1.64553752120656E-02
 cg2d: Sum(rhs),rhsMax =  -4.46975789714088E-11  1.72834937088224E-02
 cg2d: Sum(rhs),rhsMax =  -4.27315960394026E-11  1.81086184173974E-02
 cg2d: Sum(rhs),rhsMax =  -4.09481337726447E-11  1.89304375808059E-02
 cg2d: Sum(rhs),rhsMax =  -3.93562959999372E-11  1.97486068978813E-02
 cg2d: Sum(rhs),rhsMax =  -3.79243303427756E-11  2.05627498870878E-02
 cg2d: Sum(rhs),rhsMax =  -3.65782959477201E-11  2.13724584330088E-02
 cg2d: Sum(rhs),rhsMax =  -3.53264084651528E-11  2.21772934823485E-02
 cg2d: Sum(rhs),rhsMax =  -3.41734418540796E-11  2.29767859058373E-02
 cg2d: Sum(rhs),rhsMax =  -3.31148442000995E-11  2.37704375335927E-02
 cg2d: Sum(rhs),rhsMax =  -3.21311866002816E-11  2.45577223436637E-02
 cg2d: Sum(rhs),rhsMax =  -3.12222470100210E-11  2.53380878048407E-02
 cg2d: Sum(rhs),rhsMax =  -3.03352898356479E-11  2.61109563653798E-02
 cg2d: Sum(rhs),rhsMax =  -2.95531377147995E-11  2.68757270669239E-02
 cg2d: Sum(rhs),rhsMax =  -2.87938561882584E-11  2.76317772866882E-02
 cg2d: Sum(rhs),rhsMax =  -2.80510059624817E-11  2.83784646044429E-02
 cg2d: Sum(rhs),rhsMax =  -2.73827627239598E-11  2.91151287850542E-02
 cg2d: Sum(rhs),rhsMax =  -2.67519340013678E-11  2.98410938689264E-02
 cg2d: Sum(rhs),rhsMax =  -2.61461963191323E-11  3.05556703622477E-02
 cg2d: Sum(rhs),rhsMax =  -2.56286103450520E-11  3.12581575176657E-02
 cg2d: Sum(rhs),rhsMax =  -2.51225706904279E-11  3.19478456950096E-02
 cg2d: Sum(rhs),rhsMax =  -2.46629383582331E-11  3.26240187912412E-02
 cg2d: Sum(rhs),rhsMax =  -2.42053044274826E-11  3.32859567286054E-02
 cg2d: Sum(rhs),rhsMax =  -2.37840858119398E-11  3.39329379895909E-02
 cg2d: Sum(rhs),rhsMax =  -2.33866259691240E-11  3.45642421915869E-02
 cg2d: Sum(rhs),rhsMax =  -2.29769536730373E-11  3.51791526768563E-02
 cg2d: Sum(rhs),rhsMax =  -2.26418883642054E-11  3.57769591066487E-02
 cg2d: Sum(rhs),rhsMax =  -2.20662377259373E-11  3.66994326230686E-02
 cg2d: Sum(rhs),rhsMax =  -2.15233386668956E-11  3.76750508817415E-02
 cg2d: Sum(rhs),rhsMax =  -2.09824380092982E-11  3.86402434710874E-02
 cg2d: Sum(rhs),rhsMax =  -2.04705141726436E-11  3.95936583137885E-02
 cg2d: Sum(rhs),rhsMax =  -1.99842364878577E-11  4.05339328912603E-02
 cg2d: Sum(rhs),rhsMax =  -1.95120586354847E-11  4.14596982847014E-02
 cg2d: Sum(rhs),rhsMax =  -1.91286986250816E-11  4.23695832769427E-02
 cg2d: Sum(rhs),rhsMax =  -1.87401205664628E-11  4.32622184987227E-02
 cg2d: Sum(rhs),rhsMax =  -1.83711934553799E-11  4.41362406013459E-02
 cg2d: Sum(rhs),rhsMax =  -1.80613302092070E-11  4.49902964399056E-02
 cg2d: Sum(rhs),rhsMax =  -1.77607928364409E-11  4.58230472528352E-02
 cg2d: Sum(rhs),rhsMax =  -1.74469327873794E-11  4.66331728156913E-02
 cg2d: Sum(rhs),rhsMax =  -1.71690439643157E-11  4.74193755520139E-02
 cg2d: Sum(rhs),rhsMax =  -1.68974834124924E-11  4.81803845831099E-02
 cg2d: Sum(rhs),rhsMax =  -1.66959779335230E-11  4.89149596973065E-02
 cg2d: Sum(rhs),rhsMax =  -1.64614988307221E-11  4.96218952241516E-02
 cg2d: Sum(rhs),rhsMax =  -1.62510005452532E-11  5.03000237932199E-02
 cg2d: Sum(rhs),rhsMax =  -1.60607083188324E-11  5.09482199601814E-02
 cg2d: Sum(rhs),rhsMax =  -1.58881796608057E-11  5.15654036845761E-02
 cg2d: Sum(rhs),rhsMax =  -1.57215351848095E-11  5.21505436445796E-02
 cg2d: Sum(rhs),rhsMax =  -1.55816470837067E-11  5.27026603747474E-02
 cg2d: Sum(rhs),rhsMax =  -1.54449786293753E-11  5.32208292135788E-02
 cg2d: Sum(rhs),rhsMax =  -1.53017598591987E-11  5.37041830488862E-02
 cg2d: Sum(rhs),rhsMax =  -1.52360346561409E-11  5.41519148502446E-02
 cg2d: Sum(rhs),rhsMax =  -1.51259005320981E-11  5.45632799828051E-02
 cg2d: Sum(rhs),rhsMax =  -1.50600643067378E-11  5.49375982870362E-02
 cg2d: Sum(rhs),rhsMax =  -1.49866785648101E-11  5.52742559179776E-02
 cg2d: Sum(rhs),rhsMax =  -1.49193990495178E-11  5.55727069437657E-02
 cg2d: Sum(rhs),rhsMax =  -1.48580037162560E-11  5.58324746965799E-02
 cg2d: Sum(rhs),rhsMax =  -1.47774015246682E-11  5.60531528594477E-02
 cg2d: Sum(rhs),rhsMax =  -1.47528655958240E-11  5.62344063254281E-02
 cg2d: Sum(rhs),rhsMax =  -1.47276635331650E-11  5.63759717992320E-02
 cg2d: Sum(rhs),rhsMax =  -1.47001300021543E-11  5.64776581579252E-02
 cg2d: Sum(rhs),rhsMax =  -1.46487266761142E-11  5.65393464793819E-02
 cg2d: Sum(rhs),rhsMax =  -1.46593848171506E-11  5.65609898306330E-02
 cg2d: Sum(rhs),rhsMax =  -1.46678225121377E-11  5.65426128416473E-02
 cg2d: Sum(rhs),rhsMax =  -1.46572753934038E-11  5.64843109956117E-02
 cg2d: Sum(rhs),rhsMax =  -1.47102330316784E-11  5.63862496737691E-02
 cg2d: Sum(rhs),rhsMax =  -1.47735157440820E-11  5.62486629650562E-02
 cg2d: Sum(rhs),rhsMax =  -1.48276946276837E-11  5.60718522440136E-02
 cg2d: Sum(rhs),rhsMax =  -1.48855372472667E-11  5.58561844782519E-02
 cg2d: Sum(rhs),rhsMax =  -1.49394940862635E-11  5.56020903669986E-02
 cg2d: Sum(rhs),rhsMax =  -1.50389700692699E-11  5.53100623057369E-02
 cg2d: Sum(rhs),rhsMax =  -1.51110235435681E-11  5.49806521144450E-02
 cg2d: Sum(rhs),rhsMax =  -1.52344803439064E-11  5.46144685572536E-02
 cg2d: Sum(rhs),rhsMax =  -1.53417278880852E-11  5.42121746924819E-02
 cg2d: Sum(rhs),rhsMax =  -1.55122581446676E-11  5.37744850515493E-02
 cg2d: Sum(rhs),rhsMax =  -1.56609170076649E-11  5.33021626593731E-02
 cg2d: Sum(rhs),rhsMax =  -1.57915902576633E-11  5.27960159593980E-02
 cg2d: Sum(rhs),rhsMax =  -1.59320334702784E-11  5.22568956224658E-02
 cg2d: Sum(rhs),rhsMax =  -1.60979007901574E-11  5.16856912534805E-02
 cg2d: Sum(rhs),rhsMax =  -1.63156155252864E-11  5.10833280117257E-02
 cg2d: Sum(rhs),rhsMax =  -1.64684932357773E-11  5.04507631638134E-02
 cg2d: Sum(rhs),rhsMax =  -1.66331393103292E-11  4.97889826805750E-02
 cg2d: Sum(rhs),rhsMax =  -1.68178804216268E-11  4.90989976212066E-02
 cg2d: Sum(rhs),rhsMax =  -1.70274905286760E-11  4.83818405187012E-02
 cg2d: Sum(rhs),rhsMax =  -1.72085679039924E-11  4.76385617946402E-02
 cg2d: Sum(rhs),rhsMax =  -1.74807945896305E-11  4.68702262520392E-02
 cg2d: Sum(rhs),rhsMax =  -1.77097225773082E-11  4.60779095958100E-02
 cg2d: Sum(rhs),rhsMax =  -1.79900538910260E-11  4.52626949850301E-02
 cg2d: Sum(rhs),rhsMax =  -1.83016934940383E-11  4.44256696403253E-02
 cg2d: Sum(rhs),rhsMax =  -1.86278770186732E-11  4.35679214825433E-02
 cg2d: Sum(rhs),rhsMax =  -1.89624982382952E-11  4.26905358673851E-02
 cg2d: Sum(rhs),rhsMax =  -1.93202120968294E-11  4.17945924278476E-02
 cg2d: Sum(rhs),rhsMax =  -1.96981320144118E-11  4.08811619784374E-02
 cg2d: Sum(rhs),rhsMax =  -2.00790495341607E-11  3.99513036585125E-02
 cg2d: Sum(rhs),rhsMax =  -2.05414574239171E-11  3.90060621776158E-02
 cg2d: Sum(rhs),rhsMax =  -2.10026440683464E-11  3.80464651664087E-02
 cg2d: Sum(rhs),rhsMax =  -2.14882556193174E-11  3.70735206674018E-02
 cg2d: Sum(rhs),rhsMax =  -2.19847473559298E-11  3.60882147891092E-02
 cg2d: Sum(rhs),rhsMax =  -2.25157670286080E-11  3.50915095250366E-02
 cg2d: Sum(rhs),rhsMax =  -2.31409336137745E-11  3.40843407514623E-02
 cg2d: Sum(rhs),rhsMax =  -2.38412622977080E-11  3.30676164099688E-02
 cg2d: Sum(rhs),rhsMax =  -2.45491404982090E-11  3.20422148569217E-02
 cg2d: Sum(rhs),rhsMax =  -2.53534970795499E-11  3.10089833780943E-02
 cg2d: Sum(rhs),rhsMax =  -2.61720645156061E-11  2.99687369930293E-02
 cg2d: Sum(rhs),rhsMax =  -2.70666822288490E-11  2.89222574064859E-02
 cg2d: Sum(rhs),rhsMax =  -2.80520051632038E-11  2.78702921265777E-02
 cg2d: Sum(rhs),rhsMax =  -2.90745205688836E-11  2.68135537533120E-02
 cg2d: Sum(rhs),rhsMax =  -3.02221581094386E-11  2.57527194383328E-02
 cg2d: Sum(rhs),rhsMax =  -3.14682724322779E-11  2.46884305652561E-02
 cg2d: Sum(rhs),rhsMax =  -3.28426175144614E-11  2.36212926370246E-02
 cg2d: Sum(rhs),rhsMax =  -3.42902373162701E-11  2.25518753525332E-02
 cg2d: Sum(rhs),rhsMax =  -3.59334784150178E-11  2.14807128590203E-02
 cg2d: Sum(rhs),rhsMax =  -3.77302633580712E-11  2.04083041726288E-02
 cg2d: Sum(rhs),rhsMax =  -3.97831767529055E-11  1.93351137624210E-02
 cg2d: Sum(rhs),rhsMax =  -4.20832257930215E-11  1.82615722933572E-02
 cg2d: Sum(rhs),rhsMax =  -4.46968018152916E-11  1.71880775225108E-02
 cg2d: Sum(rhs),rhsMax =  -4.76041428498775E-11  1.61149953398117E-02
 cg2d: Sum(rhs),rhsMax =  -5.09504660684001E-11  1.50426609433429E-02
 cg2d: Sum(rhs),rhsMax =  -5.47895062652515E-11  1.39713801319854E-02
 cg2d: Sum(rhs),rhsMax =  -5.93043392171921E-11  1.29014307298778E-02
 cg2d: Sum(rhs),rhsMax =  -6.45914433050621E-11  1.18330641036355E-02
 cg2d: Sum(rhs),rhsMax =  -7.08972880403280E-11  1.07665067753796E-02
 cg2d: Sum(rhs),rhsMax =  -7.86181120204787E-11  9.70196211811184E-03
 cg2d: Sum(rhs),rhsMax =  -8.82027784143702E-11  8.63961212830501E-03
 cg2d: Sum(rhs),rhsMax =  -1.00417896220506E-10  7.57961926565457E-03
 cg2d: Sum(rhs),rhsMax =  -1.13610454377522E-10  6.69695403126286E-03
 cg2d: Sum(rhs),rhsMax =  -1.25118582161576E-10  6.07887903946244E-03
 cg2d: Sum(rhs),rhsMax =  -1.39280587063695E-10  5.45873786657884E-03
 cg2d: Sum(rhs),rhsMax =  -1.57108104303916E-10  4.83620542890292E-03
 cg2d: Sum(rhs),rhsMax =  -1.80359949197850E-10  4.21095641845186E-03
 cg2d: Sum(rhs),rhsMax =  -2.11906048264154E-10  3.58266731434769E-03
 cg2d: Sum(rhs),rhsMax =  -2.57159626926295E-10  2.95101838497406E-03
 cg2d: Sum(rhs),rhsMax =  -3.27585070181158E-10  2.31569569562609E-03
 cg2d: Sum(rhs),rhsMax =  -2.67814659338228E-10  2.83222276522312E-03
 cg2d: Sum(rhs),rhsMax =  -2.03239924889687E-10  3.73061761670584E-03
 cg2d: Sum(rhs),rhsMax =  -1.63785651707826E-10  4.62708117942733E-03
 cg2d: Sum(rhs),rhsMax =  -1.36874706013757E-10  5.53287821299270E-03
 cg2d: Sum(rhs),rhsMax =  -1.17522214182486E-10  6.44335785886806E-03
 cg2d: Sum(rhs),rhsMax =  -1.02893360498513E-10  7.35568264761553E-03
 cg2d: Sum(rhs),rhsMax =  -9.13360498344673E-11  8.27994172123057E-03
 cg2d: Sum(rhs),rhsMax =  -8.21109291671007E-11  9.20014011265481E-03
 cg2d: Sum(rhs),rhsMax =  -7.44432293586783E-11  1.01379683791673E-02
 cg2d: Sum(rhs),rhsMax =  -6.80670519948023E-11  1.10715645543860E-02
 cg2d: Sum(rhs),rhsMax =  -6.26457774544065E-11  1.20215169742709E-02
 cg2d: Sum(rhs),rhsMax =  -5.79676306955434E-11  1.29758855027088E-02
 cg2d: Sum(rhs),rhsMax =  -5.38692979112909E-11  1.39507802000829E-02
 cg2d: Sum(rhs),rhsMax =  -5.02775598931748E-11  1.49324772697593E-02
 cg2d: Sum(rhs),rhsMax =  -4.71467864748831E-11  1.59090082612523E-02
 cg2d: Sum(rhs),rhsMax =  -4.43994840892969E-11  1.68801206638627E-02
 cg2d: Sum(rhs),rhsMax =  -4.19458912048754E-11  1.78455412742386E-02
 cg2d: Sum(rhs),rhsMax =  -3.97644139837894E-11  1.88049757830432E-02
 cg2d: Sum(rhs),rhsMax =  -3.78000963863201E-11  1.97581085014201E-02
 cg2d: Sum(rhs),rhsMax =  -3.59939855698599E-11  2.07046022286809E-02
 cg2d: Sum(rhs),rhsMax =  -3.43340911257428E-11  2.16440982610121E-02
 cg2d: Sum(rhs),rhsMax =  -3.28271854144191E-11  2.25762165418353E-02
 cg2d: Sum(rhs),rhsMax =  -3.14450687710632E-11  2.35005559517000E-02
 cg2d: Sum(rhs),rhsMax =  -3.01554337056587E-11  2.44166947298826E-02
 cg2d: Sum(rhs),rhsMax =  -2.90302226702011E-11  2.53241910258305E-02
 cg2d: Sum(rhs),rhsMax =  -2.79463119312595E-11  2.62225835788248E-02
 cg2d: Sum(rhs),rhsMax =  -2.69483324544240E-11  2.71113925200833E-02
 cg2d: Sum(rhs),rhsMax =  -2.59745558395252E-11  2.79901202904095E-02
 cg2d: Sum(rhs),rhsMax =  -2.50877096874547E-11  2.88582526718796E-02
 cg2d: Sum(rhs),rhsMax =  -2.42396103189435E-11  2.97152599275880E-02
 cg2d: Sum(rhs),rhsMax =  -2.34775532348408E-11  3.05605980431110E-02
 cg2d: Sum(rhs),rhsMax =  -2.27643459638216E-11  3.13937100632962E-02
 cg2d: Sum(rhs),rhsMax =  -2.21246354570326E-11  3.22140275181903E-02
 cg2d: Sum(rhs),rhsMax =  -2.15060191877114E-11  3.30209719320082E-02
 cg2d: Sum(rhs),rhsMax =  -2.09626760394599E-11  3.38139564066909E-02
 cg2d: Sum(rhs),rhsMax =  -2.03407291010649E-11  3.45923872787505E-02
 cg2d: Sum(rhs),rhsMax =  -1.98805416573578E-11  3.53556658388902E-02
 cg2d: Sum(rhs),rhsMax =  -1.95746752140735E-11  3.61031901031879E-02
 cg2d: Sum(rhs),rhsMax =  -1.93173255169654E-11  3.68343566282047E-02
 cg2d: Sum(rhs),rhsMax =  -1.89728233124242E-11  3.75485623621996E-02
 cg2d: Sum(rhs),rhsMax =  -1.86571869065233E-11  3.82452065242121E-02
 cg2d: Sum(rhs),rhsMax =  -1.83689730093306E-11  3.89236925023770E-02
 cg2d: Sum(rhs),rhsMax =  -1.80935266769211E-11  3.95834297623812E-02
 cg2d: Sum(rhs),rhsMax =  -1.78446146748001E-11  4.02238357553751E-02
 cg2d: Sum(rhs),rhsMax =  -1.76305636756524E-11  4.08443378249231E-02
 cg2d: Sum(rhs),rhsMax =  -1.74167347211096E-11  4.14443750967190E-02
 cg2d: Sum(rhs),rhsMax =  -1.72309944090898E-11  4.20234003432550E-02
 cg2d: Sum(rhs),rhsMax =  -1.70558012158040E-11  4.25808818164643E-02
 cg2d: Sum(rhs),rhsMax =  -1.68494107555262E-11  4.31163050422356E-02
 cg2d: Sum(rhs),rhsMax =  -1.66910929522146E-11  4.36291745688444E-02
 cg2d: Sum(rhs),rhsMax =  -1.66059388462259E-11  4.41190156559419E-02
 cg2d: Sum(rhs),rhsMax =  -1.65133462459721E-11  4.45853759040219E-02
 cg2d: Sum(rhs),rhsMax =  -1.64002145197628E-11  4.50278268169371E-02
 cg2d: Sum(rhs),rhsMax =  -1.63149493914716E-11  4.54459652903638E-02
 cg2d: Sum(rhs),rhsMax =  -1.62279079063410E-11  4.58394150201144E-02
 cg2d: Sum(rhs),rhsMax =  -1.60940150095712E-11  4.62078278236215E-02
 cg2d: Sum(rhs),rhsMax =  -1.60299551410503E-11  4.65508848694221E-02
 cg2d: Sum(rhs),rhsMax =  -1.59594559789866E-11  4.68682978040033E-02
 cg2d: Sum(rhs),rhsMax =  -1.58763002744422E-11  4.71598097869088E-02
 cg2d: Sum(rhs),rhsMax =  -1.58097979152672E-11  4.74251964400601E-02
 cg2d: Sum(rhs),rhsMax =  -1.57636126374427E-11  4.76642666699913E-02
 cg2d: Sum(rhs),rhsMax =  -1.56807899998057E-11  4.78768633707222E-02
 cg2d: Sum(rhs),rhsMax =  -1.56432644615734E-11  4.80628640303818E-02
 cg2d: Sum(rhs),rhsMax =  -1.56410440155241E-11  4.82221812189414E-02
 cg2d: Sum(rhs),rhsMax =  -1.56196167111489E-11  4.83547629525711E-02
 cg2d: Sum(rhs),rhsMax =  -1.55991886074958E-11  4.84605929638057E-02
 cg2d: Sum(rhs),rhsMax =  -1.55918611355332E-11  4.85396908245014E-02
 cg2d: Sum(rhs),rhsMax =  -1.55809809498919E-11  4.85921119521865E-02
 cg2d: Sum(rhs),rhsMax =  -1.55682133851087E-11  4.86179474998986E-02
 cg2d: Sum(rhs),rhsMax =  -1.55905288679037E-11  4.86173241258624E-02
 cg2d: Sum(rhs),rhsMax =  -1.56271662277163E-11  4.85904036407564E-02
 cg2d: Sum(rhs),rhsMax =  -1.56333834766542E-11  4.85373825305154E-02
 cg2d: Sum(rhs),rhsMax =  -1.56722412825161E-11  4.84584913178474E-02
 cg2d: Sum(rhs),rhsMax =  -1.57650559273748E-11  4.83539938749725E-02
 cg2d: Sum(rhs),rhsMax =  -1.57809321166269E-11  4.82241866228684E-02
 cg2d: Sum(rhs),rhsMax =  -1.58761892521397E-11  4.80693976041414E-02
 cg2d: Sum(rhs),rhsMax =  -1.59374735630990E-11  4.78899854436004E-02
 cg2d: Sum(rhs),rhsMax =  -1.60248481151370E-11  4.76863382079320E-02
 cg2d: Sum(rhs),rhsMax =  -1.61209934290696E-11  4.74588721717313E-02
 cg2d: Sum(rhs),rhsMax =  -1.62126978509036E-11  4.72080305408522E-02
 cg2d: Sum(rhs),rhsMax =  -1.63267177555326E-11  4.69342820409501E-02
 cg2d: Sum(rhs),rhsMax =  -1.64313007644523E-11  4.66381193955432E-02
 cg2d: Sum(rhs),rhsMax =  -1.65509828065069E-11  4.63200578339965E-02
 cg2d: Sum(rhs),rhsMax =  -1.66412439384089E-11  4.59806335302456E-02
 cg2d: Sum(rhs),rhsMax =  -1.67957869834368E-11  4.56204019753245E-02
 cg2d: Sum(rhs),rhsMax =  -1.69005920369614E-11  4.52399362911087E-02
 cg2d: Sum(rhs),rhsMax =  -1.70700120705192E-11  4.48398255050555E-02
 cg2d: Sum(rhs),rhsMax =  -1.72408753940090E-11  4.44206727687189E-02
 cg2d: Sum(rhs),rhsMax =  -1.74182890333441E-11  4.39830935504482E-02
 cg2d: Sum(rhs),rhsMax =  -1.76644254779035E-11  4.35277138291857E-02
 cg2d: Sum(rhs),rhsMax =  -1.78935755101861E-11  4.30551682755322E-02
 cg2d: Sum(rhs),rhsMax =  -1.81553660993927E-11  4.25660983520177E-02
 cg2d: Sum(rhs),rhsMax =  -1.84272597181234E-11  4.20611504367384E-02
 cg2d: Sum(rhs),rhsMax =  -1.87002635598787E-11  4.15409739684582E-02
 cg2d: Sum(rhs),rhsMax =  -1.90002458211325E-11  4.10062196190322E-02
 cg2d: Sum(rhs),rhsMax =  -1.93672855530735E-11  4.04575374661776E-02
 cg2d: Sum(rhs),rhsMax =  -1.97193372741822E-11  3.98955751896912E-02
 cg2d: Sum(rhs),rhsMax =  -2.00740535305499E-11  3.93209763018467E-02
 cg2d: Sum(rhs),rhsMax =  -2.04792849345381E-11  3.87343784158721E-02
 cg2d: Sum(rhs),rhsMax =  -2.08967287917972E-11  3.81364115215615E-02
(PID.TID 0000.0001)      cg2d_init_res =   7.82095093575397E-02
(PID.TID 0000.0001)      cg2d_iters(min,last) =      -1      37
(PID.TID 0000.0001)      cg2d_last_res =   7.53745519037108E-14
(PID.TID 0000.0001) // =======================================================
(PID.TID 0000.0001) // Begin MONITOR dynamic field statistics
(PID.TID 0000.0001) // =======================================================
(PID.TID 0000.0001) %MON time_tsnumber                =                  1440
(PID.TID 0000.0001) %MON time_secondsf                =   2.1600000000000E+04
(PID.TID 0000.0001) %MON dynstat_eta_max              =   7.8977440880006E-03
(PID.TID 0000.0001) %MON dynstat_eta_min              =  -6.6285874499950E-03
(PID.TID 0000.0001) %MON dynstat_eta_mean             =   1.7640883968491E-15
(PID.TID 0000.0001) %MON dynstat_eta_sd               =   5.1805321659415E-03
(PID.TID 0000.0001) %MON dynstat_eta_del2             =   6.4119864216461E-07
(PID.TID 0000.0001) %MON dynstat_uvel_max             =   1.9475872974669E-01
(PID.TID 0000.0001) %MON dynstat_uvel_min             =   5.3946274654891E-02
(PID.TID 0000.0001) %MON dynstat_uvel_mean            =   1.1264546672332E-01
(PID.TID 0000.0001) %MON dynstat_uvel_sd              =   6.0469992874421E-03
(PID.TID 0000.0001) %MON dynstat_uvel_del2            =   5.1633112822453E-05
(PID.TID 0000.0001) %MON dynstat_vvel_max             =   0.0000000000000E+00
(PID.TID 0000.0001) %MON dynstat_vvel_min             =   0.0000000000000E+00
(PID.TID 0000.0001) %MON dynstat_vvel_mean            =   0.0000000000000E+00
(PID.TID 0000.0001) %MON dynstat_vvel_sd              =   0.0000000000000E+00
(PID.TID 0000.0001) %MON dynstat_vvel_del2            =   0.0000000000000E+00
(PID.TID 0000.0001) %MON dynstat_wvel_max             =   2.6941927297638E-03
(PID.TID 0000.0001) %MON dynstat_wvel_min             =  -1.5603588961873E-03
(PID.TID 0000.0001) %MON dynstat_wvel_mean            =   4.1367116597371E-21
(PID.TID 0000.0001) %MON dynstat_wvel_sd              =   1.8059338073827E-04
(PID.TID 0000.0001) %MON dynstat_wvel_del2            =   2.9662136951355E-06
(PID.TID 0000.0001) %MON dynstat_theta_max            =   1.5000000000003E+01
(PID.TID 0000.0001) %MON dynstat_theta_min            =   9.9999999999957E+00
(PID.TID 0000.0001) %MON dynstat_theta_mean           =   1.1004809724658E+01
(PID.TID 0000.0001) %MON dynstat_theta_sd             =   1.9410473663683E+00
(PID.TID 0000.0001) %MON dynstat_theta_del2           =   7.1043659974703E-06
(PID.TID 0000.0001) %MON dynstat_salt_max             =   3.5000000000000E+01
(PID.TID 0000.0001) %MON dynstat_salt_min             =   3.5000000000000E+01
(PID.TID 0000.0001) %MON dynstat_salt_mean            =   3.5000000000000E+01
(PID.TID 0000.0001) %MON dynstat_salt_sd              =   4.0500935938326E-13
(PID.TID 0000.0001) %MON dynstat_salt_del2            =   0.0000000000000E+00
(PID.TID 0000.0001) %MON dynstat_sst_max              =   1.5000000000003E+01
(PID.TID 0000.0001) %MON dynstat_sst_min              =   1.5000000000000E+01
(PID.TID 0000.0001) %MON dynstat_sst_mean             =   1.5000000000002E+01
(PID.TID 0000.0001) %MON dynstat_sst_sd               =   9.4520866886918E-13
(PID.TID 0000.0001) %MON dynstat_sst_del2             =   7.9813877498521E-15
(PID.TID 0000.0001) %MON dynstat_sss_max              =   3.5000000000000E+01
(PID.TID 0000.0001) %MON dynstat_sss_min              =   3.5000000000000E+01
(PID.TID 0000.0001) %MON dynstat_sss_mean             =   3.5000000000000E+01
(PID.TID 0000.0001) %MON dynstat_sss_sd               =   4.2632564145606E-14
(PID.TID 0000.0001) %MON dynstat_sss_del2             =   0.0000000000000E+00
(PID.TID 0000.0001) %MON forcing_qnet_max             =   0.0000000000000E+00
(PID.TID 0000.0001) %MON forcing_qnet_min             =   0.0000000000000E+00
(PID.TID 0000.0001) %MON forcing_qnet_mean            =   0.0000000000000E+00
(PID.TID 0000.0001) %MON forcing_qnet_sd              =   0.0000000000000E+00
(PID.TID 0000.0001) %MON forcing_qnet_del2            =   0.0000000000000E+00
(PID.TID 0000.0001) %MON forcing_qsw_max              =   0.0000000000000E+00
(PID.TID 0000.0001) %MON forcing_qsw_min              =   0.0000000000000E+00
(PID.TID 0000.0001) %MON forcing_qsw_mean             =   0.0000000000000E+00
(PID.TID 0000.0001) %MON forcing_qsw_sd               =   0.0000000000000E+00
(PID.TID 0000.0001) %MON forcing_qsw_del2             =   0.0000000000000E+00
(PID.TID 0000.0001) %MON forcing_empmr_max            =   0.0000000000000E+00
(PID.TID 0000.0001) %MON forcing_empmr_min            =   0.0000000000000E+00
(PID.TID 0000.0001) %MON forcing_empmr_mean           =   0.0000000000000E+00
(PID.TID 0000.0001) %MON forcing_empmr_sd             =   0.0000000000000E+00
(PID.TID 0000.0001) %MON forcing_empmr_del2           =   0.0000000000000E+00
(PID.TID 0000.0001) %MON forcing_fu_max               =   0.0000000000000E+00
(PID.TID 0000.0001) %MON forcing_fu_min               =   0.0000000000000E+00
(PID.TID 0000.0001) %MON forcing_fu_mean              =   0.0000000000000E+00
(PID.TID 0000.0001) %MON forcing_fu_sd                =   0.0000000000000E+00
(PID.TID 0000.0001) %MON forcing_fu_del2              =   0.0000000000000E+00
(PID.TID 0000.0001) %MON forcing_fv_max               =   0.0000000000000E+00
(PID.TID 0000.0001) %MON forcing_fv_min               =   0.0000000000000E+00
(PID.TID 0000.0001) %MON forcing_fv_mean              =   0.0000000000000E+00
(PID.TID 0000.0001) %MON forcing_fv_sd                =   0.0000000000000E+00
(PID.TID 0000.0001) %MON forcing_fv_del2              =   0.0000000000000E+00
(PID.TID 0000.0001) %MON advcfl_uvel_max              =   1.4469828308259E-02
(PID.TID 0000.0001) %MON advcfl_vvel_max              =   0.0000000000000E+00
(PID.TID 0000.0001) %MON advcfl_wvel_max              =   3.7003032243681E-02
(PID.TID 0000.0001) %MON advcfl_W_hf_max              =   3.7003032243681E-02
(PID.TID 0000.0001) %MON pe_b_mean                    =   6.6516962690007E-07
(PID.TID 0000.0001) %MON ke_max                       =   1.6142130682953E-02
(PID.TID 0000.0001) %MON ke_mean                      =   6.3617807007429E-03
(PID.TID 0000.0001) %MON ke_vol                       =   9.6656886657870E+10
(PID.TID 0000.0001) %MON vort_r_min                   =   0.0000000000000E+00
(PID.TID 0000.0001) %MON vort_r_max                   =   0.0000000000000E+00
(PID.TID 0000.0001) %MON vort_a_mean                  =   0.0000000000000E+00
(PID.TID 0000.0001) %MON vort_a_sd                    =   0.0000000000000E+00
(PID.TID 0000.0001) %MON vort_p_mean                  =   0.0000000000000E+00
(PID.TID 0000.0001) %MON vort_p_sd                    =   0.0000000000000E+00
(PID.TID 0000.0001) %MON surfExpan_theta_mean         =  -2.2090164364244E-19
(PID.TID 0000.0001) %MON surfExpan_salt_mean          =   1.2011090423551E-19
(PID.TID 0000.0001) // =======================================================
(PID.TID 0000.0001) // End MONITOR dynamic field statistics
(PID.TID 0000.0001) // =======================================================
(PID.TID 0000.0001) // =======================================================
(PID.TID 0000.0001) // Begin OBCS MONITOR field statistics
(PID.TID 0000.0001) // =======================================================
(PID.TID 0000.0001) %MON obc_E_uVel_max               =   1.1205712828732E-01
(PID.TID 0000.0001) %MON obc_E_uVel_min               =   1.1205712828732E-01
(PID.TID 0000.0001) %MON obc_E_uVel_mean              =   1.1205712828732E-01
(PID.TID 0000.0001) %MON obc_E_uVel_sd                =  -1.2143064331838E-17
(PID.TID 0000.0001) %MON obc_E_uVel_Int               =   1.1205712828732E+05
(PID.TID 0000.0001) %MON obc_W_uVel_max               =   1.1205712828732E-01
(PID.TID 0000.0001) %MON obc_W_uVel_min               =   1.1205712828732E-01
(PID.TID 0000.0001) %MON obc_W_uVel_mean              =   1.1205712828732E-01
(PID.TID 0000.0001) %MON obc_W_uVel_sd                =  -1.2143064331838E-17
(PID.TID 0000.0001) %MON obc_W_uVel_Int               =   1.1205712828732E+05
(PID.TID 0000.0001) // =======================================================
(PID.TID 0000.0001) // End OBCS MONITOR field statistics
(PID.TID 0000.0001) // =======================================================
(PID.TID 0000.0001) %CHECKPOINT      1440 0000001440
 cg2d: Sum(rhs),rhsMax =  -2.13045137087420E-11  3.75276963544604E-02
 cg2d: Sum(rhs),rhsMax =  -2.17890150366884E-11  3.69088428441672E-02
 cg2d: Sum(rhs),rhsMax =  -2.22458718113216E-11  3.62804486012478E-02
 cg2d: Sum(rhs),rhsMax =  -2.27191598867194E-11  3.56430974457877E-02
 cg2d: Sum(rhs),rhsMax =  -2.32628361018783E-11  3.49973579966819E-02
 cg2d: Sum(rhs),rhsMax =  -2.35844677121122E-11  3.43437823319751E-02
 cg2d: Sum(rhs),rhsMax =  -2.38359332271898E-11  3.36829047292529E-02
 cg2d: Sum(rhs),rhsMax =  -2.42577069542449E-11  3.30152404897980E-02
 cg2d: Sum(rhs),rhsMax =  -2.47305509404327E-11  3.23412848470146E-02
 cg2d: Sum(rhs),rhsMax =  -2.52259324540205E-11  3.16615119588530E-02
 cg2d: Sum(rhs),rhsMax =  -2.57246446366821E-11  3.09763739847779E-02
 cg2d: Sum(rhs),rhsMax =  -2.62621036029032E-11  3.02863002496913E-02
 cg2d: Sum(rhs),rhsMax =  -2.68353117505171E-11  2.95916964803600E-02
 cg2d: Sum(rhs),rhsMax =  -2.74066325189892E-11  2.88929441345235E-02
 cg2d: Sum(rhs),rhsMax =  -2.80475642711053E-11  2.81903998790741E-02
 cg2d: Sum(rhs),rhsMax =  -2.87009305210972E-11  2.74843951526548E-02
 cg2d: Sum(rhs),rhsMax =  -2.93559621056261E-11  2.67752357694237E-02
 cg2d: Sum(rhs),rhsMax =  -3.00571789679793E-11  2.60632016359673E-02
 cg2d: Sum(rhs),rhsMax =  -3.08261194348347E-11  2.53485465710838E-02
 cg2d: Sum(rhs),rhsMax =  -3.18138848598437E-11  2.46314982350102E-02
 cg2d: Sum(rhs),rhsMax =  -3.26252358462398E-11  2.39122581606101E-02
 cg2d: Sum(rhs),rhsMax =  -3.36984884441449E-11  2.31910018823386E-02
 cg2d: Sum(rhs),rhsMax =  -3.48594486609954E-11  2.24678791619649E-02
 cg2d: Sum(rhs),rhsMax =  -3.60936835974712E-11  2.17430143114687E-02
 cg2d: Sum(rhs),rhsMax =  -3.74192898888737E-11  2.10165066141203E-02
 cg2d: Sum(rhs),rhsMax =  -3.88328258438264E-11  2.02884308479908E-02
 cg2d: Sum(rhs),rhsMax =  -4.04212219251576E-11  1.95588378980848E-02
 cg2d: Sum(rhs),rhsMax =  -4.20421475411104E-11  1.88277554669557E-02
 cg2d: Sum(rhs),rhsMax =  -4.38779013123280E-11  1.80951888803930E-02
 cg2d: Sum(rhs),rhsMax =  -4.58136861780645E-11  1.73611219755526E-02
 cg2d: Sum(rhs),rhsMax =  -4.78627137923127E-11  1.66255180986042E-02
 cg2d: Sum(rhs),rhsMax =  -5.01866326274580E-11  1.58883211788406E-02
 cg2d: Sum(rhs),rhsMax =  -5.27056176480301E-11  1.51494568758700E-02
 cg2d: Sum(rhs),rhsMax =  -5.54809531649880E-11  1.44088337991690E-02
 cg2d: Sum(rhs),rhsMax =  -5.85890225224261E-11  1.36663447782605E-02
 cg2d: Sum(rhs),rhsMax =  -6.20709039722556E-11  1.29218682145170E-02
 cg2d: Sum(rhs),rhsMax =  -6.60204113600571E-11  1.21752695005096E-02
 cg2d: Sum(rhs),rhsMax =  -7.04792890715567E-11  1.14264024925323E-02
 cg2d: Sum(rhs),rhsMax =  -7.55595586099389E-11  1.06751110349824E-02
 cg2d: Sum(rhs),rhsMax =  -8.13364930962734E-11  9.92123050946490E-03
 cg2d: Sum(rhs),rhsMax =  -8.81059669666229E-11  9.16458941199913E-03
 cg2d: Sum(rhs),rhsMax =  -9.61221102713239E-11  8.40501096744412E-03
 cg2d: Sum(rhs),rhsMax =  -1.05781994275134E-10  7.64231477482641E-03
 cg2d: Sum(rhs),rhsMax =  -1.17650944542191E-10  6.87631847616076E-03
 cg2d: Sum(rhs),rhsMax =  -1.32554411891306E-10  6.10683944163604E-03
 cg2d: Sum(rhs),rhsMax =  -1.51877954657209E-10  5.33369646292554E-03
 cg2d: Sum(rhs),rhsMax =  -1.77802175760355E-10  4.55671145309025E-03
 cg2d: Sum(rhs),rhsMax =  -2.14610024196205E-10  3.77571114423423E-03
 cg2d: Sum(rhs),rhsMax =  -2.71012101649148E-10  2.99052878052564E-03
 cg2d: Sum(rhs),rhsMax =  -3.13706949306436E-10  2.58398196206984E-03
 cg2d: Sum(rhs),rhsMax =  -2.43328912574725E-10  3.33209415796855E-03
 cg2d: Sum(rhs),rhsMax =  -1.98554728214617E-10  4.08422718290604E-03
 cg2d: Sum(rhs),rhsMax =  -1.67422076202683E-10  4.84579785888061E-03
 cg2d: Sum(rhs),rhsMax =  -1.44464329387972E-10  5.61638212656070E-03
 cg2d: Sum(rhs),rhsMax =  -1.26960220114825E-10  6.39264323905444E-03
 cg2d: Sum(rhs),rhsMax =  -1.13156928271962E-10  7.17929312341773E-03
 cg2d: Sum(rhs),rhsMax =  -1.01889163772739E-10  7.97990832348259E-03
 cg2d: Sum(rhs),rhsMax =  -9.25166609988537E-11  8.79419458549080E-03
 cg2d: Sum(rhs),rhsMax =  -8.47881764798331E-11  9.60434549678859E-03
 cg2d: Sum(rhs),rhsMax =  -7.82622855410864E-11  1.04098981978223E-02
 cg2d: Sum(rhs),rhsMax =  -7.27411464396255E-11  1.12106479104263E-02
 cg2d: Sum(rhs),rhsMax =  -6.79754030841195E-11  1.20063813563399E-02
 cg2d: Sum(rhs),rhsMax =  -6.38380459605514E-11  1.27968762692014E-02
 cg2d: Sum(rhs),rhsMax =  -6.01794170052017E-11  1.35819009853889E-02
 cg2d: Sum(rhs),rhsMax =  -5.69608804568134E-11  1.43612141207927E-02
 cg2d: Sum(rhs),rhsMax =  -5.40862910014539E-11  1.51345642959651E-02
 cg2d: Sum(rhs),rhsMax =  -5.15338882678407E-11  1.59016899360464E-02
 cg2d: Sum(rhs),rhsMax =  -4.91993112916589E-11  1.66623191535552E-02
 cg2d: Sum(rhs),rhsMax =  -4.71001015966976E-11  1.74161697100913E-02
 cg2d: Sum(rhs),rhsMax =  -4.52691217844858E-11  1.81629490542206E-02
 cg2d: Sum(rhs),rhsMax =  -4.35953495525609E-11  1.89023544375580E-02
 cg2d: Sum(rhs),rhsMax =  -4.20814494361821E-11  1.96340731083590E-02
 cg2d: Sum(rhs),rhsMax =  -4.06590316970323E-11  2.03577825850147E-02
 cg2d: Sum(rhs),rhsMax =  -3.93600707582209E-11  2.10731510180710E-02
 cg2d: Sum(rhs),rhsMax =  -3.81481513045401E-11  2.17798375965896E-02
 cg2d: Sum(rhs),rhsMax =  -3.70448116626676E-11  2.24774930456872E-02
 cg2d: Sum(rhs),rhsMax =  -3.60391716469621E-11  2.31657602019523E-02
 cg2d: Sum(rhs),rhsMax =  -3.50586226716132E-11  2.38442746538880E-02
 cg2d: Sum(rhs),rhsMax =  -3.41612294008087E-11  2.45126654396732E-02
 cg2d: Sum(rhs),rhsMax =  -3.33351124481851E-11  2.51705557959890E-02
 cg2d: Sum(rhs),rhsMax =  -3.25456328553742E-11  2.58175639425524E-02
 cg2d: Sum(rhs),rhsMax =  -3.18020054734802E-11  2.64533039101931E-02
 cg2d: Sum(rhs),rhsMax =  -3.11690673271414E-11  2.70773864127716E-02
 cg2d: Sum(rhs),rhsMax =  -3.05152569879397E-11  2.76894197474781E-02
 cg2d: Sum(rhs),rhsMax =  -2.98814306631812E-11  2.82890107227810E-02
 cg2d: Sum(rhs),rhsMax =  -2.93653990013354E-11  2.88757656134732E-02
 cg2d: Sum(rhs),rhsMax =  -2.85369505803601E-11  2.97315836950565E-02
 cg2d: Sum(rhs),rhsMax =  -2.77742273624426E-11  3.05938431469067E-02
 cg2d: Sum(rhs),rhsMax =  -2.71124234174636E-11  3.14485252971611E-02
 cg2d: Sum(rhs),rhsMax =  -2.64982480402409E-11  3.22948185457604E-02
 cg2d: Sum(rhs),rhsMax =  -2.58786325701976E-11  3.31318987433740E-02
 cg2d: Sum(rhs),rhsMax =  -2.52897702779364E-11  3.39589310929764E-02
 cg2d: Sum(rhs),rhsMax =  -2.47646347872887E-11  3.47750721080693E-02
 cg2d: Sum(rhs),rhsMax =  -2.42396103189435E-11  3.55794716185349E-02
 cg2d: Sum(rhs),rhsMax =  -2.37222463894682E-11  3.63712748150882E-02
 cg2d: Sum(rhs),rhsMax =  -2.32692753954211E-11  3.71496243249489E-02
 cg2d: Sum(rhs),rhsMax =  -2.28538299396064E-11  3.79136623115138E-02
 cg2d: Sum(rhs),rhsMax =  -2.24255058967060E-11  3.86625325918056E-02
 cg2d: Sum(rhs),rhsMax =  -2.20587992316723E-11  3.93953827614588E-02
 cg2d: Sum(rhs),rhsMax =  -2.16680007270043E-11  4.01113663230260E-02
 cg2d: Sum(rhs),rhsMax =  -2.13203898979941E-11  4.08096448106295E-02
 cg2d: Sum(rhs),rhsMax =  -2.09832151654155E-11  4.14893899031560E-02
 cg2d: Sum(rhs),rhsMax =  -2.07049932754444E-11  4.21497855185733E-02
 cg2d: Sum(rhs),rhsMax =  -2.04142258652951E-11  4.27900298856891E-02
 cg2d: Sum(rhs),rhsMax =  -2.01566541235820E-11  4.34093375832941E-02
 cg2d: Sum(rhs),rhsMax =  -1.99010807833133E-11  4.40069415409760E-02
 cg2d: Sum(rhs),rhsMax =  -1.96433980192978E-11  4.45820949952974E-02
 cg2d: Sum(rhs),rhsMax =  -1.94140259424103E-11  4.51340733946887E-02
 cg2d: Sum(rhs),rhsMax =  -1.91986426756330E-11  4.56621762461101E-02
 cg2d: Sum(rhs),rhsMax =  -1.90029103563916E-11  4.61657288964325E-02
 cg2d: Sum(rhs),rhsMax =  -1.88261628508712E-11  4.66440842436156E-02
 cg2d: Sum(rhs),rhsMax =  -1.86657356238129E-11  4.70966243669277E-02
 cg2d: Sum(rhs),rhsMax =  -1.84943171888108E-11  4.75227620689799E-02
 cg2d: Sum(rhs),rhsMax =  -1.83461024150233E-11  4.79219423282932E-02
 cg2d: Sum(rhs),rhsMax =  -1.82247550384318E-11  4.82936436562818E-02
 cg2d: Sum(rhs),rhsMax =  -1.80658821236079E-11  4.86373793478415E-02
 cg2d: Sum(rhs),rhsMax =  -1.79539716427257E-11  4.89526986284425E-02
 cg2d: Sum(rhs),rhsMax =  -1.78493886338060E-11  4.92391876996682E-02
 cg2d: Sum(rhs),rhsMax =  -1.77612369256508E-11  4.94964706663955E-02
 cg2d: Sum(rhs),rhsMax =  -1.76890724290502E-11  4.97242103549983E-02
 cg2d: Sum(rhs),rhsMax =  -1.76295644749302E-11  4.99221089886587E-02
 cg2d: Sum(rhs),rhsMax =  -1.75565117999099E-11  5.00899087593761E-02
 cg2d: Sum(rhs),rhsMax =  -1.75200964847022E-11  5.02273922508516E-02
 cg2d: Sum(rhs),rhsMax =  -1.75098824328757E-11  5.03343827522363E-02
 cg2d: Sum(rhs),rhsMax =  -1.74983361134196E-11  5.04107444564783E-02
 cg2d: Sum(rhs),rhsMax =  -1.74679160025448E-11  5.04563825476590E-02
 cg2d: Sum(rhs),rhsMax =  -1.74562586607863E-11  5.04712431641669E-02
 cg2d: Sum(rhs),rhsMax =  -1.74877889946856E-11  5.04553132146634E-02
 cg2d: Sum(rhs),rhsMax =  -1.75381931200036E-11  5.04086200819443E-02
 cg2d: Sum(rhs),rhsMax =  -1.75676140301562E-11  5.03312312191667E-02
 cg2d: Sum(rhs),rhsMax =  -1.76443304411578E-11  5.02232536357932E-02
 cg2d: Sum(rhs),rhsMax =  -1.77707848436626E-11  5.00848332165633E-02
 cg2d: Sum(rhs),rhsMax =  -1.78632664216138E-11  4.99161540285221E-02
 cg2d: Sum(rhs),rhsMax =  -1.80196968457835E-11  4.97174375021789E-02
 cg2d: Sum(rhs),rhsMax =  -1.81956671951866E-11  4.94889415154217E-02
 cg2d: Sum(rhs),rhsMax =  -1.83901782691009E-11  4.92309593546202E-02
 cg2d: Sum(rhs),rhsMax =  -1.85980120193108E-11  4.89438185808588E-02
 cg2d: Sum(rhs),rhsMax =  -1.88064008810329E-11  4.86278798815750E-02
 cg2d: Sum(rhs),rhsMax =  -1.90547577716416E-11  4.82835356979038E-02
 cg2d: Sum(rhs),rhsMax =  -1.90564231061785E-11  4.79112088350324E-02
 cg2d: Sum(rhs),rhsMax =  -1.91721083453444E-11  4.75113510782920E-02
 cg2d: Sum(rhs),rhsMax =  -1.92645899232957E-11  4.70844417447360E-02
 cg2d: Sum(rhs),rhsMax =  -1.94111393625462E-11  4.66309861715719E-02
 cg2d: Sum(rhs),rhsMax =  -1.95418126125446E-11  4.61515141495696E-02
 cg2d: Sum(rhs),rhsMax =  -1.96778149330612E-11  4.56465783162383E-02
 cg2d: Sum(rhs),rhsMax =  -1.98264737960585E-11  4.51167525209454E-02
 cg2d: Sum(rhs),rhsMax =  -1.99833483094380E-11  4.45626302265278E-02
 cg2d: Sum(rhs),rhsMax =  -2.01607619487731E-11  4.39848227561603E-02
 cg2d: Sum(rhs),rhsMax =  -2.04029015904439E-11  4.33839575735011E-02
 cg2d: Sum(rhs),rhsMax =  -2.06520356371698E-11  4.27606765900803E-02
 cg2d: Sum(rhs),rhsMax =  -2.09227080105734E-11  4.21156344920975E-02
 cg2d: Sum(rhs),rhsMax =  -2.12515560704674E-11  4.14494970656752E-02
 cg2d: Sum(rhs),rhsMax =  -2.15257811575498E-11  4.07629395546919E-02
 cg2d: Sum(rhs),rhsMax =  -2.18448592548270E-11  4.00566450065151E-02
 cg2d: Sum(rhs),rhsMax =  -2.21703766456471E-11  3.93313026402387E-02
 cg2d: Sum(rhs),rhsMax =  -2.25306440171380E-11  3.85876062293655E-02
 cg2d: Sum(rhs),rhsMax =  -2.29420926700641E-11  3.78262525015331E-02
 cg2d: Sum(rhs),rhsMax =  -2.33529862114779E-11  3.70479396629376E-02
 cg2d: Sum(rhs),rhsMax =  -2.38014052911240E-11  3.62533659309627E-02
 cg2d: Sum(rhs),rhsMax =  -2.42896813773541E-11  3.54432280908160E-02
 cg2d: Sum(rhs),rhsMax =  -2.47672993225478E-11  3.46182200969938E-02
 cg2d: Sum(rhs),rhsMax =  -2.52970977498990E-11  3.37790317411051E-02
 cg2d: Sum(rhs),rhsMax =  -2.58764121241484E-11  3.29263473799371E-02
 cg2d: Sum(rhs),rhsMax =  -2.64974708841237E-11  3.20608447287559E-02
 cg2d: Sum(rhs),rhsMax =  -2.71878075608356E-11  3.11831937408624E-02
 cg2d: Sum(rhs),rhsMax =  -2.79499756672408E-11  3.02940555672779E-02
 cg2d: Sum(rhs),rhsMax =  -2.87789791997284E-11  2.93940816017511E-02
 cg2d: Sum(rhs),rhsMax =  -2.96606073035832E-11  2.84839125485858E-02
 cg2d: Sum(rhs),rhsMax =  -3.06006331385333E-11  2.75641776989470E-02
 cg2d: Sum(rhs),rhsMax =  -3.16098258679176E-11  2.66354942687947E-02
 cg2d: Sum(rhs),rhsMax =  -3.27271543199004E-11  2.56984667699333E-02
 cg2d: Sum(rhs),rhsMax =  -3.38816752432081E-11  2.47536864492816E-02
 cg2d: Sum(rhs),rhsMax =  -3.51858542302352E-11  2.38017308304555E-02
 cg2d: Sum(rhs),rhsMax =  -3.66089381031998E-11  2.28431633537418E-02
 cg2d: Sum(rhs),rhsMax =  -3.81692455420080E-11  2.18785331045473E-02
 cg2d: Sum(rhs),rhsMax =  -3.98187038896936E-11  2.09083746216435E-02
 cg2d: Sum(rhs),rhsMax =  -4.17105239236548E-11  1.99332077803233E-02
 cg2d: Sum(rhs),rhsMax =  -4.37968550315304E-11  1.89535377482694E-02
 cg2d: Sum(rhs),rhsMax =  -4.61367610782304E-11  1.79698550132942E-02
 cg2d: Sum(rhs),rhsMax =  -4.87848650365663E-11  1.69826354821426E-02
 cg2d: Sum(rhs),rhsMax =  -5.17706988389932E-11  1.59923406488280E-02
 cg2d: Sum(rhs),rhsMax =  -5.51655388036920E-11  1.49994178301009E-02
 cg2d: Sum(rhs),rhsMax =  -5.90169024761167E-11  1.40043004638428E-02
 cg2d: Sum(rhs),rhsMax =  -6.35018704286949E-11  1.30074084627614E-02
 cg2d: Sum(rhs),rhsMax =  -6.87463419524192E-11  1.20091486638710E-02
 cg2d: Sum(rhs),rhsMax =  -7.49176276571006E-11  1.10099152814582E-02
 cg2d: Sum(rhs),rhsMax =  -8.22995005478333E-11  1.00100904071402E-02
 cg2d: Sum(rhs),rhsMax =  -9.13797926216375E-11  9.01004457740320E-03
 cg2d: Sum(rhs),rhsMax =  -1.02680419722390E-10  8.01013740298378E-03
 cg2d: Sum(rhs),rhsMax =  -1.16096021685053E-10  7.07933588796279E-03
 cg2d: Sum(rhs),rhsMax =  -1.27846733199988E-10  6.42762103346567E-03
 cg2d: Sum(rhs),rhsMax =  -1.42295730753972E-10  5.77287028360778E-03
 cg2d: Sum(rhs),rhsMax =  -1.60534807669421E-10  5.11504121409015E-03
 cg2d: Sum(rhs),rhsMax =  -1.84292581195677E-10  4.45409354486363E-03
 cg2d: Sum(rhs),rhsMax =  -2.16470397162993E-10  3.78999020026201E-03
 cg2d: Sum(rhs),rhsMax =  -2.62606270062804E-10  3.12269837586669E-03
 cg2d: Sum(rhs),rhsMax =  -3.34303251747770E-10  2.45219057779648E-03
 cg2d: Sum(rhs),rhsMax =  -3.78358677721735E-10  2.16613723193248E-03
 cg2d: Sum(rhs),rhsMax =  -2.90902302246820E-10  2.81674645941500E-03
 cg2d: Sum(rhs),rhsMax =  -2.23919063846445E-10  3.65790296109382E-03
 cg2d: Sum(rhs),rhsMax =  -1.81822799871778E-10  4.50149491122175E-03
 cg2d: Sum(rhs),rhsMax =  -1.52743317993753E-10  5.35776351310212E-03
 cg2d: Sum(rhs),rhsMax =  -1.31677668768759E-10  6.21257525566407E-03
 cg2d: Sum(rhs),rhsMax =  -1.15437381875694E-10  7.08268847792061E-03
 cg2d: Sum(rhs),rhsMax =  -1.02781561039933E-10  7.94789610132437E-03
 cg2d: Sum(rhs),rhsMax =  -9.24157417259153E-11  8.82991620885324E-03
 cg2d: Sum(rhs),rhsMax =  -8.40096880949659E-11  9.70714915491538E-03
 cg2d: Sum(rhs),rhsMax =  -7.68982655330319E-11  1.05991866081546E-02
 cg2d: Sum(rhs),rhsMax =  -7.08725300668789E-11  1.14915418586996E-02
 cg2d: Sum(rhs),rhsMax =  -6.56453780223387E-11  1.23974836036070E-02
 cg2d: Sum(rhs),rhsMax =  -6.10614891982664E-11  1.33164754140770E-02
 cg2d: Sum(rhs),rhsMax =  -5.71063196730393E-11  1.42284411192649E-02
 cg2d: Sum(rhs),rhsMax =  -5.36276578699812E-11  1.51330755644793E-02
 cg2d: Sum(rhs),rhsMax =  -5.06232833430431E-11  1.60300691046461E-02
 cg2d: Sum(rhs),rhsMax =  -4.79138950737479E-11  1.69191074237974E-02
 cg2d: Sum(rhs),rhsMax =  -4.54496440482899E-11  1.77998714136933E-02
 cg2d: Sum(rhs),rhsMax =  -4.32198721256327E-11  1.86720371096021E-02
 cg2d: Sum(rhs),rhsMax =  -4.11882750128711E-11  1.95352756911000E-02
 cg2d: Sum(rhs),rhsMax =  -3.93994836755951E-11  2.03892535428656E-02
 cg2d: Sum(rhs),rhsMax =  -3.77481379487676E-11  2.12336323715210E-02
 cg2d: Sum(rhs),rhsMax =  -3.62530006015049E-11  2.20680693765608E-02
 cg2d: Sum(rhs),rhsMax =  -3.48553408358043E-11  2.28922174736138E-02
 cg2d: Sum(rhs),rhsMax =  -3.35977912158114E-11  2.37057255662509E-02
 cg2d: Sum(rhs),rhsMax =  -3.24267279694368E-11  2.45082388658279E-02
 cg2d: Sum(rhs),rhsMax =  -3.13498116355504E-11  2.52993992581741E-02
 cg2d: Sum(rhs),rhsMax =  -3.02669000973310E-11  2.60788457149034E-02
 cg2d: Sum(rhs),rhsMax =  -2.92963431292037E-11  2.68462147462192E-02
 cg2d: Sum(rhs),rhsMax =  -2.83257861610764E-11  2.76011408928084E-02
 cg2d: Sum(rhs),rhsMax =  -2.75071077027178E-11  2.83432572566729E-02
 cg2d: Sum(rhs),rhsMax =  -2.67136313070182E-11  2.90721960635693E-02
 cg2d: Sum(rhs),rhsMax =  -2.59969823446227E-11  2.97875892597476E-02
 cg2d: Sum(rhs),rhsMax =  -2.52996512628556E-11  3.04890691409853E-02
 cg2d: Sum(rhs),rhsMax =  -2.46702658301956E-11  3.11762690091752E-02
 cg2d: Sum(rhs),rhsMax =  -2.40633069026330E-11  3.18488238605504E-02
 cg2d: Sum(rhs),rhsMax =  -2.35506059098611E-11  3.25063710994528E-02
 cg2d: Sum(rhs),rhsMax =  -2.30317986904538E-11  3.31485512730548E-02
 cg2d: Sum(rhs),rhsMax =  -2.24813501148446E-11  3.37750088253882E-02
 cg2d: Sum(rhs),rhsMax =  -2.21487272966669E-11  3.43853928685702E-02
 cg2d: Sum(rhs),rhsMax =  -2.18787210570781E-11  3.49793579683470E-02
 cg2d: Sum(rhs),rhsMax =  -2.17105222688474E-11  3.55565649403899E-02
 cg2d: Sum(rhs),rhsMax =  -2.14762652106515E-11  3.61166816526713E-02
 cg2d: Sum(rhs),rhsMax =  -2.12342365912832E-11  3.66593838297222E-02
 cg2d: Sum(rhs),rhsMax =  -2.10393924504615E-11  3.71843558618955E-02
 cg2d: Sum(rhs),rhsMax =  -2.08545403168614E-11  3.76912916055515E-02
 cg2d: Sum(rhs),rhsMax =  -2.06704653393786E-11  3.81798951689987E-02
 cg2d: Sum(rhs),rhsMax =  -2.04811723136800E-11  3.86498816859616E-02
 cg2d: Sum(rhs),rhsMax =  -2.03440597701388E-11  3.91009780731752E-02
 cg2d: Sum(rhs),rhsMax =  -2.01724192905317E-11  3.95329237678478E-02
 cg2d: Sum(rhs),rhsMax =  -2.00448546650023E-11  3.99454714404647E-02
 cg2d: Sum(rhs),rhsMax =  -1.99316119164905E-11  4.03383876787513E-02
 cg2d: Sum(rhs),rhsMax =  -1.98266958406634E-11  4.07114536400608E-02
 cg2d: Sum(rhs),rhsMax =  -1.97540872548529E-11  4.10644656617637E-02
 cg2d: Sum(rhs),rhsMax =  -1.96728189294504E-11  4.13972358482568E-02
 cg2d: Sum(rhs),rhsMax =  -1.95716776119070E-11  4.17095926183876E-02
 cg2d: Sum(rhs),rhsMax =  -1.95443661255013E-11  4.20013812060205E-02
 cg2d: Sum(rhs),rhsMax =  -1.94785299001410E-11  4.22724641271630E-02
 cg2d: Sum(rhs),rhsMax =  -1.94223526150950E-11  4.25227215860638E-02
 cg2d: Sum(rhs),rhsMax =  -1.93927096603375E-11  4.27520518238428E-02
 cg2d: Sum(rhs),rhsMax =  -1.93446370033712E-11  4.29603714168680E-02
 cg2d: Sum(rhs),rhsMax =  -1.93063343090216E-11  4.31476155333727E-02
 cg2d: Sum(rhs),rhsMax =  -1.92827975808996E-11  4.33137381428773E-02
 cg2d: Sum(rhs),rhsMax =  -1.92660332132277E-11  4.34587121737273E-02
 cg2d: Sum(rhs),rhsMax =  -1.92507121354879E-11  4.35825296256104E-02
 cg2d: Sum(rhs),rhsMax =  -1.92295068757176E-11  4.36852016128696E-02
 cg2d: Sum(rhs),rhsMax =  -1.92329485670939E-11  4.37667583483156E-02
 cg2d: Sum(rhs),rhsMax =  -1.92231786044772E-11  4.38272490790647E-02
 cg2d: Sum(rhs),rhsMax =  -1.92292848311126E-11  4.38667419747728E-02
 cg2d: Sum(rhs),rhsMax =  -1.92873494953005E-11  4.38853239671848E-02
 cg2d: Sum(rhs),rhsMax =  -1.93101090673053E-11  4.38831005398312E-02
 cg2d: Sum(rhs),rhsMax =  -1.93395299774579E-11  4.38601954457650E-02
 cg2d: Sum(rhs),rhsMax =  -1.93858262775848E-11  4.38167503906371E-02
 cg2d: Sum(rhs),rhsMax =  -1.94153582100398E-11  4.37529247062962E-02
 cg2d: Sum(rhs),rhsMax =  -1.94954052901153E-11  4.36688949611993E-02
 cg2d: Sum(rhs),rhsMax =  -1.95273797132245E-11  4.35648545059568E-02
 cg2d: Sum(rhs),rhsMax =  -1.95718996565120E-11  4.34410129834703E-02
 cg2d: Sum(rhs),rhsMax =  -1.96358485027304E-11  4.32975957995970E-02
 cg2d: Sum(rhs),rhsMax =  -1.97230010101634E-11  4.31348435520298E-02
 cg2d: Sum(rhs),rhsMax =  -1.97823979419809E-11  4.29530114675124E-02
 cg2d: Sum(rhs),rhsMax =  -1.99176231063802E-11  4.27523687325378E-02
 cg2d: Sum(rhs),rhsMax =  -2.00133243311029E-11  4.25331977892240E-02
 cg2d: Sum(rhs),rhsMax =  -2.01638705732421E-11  4.22957936035161E-02
 cg2d: Sum(rhs),rhsMax =  -2.03099759232828E-11  4.20404629558018E-02
 cg2d: Sum(rhs),rhsMax =  -2.05051531310119E-11  4.17675237320425E-02
 cg2d: Sum(rhs),rhsMax =  -2.06616945774840E-11  4.14773041697996E-02
 cg2d: Sum(rhs),rhsMax =  -2.08790762457056E-11  4.11701420693946E-02
 cg2d: Sum(rhs),rhsMax =  -2.10964579139272E-11  4.08463839610845E-02
 cg2d: Sum(rhs),rhsMax =  -2.13378203994807E-11  4.05063842530522E-02
 cg2d: Sum(rhs),rhsMax =  -2.15943929404716E-11  4.01505043567496E-02
 cg2d: Sum(rhs),rhsMax =  -2.18568496634930E-11  3.97791117820401E-02
 cg2d: Sum(rhs),rhsMax =  -2.21583862369812E-11  3.93925791944328E-02
 cg2d: Sum(rhs),rhsMax =  -2.24580354313275E-11  3.89912834773496E-02
 cg2d: Sum(rhs),rhsMax =  -2.27666774321733E-11  3.85756046555665E-02
 cg2d: Sum(rhs),rhsMax =  -2.30887531316171E-11  3.81459247987991E-02
 cg2d: Sum(rhs),rhsMax =  -2.34542385513237E-11  3.77026269111121E-02
 cg2d: Sum(rhs),rhsMax =  -2.38442598998745E-11  3.72460937959202E-02
 cg2d: Sum(rhs),rhsMax =  -2.42444953002519E-11  3.67767069078155E-02
 cg2d: Sum(rhs),rhsMax =  -2.46345166488027E-11  3.62948452112738E-02
 cg2d: Sum(rhs),rhsMax =  -2.50807152823995E-11  3.58008840451436E-02
 cg2d: Sum(rhs),rhsMax =  -2.55531151793775E-11  3.52951940431262E-02
 cg2d: Sum(rhs),rhsMax =  -2.60143018238068E-11  3.47781401731131E-02
 cg2d: Sum(rhs),rhsMax =  -2.64680499739711E-11  3.42500808447833E-02
 cg2d: Sum(rhs),rhsMax =  -2.69478883652141E-11  3.37113671135865E-02
 cg2d: Sum(rhs),rhsMax =  -2.74069655858966E-11  3.31623420061568E-02
 cg2d: Sum(rhs),rhsMax =  -2.79357648125256E-11  3.26033399768104E-02
 cg2d: Sum(rhs),rhsMax =  -2.84741119571663E-11  3.20346864974900E-02
 cg2d: Sum(rhs),rhsMax =  -2.90348856069045E-11  3.14566977722986E-02
 cg2d: Sum(rhs),rhsMax =  -2.96292990142888E-11  3.08696805558431E-02
 cg2d: Sum(rhs),rhsMax =  -3.02778913052748E-11  3.02739320580382E-02
 cg2d: Sum(rhs),rhsMax =  -3.09228198602796E-11  2.96697399101164E-02
 cg2d: Sum(rhs),rhsMax =  -3.16551229673223E-11  2.90573821604708E-02
 cg2d: Sum(rhs),rhsMax =  -3.23709947736006E-11  2.84371272786253E-02
 cg2d: Sum(rhs),rhsMax =  -3.31589200541771E-11  2.78092341499792E-02
 cg2d: Sum(rhs),rhsMax =  -3.40171224522123E-11  2.71739520491457E-02
 cg2d: Sum(rhs),rhsMax =  -3.48989726006721E-11  2.65315205604875E-02
 cg2d: Sum(rhs),rhsMax =  -3.58054697002785E-11  2.58821695174394E-02
 cg2d: Sum(rhs),rhsMax =  -3.68288732843780E-11  2.52261189047871E-02
 cg2d: Sum(rhs),rhsMax =  -3.78874709383581E-11  2.45635787374963E-02
 cg2d: Sum(rhs),rhsMax =  -3.90146803752600E-11  2.38947489331522E-02
 cg2d: Sum(rhs),rhsMax =  -4.02341493455083E-11  2.32198191965398E-02
 cg2d: Sum(rhs),rhsMax =  -4.15506518081088E-11  2.25389689334109E-02
 cg2d: Sum(rhs),rhsMax =  -4.29523083766981E-11  2.18523672089773E-02
 cg2d: Sum(rhs),rhsMax =  -4.44512204822445E-11  2.11601727636206E-02
 cg2d: Sum(rhs),rhsMax =  -4.60774751687154E-11  2.04625340953558E-02
 cg2d: Sum(rhs),rhsMax =  -4.78183048713277E-11  1.97595896230821E-02
 cg2d: Sum(rhs),rhsMax =  -4.97293317636149E-11  1.90514679151243E-02
 cg2d: Sum(rhs),rhsMax =  -5.17206277805826E-11  1.83382879954972E-02
 cg2d: Sum(rhs),rhsMax =  -5.38922240167494E-11  1.76201597309588E-02
 cg2d: Sum(rhs),rhsMax =  -5.62958568650629E-11  1.68971842858780E-02
 cg2d: Sum(rhs),rhsMax =  -5.88940007872907E-11  1.61694546667522E-02
 cg2d: Sum(rhs),rhsMax =  -6.17876860786737E-11  1.54370563229961E-02
 cg2d: Sum(rhs),rhsMax =  -6.49824638543350E-11  1.47000677953049E-02
 cg2d: Sum(rhs),rhsMax =  -6.85229650798647E-11  1.39585614114439E-02
 cg2d: Sum(rhs),rhsMax =  -7.24833526533075E-11  1.32126040319282E-02
 cg2d: Sum(rhs),rhsMax =  -7.69648789145094E-11  1.24622578362465E-02
 cg2d: Sum(rhs),rhsMax =  -8.20660206457546E-11  1.17075811236392E-02
 cg2d: Sum(rhs),rhsMax =  -8.78781492019698E-11  1.09486291516322E-02
 cg2d: Sum(rhs),rhsMax =  -9.45034051014204E-11  1.01854549995611E-02
 cg2d: Sum(rhs),rhsMax =  -1.02272745827747E-10  9.41811044618645E-03
 cg2d: Sum(rhs),rhsMax =  -1.11445408457200E-10  8.64664685369253E-03
 cg2d: Sum(rhs),rhsMax =  -1.22485910303283E-10  7.87111605466140E-03
 cg2d: Sum(rhs),rhsMax =  -1.36012145990350E-10  7.09157124054608E-03
 cg2d: Sum(rhs),rhsMax =  -1.53019819038036E-10  6.30806785865567E-03
 cg2d: Sum(rhs),rhsMax =  -1.74893877158411E-10  5.52066449340150E-03
 cg2d: Sum(rhs),rhsMax =  -2.04277872395409E-10  4.72942374033909E-03
 cg2d: Sum(rhs),rhsMax =  -2.45597459036517E-10  3.93441307856072E-03
 cg2d: Sum(rhs),rhsMax =  -3.08156250516944E-10  3.13570573601299E-03
 cg2d: Sum(rhs),rhsMax =  -4.14204670562413E-10  2.33338154249229E-03
 cg2d: Sum(rhs),rhsMax =  -3.86520815354174E-10  2.50090241616589E-03
 cg2d: Sum(rhs),rhsMax =  -3.02186498046808E-10  3.19962423276197E-03
 cg2d: Sum(rhs),rhsMax =  -2.47623921367790E-10  3.90520690770414E-03
 cg2d: Sum(rhs),rhsMax =  -2.09521844318772E-10  4.61552048752811E-03
 cg2d: Sum(rhs),rhsMax =  -1.81157089329531E-10  5.33915505574541E-03
 cg2d: Sum(rhs),rhsMax =  -1.59433355406691E-10  6.06865235863827E-03
 cg2d: Sum(rhs),rhsMax =  -1.42246880940888E-10  6.80703707512671E-03
 cg2d: Sum(rhs),rhsMax =  -1.28145272171309E-10  7.55687693474598E-03
 cg2d: Sum(rhs),rhsMax =  -1.16557652418692E-10  8.31502147748178E-03
 cg2d: Sum(rhs),rhsMax =  -1.06950670542005E-10  9.06804281178235E-03
 cg2d: Sum(rhs),rhsMax =  -9.88787940414682E-11  9.81568336705627E-03
 cg2d: Sum(rhs),rhsMax =  -9.19633258433805E-11  1.05576853434045E-02
 cg2d: Sum(rhs),rhsMax =  -8.60087556731060E-11  1.12937905073885E-02
 cg2d: Sum(rhs),rhsMax =  -8.08419997611054E-11  1.20237400169244E-02
 cg2d: Sum(rhs),rhsMax =  -7.62812035759453E-11  1.27472742483826E-02
 cg2d: Sum(rhs),rhsMax =  -7.22755189030977E-11  1.34641326502205E-02
 cg2d: Sum(rhs),rhsMax =  -6.87254697595563E-11  1.41740536218728E-02
 cg2d: Sum(rhs),rhsMax =  -6.55244747349570E-11  1.48767744199303E-02
 cg2d: Sum(rhs),rhsMax =  -6.25901552808728E-11  1.55720310948822E-02
 cg2d: Sum(rhs),rhsMax =  -5.99875704665465E-11  1.62595584619309E-02
 cg2d: Sum(rhs),rhsMax =  -5.76754199954621E-11  1.69390901208179E-02
 cg2d: Sum(rhs),rhsMax =  -5.55506751709345E-11  1.76103584896038E-02
 cg2d: Sum(rhs),rhsMax =  -5.36255484462345E-11  1.82730948879128E-02
 cg2d: Sum(rhs),rhsMax =  -5.18750598033080E-11  1.89270296675240E-02
 cg2d: Sum(rhs),rhsMax =  -5.02544672542626E-11  1.95718923900008E-02
 cg2d: Sum(rhs),rhsMax =  -4.87321294428966E-11  2.02074120371633E-02
 cg2d: Sum(rhs),rhsMax =  -4.73563410707811E-11  2.08333172421831E-02
 cg2d: Sum(rhs),rhsMax =  -4.60942395363872E-11  2.14493365644726E-02
 cg2d: Sum(rhs),rhsMax =  -4.48610038006336E-11  2.20551987997889E-02
 cg2d: Sum(rhs),rhsMax =  -4.37361258320834E-11  2.26506333220489E-02
 cg2d: Sum(rhs),rhsMax =  -4.24450474767468E-11  2.33728029930673E-02
 cg2d: Sum(rhs),rhsMax =  -4.11350953299916E-11  2.41767454145577E-02
 cg2d: Sum(rhs),rhsMax =  -3.98381327926245E-11  2.49744437768439E-02
 cg2d: Sum(rhs),rhsMax =  -3.86791709772183E-11  2.57653591589491E-02
 cg2d: Sum(rhs),rhsMax =  -3.75592890122789E-11  2.65489429738841E-02
 cg2d: Sum(rhs),rhsMax =  -3.65432129001420E-11  2.73246378648889E-02
 cg2d: Sum(rhs),rhsMax =  -3.56049634220312E-11  2.80918786456119E-02
 cg2d: Sum(rhs),rhsMax =  -3.46914719173697E-11  2.88500932782546E-02
 cg2d: Sum(rhs),rhsMax =  -3.38893357820780E-11  2.95987038885449E-02
 cg2d: Sum(rhs),rhsMax =  -3.31862315405829E-11  3.03371278167528E-02
 cg2d: Sum(rhs),rhsMax =  -3.24805737861311E-11  3.10647786947509E-02
 cg2d: Sum(rhs),rhsMax =  -3.18113313468871E-11  3.17810675459693E-02
 cg2d: Sum(rhs),rhsMax =  -3.11745074199621E-11  3.24854039052901E-02
 cg2d: Sum(rhs),rhsMax =  -3.06159542162732E-11  3.31771969559973E-02
 cg2d: Sum(rhs),rhsMax =  -3.00417468679370E-11  3.38558566808986E-02
 cg2d: Sum(rhs),rhsMax =  -2.95140578643327E-11  3.45207950247574E-02
 cg2d: Sum(rhs),rhsMax =  -2.90323320939478E-11  3.51714270651853E-02
 cg2d: Sum(rhs),rhsMax =  -2.85621526430191E-11  3.58071721890797E-02
 cg2d: Sum(rhs),rhsMax =  -2.81278333957857E-11  3.64274552715112E-02
 cg2d: Sum(rhs),rhsMax =  -2.77242673263345E-11  3.70317078536909E-02
 cg2d: Sum(rhs),rhsMax =  -2.72929456812676E-11  3.76193693158435E-02
 cg2d: Sum(rhs),rhsMax =  -2.69244626593945E-11  3.81898880411056E-02
 cg2d: Sum(rhs),rhsMax =  -2.65791832987361E-11  3.87427225698389E-02
 cg2d: Sum(rhs),rhsMax =  -2.62346810941949E-11  3.92773427358778E-02
 cg2d: Sum(rhs),rhsMax =  -2.59164911753373E-11  3.97932307786819E-02
 cg2d: Sum(rhs),rhsMax =  -2.56630272588154E-11  4.02898824324504E-02
 cg2d: Sum(rhs),rhsMax =  -2.54034571156581E-11  4.07668079824926E-02
 cg2d: Sum(rhs),rhsMax =  -2.51783038862641E-11  4.12235332883811E-02
 cg2d: Sum(rhs),rhsMax =  -2.49480436309568E-11  4.16596007721086E-02
 cg2d: Sum(rhs),rhsMax =  -2.47298848066180E-11  4.20745703676996E-02
 cg2d: Sum(rhs),rhsMax =  -2.45415909816415E-11  4.24680204242558E-02
 cg2d: Sum(rhs),rhsMax =  -2.43246534026298E-11  4.28395485701271E-02
 cg2d: Sum(rhs),rhsMax =  -2.41652253762936E-11  4.31887725355589E-02
 cg2d: Sum(rhs),rhsMax =  -2.40218955838145E-11  4.35153309249432E-02
 cg2d: Sum(rhs),rhsMax =  -2.38716824085827E-11  4.38188839444801E-02
 cg2d: Sum(rhs),rhsMax =  -2.37226904786780E-11  4.40991140601700E-02
 cg2d: Sum(rhs),rhsMax =  -2.35929054070994E-11  4.43557266090059E-02
 cg2d: Sum(rhs),rhsMax =  -2.34988695169136E-11  4.45884503613975E-02
 cg2d: Sum(rhs),rhsMax =  -2.33979502439752E-11  4.47970380416444E-02
 cg2d: Sum(rhs),rhsMax =  -2.32718289083778E-11  4.49812667798297E-02
 cg2d: Sum(rhs),rhsMax =  -2.32135421995849E-11  4.51409384981436E-02
 cg2d: Sum(rhs),rhsMax =  -2.31179519971647E-11  4.52758802434703E-02
 cg2d: Sum(rhs),rhsMax =  -2.30858665517530E-11  4.53859444635491E-02
 cg2d: Sum(rhs),rhsMax =  -2.30403474077434E-11  4.54710092230359E-02
 cg2d: Sum(rhs),rhsMax =  -2.30420127422803E-11  4.55309783674034E-02
 cg2d: Sum(rhs),rhsMax =  -2.30225838393494E-11  4.55657816074102E-02
 cg2d: Sum(rhs),rhsMax =  -2.30344632257129E-11  4.55753745321602E-02
 cg2d: Sum(rhs),rhsMax =  -2.30697683178960E-11  4.55597385607026E-02
 cg2d: Sum(rhs),rhsMax =  -2.31501484648788E-11  4.55188808270582E-02
 cg2d: Sum(rhs),rhsMax =  -2.32537322730764E-11  4.54528340180382E-02
 cg2d: Sum(rhs),rhsMax =  -2.33374430891331E-11  4.53616561154430E-02
 cg2d: Sum(rhs),rhsMax =  -2.34710029189955E-11  4.52454301494363E-02
 cg2d: Sum(rhs),rhsMax =  -2.36219932503445E-11  4.51042638702210E-02
 cg2d: Sum(rhs),rhsMax =  -2.38554731524232E-11  4.49382893426407E-02
 cg2d: Sum(rhs),rhsMax =  -2.40447661781218E-11  4.47476624808807E-02
 cg2d: Sum(rhs),rhsMax =  -2.40593100997444E-11  4.45325625346947E-02
 cg2d: Sum(rhs),rhsMax =  -2.41449082949430E-11  4.42931915683085E-02
 cg2d: Sum(rhs),rhsMax =  -2.42352804491475E-11  4.40297738346878E-02
 cg2d: Sum(rhs),rhsMax =  -2.43536302235725E-11  4.37425550893375E-02
 cg2d: Sum(rhs),rhsMax =  -2.44567699425602E-11  4.34318018653091E-02
 cg2d: Sum(rhs),rhsMax =  -2.45888864824906E-11  4.30978008081433E-02
 cg2d: Sum(rhs),rhsMax =  -2.47115661267117E-11  4.27408579612280E-02
 cg2d: Sum(rhs),rhsMax =  -2.48476794695307E-11  4.23612980035784E-02
 cg2d: Sum(rhs),rhsMax =  -2.50299780901742E-11  4.19594634512839E-02
 cg2d: Sum(rhs),rhsMax =  -2.51558773811666E-11  4.15357138278806E-02
 cg2d: Sum(rhs),rhsMax =  -2.53470577860071E-11  4.10904248057928E-02
 cg2d: Sum(rhs),rhsMax =  -2.55309107188850E-11  4.06239873496870E-02
 cg2d: Sum(rhs),rhsMax =  -2.57889265498079E-11  4.01368069001516E-02
 cg2d: Sum(rhs),rhsMax =  -2.60753640901612E-11  3.96293024424236E-02
 cg2d: Sum(rhs),rhsMax =  -2.63915556075744E-11  3.91019056004356E-02
 cg2d: Sum(rhs),rhsMax =  -2.66828781292361E-11  3.85550597503003E-02
 cg2d: Sum(rhs),rhsMax =  -2.69974043121124E-11  3.79892191457441E-02
 cg2d: Sum(rhs),rhsMax =  -2.73905342851322E-11  3.74048480593955E-02
 cg2d: Sum(rhs),rhsMax =  -2.77807776782879E-11  3.68024199022104E-02
 cg2d: Sum(rhs),rhsMax =  -2.82022183384356E-11  3.61824163500769E-02
 cg2d: Sum(rhs),rhsMax =  -2.86156653928060E-11  3.55453264445294E-02
 cg2d: Sum(rhs),rhsMax =  -2.90786283940747E-11  3.48916457886842E-02
 cg2d: Sum(rhs),rhsMax =  -2.95851121379087E-11  3.42218757483123E-02
 cg2d: Sum(rhs),rhsMax =  -3.01205727026854E-11  3.35365226363156E-02
 cg2d: Sum(rhs),rhsMax =  -3.06725755905290E-11  3.28360968961791E-02
 cg2d: Sum(rhs),rhsMax =  -3.12458947604455E-11  3.21211122989768E-02
 cg2d: Sum(rhs),rhsMax =  -3.18826076650680E-11  3.13920851616387E-02
 cg2d: Sum(rhs),rhsMax =  -3.25555138402933E-11  3.06495335917634E-02
 cg2d: Sum(rhs),rhsMax =  -3.33586491763072E-11  2.98939767602483E-02
 cg2d: Sum(rhs),rhsMax =  -3.42003092512755E-11  2.91259342012122E-02
 cg2d: Sum(rhs),rhsMax =  -3.50705020579767E-11  2.83459251443480E-02
 cg2d: Sum(rhs),rhsMax =  -3.60530494347699E-11  2.75544678745352E-02
 cg2d: Sum(rhs),rhsMax =  -3.71107589103303E-11  2.67520791038123E-02
 cg2d: Sum(rhs),rhsMax =  -3.81822351513961E-11  2.59392733366596E-02
 cg2d: Sum(rhs),rhsMax =  -3.93752808136583E-11  2.51165623816710E-02
 cg2d: Sum(rhs),rhsMax =  -4.06662481466924E-11  2.42844548492741E-02
 cg2d: Sum(rhs),rhsMax =  -4.20676826706767E-11  2.34434556801894E-02
 cg2d: Sum(rhs),rhsMax =  -4.36036762252456E-11  2.25940657115001E-02
 cg2d: Sum(rhs),rhsMax =  -4.52647919146898E-11  2.17367812842047E-02
 cg2d: Sum(rhs),rhsMax =  -4.70834482513283E-11  2.08720938931365E-02
 cg2d: Sum(rhs),rhsMax =  -4.90310014811257E-11  2.00004898788673E-02
 cg2d: Sum(rhs),rhsMax =  -5.12174747058225E-11  1.91224501604837E-02
 cg2d: Sum(rhs),rhsMax =  -5.36413136131841E-11  1.82384500075727E-02
 cg2d: Sum(rhs),rhsMax =  -5.63021851363033E-11  1.73489588497295E-02
 cg2d: Sum(rhs),rhsMax =  -5.92661475451450E-11  1.64544401219452E-02
 cg2d: Sum(rhs),rhsMax =  -6.26525498148567E-11  1.55553511440983E-02
 cg2d: Sum(rhs),rhsMax =  -6.63313848292546E-11  1.46521430324960E-02
 cg2d: Sum(rhs),rhsMax =  -7.06766867253350E-11  1.37452606357014E-02
(PID.TID 0000.0001)      cg2d_init_res =   3.24159973593746E-01
(PID.TID 0000.0001)      cg2d_iters(min,last) =      -1      40
(PID.TID 0000.0001)      cg2d_last_res =   4.43409646781391E-14
(PID.TID 0000.0001) // =======================================================
(PID.TID 0000.0001) // Begin MONITOR dynamic field statistics
(PID.TID 0000.0001) // =======================================================
(PID.TID 0000.0001) %MON time_tsnumber                =                  1920
(PID.TID 0000.0001) %MON time_secondsf                =   2.8800000000000E+04
(PID.TID 0000.0001) %MON dynstat_eta_max              =   2.3805932225588E-03
(PID.TID 0000.0001) %MON dynstat_eta_min              =  -2.4076270736357E-03
(PID.TID 0000.0001) %MON dynstat_eta_mean             =   2.1411544473351E-15
(PID.TID 0000.0001) %MON dynstat_eta_sd               =   1.5906846560451E-03
(PID.TID 0000.0001) %MON dynstat_eta_del2             =   8.4790024962758E-07
(PID.TID 0000.0001) %MON dynstat_uvel_max             =   1.9417862794306E-01
(PID.TID 0000.0001) %MON dynstat_uvel_min             =   2.2483109573552E-03
(PID.TID 0000.0001) %MON dynstat_uvel_mean            =   1.1425717067960E-01
(PID.TID 0000.0001) %MON dynstat_uvel_sd              =   6.3814159664400E-03
(PID.TID 0000.0001) %MON dynstat_uvel_del2            =   6.0044348855451E-05
(PID.TID 0000.0001) %MON dynstat_vvel_max             =   0.0000000000000E+00
(PID.TID 0000.0001) %MON dynstat_vvel_min             =   0.0000000000000E+00
(PID.TID 0000.0001) %MON dynstat_vvel_mean            =   0.0000000000000E+00
(PID.TID 0000.0001) %MON dynstat_vvel_sd              =   0.0000000000000E+00
(PID.TID 0000.0001) %MON dynstat_vvel_del2            =   0.0000000000000E+00
(PID.TID 0000.0001) %MON dynstat_wvel_max             =   3.7680706867940E-03
(PID.TID 0000.0001) %MON dynstat_wvel_min             =  -1.6656267695836E-03
(PID.TID 0000.0001) %MON dynstat_wvel_mean            =   1.8034814013488E-21
(PID.TID 0000.0001) %MON dynstat_wvel_sd              =   1.9557077862201E-04
(PID.TID 0000.0001) %MON dynstat_wvel_del2            =   4.1885221832861E-06
(PID.TID 0000.0001) %MON dynstat_theta_max            =   1.5000000000003E+01
(PID.TID 0000.0001) %MON dynstat_theta_min            =   9.9999999999953E+00
(PID.TID 0000.0001) %MON dynstat_theta_mean           =   1.1004810574626E+01
(PID.TID 0000.0001) %MON dynstat_theta_sd             =   1.9407624683045E+00
(PID.TID 0000.0001) %MON dynstat_theta_del2           =   9.5044933754221E-06
(PID.TID 0000.0001) %MON dynstat_salt_max             =   3.5000000000000E+01
(PID.TID 0000.0001) %MON dynstat_salt_min             =   3.5000000000000E+01
(PID.TID 0000.0001) %MON dynstat_salt_mean            =   3.5000000000000E+01
(PID.TID 0000.0001) %MON dynstat_salt_sd              =   4.0500935938326E-13
(PID.TID 0000.0001) %MON dynstat_salt_del2            =   0.0000000000000E+00
(PID.TID 0000.0001) %MON dynstat_sst_max              =   1.5000000000003E+01
(PID.TID 0000.0001) %MON dynstat_sst_min              =   1.5000000000000E+01
(PID.TID 0000.0001) %MON dynstat_sst_mean             =   1.5000000000003E+01
(PID.TID 0000.0001) %MON dynstat_sst_sd               =   1.2769002723665E-12
(PID.TID 0000.0001) %MON dynstat_sst_del2             =   1.0231333052218E-14
(PID.TID 0000.0001) %MON dynstat_sss_max              =   3.5000000000000E+01
(PID.TID 0000.0001) %MON dynstat_sss_min              =   3.5000000000000E+01
(PID.TID 0000.0001) %MON dynstat_sss_mean             =   3.5000000000000E+01
(PID.TID 0000.0001) %MON dynstat_sss_sd               =   4.2632564145606E-14
(PID.TID 0000.0001) %MON dynstat_sss_del2             =   0.0000000000000E+00
(PID.TID 0000.0001) %MON forcing_qnet_max             =   0.0000000000000E+00
(PID.TID 0000.0001) %MON forcing_qnet_min             =   0.0000000000000E+00
(PID.TID 0000.0001) %MON forcing_qnet_mean            =   0.0000000000000E+00
(PID.TID 0000.0001) %MON forcing_qnet_sd              =   0.0000000000000E+00
(PID.TID 0000.0001) %MON forcing_qnet_del2            =   0.0000000000000E+00
(PID.TID 0000.0001) %MON forcing_qsw_max              =   0.0000000000000E+00
(PID.TID 0000.0001) %MON forcing_qsw_min              =   0.0000000000000E+00
(PID.TID 0000.0001) %MON forcing_qsw_mean             =   0.0000000000000E+00
(PID.TID 0000.0001) %MON forcing_qsw_sd               =   0.0000000000000E+00
(PID.TID 0000.0001) %MON forcing_qsw_del2             =   0.0000000000000E+00
(PID.TID 0000.0001) %MON forcing_empmr_max            =   0.0000000000000E+00
(PID.TID 0000.0001) %MON forcing_empmr_min            =   0.0000000000000E+00
(PID.TID 0000.0001) %MON forcing_empmr_mean           =   0.0000000000000E+00
(PID.TID 0000.0001) %MON forcing_empmr_sd             =   0.0000000000000E+00
(PID.TID 0000.0001) %MON forcing_empmr_del2           =   0.0000000000000E+00
(PID.TID 0000.0001) %MON forcing_fu_max               =   0.0000000000000E+00
(PID.TID 0000.0001) %MON forcing_fu_min               =   0.0000000000000E+00
(PID.TID 0000.0001) %MON forcing_fu_mean              =   0.0000000000000E+00
(PID.TID 0000.0001) %MON forcing_fu_sd                =   0.0000000000000E+00
(PID.TID 0000.0001) %MON forcing_fu_del2              =   0.0000000000000E+00
(PID.TID 0000.0001) %MON forcing_fv_max               =   0.0000000000000E+00
(PID.TID 0000.0001) %MON forcing_fv_min               =   0.0000000000000E+00
(PID.TID 0000.0001) %MON forcing_fv_mean              =   0.0000000000000E+00
(PID.TID 0000.0001) %MON forcing_fv_sd                =   0.0000000000000E+00
(PID.TID 0000.0001) %MON forcing_fv_del2              =   0.0000000000000E+00
(PID.TID 0000.0001) %MON advcfl_uvel_max              =   1.3566452716759E-02
(PID.TID 0000.0001) %MON advcfl_vvel_max              =   0.0000000000000E+00
(PID.TID 0000.0001) %MON advcfl_wvel_max              =   5.1698089820951E-02
(PID.TID 0000.0001) %MON advcfl_W_hf_max              =   5.2260534235778E-02
(PID.TID 0000.0001) %MON pe_b_mean                    =   6.2712172301185E-08
(PID.TID 0000.0001) %MON ke_max                       =   1.4259034194046E-02
(PID.TID 0000.0001) %MON ke_mean                      =   6.5488468134468E-03
(PID.TID 0000.0001) %MON ke_vol                       =   9.6656886657870E+10
(PID.TID 0000.0001) %MON vort_r_min                   =   0.0000000000000E+00
(PID.TID 0000.0001) %MON vort_r_max                   =   0.0000000000000E+00
(PID.TID 0000.0001) %MON vort_a_mean                  =   0.0000000000000E+00
(PID.TID 0000.0001) %MON vort_a_sd                    =   0.0000000000000E+00
(PID.TID 0000.0001) %MON vort_p_mean                  =   0.0000000000000E+00
(PID.TID 0000.0001) %MON vort_p_sd                    =   0.0000000000000E+00
(PID.TID 0000.0001) %MON surfExpan_theta_mean         =   1.6650257713113E-18
(PID.TID 0000.0001) %MON surfExpan_salt_mean          =   1.1452435055014E-19
(PID.TID 0000.0001) // =======================================================
(PID.TID 0000.0001) // End MONITOR dynamic field statistics
(PID.TID 0000.0001) // =======================================================
(PID.TID 0000.0001) // =======================================================
(PID.TID 0000.0001) // Begin OBCS MONITOR field statistics
(PID.TID 0000.0001) // =======================================================
(PID.TID 0000.0001) %MON obc_E_uVel_max               =   1.1205712828732E-01
(PID.TID 0000.0001) %MON obc_E_uVel_min               =   1.1205712828732E-01
(PID.TID 0000.0001) %MON obc_E_uVel_mean              =   1.1205712828732E-01
(PID.TID 0000.0001) %MON obc_E_uVel_sd                =  -1.2143064331838E-17
(PID.TID 0000.0001) %MON obc_E_uVel_Int               =   1.1205712828732E+05
(PID.TID 0000.0001) %MON obc_W_uVel_max               =   1.1205712828732E-01
(PID.TID 0000.0001) %MON obc_W_uVel_min               =   1.1205712828732E-01
(PID.TID 0000.0001) %MON obc_W_uVel_mean              =   1.1205712828732E-01
(PID.TID 0000.0001) %MON obc_W_uVel_sd                =  -1.2143064331838E-17
(PID.TID 0000.0001) %MON obc_W_uVel_Int               =   1.1205712828732E+05
(PID.TID 0000.0001) // =======================================================
(PID.TID 0000.0001) // End OBCS MONITOR field statistics
(PID.TID 0000.0001) // =======================================================
 cg2d: Sum(rhs),rhsMax =  -7.56523732547976E-11  1.28351425110249E-02
 cg2d: Sum(rhs),rhsMax =  -8.13514811071059E-11  1.19222209221599E-02
 cg2d: Sum(rhs),rhsMax =  -8.80686634729955E-11  1.10069218603812E-02
 cg2d: Sum(rhs),rhsMax =  -9.60370671876376E-11  1.00896650814472E-02
 cg2d: Sum(rhs),rhsMax =  -1.05601305477876E-10  9.17086414717703E-03
 cg2d: Sum(rhs),rhsMax =  -1.17275189559507E-10  8.25092650560007E-03
 cg2d: Sum(rhs),rhsMax =  -1.31936572778102E-10  7.33025359930881E-03
 cg2d: Sum(rhs),rhsMax =  -1.47848622233937E-10  6.53648414534367E-03
 cg2d: Sum(rhs),rhsMax =  -1.64061209062538E-10  5.88574046804703E-03
 cg2d: Sum(rhs),rhsMax =  -1.84538162528725E-10  5.23171476036967E-03
 cg2d: Sum(rhs),rhsMax =  -2.10969575142883E-10  4.57451550703030E-03
 cg2d: Sum(rhs),rhsMax =  -2.46470843734414E-10  3.91425448001764E-03
 cg2d: Sum(rhs),rhsMax =  -2.96661140097854E-10  3.25104725494953E-03
 cg2d: Sum(rhs),rhsMax =  -3.72993746999839E-10  2.58501371935470E-03
 cg2d: Sum(rhs),rhsMax =  -4.65338323429876E-10  2.07138181028590E-03
 cg2d: Sum(rhs),rhsMax =  -4.10852685206464E-10  2.34583382158400E-03
 cg2d: Sum(rhs),rhsMax =  -3.61525392955642E-10  2.66558227237864E-03
 cg2d: Sum(rhs),rhsMax =  -2.80096151134002E-10  3.43927139237760E-03
 cg2d: Sum(rhs),rhsMax =  -2.28272289959364E-10  4.21864210634354E-03
 cg2d: Sum(rhs),rhsMax =  -1.92271587540205E-10  5.00710079373884E-03
 cg2d: Sum(rhs),rhsMax =  -1.66003433221817E-10  5.79910184529582E-03
 cg2d: Sum(rhs),rhsMax =  -1.45789103012106E-10  6.60078896675426E-03
 cg2d: Sum(rhs),rhsMax =  -1.29904531576130E-10  7.40310304246653E-03
 cg2d: Sum(rhs),rhsMax =  -1.16962550755773E-10  8.21646674341393E-03
 cg2d: Sum(rhs),rhsMax =  -1.06370134922429E-10  9.02894171265215E-03
 cg2d: Sum(rhs),rhsMax =  -9.74453850943746E-11  9.85235565170932E-03
 cg2d: Sum(rhs),rhsMax =  -8.98281449224214E-11  1.06796541535305E-02
 cg2d: Sum(rhs),rhsMax =  -8.32389712712711E-11  1.15176501336114E-02
 cg2d: Sum(rhs),rhsMax =  -7.74879049814103E-11  1.23628665499062E-02
 cg2d: Sum(rhs),rhsMax =  -7.25390858491437E-11  1.32008201856285E-02
 cg2d: Sum(rhs),rhsMax =  -6.81937839530633E-11  1.40311970767058E-02
 cg2d: Sum(rhs),rhsMax =  -6.43609610051499E-11  1.48536848642859E-02
 cg2d: Sum(rhs),rhsMax =  -6.10228534370094E-11  1.56679727583615E-02
 cg2d: Sum(rhs),rhsMax =  -5.79215564400215E-11  1.64737515207463E-02
 cg2d: Sum(rhs),rhsMax =  -5.51428902539897E-11  1.72707134654567E-02
 cg2d: Sum(rhs),rhsMax =  -5.26492183183791E-11  1.80585524862210E-02
 cg2d: Sum(rhs),rhsMax =  -5.03862507272856E-11  1.88369640995941E-02
 cg2d: Sum(rhs),rhsMax =  -4.83478812540739E-11  1.96056455086304E-02
 cg2d: Sum(rhs),rhsMax =  -4.64508431718968E-11  2.03642956896989E-02
 cg2d: Sum(rhs),rhsMax =  -4.47140102721733E-11  2.11126154996139E-02
 cg2d: Sum(rhs),rhsMax =  -4.31729096916911E-11  2.18503078023920E-02
 cg2d: Sum(rhs),rhsMax =  -4.17039736078095E-11  2.25770776143819E-02
 cg2d: Sum(rhs),rhsMax =  -4.03516109415136E-11  2.32926322688804E-02
 cg2d: Sum(rhs),rhsMax =  -3.90553145379613E-11  2.39966816006406E-02
 cg2d: Sum(rhs),rhsMax =  -3.78108655496590E-11  2.46889381496287E-02
 cg2d: Sum(rhs),rhsMax =  -3.66752184177699E-11  2.53691173825013E-02
 cg2d: Sum(rhs),rhsMax =  -3.56383811350724E-11  2.60369379304087E-02
 cg2d: Sum(rhs),rhsMax =  -3.46512818438782E-11  2.66921218422139E-02
 cg2d: Sum(rhs),rhsMax =  -3.37455619003890E-11  2.73343948520186E-02
 cg2d: Sum(rhs),rhsMax =  -3.28997940002296E-11  2.79634866593579E-02
 cg2d: Sum(rhs),rhsMax =  -3.20969917311231E-11  2.85791312184009E-02
 cg2d: Sum(rhs),rhsMax =  -3.13573611521178E-11  2.91810670437477E-02
 cg2d: Sum(rhs),rhsMax =  -3.06884517797812E-11  2.97690375224760E-02
 cg2d: Sum(rhs),rhsMax =  -3.00109936901549E-11  3.03427912307035E-02
 cg2d: Sum(rhs),rhsMax =  -2.94337887396523E-11  3.09020822572371E-02
 cg2d: Sum(rhs),rhsMax =  -2.88726820230067E-11  3.14466705332501E-02
 cg2d: Sum(rhs),rhsMax =  -2.83254530941690E-11  3.19763221662208E-02
 cg2d: Sum(rhs),rhsMax =  -2.77803335890781E-11  3.24908097760989E-02
 cg2d: Sum(rhs),rhsMax =  -2.72438738235792E-11  3.29899128346880E-02
 cg2d: Sum(rhs),rhsMax =  -2.67601496517500E-11  3.34734179957028E-02
 cg2d: Sum(rhs),rhsMax =  -2.65122368503512E-11  3.39411194291176E-02
 cg2d: Sum(rhs),rhsMax =  -2.62041499610177E-11  3.43928191504128E-02
 cg2d: Sum(rhs),rhsMax =  -2.59684496128898E-11  3.48283273436399E-02
 cg2d: Sum(rhs),rhsMax =  -2.58840726630183E-11  3.52474626773611E-02
 cg2d: Sum(rhs),rhsMax =  -2.56419330213475E-11  3.56500526124019E-02
 cg2d: Sum(rhs),rhsMax =  -2.54724019654873E-11  3.60359336992459E-02
 cg2d: Sum(rhs),rhsMax =  -2.52881049433995E-11  3.64049518578564E-02
 cg2d: Sum(rhs),rhsMax =  -2.50878207097571E-11  3.67569626593763E-02
 cg2d: Sum(rhs),rhsMax =  -2.49243958805323E-11  3.70918315890468E-02
 cg2d: Sum(rhs),rhsMax =  -2.47807330211458E-11  3.74094342893655E-02
 cg2d: Sum(rhs),rhsMax =  -2.46388465185987E-11  3.77096567849812E-02
 cg2d: Sum(rhs),rhsMax =  -2.45133913168161E-11  3.79923956944273E-02
 cg2d: Sum(rhs),rhsMax =  -2.44114728431555E-11  3.82575584137432E-02
 cg2d: Sum(rhs),rhsMax =  -2.43135511723835E-11  3.85050632674309E-02
 cg2d: Sum(rhs),rhsMax =  -2.42206255052224E-11  3.87348396408089E-02
 cg2d: Sum(rhs),rhsMax =  -2.41439090942208E-11  3.89468280969404E-02
 cg2d: Sum(rhs),rhsMax =  -2.40935049689028E-11  3.91409804723319E-02
 cg2d: Sum(rhs),rhsMax =  -2.40150122010618E-11  3.93172599480698E-02
 cg2d: Sum(rhs),rhsMax =  -2.39611663843675E-11  3.94756410948864E-02
 cg2d: Sum(rhs),rhsMax =  -2.39344100094740E-11  3.96161098922919E-02
 cg2d: Sum(rhs),rhsMax =  -2.39039898985993E-11  3.97386637276686E-02
 cg2d: Sum(rhs),rhsMax =  -2.38691288956261E-11  3.98433113698653E-02
 cg2d: Sum(rhs),rhsMax =  -2.38751240999591E-11  3.99300729085224E-02
 cg2d: Sum(rhs),rhsMax =  -2.38630226689907E-11  3.99989796785350E-02
 cg2d: Sum(rhs),rhsMax =  -2.38810082819896E-11  4.00500741655268E-02
 cg2d: Sum(rhs),rhsMax =  -2.39505082433311E-11  4.00834098924706E-02
 cg2d: Sum(rhs),rhsMax =  -2.39578357152936E-11  4.00990512873004E-02
 cg2d: Sum(rhs),rhsMax =  -2.40123476658027E-11  4.00970735000595E-02
 cg2d: Sum(rhs),rhsMax =  -2.40195641154628E-11  4.00775622417496E-02
 cg2d: Sum(rhs),rhsMax =  -2.40892861214093E-11  4.00406136154861E-02
 cg2d: Sum(rhs),rhsMax =  -2.41331399308820E-11  3.99863339066941E-02
 cg2d: Sum(rhs),rhsMax =  -2.41496822539489E-11  3.99148393391616E-02
 cg2d: Sum(rhs),rhsMax =  -2.41971997994028E-11  3.98262558048697E-02
 cg2d: Sum(rhs),rhsMax =  -2.43101094810072E-11  3.97207185733988E-02
 cg2d: Sum(rhs),rhsMax =  -2.44164688467663E-11  3.95983719843268E-02
 cg2d: Sum(rhs),rhsMax =  -2.44997355736132E-11  3.94593691572359E-02
 cg2d: Sum(rhs),rhsMax =  -2.46883624654970E-11  3.93038716228767E-02
 cg2d: Sum(rhs),rhsMax =  -2.48390197299386E-11  3.91320489308023E-02
 cg2d: Sum(rhs),rhsMax =  -2.49924525519418E-11  3.89440782594715E-02
 cg2d: Sum(rhs),rhsMax =  -2.51519916005805E-11  3.87401440247829E-02
 cg2d: Sum(rhs),rhsMax =  -2.53644882874937E-11  3.85204374434346E-02
 cg2d: Sum(rhs),rhsMax =  -2.55622190081795E-11  3.82851561437253E-02
 cg2d: Sum(rhs),rhsMax =  -2.57939225534187E-11  3.80345037489508E-02
 cg2d: Sum(rhs),rhsMax =  -2.60109711547329E-11  3.77686894283821E-02
 cg2d: Sum(rhs),rhsMax =  -2.63055133231660E-11  3.74879274379776E-02
 cg2d: Sum(rhs),rhsMax =  -2.65912847297045E-11  3.71924366560858E-02
 cg2d: Sum(rhs),rhsMax =  -2.69088085147473E-11  3.68824401197272E-02
 cg2d: Sum(rhs),rhsMax =  -2.72030176162730E-11  3.65581645623467E-02
 cg2d: Sum(rhs),rhsMax =  -2.75396372373393E-11  3.62198399527229E-02
 cg2d: Sum(rhs),rhsMax =  -2.78774781037328E-11  3.58676990368466E-02
 cg2d: Sum(rhs),rhsMax =  -2.82667222961663E-11  3.55019769264743E-02
 cg2d: Sum(rhs),rhsMax =  -2.86333179388976E-11  3.51229106150365E-02
 cg2d: Sum(rhs),rhsMax =  -2.90821811077535E-11  3.47307385247806E-02
 cg2d: Sum(rhs),rhsMax =  -2.95065083477652E-11  3.43257000834054E-02
 cg2d: Sum(rhs),rhsMax =  -2.99756885979718E-11  3.39080353133770E-02
 cg2d: Sum(rhs),rhsMax =  -3.04601899259183E-11  3.34779844322205E-02
 cg2d: Sum(rhs),rhsMax =  -3.09018366451141E-11  3.30357874711802E-02
 cg2d: Sum(rhs),rhsMax =  -3.13733483636724E-11  3.25816839614421E-02
 cg2d: Sum(rhs),rhsMax =  -3.18886028694010E-11  3.21159126137644E-02
 cg2d: Sum(rhs),rhsMax =  -3.24145155161659E-11  3.16387110005263E-02
 cg2d: Sum(rhs),rhsMax =  -3.29531957277140E-11  3.11503152525119E-02
 cg2d: Sum(rhs),rhsMax =  -3.35544925178510E-11  3.06509597761334E-02
 cg2d: Sum(rhs),rhsMax =  -3.41925376901031E-11  3.01408769955079E-02
 cg2d: Sum(rhs),rhsMax =  -3.48323592191946E-11  2.96202971202007E-02
 cg2d: Sum(rhs),rhsMax =  -3.55507845384295E-11  2.90894479368380E-02
 cg2d: Sum(rhs),rhsMax =  -3.62619934080044E-11  2.85485546220481E-02
 cg2d: Sum(rhs),rhsMax =  -3.70709019037463E-11  2.79978395748000E-02
 cg2d: Sum(rhs),rhsMax =  -3.78832520908645E-11  2.74375222673282E-02
 cg2d: Sum(rhs),rhsMax =  -3.87402332435727E-11  2.68678191148261E-02
 cg2d: Sum(rhs),rhsMax =  -3.97210042635265E-11  2.62889433646729E-02
 cg2d: Sum(rhs),rhsMax =  -4.06633615668284E-11  2.57011050040227E-02
 cg2d: Sum(rhs),rhsMax =  -4.17169632171976E-11  2.51045107040242E-02
 cg2d: Sum(rhs),rhsMax =  -4.28295177101745E-11  2.44993637537070E-02
 cg2d: Sum(rhs),rhsMax =  -4.40242287069736E-11  2.38858640082685E-02
 cg2d: Sum(rhs),rhsMax =  -4.52750059665163E-11  2.32642079287819E-02
 cg2d: Sum(rhs),rhsMax =  -4.66673366616988E-11  2.26345886273941E-02
 cg2d: Sum(rhs),rhsMax =  -4.81216178016552E-11  2.19971959217062E-02
 cg2d: Sum(rhs),rhsMax =  -4.96941376937343E-11  2.13522164066162E-02
 cg2d: Sum(rhs),rhsMax =  -5.13744602415045E-11  2.06998335531612E-02
 cg2d: Sum(rhs),rhsMax =  -5.31801269687548E-11  2.00402278347698E-02
 cg2d: Sum(rhs),rhsMax =  -5.51639844914575E-11  1.93735768854826E-02
 cg2d: Sum(rhs),rhsMax =  -5.72089042805146E-11  1.87000556898838E-02
 cg2d: Sum(rhs),rhsMax =  -5.94568838607756E-11  1.80198367982415E-02
 cg2d: Sum(rhs),rhsMax =  -6.18720630285452E-11  1.73330905646232E-02
 cg2d: Sum(rhs),rhsMax =  -6.45056230652585E-11  1.66399854062648E-02
 cg2d: Sum(rhs),rhsMax =  -6.74432731884167E-11  1.59406880854487E-02
 cg2d: Sum(rhs),rhsMax =  -7.06621428037124E-11  1.52353640282427E-02
 cg2d: Sum(rhs),rhsMax =  -7.42264028019690E-11  1.45241776420975E-02
 cg2d: Sum(rhs),rhsMax =  -7.81725795206967E-11  1.38072926458265E-02
 cg2d: Sum(rhs),rhsMax =  -8.25952639615934E-11  1.30848724154272E-02
 cg2d: Sum(rhs),rhsMax =  -8.75870487249131E-11  1.23570803455281E-02
 cg2d: Sum(rhs),rhsMax =  -9.32253163554719E-11  1.16240802234435E-02
 cg2d: Sum(rhs),rhsMax =  -9.96972504552218E-11  1.08860366242400E-02
 cg2d: Sum(rhs),rhsMax =  -1.07063358179005E-10  1.01431152827548E-02
 cg2d: Sum(rhs),rhsMax =  -1.15641274334166E-10  9.39548348012653E-03
 cg2d: Sum(rhs),rhsMax =  -1.25749521906471E-10  8.64331044098219E-03
 cg2d: Sum(rhs),rhsMax =  -1.37866940086440E-10  7.88676773416383E-03
 cg2d: Sum(rhs),rhsMax =  -1.52668544473045E-10  7.12602967192812E-03
 cg2d: Sum(rhs),rhsMax =  -1.71077096933203E-10  6.36127370567257E-03
 cg2d: Sum(rhs),rhsMax =  -1.94682825416237E-10  5.59268081706438E-03
 cg2d: Sum(rhs),rhsMax =  -2.25946705789681E-10  4.82043590388209E-03
 cg2d: Sum(rhs),rhsMax =  -2.69359062832208E-10  4.04472816244669E-03
 cg2d: Sum(rhs),rhsMax =  -3.33638429383942E-10  3.26575147331240E-03
 cg2d: Sum(rhs),rhsMax =  -4.38762748355970E-10  2.48370476320903E-03
 cg2d: Sum(rhs),rhsMax =  -5.99911564869160E-10  1.81681898784525E-03
 cg2d: Sum(rhs),rhsMax =  -4.65418370509951E-10  2.34225155911473E-03
 cg2d: Sum(rhs),rhsMax =  -3.65286356718286E-10  2.98471912517420E-03
 cg2d: Sum(rhs),rhsMax =  -3.00094060712297E-10  3.63458690300386E-03
 cg2d: Sum(rhs),rhsMax =  -2.54336107730069E-10  4.28938405649831E-03
 cg2d: Sum(rhs),rhsMax =  -2.20173101972421E-10  4.95532587024578E-03
 cg2d: Sum(rhs),rhsMax =  -1.93898341827037E-10  5.62824604755103E-03
 cg2d: Sum(rhs),rhsMax =  -1.73052905338977E-10  6.30934935976618E-03
 cg2d: Sum(rhs),rhsMax =  -1.56032631259961E-10  7.00071537433563E-03
 cg2d: Sum(rhs),rhsMax =  -1.41950895482523E-10  7.69826203413848E-03
 cg2d: Sum(rhs),rhsMax =  -1.30299770972897E-10  8.39082148119845E-03
 cg2d: Sum(rhs),rhsMax =  -1.20483623078371E-10  9.07812781633462E-03
 cg2d: Sum(rhs),rhsMax =  -1.12137188423844E-10  9.75991733406973E-03
 cg2d: Sum(rhs),rhsMax =  -1.04938724376780E-10  1.04359284380227E-02
 cg2d: Sum(rhs),rhsMax =  -9.86863923913006E-11  1.11059015630725E-02
 cg2d: Sum(rhs),rhsMax =  -9.31357213573847E-11  1.17695791036105E-02
 cg2d: Sum(rhs),rhsMax =  -8.82556250303423E-11  1.24267053365464E-02
 cg2d: Sum(rhs),rhsMax =  -8.39173175393171E-11  1.30770263550886E-02
 cg2d: Sum(rhs),rhsMax =  -8.00008947976494E-11  1.37202900150192E-02
 cg2d: Sum(rhs),rhsMax =  -7.64923679952290E-11  1.43562458995580E-02
 cg2d: Sum(rhs),rhsMax =  -7.32929272828642E-11  1.49846453119943E-02
 cg2d: Sum(rhs),rhsMax =  -7.04873936996364E-11  1.56052413067673E-02
 cg2d: Sum(rhs),rhsMax =  -6.79123424163208E-11  1.62177887694323E-02
 cg2d: Sum(rhs),rhsMax =  -6.55686616113371E-11  1.68220445545709E-02
 cg2d: Sum(rhs),rhsMax =  -6.34077235162067E-11  1.74177676875678E-02
 cg2d: Sum(rhs),rhsMax =  -6.10277384183178E-11  1.81147659227820E-02
 cg2d: Sum(rhs),rhsMax =  -5.86674042679647E-11  1.88788098059920E-02
 cg2d: Sum(rhs),rhsMax =  -5.64610580511271E-11  1.96373666636165E-02
 cg2d: Sum(rhs),rhsMax =  -5.44350120534887E-11  2.03900172789144E-02
 cg2d: Sum(rhs),rhsMax =  -5.25918197880060E-11  2.11363365887850E-02
 cg2d: Sum(rhs),rhsMax =  -5.08547648436775E-11  2.18758942704796E-02
 cg2d: Sum(rhs),rhsMax =  -4.92607066249207E-11  2.26082553969329E-02
 cg2d: Sum(rhs),rhsMax =  -4.77906603180145E-11  2.33329811532248E-02
 cg2d: Sum(rhs),rhsMax =  -4.64200899941147E-11  2.40496296023919E-02
 cg2d: Sum(rhs),rhsMax =  -4.51242376797722E-11  2.47577564849651E-02
 cg2d: Sum(rhs),rhsMax =  -4.39622782621996E-11  2.54569160344260E-02
 cg2d: Sum(rhs),rhsMax =  -4.28442836764020E-11  2.61466617887998E-02
 cg2d: Sum(rhs),rhsMax =  -4.17936796281992E-11  2.68265473770598E-02
 cg2d: Sum(rhs),rhsMax =  -4.08187927902759E-11  2.74961272597854E-02
 cg2d: Sum(rhs),rhsMax =  -3.99538180317904E-11  2.81549574161312E-02
 cg2d: Sum(rhs),rhsMax =  -3.91303656144260E-11  2.88025959583658E-02
 cg2d: Sum(rhs),rhsMax =  -3.83916232138404E-11  2.94386036684969E-02
 cg2d: Sum(rhs),rhsMax =  -3.76764175413768E-11  3.00625444605822E-02
 cg2d: Sum(rhs),rhsMax =  -3.69821950840787E-11  3.06739857789809E-02
 cg2d: Sum(rhs),rhsMax =  -3.63715724205349E-11  3.12724989447194E-02
 cg2d: Sum(rhs),rhsMax =  -3.57606166900837E-11  3.18576594689457E-02
 cg2d: Sum(rhs),rhsMax =  -3.51924045460805E-11  3.24290473550283E-02
 cg2d: Sum(rhs),rhsMax =  -3.46683792784575E-11  3.29862474115043E-02
 cg2d: Sum(rhs),rhsMax =  -3.41467965014886E-11  3.35288495968380E-02
 cg2d: Sum(rhs),rhsMax =  -3.36682903778751E-11  3.40564494139719E-02
 cg2d: Sum(rhs),rhsMax =  -3.32185390305995E-11  3.45686483675397E-02
 cg2d: Sum(rhs),rhsMax =  -3.28019833517601E-11  3.50650544953469E-02
 cg2d: Sum(rhs),rhsMax =  -3.23833182491740E-11  3.55452829720974E-02
 cg2d: Sum(rhs),rhsMax =  -3.20153903388132E-11  3.60089567824687E-02
 cg2d: Sum(rhs),rhsMax =  -3.16799919630739E-11  3.64557074565459E-02
 cg2d: Sum(rhs),rhsMax =  -3.13187253908609E-11  3.68851758539984E-02
 cg2d: Sum(rhs),rhsMax =  -3.10693692995301E-11  3.72970129791431E-02
 cg2d: Sum(rhs),rhsMax =  -3.08046921304594E-11  3.76908808215271E-02
 cg2d: Sum(rhs),rhsMax =  -3.05574454628754E-11  3.80664531903337E-02
 cg2d: Sum(rhs),rhsMax =  -3.03554958946961E-11  3.84234165344197E-02
 cg2d: Sum(rhs),rhsMax =  -3.00957037069338E-11  3.87614707080898E-02
 cg2d: Sum(rhs),rhsMax =  -2.99226199373948E-11  3.90803296895161E-02
 cg2d: Sum(rhs),rhsMax =  -2.97470936772015E-11  3.93797222407719E-02
 cg2d: Sum(rhs),rhsMax =  -2.95514723802626E-11  3.96593925000246E-02
 cg2d: Sum(rhs),rhsMax =  -2.94134716583017E-11  3.99191004993981E-02
 cg2d: Sum(rhs),rhsMax =  -2.92276203239794E-11  4.01586226058595E-02
 cg2d: Sum(rhs),rhsMax =  -2.91061619250854E-11  4.03777518930373E-02
 cg2d: Sum(rhs),rhsMax =  -2.89908097528269E-11  4.05762984354559E-02
 cg2d: Sum(rhs),rhsMax =  -2.88894463906786E-11  4.07540895272459E-02
 cg2d: Sum(rhs),rhsMax =  -2.87943002774682E-11  4.09109698501168E-02
 cg2d: Sum(rhs),rhsMax =  -2.87369017470951E-11  4.10468015975538E-02
 cg2d: Sum(rhs),rhsMax =  -2.86659584958215E-11  4.11614645617073E-02
 cg2d: Sum(rhs),rhsMax =  -2.85826917689747E-11  4.12548561877087E-02
 cg2d: Sum(rhs),rhsMax =  -2.85016454881770E-11  4.13268916090738E-02
 cg2d: Sum(rhs),rhsMax =  -2.84950951723317E-11  4.13775036661925E-02
 cg2d: Sum(rhs),rhsMax =  -2.85185208781513E-11  4.14066428926162E-02
 cg2d: Sum(rhs),rhsMax =  -2.85629297991363E-11  4.14142774950327E-02
 cg2d: Sum(rhs),rhsMax =  -2.85815815459500E-11  4.14003933256579E-02
 cg2d: Sum(rhs),rhsMax =  -2.86669576965437E-11  4.13649938361915E-02
 cg2d: Sum(rhs),rhsMax =  -2.87696533263215E-11  4.13080999989096E-02
 cg2d: Sum(rhs),rhsMax =  -2.89697155153590E-11  4.12297502682341E-02
 cg2d: Sum(rhs),rhsMax =  -2.90479862385951E-11  4.11300005005188E-02
 cg2d: Sum(rhs),rhsMax =  -2.89830381916545E-11  4.10089238331636E-02
 cg2d: Sum(rhs),rhsMax =  -2.90090174104307E-11  4.08666105265503E-02
 cg2d: Sum(rhs),rhsMax =  -2.90171220385105E-11  4.07031677727498E-02
 cg2d: Sum(rhs),rhsMax =  -2.91083823711347E-11  4.05187194954452E-02
 cg2d: Sum(rhs),rhsMax =  -2.91983104361293E-11  4.03134061100893E-02
 cg2d: Sum(rhs),rhsMax =  -2.93288726638252E-11  4.00873841958853E-02
 cg2d: Sum(rhs),rhsMax =  -2.94217983309863E-11  3.98408261613610E-02
 cg2d: Sum(rhs),rhsMax =  -2.95520274917749E-11  3.95739198703974E-02
 cg2d: Sum(rhs),rhsMax =  -2.96989099979328E-11  3.92868682872915E-02
 cg2d: Sum(rhs),rhsMax =  -2.98484570393498E-11  3.89798891125848E-02
 cg2d: Sum(rhs),rhsMax =  -3.00227620542159E-11  3.86532143769700E-02
 cg2d: Sum(rhs),rhsMax =  -3.01955127568476E-11  3.83070900003252E-02
 cg2d: Sum(rhs),rhsMax =  -3.04012370833107E-11  3.79417753139906E-02
 cg2d: Sum(rhs),rhsMax =  -3.06048519860269E-11  3.75575425746773E-02
 cg2d: Sum(rhs),rhsMax =  -3.08933989501270E-11  3.71546764731061E-02
 cg2d: Sum(rhs),rhsMax =  -3.12035952632073E-11  3.67334736470414E-02
 cg2d: Sum(rhs),rhsMax =  -3.15072412604422E-11  3.62942422119433E-02
 cg2d: Sum(rhs),rhsMax =  -3.18465254167677E-11  3.58373012006260E-02
 cg2d: Sum(rhs),rhsMax =  -3.22410986797195E-11  3.53629800224680E-02
 cg2d: Sum(rhs),rhsMax =  -3.26233484670979E-11  3.48716179371531E-02
 cg2d: Sum(rhs),rhsMax =  -3.30502292200663E-11  3.43635635419033E-02
 cg2d: Sum(rhs),rhsMax =  -3.35067529277921E-11  3.38391742478414E-02
 cg2d: Sum(rhs),rhsMax =  -3.39661632153820E-11  3.32988157373091E-02
 cg2d: Sum(rhs),rhsMax =  -3.44599904167353E-11  3.27428614191959E-02
 cg2d: Sum(rhs),rhsMax =  -3.49963391599317E-11  3.21716919449517E-02
 cg2d: Sum(rhs),rhsMax =  -3.55552254305280E-11  3.15856947006360E-02
 cg2d: Sum(rhs),rhsMax =  -3.61621843580906E-11  3.09852632750535E-02
 cg2d: Sum(rhs),rhsMax =  -3.68119978944037E-11  3.03707969425560E-02
 cg2d: Sum(rhs),rhsMax =  -3.74829056681847E-11  2.97427001483928E-02
 cg2d: Sum(rhs),rhsMax =  -3.81935594262472E-11  2.91013820013739E-02
 cg2d: Sum(rhs),rhsMax =  -3.89654974952691E-11  2.84472557780825E-02
 cg2d: Sum(rhs),rhsMax =  -3.97996080536700E-11  2.77807384401496E-02
 cg2d: Sum(rhs),rhsMax =  -4.07504030519590E-11  2.71022501643954E-02
 cg2d: Sum(rhs),rhsMax =  -4.17721413015215E-11  2.64122138852477E-02
 cg2d: Sum(rhs),rhsMax =  -4.28816981923319E-11  2.57110548493033E-02
 cg2d: Sum(rhs),rhsMax =  -4.40274483537451E-11  2.49992001825784E-02
 cg2d: Sum(rhs),rhsMax =  -4.53055370996935E-11  2.42770784774782E-02
 cg2d: Sum(rhs),rhsMax =  -4.66539029631008E-11  2.35451193599716E-02
 cg2d: Sum(rhs),rhsMax =  -4.81445994182650E-11  2.28037531137116E-02
 cg2d: Sum(rhs),rhsMax =  -4.96873653332841E-11  2.20534103236932E-02
 cg2d: Sum(rhs),rhsMax =  -5.14144282703910E-11  2.12945215263758E-02
 cg2d: Sum(rhs),rhsMax =  -5.32507371531210E-11  2.05275168687881E-02
 cg2d: Sum(rhs),rhsMax =  -5.52625722960443E-11  1.97528257812400E-02
 cg2d: Sum(rhs),rhsMax =  -5.74739145164926E-11  1.89708766677927E-02
 cg2d: Sum(rhs),rhsMax =  -5.98904259518918E-11  1.81820966163753E-02
 cg2d: Sum(rhs),rhsMax =  -6.25489660066592E-11  1.73869111284500E-02
 cg2d: Sum(rhs),rhsMax =  -6.55139276162231E-11  1.65857438674689E-02
 cg2d: Sum(rhs),rhsMax =  -6.87695456136339E-11  1.57790164255805E-02
 cg2d: Sum(rhs),rhsMax =  -7.23988646811335E-11  1.49671481084264E-02
 cg2d: Sum(rhs),rhsMax =  -7.65314478456958E-11  1.41505557401058E-02
 cg2d: Sum(rhs),rhsMax =  -8.11996025973372E-11  1.33296534755636E-02
 cg2d: Sum(rhs),rhsMax =  -8.65052474097183E-11  1.25048526483642E-02
 cg2d: Sum(rhs),rhsMax =  -9.26198007178414E-11  1.16765616281445E-02
 cg2d: Sum(rhs),rhsMax =  -9.96808191544574E-11  1.08451856912792E-02
 cg2d: Sum(rhs),rhsMax =  -1.07915343328102E-10  1.00111269080173E-02
 cg2d: Sum(rhs),rhsMax =  -1.17701071111753E-10  9.17478406172336E-03
 cg2d: Sum(rhs),rhsMax =  -1.29488197941896E-10  8.33655255018471E-03
 cg2d: Sum(rhs),rhsMax =  -1.43897893600808E-10  7.49682431415676E-03
 cg2d: Sum(rhs),rhsMax =  -1.61990532099310E-10  6.65598778763409E-03
 cg2d: Sum(rhs),rhsMax =  -1.84025239491348E-10  5.85577163669896E-03
 cg2d: Sum(rhs),rhsMax =  -2.06099581845365E-10  5.22585400034750E-03
 cg2d: Sum(rhs),rhsMax =  -2.34450903136008E-10  4.59288050003303E-03
 cg2d: Sum(rhs),rhsMax =  -2.72040612259161E-10  3.95703497232700E-03
 cg2d: Sum(rhs),rhsMax =  -3.24318349953501E-10  3.31850448846253E-03
 cg2d: Sum(rhs),rhsMax =  -4.01884303613542E-10  2.67747954714786E-03
 cg2d: Sum(rhs),rhsMax =  -4.93372342980081E-10  2.18062807210206E-03
 cg2d: Sum(rhs),rhsMax =  -4.73264871736490E-10  2.27293263986830E-03
 cg2d: Sum(rhs),rhsMax =  -4.21389645399728E-10  2.55201814011934E-03
 cg2d: Sum(rhs),rhsMax =  -3.77928452421905E-10  2.84534176954601E-03
 cg2d: Sum(rhs),rhsMax =  -3.35715844013151E-10  3.20324277364278E-03
 cg2d: Sum(rhs),rhsMax =  -2.74520628451569E-10  3.91613811092544E-03
 cg2d: Sum(rhs),rhsMax =  -2.31738406242243E-10  4.63785082360047E-03
 cg2d: Sum(rhs),rhsMax =  -2.00373828640465E-10  5.36349172157847E-03
 cg2d: Sum(rhs),rhsMax =  -1.76184844491445E-10  6.09770517727484E-03
 cg2d: Sum(rhs),rhsMax =  -1.57118096311137E-10  6.83372975063953E-03
 cg2d: Sum(rhs),rhsMax =  -1.41592404467872E-10  7.57887991535375E-03
 cg2d: Sum(rhs),rhsMax =  -1.28845045743731E-10  8.32480634796516E-03
 cg2d: Sum(rhs),rhsMax =  -1.18081766586897E-10  9.07924721618603E-03
 cg2d: Sum(rhs),rhsMax =  -1.08901776485482E-10  9.83891782881164E-03
 cg2d: Sum(rhs),rhsMax =  -1.00949804071604E-10  1.06081651561673E-02
 cg2d: Sum(rhs),rhsMax =  -9.40270084015538E-11  1.13824647433528E-02
 cg2d: Sum(rhs),rhsMax =  -8.80410189196823E-11  1.21499441719302E-02
 cg2d: Sum(rhs),rhsMax =  -8.28196400348702E-11  1.29103021873365E-02
 cg2d: Sum(rhs),rhsMax =  -7.82082176797871E-11  1.36632410241379E-02
 cg2d: Sum(rhs),rhsMax =  -7.40406624899492E-11  1.44084664138558E-02
 cg2d: Sum(rhs),rhsMax =  -7.03582747618725E-11  1.51456876069278E-02
 cg2d: Sum(rhs),rhsMax =  -6.70156152793311E-11  1.58746174094403E-02
 cg2d: Sum(rhs),rhsMax =  -6.40406616625455E-11  1.65949722352985E-02
 cg2d: Sum(rhs),rhsMax =  -6.12956352341598E-11  1.73064721739434E-02
 cg2d: Sum(rhs),rhsMax =  -5.88393778144791E-11  1.80088410729129E-02
 cg2d: Sum(rhs),rhsMax =  -5.65762992010832E-11  1.87018066329207E-02
 cg2d: Sum(rhs),rhsMax =  -5.45109513083730E-11  1.93851005131246E-02
 cg2d: Sum(rhs),rhsMax =  -5.26173549175724E-11  2.00584584492637E-02
 cg2d: Sum(rhs),rhsMax =  -5.08703079660222E-11  2.07216203778277E-02
 cg2d: Sum(rhs),rhsMax =  -4.92290652687188E-11  2.13743305623874E-02
 cg2d: Sum(rhs),rhsMax =  -4.77494710438009E-11  2.20163377196030E-02
 cg2d: Sum(rhs),rhsMax =  -4.62996307959429E-11  2.26473951456110E-02
 cg2d: Sum(rhs),rhsMax =  -4.49384973677525E-11  2.32672608426211E-02
 cg2d: Sum(rhs),rhsMax =  -4.36856106844630E-11  2.38756976446457E-02
 cg2d: Sum(rhs),rhsMax =  -4.25157686834154E-11  2.44724733408732E-02
 cg2d: Sum(rhs),rhsMax =  -4.13902245810505E-11  2.50573607962260E-02
 cg2d: Sum(rhs),rhsMax =  -4.03838074092278E-11  2.56301380675379E-02
 cg2d: Sum(rhs),rhsMax =  -3.94320132102166E-11  2.61905885188579E-02
 cg2d: Sum(rhs),rhsMax =  -3.85387277646032E-11  2.67385009354012E-02
 cg2d: Sum(rhs),rhsMax =  -3.77073927637639E-11  2.72736696331198E-02
 cg2d: Sum(rhs),rhsMax =  -3.69433372782169E-11  2.77958945654085E-02
 cg2d: Sum(rhs),rhsMax =  -3.62196939107662E-11  2.83049814286011E-02
 cg2d: Sum(rhs),rhsMax =  -3.55143692232218E-11  2.88007417674695E-02
 cg2d: Sum(rhs),rhsMax =  -3.48776563185993E-11  2.92829930839557E-02
 cg2d: Sum(rhs),rhsMax =  -3.42647021867037E-11  2.97515589418132E-02
 cg2d: Sum(rhs),rhsMax =  -3.36892735930405E-11  3.02062690724781E-02
 cg2d: Sum(rhs),rhsMax =  -3.31477068016284E-11  3.06469594812376E-02
 cg2d: Sum(rhs),rhsMax =  -3.26467741729175E-11  3.10734725579353E-02
 cg2d: Sum(rhs),rhsMax =  -3.21486171017682E-11  3.14856571878566E-02
 cg2d: Sum(rhs),rhsMax =  -3.16264792132870E-11  3.18833688607780E-02
 cg2d: Sum(rhs),rhsMax =  -3.11710657285857E-11  3.22664697755084E-02
 cg2d: Sum(rhs),rhsMax =  -3.07278646971554E-11  3.26348289555113E-02
 cg2d: Sum(rhs),rhsMax =  -3.01972891136870E-11  3.29883223594952E-02
 cg2d: Sum(rhs),rhsMax =  -2.97875057952979E-11  3.33268329872651E-02
 cg2d: Sum(rhs),rhsMax =  -2.96065394422840E-11  3.36502509878534E-02
 cg2d: Sum(rhs),rhsMax =  -2.93547408602990E-11  3.39584737523813E-02
 cg2d: Sum(rhs),rhsMax =  -2.91423551956882E-11  3.42514059982358E-02
 cg2d: Sum(rhs),rhsMax =  -2.90359958299291E-11  3.45289598498099E-02
 cg2d: Sum(rhs),rhsMax =  -2.89132051634056E-11  3.47910549154994E-02
 cg2d: Sum(rhs),rhsMax =  -2.88370438639163E-11  3.50376183623992E-02
 cg2d: Sum(rhs),rhsMax =  -2.88331580833301E-11  3.52685849640596E-02
 cg2d: Sum(rhs),rhsMax =  -2.88209456300592E-11  3.54838971425390E-02
 cg2d: Sum(rhs),rhsMax =  -2.87339041449286E-11  3.56835050028014E-02
 cg2d: Sum(rhs),rhsMax =  -2.85820256351599E-11  3.58673663570484E-02
 cg2d: Sum(rhs),rhsMax =  -2.84861023658323E-11  3.60354467392905E-02
 cg2d: Sum(rhs),rhsMax =  -2.84208212519843E-11  3.61877194077004E-02
 cg2d: Sum(rhs),rhsMax =  -2.83725265504131E-11  3.63241653349904E-02
 cg2d: Sum(rhs),rhsMax =  -2.82817103069988E-11  3.64447731875269E-02
 cg2d: Sum(rhs),rhsMax =  -2.82104339888178E-11  3.65495393029790E-02
 cg2d: Sum(rhs),rhsMax =  -2.82202039514345E-11  3.66384676435180E-02
 cg2d: Sum(rhs),rhsMax =  -2.82646128724195E-11  3.67115697320297E-02
 cg2d: Sum(rhs),rhsMax =  -2.82798229278569E-11  3.67688645934628E-02
 cg2d: Sum(rhs),rhsMax =  -2.82938117379672E-11  3.68103786921713E-02
 cg2d: Sum(rhs),rhsMax =  -2.82839307530480E-11  3.68361458571255E-02
 cg2d: Sum(rhs),rhsMax =  -2.82897039127761E-11  3.68462071666663E-02
 cg2d: Sum(rhs),rhsMax =  -2.83713053050860E-11  3.68406108729760E-02
 cg2d: Sum(rhs),rhsMax =  -2.83466583539393E-11  3.68194123060053E-02
 cg2d: Sum(rhs),rhsMax =  -2.83414403057236E-11  3.67826737544834E-02
 cg2d: Sum(rhs),rhsMax =  -2.84233747649409E-11  3.67304643308035E-02
 cg2d: Sum(rhs),rhsMax =  -2.85265144839286E-11  3.66628598240204E-02
 cg2d: Sum(rhs),rhsMax =  -2.86174417496454E-11  3.65799425438601E-02
 cg2d: Sum(rhs),rhsMax =  -2.87407875276813E-11  3.64818011566948E-02
 cg2d: Sum(rhs),rhsMax =  -2.88610246812482E-11  3.63685305507652E-02
 cg2d: Sum(rhs),rhsMax =  -2.90160118154859E-11  3.62402316257634E-02
 cg2d: Sum(rhs),rhsMax =  -2.92027513282278E-11  3.60970110813263E-02
 cg2d: Sum(rhs),rhsMax =  -2.93908231085993E-11  3.59389812167593E-02
 cg2d: Sum(rhs),rhsMax =  -2.95803381789028E-11  3.57662597343514E-02
 cg2d: Sum(rhs),rhsMax =  -2.97563085283059E-11  3.55789695402351E-02
 cg2d: Sum(rhs),rhsMax =  -2.99866798059156E-11  3.53772385286215E-02
 cg2d: Sum(rhs),rhsMax =  -3.02460279044681E-11  3.51611993700820E-02
 cg2d: Sum(rhs),rhsMax =  -3.04685165986029E-11  3.49309893113178E-02
 cg2d: Sum(rhs),rhsMax =  -3.07902592311393E-11  3.46867499629754E-02
 cg2d: Sum(rhs),rhsMax =  -3.10859116225970E-11  3.44286270824380E-02
 cg2d: Sum(rhs),rhsMax =  -3.13623571557287E-11  3.41567703551891E-02
 cg2d: Sum(rhs),rhsMax =  -3.17563753071681E-11  3.38713331777834E-02
 cg2d: Sum(rhs),rhsMax =  -3.21201953923378E-11  3.35724724442791E-02
 cg2d: Sum(rhs),rhsMax =  -3.25105498077960E-11  3.32603483369885E-02
 cg2d: Sum(rhs),rhsMax =  -3.28925775505695E-11  3.29351241218041E-02
 cg2d: Sum(rhs),rhsMax =  -3.33326699575309E-11  3.25969659674851E-02
 cg2d: Sum(rhs),rhsMax =  -3.37738725875170E-11  3.22460427511723E-02
 cg2d: Sum(rhs),rhsMax =  -3.42827988220051E-11  3.18825258421475E-02
 cg2d: Sum(rhs),rhsMax =  -3.47722961535624E-11  3.15065889123335E-02
 cg2d: Sum(rhs),rhsMax =  -3.52549101023669E-11  3.11184077299916E-02
 cg2d: Sum(rhs),rhsMax =  -3.57796015038048E-11  3.07181599984867E-02
 cg2d: Sum(rhs),rhsMax =  -3.63022945037983E-11  3.03060252271926E-02
 cg2d: Sum(rhs),rhsMax =  -3.68829411456773E-11  2.98821845892978E-02
 cg2d: Sum(rhs),rhsMax =  -3.75116604445225E-11  2.94468207726146E-02
 cg2d: Sum(rhs),rhsMax =  -3.81312759145658E-11  2.90001178336916E-02
 cg2d: Sum(rhs),rhsMax =  -3.88029608444640E-11  2.85422610597725E-02
 cg2d: Sum(rhs),rhsMax =  -3.95256050111925E-11  2.80734368435668E-02
 cg2d: Sum(rhs),rhsMax =  -4.02545774491614E-11  2.75938325724623E-02
 cg2d: Sum(rhs),rhsMax =  -4.10855793830933E-11  2.71036365314608E-02
 cg2d: Sum(rhs),rhsMax =  -4.19184686961671E-11  2.66030378182970E-02
 cg2d: Sum(rhs),rhsMax =  -4.28181934353233E-11  2.60922262695532E-02
 cg2d: Sum(rhs),rhsMax =  -4.37758718163650E-11  2.55713923973743E-02
 cg2d: Sum(rhs),rhsMax =  -4.47950565529709E-11  2.50407273370448E-02
 cg2d: Sum(rhs),rhsMax =  -4.58547644299756E-11  2.45004228059647E-02
 cg2d: Sum(rhs),rhsMax =  -4.70038452604626E-11  2.39506710807286E-02
 cg2d: Sum(rhs),rhsMax =  -4.82506257171167E-11  2.33916649783074E-02
 cg2d: Sum(rhs),rhsMax =  -4.95137264522327E-11  2.28235978390545E-02
 cg2d: Sum(rhs),rhsMax =  -5.09365882805923E-11  2.22466635337733E-02
 cg2d: Sum(rhs),rhsMax =  -5.24166265947201E-11  2.16610564542916E-02
 cg2d: Sum(rhs),rhsMax =  -5.40258948689143E-11  2.10669715738912E-02
 cg2d: Sum(rhs),rhsMax =  -5.57294210778991E-11  2.04646045095299E-02
 cg2d: Sum(rhs),rhsMax =  -5.75748337894311E-11  1.98541515747104E-02
 cg2d: Sum(rhs),rhsMax =  -5.95701266092874E-11  1.92358098323366E-02
 cg2d: Sum(rhs),rhsMax =  -6.16591222524221E-11  1.86097771560571E-02
 cg2d: Sum(rhs),rhsMax =  -6.38579189526922E-11  1.79762523057687E-02
 cg2d: Sum(rhs),rhsMax =  -6.63049615212685E-11  1.73354350167413E-02
 cg2d: Sum(rhs),rhsMax =  -6.89559520594685E-11  1.66875260984785E-02
 cg2d: Sum(rhs),rhsMax =  -7.18445303249382E-11  1.60327275433825E-02
 cg2d: Sum(rhs),rhsMax =  -7.50256523573967E-11  1.53712426381761E-02
 cg2d: Sum(rhs),rhsMax =  -7.85289611116013E-11  1.47032761019950E-02
 cg2d: Sum(rhs),rhsMax =  -8.24040835567530E-11  1.40290342238565E-02
 cg2d: Sum(rhs),rhsMax =  -8.66573479640920E-11  1.33487250004740E-02
 cg2d: Sum(rhs),rhsMax =  -9.15005848867168E-11  1.26625582785342E-02
 cg2d: Sum(rhs),rhsMax =  -9.69041513698699E-11  1.19707459036948E-02
 cg2d: Sum(rhs),rhsMax =  -1.03054897948596E-10  1.12735018810071E-02
 cg2d: Sum(rhs),rhsMax =  -1.09935394121408E-10  1.05710425294375E-02
 cg2d: Sum(rhs),rhsMax =  -1.17861831405719E-10  9.86358664019418E-03
 cg2d: Sum(rhs),rhsMax =  -1.27094557100804E-10  9.15135564922732E-03
 cg2d: Sum(rhs),rhsMax =  -1.37948874545657E-10  8.43457378132799E-03
 cg2d: Sum(rhs),rhsMax =  -1.50902845774681E-10  7.71346820533824E-03
 cg2d: Sum(rhs),rhsMax =  -1.66628710829286E-10  6.98826919443945E-03
 cg2d: Sum(rhs),rhsMax =  -1.86121895673352E-10  6.25921028446800E-03
 cg2d: Sum(rhs),rhsMax =  -2.10883088769265E-10  5.52652842492390E-03
 cg2d: Sum(rhs),rhsMax =  -2.43358222462575E-10  4.79046412211973E-03
 cg2d: Sum(rhs),rhsMax =  -2.87798229692271E-10  4.05126157644261E-03
 cg2d: Sum(rhs),rhsMax =  -3.52406159809249E-10  3.30916881355670E-03
 cg2d: Sum(rhs),rhsMax =  -4.54784855608015E-10  2.56443780898073E-03
 cg2d: Sum(rhs),rhsMax =  -5.30703758716555E-10  2.19784824991386E-03
 cg2d: Sum(rhs),rhsMax =  -5.58024182417682E-10  2.09050800402466E-03
 cg2d: Sum(rhs),rhsMax =  -5.27286103668700E-10  2.21249312663630E-03
 cg2d: Sum(rhs),rhsMax =  -4.16662260249723E-10  2.80040403335329E-03
 cg2d: Sum(rhs),rhsMax =  -3.43650552458996E-10  3.39586556012392E-03
 cg2d: Sum(rhs),rhsMax =  -2.92137758428623E-10  3.99617253008090E-03
 cg2d: Sum(rhs),rhsMax =  -2.53474241596052E-10  4.60601086263945E-03
 cg2d: Sum(rhs),rhsMax =  -2.23519758257851E-10  5.22339664229585E-03
 cg2d: Sum(rhs),rhsMax =  -1.99697258729259E-10  5.84853362390284E-03
 cg2d: Sum(rhs),rhsMax =  -1.80210513178736E-10  6.48323789186012E-03
 cg2d: Sum(rhs),rhsMax =  -1.64068092445291E-10  7.12228993726103E-03
 cg2d: Sum(rhs),rhsMax =  -1.50723544756204E-10  7.75676788478231E-03
 cg2d: Sum(rhs),rhsMax =  -1.39450451186462E-10  8.38641676184649E-03
 cg2d: Sum(rhs),rhsMax =  -1.29869226483947E-10  9.01098461734529E-03
 cg2d: Sum(rhs),rhsMax =  -1.21563203947517E-10  9.63022254507479E-03
 cg2d: Sum(rhs),rhsMax =  -1.14366960346501E-10  1.02438847049458E-02
 cg2d: Sum(rhs),rhsMax =  -1.07963415985068E-10  1.08517283589998E-02
 cg2d: Sum(rhs),rhsMax =  -1.02354125175452E-10  1.14535139013436E-02
 cg2d: Sum(rhs),rhsMax =  -9.73421343530845E-11  1.20490048951261E-02
(PID.TID 0000.0001)      cg2d_init_res =   3.13601335139979E-01
(PID.TID 0000.0001)      cg2d_iters(min,last) =      -1      40
(PID.TID 0000.0001)      cg2d_last_res =   3.96167924222738E-14
(PID.TID 0000.0001) // =======================================================
(PID.TID 0000.0001) // Begin MONITOR dynamic field statistics
(PID.TID 0000.0001) // =======================================================
(PID.TID 0000.0001) %MON time_tsnumber                =                  2400
(PID.TID 0000.0001) %MON time_secondsf                =   3.6000000000000E+04
(PID.TID 0000.0001) %MON dynstat_eta_max              =   2.2026761867639E-03
(PID.TID 0000.0001) %MON dynstat_eta_min              =  -2.5763373326996E-03
(PID.TID 0000.0001) %MON dynstat_eta_mean             =   2.5879075094620E-15
(PID.TID 0000.0001) %MON dynstat_eta_sd               =   1.7039807359029E-03
(PID.TID 0000.0001) %MON dynstat_eta_del2             =   1.0948548546752E-06
(PID.TID 0000.0001) %MON dynstat_uvel_max             =   1.8533258831002E-01
(PID.TID 0000.0001) %MON dynstat_uvel_min             =  -1.0232534405799E-01
(PID.TID 0000.0001) %MON dynstat_uvel_mean            =   1.1244535499902E-01
(PID.TID 0000.0001) %MON dynstat_uvel_sd              =   6.1607192378482E-03
(PID.TID 0000.0001) %MON dynstat_uvel_del2            =   7.2678927448984E-05
(PID.TID 0000.0001) %MON dynstat_vvel_max             =   0.0000000000000E+00
(PID.TID 0000.0001) %MON dynstat_vvel_min             =   0.0000000000000E+00
(PID.TID 0000.0001) %MON dynstat_vvel_mean            =   0.0000000000000E+00
(PID.TID 0000.0001) %MON dynstat_vvel_sd              =   0.0000000000000E+00
(PID.TID 0000.0001) %MON dynstat_vvel_del2            =   0.0000000000000E+00
(PID.TID 0000.0001) %MON dynstat_wvel_max             =   3.8976310250968E-03
(PID.TID 0000.0001) %MON dynstat_wvel_min             =  -1.6667553606662E-03
(PID.TID 0000.0001) %MON dynstat_wvel_mean            =   7.3148623269779E-22
(PID.TID 0000.0001) %MON dynstat_wvel_sd              =   2.0860899162488E-04
(PID.TID 0000.0001) %MON dynstat_wvel_del2            =   5.9054591016907E-06
(PID.TID 0000.0001) %MON dynstat_theta_max            =   1.5000000000004E+01
(PID.TID 0000.0001) %MON dynstat_theta_min            =   9.9999999999947E+00
(PID.TID 0000.0001) %MON dynstat_theta_mean           =   1.1004806889000E+01
(PID.TID 0000.0001) %MON dynstat_theta_sd             =   1.9404787067640E+00
(PID.TID 0000.0001) %MON dynstat_theta_del2           =   1.2316729916935E-05
(PID.TID 0000.0001) %MON dynstat_salt_max             =   3.5000000000000E+01
(PID.TID 0000.0001) %MON dynstat_salt_min             =   3.5000000000000E+01
(PID.TID 0000.0001) %MON dynstat_salt_mean            =   3.5000000000000E+01
(PID.TID 0000.0001) %MON dynstat_salt_sd              =   4.0500935938326E-13
(PID.TID 0000.0001) %MON dynstat_salt_del2            =   0.0000000000000E+00
(PID.TID 0000.0001) %MON dynstat_sst_max              =   1.5000000000004E+01
(PID.TID 0000.0001) %MON dynstat_sst_min              =   1.5000000000000E+01
(PID.TID 0000.0001) %MON dynstat_sst_mean             =   1.5000000000003E+01
(PID.TID 0000.0001) %MON dynstat_sst_sd               =   1.6083664152010E-12
(PID.TID 0000.0001) %MON dynstat_sst_del2             =   1.0953873533654E-14
(PID.TID 0000.0001) %MON dynstat_sss_max              =   3.5000000000000E+01
(PID.TID 0000.0001) %MON dynstat_sss_min              =   3.5000000000000E+01
(PID.TID 0000.0001) %MON dynstat_sss_mean             =   3.5000000000000E+01
(PID.TID 0000.0001) %MON dynstat_sss_sd               =   4.2632564145606E-14
(PID.TID 0000.0001) %MON dynstat_sss_del2             =   0.0000000000000E+00
(PID.TID 0000.0001) %MON forcing_qnet_max             =   0.0000000000000E+00
(PID.TID 0000.0001) %MON forcing_qnet_min             =   0.0000000000000E+00
(PID.TID 0000.0001) %MON forcing_qnet_mean            =   0.0000000000000E+00
(PID.TID 0000.0001) %MON forcing_qnet_sd              =   0.0000000000000E+00
(PID.TID 0000.0001) %MON forcing_qnet_del2            =   0.0000000000000E+00
(PID.TID 0000.0001) %MON forcing_qsw_max              =   0.0000000000000E+00
(PID.TID 0000.0001) %MON forcing_qsw_min              =   0.0000000000000E+00
(PID.TID 0000.0001) %MON forcing_qsw_mean             =   0.0000000000000E+00
(PID.TID 0000.0001) %MON forcing_qsw_sd               =   0.0000000000000E+00
(PID.TID 0000.0001) %MON forcing_qsw_del2             =   0.0000000000000E+00
(PID.TID 0000.0001) %MON forcing_empmr_max            =   0.0000000000000E+00
(PID.TID 0000.0001) %MON forcing_empmr_min            =   0.0000000000000E+00
(PID.TID 0000.0001) %MON forcing_empmr_mean           =   0.0000000000000E+00
(PID.TID 0000.0001) %MON forcing_empmr_sd             =   0.0000000000000E+00
(PID.TID 0000.0001) %MON forcing_empmr_del2           =   0.0000000000000E+00
(PID.TID 0000.0001) %MON forcing_fu_max               =   0.0000000000000E+00
(PID.TID 0000.0001) %MON forcing_fu_min               =   0.0000000000000E+00
(PID.TID 0000.0001) %MON forcing_fu_mean              =   0.0000000000000E+00
(PID.TID 0000.0001) %MON forcing_fu_sd                =   0.0000000000000E+00
(PID.TID 0000.0001) %MON forcing_fu_del2              =   0.0000000000000E+00
(PID.TID 0000.0001) %MON forcing_fv_max               =   0.0000000000000E+00
(PID.TID 0000.0001) %MON forcing_fv_min               =   0.0000000000000E+00
(PID.TID 0000.0001) %MON forcing_fv_mean              =   0.0000000000000E+00
(PID.TID 0000.0001) %MON forcing_fv_sd                =   0.0000000000000E+00
(PID.TID 0000.0001) %MON forcing_fv_del2              =   0.0000000000000E+00
(PID.TID 0000.0001) %MON advcfl_uvel_max              =   1.3323688644612E-02
(PID.TID 0000.0001) %MON advcfl_vvel_max              =   0.0000000000000E+00
(PID.TID 0000.0001) %MON advcfl_wvel_max              =   5.6648554597907E-02
(PID.TID 0000.0001) %MON advcfl_W_hf_max              =   5.7549923705253E-02
(PID.TID 0000.0001) %MON pe_b_mean                    =   7.1963623411870E-08
(PID.TID 0000.0001) %MON ke_max                       =   1.2954075755543E-02
(PID.TID 0000.0001) %MON ke_mean                      =   6.3397008169851E-03
(PID.TID 0000.0001) %MON ke_vol                       =   9.6656886657870E+10
(PID.TID 0000.0001) %MON vort_r_min                   =   0.0000000000000E+00
(PID.TID 0000.0001) %MON vort_r_max                   =   0.0000000000000E+00
(PID.TID 0000.0001) %MON vort_a_mean                  =   0.0000000000000E+00
(PID.TID 0000.0001) %MON vort_a_sd                    =   0.0000000000000E+00
(PID.TID 0000.0001) %MON vort_p_mean                  =   0.0000000000000E+00
(PID.TID 0000.0001) %MON vort_p_sd                    =   0.0000000000000E+00
(PID.TID 0000.0001) %MON surfExpan_theta_mean         =  -1.4182863168740E-18
(PID.TID 0000.0001) %MON surfExpan_salt_mean          =   7.9142843876112E-20
(PID.TID 0000.0001) // =======================================================
(PID.TID 0000.0001) // End MONITOR dynamic field statistics
(PID.TID 0000.0001) // =======================================================
(PID.TID 0000.0001) // =======================================================
(PID.TID 0000.0001) // Begin OBCS MONITOR field statistics
(PID.TID 0000.0001) // =======================================================
(PID.TID 0000.0001) %MON obc_E_uVel_max               =   1.1205712828732E-01
(PID.TID 0000.0001) %MON obc_E_uVel_min               =   1.1205712828732E-01
(PID.TID 0000.0001) %MON obc_E_uVel_mean              =   1.1205712828732E-01
(PID.TID 0000.0001) %MON obc_E_uVel_sd                =  -1.2143064331838E-17
(PID.TID 0000.0001) %MON obc_E_uVel_Int               =   1.1205712828732E+05
(PID.TID 0000.0001) %MON obc_W_uVel_max               =   1.1205712828732E-01
(PID.TID 0000.0001) %MON obc_W_uVel_min               =   1.1205712828732E-01
(PID.TID 0000.0001) %MON obc_W_uVel_mean              =   1.1205712828732E-01
(PID.TID 0000.0001) %MON obc_W_uVel_sd                =  -1.2143064331838E-17
(PID.TID 0000.0001) %MON obc_W_uVel_Int               =   1.1205712828732E+05
(PID.TID 0000.0001) // =======================================================
(PID.TID 0000.0001) // End OBCS MONITOR field statistics
(PID.TID 0000.0001) // =======================================================
 cg2d: Sum(rhs),rhsMax =  -9.28510601738708E-11  1.26379681154198E-02
 cg2d: Sum(rhs),rhsMax =  -8.88071838289761E-11  1.32201735957176E-02
 cg2d: Sum(rhs),rhsMax =  -8.43787262283513E-11  1.39219477421605E-02
 cg2d: Sum(rhs),rhsMax =  -8.02645727659979E-11  1.46477154647316E-02
 cg2d: Sum(rhs),rhsMax =  -7.65889573983713E-11  1.53687598337972E-02
 cg2d: Sum(rhs),rhsMax =  -7.32528482316752E-11  1.60847243773287E-02
 cg2d: Sum(rhs),rhsMax =  -7.02293778687135E-11  1.67952499929085E-02
 cg2d: Sum(rhs),rhsMax =  -6.75143274619927E-11  1.74999752150457E-02
 cg2d: Sum(rhs),rhsMax =  -6.49714726463912E-11  1.81985364978171E-02
 cg2d: Sum(rhs),rhsMax =  -6.26568796846527E-11  1.88905685130920E-02
 cg2d: Sum(rhs),rhsMax =  -6.05242522766503E-11  1.95757044619140E-02
 cg2d: Sum(rhs),rhsMax =  -5.85550496978726E-11  2.02535763984166E-02
 cg2d: Sum(rhs),rhsMax =  -5.67259572648027E-11  2.09238155665906E-02
 cg2d: Sum(rhs),rhsMax =  -5.50660628206856E-11  2.15860527495593E-02
 cg2d: Sum(rhs),rhsMax =  -5.34883248803908E-11  2.22399186302648E-02
 cg2d: Sum(rhs),rhsMax =  -5.20425924577239E-11  2.28850441621056E-02
 cg2d: Sum(rhs),rhsMax =  -5.06605868366705E-11  2.35210609481553E-02
 cg2d: Sum(rhs),rhsMax =  -4.94151386476460E-11  2.41476016276462E-02
 cg2d: Sum(rhs),rhsMax =  -4.82229811638035E-11  2.47643002693333E-02
 cg2d: Sum(rhs),rhsMax =  -4.70933292362474E-11  2.53707927696934E-02
 cg2d: Sum(rhs),rhsMax =  -4.61464200185446E-11  2.59667172577920E-02
 cg2d: Sum(rhs),rhsMax =  -4.52242687742910E-11  2.65517145090378E-02
 cg2d: Sum(rhs),rhsMax =  -4.43335368416342E-11  2.71254283599091E-02
 cg2d: Sum(rhs),rhsMax =  -4.35325109293672E-11  2.76875061238037E-02
 cg2d: Sum(rhs),rhsMax =  -4.27746726927580E-11  2.82375990085356E-02
 cg2d: Sum(rhs),rhsMax =  -4.20272705525804E-11  2.87753625357389E-02
 cg2d: Sum(rhs),rhsMax =  -4.13463707715778E-11  2.93004569618030E-02
 cg2d: Sum(rhs),rhsMax =  -4.07267553015345E-11  2.98125476994093E-02
 cg2d: Sum(rhs),rhsMax =  -4.01289002027738E-11  3.03113057386294E-02
 cg2d: Sum(rhs),rhsMax =  -3.95344867953895E-11  3.07964080682489E-02
 cg2d: Sum(rhs),rhsMax =  -3.90164567320994E-11  3.12675380897788E-02
 cg2d: Sum(rhs),rhsMax =  -3.84959841781551E-11  3.17243860285529E-02
 cg2d: Sum(rhs),rhsMax =  -3.80036002667339E-11  3.21666493363766E-02
 cg2d: Sum(rhs),rhsMax =  -3.75965925059063E-11  3.25940330959891E-02
 cg2d: Sum(rhs),rhsMax =  -3.71292996348416E-11  3.30062504210079E-02
 cg2d: Sum(rhs),rhsMax =  -3.67774699583379E-11  3.34030228507259E-02
 cg2d: Sum(rhs),rhsMax =  -3.63996610630579E-11  3.37840807222826E-02
 cg2d: Sum(rhs),rhsMax =  -3.60609320182448E-11  3.41491635326686E-02
 cg2d: Sum(rhs),rhsMax =  -3.57905927117486E-11  3.44980202917834E-02
 cg2d: Sum(rhs),rhsMax =  -3.54974938332475E-11  3.48304098645417E-02
 cg2d: Sum(rhs),rhsMax =  -3.52636808642615E-11  3.51461012994937E-02
 cg2d: Sum(rhs),rhsMax =  -3.50506290658359E-11  3.54448741419704E-02
 cg2d: Sum(rhs),rhsMax =  -3.48454598508852E-11  3.57265187306387E-02
 cg2d: Sum(rhs),rhsMax =  -3.46167539078124E-11  3.59908364770308E-02
 cg2d: Sum(rhs),rhsMax =  -3.44372308447305E-11  3.62376401279759E-02
 cg2d: Sum(rhs),rhsMax =  -3.42731398816909E-11  3.64667540110665E-02
 cg2d: Sum(rhs),rhsMax =  -3.40854011682268E-11  3.66780142735497E-02
 cg2d: Sum(rhs),rhsMax =  -3.39391847958836E-11  3.68712690875075E-02
 cg2d: Sum(rhs),rhsMax =  -3.37783134796155E-11  3.70463788402770E-02
 cg2d: Sum(rhs),rhsMax =  -3.37457839449939E-11  3.72032163182943E-02
 cg2d: Sum(rhs),rhsMax =  -3.36416450252841E-11  3.73416668807731E-02
 cg2d: Sum(rhs),rhsMax =  -3.35746985768992E-11  3.74616286253207E-02
 cg2d: Sum(rhs),rhsMax =  -3.34859917572317E-11  3.75630125436971E-02
 cg2d: Sum(rhs),rhsMax =  -3.34130501045138E-11  3.76457426665430E-02
 cg2d: Sum(rhs),rhsMax =  -3.34071659224833E-11  3.77097562070881E-02
 cg2d: Sum(rhs),rhsMax =  -3.33155725229517E-11  3.77550036787266E-02
 cg2d: Sum(rhs),rhsMax =  -3.33031380250759E-11  3.77814489967185E-02
 cg2d: Sum(rhs),rhsMax =  -3.33608696223564E-11  3.77890695702153E-02
 cg2d: Sum(rhs),rhsMax =  -3.34432481707836E-11  3.77778563773355E-02
 cg2d: Sum(rhs),rhsMax =  -3.35567129639003E-11  3.77478139828842E-02
 cg2d: Sum(rhs),rhsMax =  -3.36565220138141E-11  3.76989605942466E-02
 cg2d: Sum(rhs),rhsMax =  -3.36169980741374E-11  3.76313280642865E-02
 cg2d: Sum(rhs),rhsMax =  -3.36447536497531E-11  3.75449618434950E-02
 cg2d: Sum(rhs),rhsMax =  -3.36516370325057E-11  3.74399208853046E-02
 cg2d: Sum(rhs),rhsMax =  -3.36679573109677E-11  3.73162775100978E-02
 cg2d: Sum(rhs),rhsMax =  -3.37623262680609E-11  3.71741172355286E-02
 cg2d: Sum(rhs),rhsMax =  -3.38724603921037E-11  3.70135386120571E-02
 cg2d: Sum(rhs),rhsMax =  -3.39765993118135E-11  3.68346529447565E-02
 cg2d: Sum(rhs),rhsMax =  -3.40948380639361E-11  3.66375840131172E-02
 cg2d: Sum(rhs),rhsMax =  -3.42385009233226E-11  3.64224677890671E-02
 cg2d: Sum(rhs),rhsMax =  -3.43595152330067E-11  3.61894521459227E-02
 cg2d: Sum(rhs),rhsMax =  -3.45283801550522E-11  3.59386965264773E-02
 cg2d: Sum(rhs),rhsMax =  -3.47348816376325E-11  3.56703716799065E-02
 cg2d: Sum(rhs),rhsMax =  -3.49308360014788E-11  3.53846593870966E-02
 cg2d: Sum(rhs),rhsMax =  -3.51398909970158E-11  3.50817521573554E-02
 cg2d: Sum(rhs),rhsMax =  -3.53853613077604E-11  3.47618529280383E-02
 cg2d: Sum(rhs),rhsMax =  -3.56308316185050E-11  3.44251747732517E-02
 cg2d: Sum(rhs),rhsMax =  -3.59471341582207E-11  3.40719406221505E-02
 cg2d: Sum(rhs),rhsMax =  -3.62941898757185E-11  3.37023829838827E-02
 cg2d: Sum(rhs),rhsMax =  -3.66632280091039E-11  3.33167436857127E-02
 cg2d: Sum(rhs),rhsMax =  -3.70518060677227E-11  3.29152736272900E-02
 cg2d: Sum(rhs),rhsMax =  -3.74580366724331E-11  3.24982324613978E-02
 cg2d: Sum(rhs),rhsMax =  -3.79219988744239E-11  3.20658882911844E-02
 cg2d: Sum(rhs),rhsMax =  -3.83811871174089E-11  3.16185173776103E-02
 cg2d: Sum(rhs),rhsMax =  -3.88900023295946E-11  3.11564038508732E-02
 cg2d: Sum(rhs),rhsMax =  -3.94054788799281E-11  3.06798393656043E-02
 cg2d: Sum(rhs),rhsMax =  -3.99785760052396E-11  3.01891228106612E-02
 cg2d: Sum(rhs),rhsMax =  -4.05703248773648E-11  2.96845600080486E-02
 cg2d: Sum(rhs),rhsMax =  -4.12204714805853E-11  2.91664633838620E-02
 cg2d: Sum(rhs),rhsMax =  -4.19135837148588E-11  2.86351516207104E-02
 cg2d: Sum(rhs),rhsMax =  -4.26348956139577E-11  2.80909493029951E-02
 cg2d: Sum(rhs),rhsMax =  -4.34008384786466E-11  2.75341865599377E-02
 cg2d: Sum(rhs),rhsMax =  -4.42353931262573E-11  2.69651987102064E-02
 cg2d: Sum(rhs),rhsMax =  -4.50934845019901E-11  2.63843259069448E-02
 cg2d: Sum(rhs),rhsMax =  -4.60119720102625E-11  2.57919128004959E-02
 cg2d: Sum(rhs),rhsMax =  -4.69920768964016E-11  2.51883082016398E-02
 cg2d: Sum(rhs),rhsMax =  -4.81272799390808E-11  2.45738647461070E-02
 cg2d: Sum(rhs),rhsMax =  -4.93279861402129E-11  2.39489385620593E-02
 cg2d: Sum(rhs),rhsMax =  -5.06489294949120E-11  2.33138889426690E-02
 cg2d: Sum(rhs),rhsMax =  -5.20313792051752E-11  2.26690780371770E-02
 cg2d: Sum(rhs),rhsMax =  -5.35107513854882E-11  2.20148705234204E-02
 cg2d: Sum(rhs),rhsMax =  -5.51384493618912E-11  2.13516332742518E-02
 cg2d: Sum(rhs),rhsMax =  -5.68690650126769E-11  2.06797350676873E-02
 cg2d: Sum(rhs),rhsMax =  -5.87305759580659E-11  1.99995463365259E-02
 cg2d: Sum(rhs),rhsMax =  -6.07465189261802E-11  1.93114388973121E-02
 cg2d: Sum(rhs),rhsMax =  -6.29422070019814E-11  1.86157856772845E-02
 cg2d: Sum(rhs),rhsMax =  -6.53664899985529E-11  1.79129604408751E-02
 cg2d: Sum(rhs),rhsMax =  -6.79641898315708E-11  1.72033375200906E-02
 cg2d: Sum(rhs),rhsMax =  -7.08658687287311E-11  1.64872915621553E-02
 cg2d: Sum(rhs),rhsMax =  -7.40051353531612E-11  1.57651972921852E-02
 cg2d: Sum(rhs),rhsMax =  -7.75024489030329E-11  1.50374292899596E-02
 cg2d: Sum(rhs),rhsMax =  -8.13905609575727E-11  1.43043617718235E-02
 cg2d: Sum(rhs),rhsMax =  -8.57354187644432E-11  1.35663683768535E-02
 cg2d: Sum(rhs),rhsMax =  -9.06561492541869E-11  1.28238219683659E-02
 cg2d: Sum(rhs),rhsMax =  -9.62415702687736E-11  1.20770944473964E-02
 cg2d: Sum(rhs),rhsMax =  -1.02573172178211E-10  1.13265565692565E-02
 cg2d: Sum(rhs),rhsMax =  -1.09850017970814E-10  1.05725777673328E-02
 cg2d: Sum(rhs),rhsMax =  -1.18227760914635E-10  9.81552598671302E-03
 cg2d: Sum(rhs),rhsMax =  -1.28126065312983E-10  9.05576752811645E-03
 cg2d: Sum(rhs),rhsMax =  -1.39854905434333E-10  8.29366690775738E-03
 cg2d: Sum(rhs),rhsMax =  -1.53959733850684E-10  7.52958671741231E-03
 cg2d: Sum(rhs),rhsMax =  -1.71329617160154E-10  6.76388748145558E-03
 cg2d: Sum(rhs),rhsMax =  -1.93156601824285E-10  5.99692753388252E-03
 cg2d: Sum(rhs),rhsMax =  -2.21463070104733E-10  5.22906290812305E-03
 cg2d: Sum(rhs),rhsMax =  -2.55889309741519E-10  4.52404555926114E-03
 cg2d: Sum(rhs),rhsMax =  -2.95097057900762E-10  3.92212470659577E-03
 cg2d: Sum(rhs),rhsMax =  -3.48771678204685E-10  3.31777252345891E-03
 cg2d: Sum(rhs),rhsMax =  -4.26766177952231E-10  2.71120850080217E-03
 cg2d: Sum(rhs),rhsMax =  -4.85249174175806E-10  2.38370845845690E-03
 cg2d: Sum(rhs),rhsMax =  -4.63457050514648E-10  2.49478912197330E-03
 cg2d: Sum(rhs),rhsMax =  -4.43561409824156E-10  2.60615316921010E-03
 cg2d: Sum(rhs),rhsMax =  -4.04627401029423E-10  2.85641875181563E-03
 cg2d: Sum(rhs),rhsMax =  -3.63836794026184E-10  3.17623232030806E-03
 cg2d: Sum(rhs),rhsMax =  -3.30472094134393E-10  3.49571043500880E-03
 cg2d: Sum(rhs),rhsMax =  -3.02767921844804E-10  3.81470926447043E-03
 cg2d: Sum(rhs),rhsMax =  -2.67032174150472E-10  4.32376030966900E-03
 cg2d: Sum(rhs),rhsMax =  -2.31500374425764E-10  4.98760691986705E-03
 cg2d: Sum(rhs),rhsMax =  -2.03899785944373E-10  5.65973313523983E-03
 cg2d: Sum(rhs),rhsMax =  -1.82106552060191E-10  6.33378788010139E-03
 cg2d: Sum(rhs),rhsMax =  -1.64348201714404E-10  7.01621242966523E-03
 cg2d: Sum(rhs),rhsMax =  -1.49692924722444E-10  7.70000508029979E-03
 cg2d: Sum(rhs),rhsMax =  -1.37335476324552E-10  8.39117999903946E-03
 cg2d: Sum(rhs),rhsMax =  -1.26741062089764E-10  9.08812919741393E-03
 cg2d: Sum(rhs),rhsMax =  -1.17569176616428E-10  9.79424258190201E-03
 cg2d: Sum(rhs),rhsMax =  -1.09604436637767E-10  1.05038902945296E-02
 cg2d: Sum(rhs),rhsMax =  -1.02649444500003E-10  1.12073647806311E-02
 cg2d: Sum(rhs),rhsMax =  -9.66002833280299E-11  1.19043846328457E-02
 cg2d: Sum(rhs),rhsMax =  -9.13028541660310E-11  1.25946723594691E-02
 cg2d: Sum(rhs),rhsMax =  -8.64760485441707E-11  1.32779544315252E-02
 cg2d: Sum(rhs),rhsMax =  -8.21576140452862E-11  1.39539613317274E-02
 cg2d: Sum(rhs),rhsMax =  -7.83579867658091E-11  1.46224276048579E-02
 cg2d: Sum(rhs),rhsMax =  -7.48621165058694E-11  1.52830919092415E-02
 cg2d: Sum(rhs),rhsMax =  -7.17068626698847E-11  1.59356970692831E-02
 cg2d: Sum(rhs),rhsMax =  -6.88272772109144E-11  1.65799901292497E-02
 cg2d: Sum(rhs),rhsMax =  -6.61946053526208E-11  1.72157224085025E-02
 cg2d: Sum(rhs),rhsMax =  -6.38396002727859E-11  1.78426495582648E-02
 cg2d: Sum(rhs),rhsMax =  -6.16048323465179E-11  1.84605316198265E-02
 cg2d: Sum(rhs),rhsMax =  -5.95592464236461E-11  1.90691330821800E-02
 cg2d: Sum(rhs),rhsMax =  -5.77089487308058E-11  1.96682229441286E-02
 cg2d: Sum(rhs),rhsMax =  -5.59535751065710E-11  2.02575747754817E-02
 cg2d: Sum(rhs),rhsMax =  -5.42647038415112E-11  2.08369667769832E-02
 cg2d: Sum(rhs),rhsMax =  -5.27140553430172E-11  2.14061818398106E-02
 cg2d: Sum(rhs),rhsMax =  -5.12462294821603E-11  2.19650076048224E-02
 cg2d: Sum(rhs),rhsMax =  -4.98676655524832E-11  2.25132365211872E-02
 cg2d: Sum(rhs),rhsMax =  -4.86060081072992E-11  2.30506659034172E-02
 cg2d: Sum(rhs),rhsMax =  -4.74239536529808E-11  2.35770979855927E-02
 cg2d: Sum(rhs),rhsMax =  -4.63202809442009E-11  2.40923399784784E-02
 cg2d: Sum(rhs),rhsMax =  -4.52867743305774E-11  2.45962041260577E-02
 cg2d: Sum(rhs),rhsMax =  -4.43151071394254E-11  2.50885077598707E-02
 cg2d: Sum(rhs),rhsMax =  -4.34002833671343E-11  2.55690733519641E-02
 cg2d: Sum(rhs),rhsMax =  -4.25134372150637E-11  2.60377285697522E-02
 cg2d: Sum(rhs),rhsMax =  -4.17151868603582E-11  2.64943063298501E-02
 cg2d: Sum(rhs),rhsMax =  -4.09655642741313E-11  2.69386448523210E-02
 cg2d: Sum(rhs),rhsMax =  -4.02465838433841E-11  2.73705877172941E-02
 cg2d: Sum(rhs),rhsMax =  -3.95847798984050E-11  2.77899839228113E-02
 cg2d: Sum(rhs),rhsMax =  -3.89683840751331E-11  2.81966879396154E-02
 cg2d: Sum(rhs),rhsMax =  -3.83636455936198E-11  2.85905597642990E-02
 cg2d: Sum(rhs),rhsMax =  -3.78210796014855E-11  2.89714649805482E-02
 cg2d: Sum(rhs),rhsMax =  -3.72719632935059E-11  2.93392748122666E-02
 cg2d: Sum(rhs),rhsMax =  -3.67419428215499E-11  2.96938661735986E-02
 cg2d: Sum(rhs),rhsMax =  -3.62213592453031E-11  3.00351217083227E-02
 cg2d: Sum(rhs),rhsMax =  -3.57438523224118E-11  3.03629298188372E-02
 cg2d: Sum(rhs),rhsMax =  -3.53069795622218E-11  3.06771846944184E-02
 cg2d: Sum(rhs),rhsMax =  -3.48548967465945E-11  3.09777863376751E-02
 cg2d: Sum(rhs),rhsMax =  -3.44728690038210E-11  3.12646405882475E-02
 cg2d: Sum(rhs),rhsMax =  -3.41002781567568E-11  3.15376591439617E-02
 cg2d: Sum(rhs),rhsMax =  -3.37629924018756E-11  3.17967595804676E-02
 cg2d: Sum(rhs),rhsMax =  -3.34525740441904E-11  3.20418653744173E-02
 cg2d: Sum(rhs),rhsMax =  -3.31547012066835E-11  3.22729059305019E-02
 cg2d: Sum(rhs),rhsMax =  -3.27710081293731E-11  3.24898166017843E-02
 cg2d: Sum(rhs),rhsMax =  -3.24702487120021E-11  3.26925387219556E-02
 cg2d: Sum(rhs),rhsMax =  -3.21277449089052E-11  3.28810196490228E-02
 cg2d: Sum(rhs),rhsMax =  -3.18995940773448E-11  3.30552128182232E-02
 cg2d: Sum(rhs),rhsMax =  -3.18228776663432E-11  3.32150778005679E-02
 cg2d: Sum(rhs),rhsMax =  -3.17741388755621E-11  3.33605803611997E-02
 cg2d: Sum(rhs),rhsMax =  -3.17078585609920E-11  3.34916925187914E-02
 cg2d: Sum(rhs),rhsMax =  -3.17365023150273E-11  3.36083925989608E-02
 cg2d: Sum(rhs),rhsMax =  -3.17621484668962E-11  3.37106652729977E-02
 cg2d: Sum(rhs),rhsMax =  -3.18687298772602E-11  3.37985015852949E-02
 cg2d: Sum(rhs),rhsMax =  -3.18473025728849E-11  3.38718989431411E-02
 cg2d: Sum(rhs),rhsMax =  -3.18529647103105E-11  3.39308610795862E-02
 cg2d: Sum(rhs),rhsMax =  -3.18880477578887E-11  3.39753979903003E-02
 cg2d: Sum(rhs),rhsMax =  -3.19514414925948E-11  3.40055258382387E-02
 cg2d: Sum(rhs),rhsMax =  -3.19771986667661E-11  3.40212668137358E-02
 cg2d: Sum(rhs),rhsMax =  -3.19945181459502E-11  3.40226490137062E-02
 cg2d: Sum(rhs),rhsMax =  -3.19974047258142E-11  3.40097062858878E-02
 cg2d: Sum(rhs),rhsMax =  -3.20582449475637E-11  3.39824780489662E-02
 cg2d: Sum(rhs),rhsMax =  -3.21483950571633E-11  3.39410090990366E-02
 cg2d: Sum(rhs),rhsMax =  -3.22163407062703E-11  3.38853494171832E-02
 cg2d: Sum(rhs),rhsMax =  -3.23442383987071E-11  3.38155539869508E-02
 cg2d: Sum(rhs),rhsMax =  -3.24783533400819E-11  3.37316826363551E-02
 cg2d: Sum(rhs),rhsMax =  -3.26420002139116E-11  3.36337999140532E-02
 cg2d: Sum(rhs),rhsMax =  -3.28758131828977E-11  3.35219749318081E-02
 cg2d: Sum(rhs),rhsMax =  -3.30075966559207E-11  3.33962812464128E-02
 cg2d: Sum(rhs),rhsMax =  -3.32258665025620E-11  3.32567967747477E-02
 cg2d: Sum(rhs),rhsMax =  -3.33910676886262E-11  3.31036037330143E-02
 cg2d: Sum(rhs),rhsMax =  -3.36285443935935E-11  3.29367885907351E-02
 cg2d: Sum(rhs),rhsMax =  -3.38588046489008E-11  3.27564420374563E-02
 cg2d: Sum(rhs),rhsMax =  -3.41290329330945E-11  3.25626589305623E-02
 cg2d: Sum(rhs),rhsMax =  -3.43930439683504E-11  3.23555382494654E-02
 cg2d: Sum(rhs),rhsMax =  -3.46934703188140E-11  3.21351830756093E-02
 cg2d: Sum(rhs),rhsMax =  -3.50059981002460E-11  3.19017005577036E-02
 cg2d: Sum(rhs),rhsMax =  -3.53800322372422E-11  3.16552018623095E-02
 cg2d: Sum(rhs),rhsMax =  -3.57224250180366E-11  3.13958021090568E-02
 cg2d: Sum(rhs),rhsMax =  -3.61080054744889E-11  3.11236202975952E-02
 cg2d: Sum(rhs),rhsMax =  -3.65331098706179E-11  3.08387792289699E-02
 cg2d: Sum(rhs),rhsMax =  -3.69899666452511E-11  3.05414054229494E-02
 cg2d: Sum(rhs),rhsMax =  -3.74328346097741E-11  3.02316290321054E-02
 cg2d: Sum(rhs),rhsMax =  -3.79869469213645E-11  2.99095837693526E-02
 cg2d: Sum(rhs),rhsMax =  -3.85386167423007E-11  2.95754068223096E-02
 cg2d: Sum(rhs),rhsMax =  -3.90326659882589E-11  2.92292387356079E-02
 cg2d: Sum(rhs),rhsMax =  -3.95699029098751E-11  2.88712232848642E-02
 cg2d: Sum(rhs),rhsMax =  -4.01118027681946E-11  2.85015074190865E-02
 cg2d: Sum(rhs),rhsMax =  -4.07358591303364E-11  2.81202411960537E-02
 cg2d: Sum(rhs),rhsMax =  -4.13694634104900E-11  2.77275777103139E-02
 cg2d: Sum(rhs),rhsMax =  -4.20575796411526E-11  2.73236730179762E-02
 cg2d: Sum(rhs),rhsMax =  -4.27602397934379E-11  2.69086860634219E-02
 cg2d: Sum(rhs),rhsMax =  -4.35036451307269E-11  2.64827786105542E-02
 cg2d: Sum(rhs),rhsMax =  -4.43169945185673E-11  2.60461151813563E-02
 cg2d: Sum(rhs),rhsMax =  -4.51901849274350E-11  2.55988630024790E-02
 cg2d: Sum(rhs),rhsMax =  -4.60974591831587E-11  2.51411919591428E-02
 cg2d: Sum(rhs),rhsMax =  -4.70565808541323E-11  2.46732745550662E-02
 cg2d: Sum(rhs),rhsMax =  -4.80612216691156E-11  2.41952858775222E-02
 cg2d: Sum(rhs),rhsMax =  -4.91220397691450E-11  2.37074035671349E-02
 cg2d: Sum(rhs),rhsMax =  -5.02706765104222E-11  2.32098077924237E-02
 cg2d: Sum(rhs),rhsMax =  -5.15082421159718E-11  2.27026812325760E-02
 cg2d: Sum(rhs),rhsMax =  -5.28133092814187E-11  2.21862090661846E-02
 cg2d: Sum(rhs),rhsMax =  -5.42118572255390E-11  2.16605789470994E-02
 cg2d: Sum(rhs),rhsMax =  -5.56888979375003E-11  2.11259809966696E-02
 cg2d: Sum(rhs),rhsMax =  -5.72876190929605E-11  2.05826078067554E-02
 cg2d: Sum(rhs),rhsMax =  -5.90043569559384E-11  2.00306544466337E-02
 cg2d: Sum(rhs),rhsMax =  -6.08457728645817E-11  1.94703184430711E-02
 cg2d: Sum(rhs),rhsMax =  -6.28127549973101E-11  1.89017998215605E-02
 cg2d: Sum(rhs),rhsMax =  -6.48647802137248E-11  1.83253011302157E-02
 cg2d: Sum(rhs),rhsMax =  -6.70312694239783E-11  1.77410274521570E-02
 cg2d: Sum(rhs),rhsMax =  -6.94302393355883E-11  1.71491864143033E-02
 cg2d: Sum(rhs),rhsMax =  -7.20363768635934E-11  1.65499882007681E-02
 cg2d: Sum(rhs),rhsMax =  -7.48486828072714E-11  1.59436455699173E-02
 cg2d: Sum(rhs),rhsMax =  -7.79120101768171E-11  1.53303738752027E-02
 cg2d: Sum(rhs),rhsMax =  -8.12558909046857E-11  1.47103910822680E-02
 cg2d: Sum(rhs),rhsMax =  -8.49720294127110E-11  1.40839178023742E-02
 cg2d: Sum(rhs),rhsMax =  -8.90681972620655E-11  1.34511773219262E-02
 cg2d: Sum(rhs),rhsMax =  -9.36128952133686E-11  1.28123956253718E-02
 cg2d: Sum(rhs),rhsMax =  -9.86849491013686E-11  1.21678014194516E-02
 cg2d: Sum(rhs),rhsMax =  -1.04395714295435E-10  1.15176261611205E-02
 cg2d: Sum(rhs),rhsMax =  -1.10789266649647E-10  1.08621040889404E-02
 cg2d: Sum(rhs),rhsMax =  -1.17989729098156E-10  1.02014722564745E-02
 cg2d: Sum(rhs),rhsMax =  -1.26289978474858E-10  9.53597056631297E-03
 cg2d: Sum(rhs),rhsMax =  -1.35871869311188E-10  8.86584180389554E-03
 cg2d: Sum(rhs),rhsMax =  -1.47109435744142E-10  8.19133167393501E-03
 cg2d: Sum(rhs),rhsMax =  -1.60464308507358E-10  7.51268884002832E-03
 cg2d: Sum(rhs),rhsMax =  -1.76553660580225E-10  6.83016494084040E-03
 cg2d: Sum(rhs),rhsMax =  -1.96335947499904E-10  6.14401461273896E-03
 cg2d: Sum(rhs),rhsMax =  -2.21230145314166E-10  5.45449551556721E-03
 cg2d: Sum(rhs),rhsMax =  -2.53540521910622E-10  4.76186835741094E-03
 cg2d: Sum(rhs),rhsMax =  -2.97052715758639E-10  4.06639691351285E-03
 cg2d: Sum(rhs),rhsMax =  -3.58633567287825E-10  3.36834803668290E-03
 cg2d: Sum(rhs),rhsMax =  -4.52897747083014E-10  2.66799165879444E-03
 cg2d: Sum(rhs),rhsMax =  -4.83284839231102E-10  2.50092692249060E-03
 cg2d: Sum(rhs),rhsMax =  -5.07166642016443E-10  2.38345580855071E-03
 cg2d: Sum(rhs),rhsMax =  -5.33440069894198E-10  2.26659589460106E-03
 cg2d: Sum(rhs),rhsMax =  -5.62363045020220E-10  2.15040205353838E-03
 cg2d: Sum(rhs),rhsMax =  -4.64462246441144E-10  2.60376535945855E-03
 cg2d: Sum(rhs),rhsMax =  -3.84140941278588E-10  3.14872934226956E-03
 cg2d: Sum(rhs),rhsMax =  -3.27128324428827E-10  3.69833963110877E-03
 cg2d: Sum(rhs),rhsMax =  -2.84258838689766E-10  4.25701041824509E-03
 cg2d: Sum(rhs),rhsMax =  -2.50960696668301E-10  4.82271798065895E-03
 cg2d: Sum(rhs),rhsMax =  -2.24386953462385E-10  5.39586615206652E-03
 cg2d: Sum(rhs),rhsMax =  -2.02577621344346E-10  5.97810746390327E-03
 cg2d: Sum(rhs),rhsMax =  -1.84510628997714E-10  6.56397685424753E-03
 cg2d: Sum(rhs),rhsMax =  -1.69554148499174E-10  7.14575601075734E-03
 cg2d: Sum(rhs),rhsMax =  -1.56948454232975E-10  7.72320678596560E-03
 cg2d: Sum(rhs),rhsMax =  -1.46185730187653E-10  8.29609397454086E-03
 cg2d: Sum(rhs),rhsMax =  -1.36840316855569E-10  8.86418537643210E-03
 cg2d: Sum(rhs),rhsMax =  -1.28744348515397E-10  9.42725184277935E-03
 cg2d: Sum(rhs),rhsMax =  -1.21345267167783E-10  1.00075410679607E-02
 cg2d: Sum(rhs),rhsMax =  -1.13526299472255E-10  1.06965857132711E-02
 cg2d: Sum(rhs),rhsMax =  -1.06750608352968E-10  1.13819527088645E-02
 cg2d: Sum(rhs),rhsMax =  -1.00783825729422E-10  1.20633197101635E-02
 cg2d: Sum(rhs),rhsMax =  -9.54611945047645E-11  1.27403631564167E-02
 cg2d: Sum(rhs),rhsMax =  -9.07504071889775E-11  1.34127584705139E-02
 cg2d: Sum(rhs),rhsMax =  -8.65448823716974E-11  1.40801802711325E-02
 cg2d: Sum(rhs),rhsMax =  -8.27231616540303E-11  1.47423025885720E-02
 cg2d: Sum(rhs),rhsMax =  -7.92921284187287E-11  1.53987990896350E-02
 cg2d: Sum(rhs),rhsMax =  -7.61656293590818E-11  1.60493433096540E-02
 cg2d: Sum(rhs),rhsMax =  -7.32962579519381E-11  1.66936088899373E-02
 cg2d: Sum(rhs),rhsMax =  -7.06675828965331E-11  1.73312698192501E-02
 cg2d: Sum(rhs),rhsMax =  -6.82536249740906E-11  1.79620006785528E-02
 cg2d: Sum(rhs),rhsMax =  -6.60345111924698E-11  1.85854768895051E-02
 cg2d: Sum(rhs),rhsMax =  -6.39971409199802E-11  1.92013749647639E-02
 cg2d: Sum(rhs),rhsMax =  -6.20764550873787E-11  1.98093727604417E-02
 cg2d: Sum(rhs),rhsMax =  -6.03020966494228E-11  2.04091497318672E-02
 cg2d: Sum(rhs),rhsMax =  -5.86729553830878E-11  2.10003871933143E-02
 cg2d: Sum(rhs),rhsMax =  -5.71451774789011E-11  2.15827685817957E-02
 cg2d: Sum(rhs),rhsMax =  -5.56904522497348E-11  2.21559797247487E-02
 cg2d: Sum(rhs),rhsMax =  -5.43499689698024E-11  2.27197091114519E-02
 cg2d: Sum(rhs),rhsMax =  -5.30890886807356E-11  2.32736481671062E-02
 cg2d: Sum(rhs),rhsMax =  -5.20106180346147E-11  2.38174915314086E-02
 cg2d: Sum(rhs),rhsMax =  -5.09983166807615E-11  2.43509373420044E-02
 cg2d: Sum(rhs),rhsMax =  -5.00235408651406E-11  2.48736875209250E-02
 cg2d: Sum(rhs),rhsMax =  -4.90980589518131E-11  2.53854480648931E-02
 cg2d: Sum(rhs),rhsMax =  -4.82405226875926E-11  2.58859293366402E-02
 cg2d: Sum(rhs),rhsMax =  -4.74499328717570E-11  2.63748463572764E-02
 cg2d: Sum(rhs),rhsMax =  -4.66724436876120E-11  2.68519191014910E-02
 cg2d: Sum(rhs),rhsMax =  -4.59549065467968E-11  2.73168727906056E-02
 cg2d: Sum(rhs),rhsMax =  -4.52956561147744E-11  2.77694381816575E-02
 cg2d: Sum(rhs),rhsMax =  -4.46527259612139E-11  2.82093518649649E-02
 cg2d: Sum(rhs),rhsMax =  -4.40587566430395E-11  2.86363565626840E-02
 cg2d: Sum(rhs),rhsMax =  -4.35164126955101E-11  2.90502014142208E-02
 cg2d: Sum(rhs),rhsMax =  -4.29979385430102E-11  2.94506422572779E-02
 cg2d: Sum(rhs),rhsMax =  -4.24598134429743E-11  2.98374419067820E-02
 cg2d: Sum(rhs),rhsMax =  -4.20052881366928E-11  3.02103704282006E-02
 cg2d: Sum(rhs),rhsMax =  -4.15395495778625E-11  3.05692054022626E-02
 cg2d: Sum(rhs),rhsMax =  -4.11265466127020E-11  3.09137321796635E-02
 cg2d: Sum(rhs),rhsMax =  -4.07566203008969E-11  3.12437441246485E-02
 cg2d: Sum(rhs),rhsMax =  -4.04485334115634E-11  3.15590428466558E-02
 cg2d: Sum(rhs),rhsMax =  -4.01620958712101E-11  3.18594384194091E-02
 cg2d: Sum(rhs),rhsMax =  -3.98882038510351E-11  3.21447495859465E-02
 cg2d: Sum(rhs),rhsMax =  -3.96320753992541E-11  3.24148039522408E-02
 cg2d: Sum(rhs),rhsMax =  -3.93676202747884E-11  3.26694381677073E-02
 cg2d: Sum(rhs),rhsMax =  -3.91540133648505E-11  3.29084980926043E-02
 cg2d: Sum(rhs),rhsMax =  -3.89417387225421E-11  3.31318389528604E-02
 cg2d: Sum(rhs),rhsMax =  -3.87503362730968E-11  3.33393254915165E-02
 cg2d: Sum(rhs),rhsMax =  -3.85756981913232E-11  3.35308320962634E-02
 cg2d: Sum(rhs),rhsMax =  -3.84080545146048E-11  3.37062429161597E-02
 cg2d: Sum(rhs),rhsMax =  -3.82961440337226E-11  3.38654519760327E-02
 cg2d: Sum(rhs),rhsMax =  -3.81686904304956E-11  3.40083632845502E-02
 cg2d: Sum(rhs),rhsMax =  -3.80706577374212E-11  3.41348909345879E-02
 cg2d: Sum(rhs),rhsMax =  -3.80084852480422E-11  3.42449591948392E-02
 cg2d: Sum(rhs),rhsMax =  -3.79296594132938E-11  3.43385025919836E-02
 cg2d: Sum(rhs),rhsMax =  -3.78710396375936E-11  3.44154659827698E-02
 cg2d: Sum(rhs),rhsMax =  -3.78609366080696E-11  3.44758046230876E-02
 cg2d: Sum(rhs),rhsMax =  -3.78267417389111E-11  3.45194842134919E-02
 cg2d: Sum(rhs),rhsMax =  -3.77979869625733E-11  3.45464809275112E-02
 cg2d: Sum(rhs),rhsMax =  -3.78300724079850E-11  3.45567814306919E-02
 cg2d: Sum(rhs),rhsMax =  -3.79954956386541E-11  3.45503828654143E-02
 cg2d: Sum(rhs),rhsMax =  -3.80466769200893E-11  3.45272928502838E-02
 cg2d: Sum(rhs),rhsMax =  -3.79989373300305E-11  3.44875294732988E-02
 cg2d: Sum(rhs),rhsMax =  -3.79899445235310E-11  3.44311212533397E-02
 cg2d: Sum(rhs),rhsMax =  -3.80485642992312E-11  3.43581070765847E-02
 cg2d: Sum(rhs),rhsMax =  -3.80407927380588E-11  3.42685361151716E-02
 cg2d: Sum(rhs),rhsMax =  -3.80829812129946E-11  3.41624677339091E-02
 cg2d: Sum(rhs),rhsMax =  -3.81137343907767E-11  3.40399714135197E-02
 cg2d: Sum(rhs),rhsMax =  -3.82408549270963E-11  3.39011266373633E-02
 cg2d: Sum(rhs),rhsMax =  -3.83649778612494E-11  3.37460227518801E-02
 cg2d: Sum(rhs),rhsMax =  -3.84983156465069E-11  3.35747588416050E-02
 cg2d: Sum(rhs),rhsMax =  -3.86690679476942E-11  3.33874436138521E-02
 cg2d: Sum(rhs),rhsMax =  -3.88299392639624E-11  3.31841952869046E-02
 cg2d: Sum(rhs),rhsMax =  -3.89837051528730E-11  3.29651414731741E-02
 cg2d: Sum(rhs),rhsMax =  -3.92091914491743E-11  3.27304190349880E-02
 cg2d: Sum(rhs),rhsMax =  -3.94315691210068E-11  3.24801739832068E-02
 cg2d: Sum(rhs),rhsMax =  -3.96482846554136E-11  3.22145613458182E-02
 cg2d: Sum(rhs),rhsMax =  -3.99217325863788E-11  3.19337450189526E-02
 cg2d: Sum(rhs),rhsMax =  -4.01810806849312E-11  3.16378976010434E-02
 cg2d: Sum(rhs),rhsMax =  -4.04877242843327E-11  3.13272002106934E-02
 cg2d: Sum(rhs),rhsMax =  -4.08578726407427E-11  3.10018422880152E-02
 cg2d: Sum(rhs),rhsMax =  -4.12551104389536E-11  3.06620213790913E-02
 cg2d: Sum(rhs),rhsMax =  -4.16593426422196E-11  3.03079429067532E-02
 cg2d: Sum(rhs),rhsMax =  -4.21295220931484E-11  2.99398199605688E-02
 cg2d: Sum(rhs),rhsMax =  -4.26099155959037E-11  2.95578729967239E-02
 cg2d: Sum(rhs),rhsMax =  -4.31423785585139E-11  2.91623295497850E-02
 cg2d: Sum(rhs),rhsMax =  -4.36648495139025E-11  2.87534239501449E-02
 cg2d: Sum(rhs),rhsMax =  -4.42674785716690E-11  2.83313970366471E-02
 cg2d: Sum(rhs),rhsMax =  -4.48666659380592E-11  2.78964959211423E-02
 cg2d: Sum(rhs),rhsMax =  -4.55326887305318E-11  2.74489737441441E-02
 cg2d: Sum(rhs),rhsMax =  -4.62064830841769E-11  2.69890894281630E-02
 cg2d: Sum(rhs),rhsMax =  -4.69393413027319E-11  2.65171074381461E-02
 cg2d: Sum(rhs),rhsMax =  -4.77377026797399E-11  2.60332975565683E-02
 cg2d: Sum(rhs),rhsMax =  -4.85538276251418E-11  2.55379346755260E-02
 cg2d: Sum(rhs),rhsMax =  -4.94599916578409E-11  2.50312986069635E-02
 cg2d: Sum(rhs),rhsMax =  -5.03735941848049E-11  2.45136739092847E-02
 cg2d: Sum(rhs),rhsMax =  -5.13897813192443E-11  2.39853497266729E-02
 cg2d: Sum(rhs),rhsMax =  -5.24761345488400E-11  2.34466196365913E-02
 cg2d: Sum(rhs),rhsMax =  -5.35999022943656E-11  2.28977815008482E-02
 cg2d: Sum(rhs),rhsMax =  -5.49007506123189E-11  2.23391373106171E-02
 cg2d: Sum(rhs),rhsMax =  -5.62585533714355E-11  2.17709930390507E-02
 cg2d: Sum(rhs),rhsMax =  -5.77466963136430E-11  2.11936584854440E-02
 cg2d: Sum(rhs),rhsMax =  -5.93666227288736E-11  2.06074470859111E-02
 cg2d: Sum(rhs),rhsMax =  -6.10609340867541E-11  2.00126757177216E-02
 cg2d: Sum(rhs),rhsMax =  -6.28888052744969E-11  1.94096644834351E-02
 cg2d: Sum(rhs),rhsMax =  -6.48734399533168E-11  1.87987364560191E-02
 cg2d: Sum(rhs),rhsMax =  -6.70461464125083E-11  1.81802174561308E-02
 cg2d: Sum(rhs),rhsMax =  -6.93486379432784E-11  1.75544357798448E-02
 cg2d: Sum(rhs),rhsMax =  -7.19019288553113E-11  1.69217218875869E-02
 cg2d: Sum(rhs),rhsMax =  -7.46388506556173E-11  1.62824080652266E-02
 cg2d: Sum(rhs),rhsMax =  -7.76626540854863E-11  1.56368280679887E-02
 cg2d: Sum(rhs),rhsMax =  -8.09521338851482E-11  1.49853167547667E-02
 cg2d: Sum(rhs),rhsMax =  -8.45848946440242E-11  1.43282097230146E-02
 cg2d: Sum(rhs),rhsMax =  -8.86003492794885E-11  1.36658429549183E-02
 cg2d: Sum(rhs),rhsMax =  -9.30395760434521E-11  1.29985524555040E-02
 cg2d: Sum(rhs),rhsMax =  -9.80193703981058E-11  1.23266739269564E-02
 cg2d: Sum(rhs),rhsMax =  -1.03679065333040E-10  1.16505424651351E-02
 cg2d: Sum(rhs),rhsMax =  -1.10078945958492E-10  1.09704922870497E-02
 cg2d: Sum(rhs),rhsMax =  -1.17353349260441E-10  1.02868564966778E-02
 cg2d: Sum(rhs),rhsMax =  -1.25661592242921E-10  9.59996689321463E-03
 cg2d: Sum(rhs),rhsMax =  -1.35357947073089E-10  8.91015382236563E-03
 cg2d: Sum(rhs),rhsMax =  -1.46690659619253E-10  8.21774606860613E-03
 cg2d: Sum(rhs),rhsMax =  -1.60164104201499E-10  7.52307078442961E-03
 cg2d: Sum(rhs),rhsMax =  -1.76419878705758E-10  6.82645346193829E-03
 cg2d: Sum(rhs),rhsMax =  -1.96481497738432E-10  6.12821790659778E-03
 cg2d: Sum(rhs),rhsMax =  -2.21674678613226E-10  5.42868623367510E-03
 cg2d: Sum(rhs),rhsMax =  -2.54422261036780E-10  4.72817888174714E-03
 cg2d: Sum(rhs),rhsMax =  -2.98662095055136E-10  4.02701462814883E-03
 cg2d: Sum(rhs),rhsMax =  -3.60781182706660E-10  3.33376015275389E-03
 cg2d: Sum(rhs),rhsMax =  -4.34704383600604E-10  2.76650868460430E-03
 cg2d: Sum(rhs),rhsMax =  -4.69665861757562E-10  2.56012585196682E-03
 cg2d: Sum(rhs),rhsMax =  -4.49381865053056E-10  2.67530872855240E-03
 cg2d: Sum(rhs),rhsMax =  -4.30726287969918E-10  2.79069766963018E-03
 cg2d: Sum(rhs),rhsMax =  -4.13490741646427E-10  2.90624070757278E-03
 cg2d: Sum(rhs),rhsMax =  -3.80141446099103E-10  3.16102080788811E-03
 cg2d: Sum(rhs),rhsMax =  -3.43393063984010E-10  3.49837599715101E-03
 cg2d: Sum(rhs),rhsMax =  -3.13202075385988E-10  3.83537613912783E-03
 cg2d: Sum(rhs),rhsMax =  -2.87862456094246E-10  4.17187146383988E-03
 cg2d: Sum(rhs),rhsMax =  -2.66362487622018E-10  4.50771194243839E-03
 cg2d: Sum(rhs),rhsMax =  -2.47680653764348E-10  4.84602667160478E-03
 cg2d: Sum(rhs),rhsMax =  -2.29674834706373E-10  5.22378456559968E-03
 cg2d: Sum(rhs),rhsMax =  -2.05396144536962E-10  5.84006348229409E-03
 cg2d: Sum(rhs),rhsMax =  -1.85473303382366E-10  6.46497040675774E-03
 cg2d: Sum(rhs),rhsMax =  -1.69041336484099E-10  7.09076622865281E-03
 cg2d: Sum(rhs),rhsMax =  -1.55133572654620E-10  7.72394329285066E-03
 cg2d: Sum(rhs),rhsMax =  -1.43254630380341E-10  8.36238439657815E-03
 cg2d: Sum(rhs),rhsMax =  -1.32908906103069E-10  9.00972197241696E-03
 cg2d: Sum(rhs),rhsMax =  -1.23930865569832E-10  9.66017650447682E-03
 cg2d: Sum(rhs),rhsMax =  -1.16154197371543E-10  1.03051105512587E-02
 cg2d: Sum(rhs),rhsMax =  -1.09342201959350E-10  1.09442646727646E-02
 cg2d: Sum(rhs),rhsMax =  -1.03318575916944E-10  1.15773832741078E-02
 cg2d: Sum(rhs),rhsMax =  -9.79251124633151E-11  1.22042146333526E-02
 cg2d: Sum(rhs),rhsMax =  -9.30568955226363E-11  1.28245109216346E-02
 cg2d: Sum(rhs),rhsMax =  -8.87152573625372E-11  1.34380282152616E-02
 cg2d: Sum(rhs),rhsMax =  -8.48136005870970E-11  1.40445264995088E-02
 cg2d: Sum(rhs),rhsMax =  -8.12339084887981E-11  1.46437696644764E-02
 cg2d: Sum(rhs),rhsMax =  -7.80133735389654E-11  1.52355254941648E-02
 cg2d: Sum(rhs),rhsMax =  -7.50587370035305E-11  1.58195656506424E-02
 cg2d: Sum(rhs),rhsMax =  -7.23610060759938E-11  1.63956656557862E-02
 cg2d: Sum(rhs),rhsMax =  -6.98739954785310E-11  1.69636048735575E-02
 cg2d: Sum(rhs),rhsMax =  -6.75373090786024E-11  1.75231664961280E-02
 cg2d: Sum(rhs),rhsMax =  -6.54635234909051E-11  1.80741375376161E-02
 cg2d: Sum(rhs),rhsMax =  -6.34717833847276E-11  1.86163088387348E-02
 cg2d: Sum(rhs),rhsMax =  -6.15846262874697E-11  1.91494750816118E-02
 cg2d: Sum(rhs),rhsMax =  -5.98056049128104E-11  1.96734348250330E-02
 cg2d: Sum(rhs),rhsMax =  -5.81735770666114E-11  2.01879905565296E-02
 cg2d: Sum(rhs),rhsMax =  -5.66272584379135E-11  2.06929487621738E-02
 cg2d: Sum(rhs),rhsMax =  -5.51781953461727E-11  2.11881200118194E-02
 cg2d: Sum(rhs),rhsMax =  -5.38188382748217E-11  2.16733190624383E-02
 cg2d: Sum(rhs),rhsMax =  -5.25672838591618E-11  2.21483649735772E-02
 cg2d: Sum(rhs),rhsMax =  -5.13771247767636E-11  2.26130812302919E-02
 cg2d: Sum(rhs),rhsMax =  -5.03108665839136E-11  2.30672958716074E-02
 cg2d: Sum(rhs),rhsMax =  -4.92570428889394E-11  2.35108416189772E-02
 cg2d: Sum(rhs),rhsMax =  -4.82713868876772E-11  2.39435559991506E-02
 cg2d: Sum(rhs),rhsMax =  -4.73507899556580E-11  2.43652814607075E-02
 cg2d: Sum(rhs),rhsMax =  -4.65124605497635E-11  2.47758654760606E-02
 cg2d: Sum(rhs),rhsMax =  -4.57032189871143E-11  2.51751606387144E-02
 cg2d: Sum(rhs),rhsMax =  -4.49408288361042E-11  2.55630247461667E-02
 cg2d: Sum(rhs),rhsMax =  -4.42216263607520E-11  2.59393208712008E-02
 cg2d: Sum(rhs),rhsMax =  -4.35500524531562E-11  2.63039174015597E-02
 cg2d: Sum(rhs),rhsMax =  -4.29127844370214E-11  2.66566880712952E-02
 cg2d: Sum(rhs),rhsMax =  -4.23224788548282E-11  2.69975119788626E-02
 cg2d: Sum(rhs),rhsMax =  -4.17670342756082E-11  2.73262735919660E-02
 cg2d: Sum(rhs),rhsMax =  -4.11642941955392E-11  2.76428627405209E-02
 cg2d: Sum(rhs),rhsMax =  -4.06180644674237E-11  2.79471745987642E-02
(PID.TID 0000.0001)      cg2d_init_res =   5.82550792614422E-02
(PID.TID 0000.0001)      cg2d_iters(min,last) =      -1      37
(PID.TID 0000.0001)      cg2d_last_res =   8.90132840767884E-14
(PID.TID 0000.0001) // =======================================================
(PID.TID 0000.0001) // Begin MONITOR dynamic field statistics
(PID.TID 0000.0001) // =======================================================
(PID.TID 0000.0001) %MON time_tsnumber                =                  2880
(PID.TID 0000.0001) %MON time_secondsf                =   4.3200000000000E+04
(PID.TID 0000.0001) %MON dynstat_eta_max              =   5.1470175730627E-03
(PID.TID 0000.0001) %MON dynstat_eta_min              =  -4.8721422326506E-03
(PID.TID 0000.0001) %MON dynstat_eta_mean             =   2.4983050613741E-15
(PID.TID 0000.0001) %MON dynstat_eta_sd               =   3.6628961326549E-03
(PID.TID 0000.0001) %MON dynstat_eta_del2             =   1.3539432105197E-06
(PID.TID 0000.0001) %MON dynstat_uvel_max             =   1.8325386079208E-01
(PID.TID 0000.0001) %MON dynstat_uvel_min             =  -1.2214280188635E-01
(PID.TID 0000.0001) %MON dynstat_uvel_mean            =   1.1363749566300E-01
(PID.TID 0000.0001) %MON dynstat_uvel_sd              =   6.3923963110438E-03
(PID.TID 0000.0001) %MON dynstat_uvel_del2            =   7.7793237717468E-05
(PID.TID 0000.0001) %MON dynstat_vvel_max             =   0.0000000000000E+00
(PID.TID 0000.0001) %MON dynstat_vvel_min             =   0.0000000000000E+00
(PID.TID 0000.0001) %MON dynstat_vvel_mean            =   0.0000000000000E+00
(PID.TID 0000.0001) %MON dynstat_vvel_sd              =   0.0000000000000E+00
(PID.TID 0000.0001) %MON dynstat_vvel_del2            =   0.0000000000000E+00
(PID.TID 0000.0001) %MON dynstat_wvel_max             =   4.3804620900232E-03
(PID.TID 0000.0001) %MON dynstat_wvel_min             =  -2.1886312608045E-03
(PID.TID 0000.0001) %MON dynstat_wvel_mean            =   5.2592518712914E-21
(PID.TID 0000.0001) %MON dynstat_wvel_sd              =   2.3295931300381E-04
(PID.TID 0000.0001) %MON dynstat_wvel_del2            =   7.5009078986729E-06
(PID.TID 0000.0001) %MON dynstat_theta_max            =   1.5000000000005E+01
(PID.TID 0000.0001) %MON dynstat_theta_min            =   9.9999999999943E+00
(PID.TID 0000.0001) %MON dynstat_theta_mean           =   1.1004804736893E+01
(PID.TID 0000.0001) %MON dynstat_theta_sd             =   1.9402012025182E+00
(PID.TID 0000.0001) %MON dynstat_theta_del2           =   1.4798546089874E-05
(PID.TID 0000.0001) %MON dynstat_salt_max             =   3.5000000000000E+01
(PID.TID 0000.0001) %MON dynstat_salt_min             =   3.5000000000000E+01
(PID.TID 0000.0001) %MON dynstat_salt_mean            =   3.5000000000000E+01
(PID.TID 0000.0001) %MON dynstat_salt_sd              =   4.0500935938326E-13
(PID.TID 0000.0001) %MON dynstat_salt_del2            =   0.0000000000000E+00
(PID.TID 0000.0001) %MON dynstat_sst_max              =   1.5000000000005E+01
(PID.TID 0000.0001) %MON dynstat_sst_min              =   1.5000000000000E+01
(PID.TID 0000.0001) %MON dynstat_sst_mean             =   1.5000000000004E+01
(PID.TID 0000.0001) %MON dynstat_sst_sd               =   1.9455504916203E-12
(PID.TID 0000.0001) %MON dynstat_sst_del2             =   1.3032448227262E-14
(PID.TID 0000.0001) %MON dynstat_sss_max              =   3.5000000000000E+01
(PID.TID 0000.0001) %MON dynstat_sss_min              =   3.5000000000000E+01
(PID.TID 0000.0001) %MON dynstat_sss_mean             =   3.5000000000000E+01
(PID.TID 0000.0001) %MON dynstat_sss_sd               =   4.2632564145606E-14
(PID.TID 0000.0001) %MON dynstat_sss_del2             =   0.0000000000000E+00
(PID.TID 0000.0001) %MON forcing_qnet_max             =   0.0000000000000E+00
(PID.TID 0000.0001) %MON forcing_qnet_min             =   0.0000000000000E+00
(PID.TID 0000.0001) %MON forcing_qnet_mean            =   0.0000000000000E+00
(PID.TID 0000.0001) %MON forcing_qnet_sd              =   0.0000000000000E+00
(PID.TID 0000.0001) %MON forcing_qnet_del2            =   0.0000000000000E+00
(PID.TID 0000.0001) %MON forcing_qsw_max              =   0.0000000000000E+00
(PID.TID 0000.0001) %MON forcing_qsw_min              =   0.0000000000000E+00
(PID.TID 0000.0001) %MON forcing_qsw_mean             =   0.0000000000000E+00
(PID.TID 0000.0001) %MON forcing_qsw_sd               =   0.0000000000000E+00
(PID.TID 0000.0001) %MON forcing_qsw_del2             =   0.0000000000000E+00
(PID.TID 0000.0001) %MON forcing_empmr_max            =   0.0000000000000E+00
(PID.TID 0000.0001) %MON forcing_empmr_min            =   0.0000000000000E+00
(PID.TID 0000.0001) %MON forcing_empmr_mean           =   0.0000000000000E+00
(PID.TID 0000.0001) %MON forcing_empmr_sd             =   0.0000000000000E+00
(PID.TID 0000.0001) %MON forcing_empmr_del2           =   0.0000000000000E+00
(PID.TID 0000.0001) %MON forcing_fu_max               =   0.0000000000000E+00
(PID.TID 0000.0001) %MON forcing_fu_min               =   0.0000000000000E+00
(PID.TID 0000.0001) %MON forcing_fu_mean              =   0.0000000000000E+00
(PID.TID 0000.0001) %MON forcing_fu_sd                =   0.0000000000000E+00
(PID.TID 0000.0001) %MON forcing_fu_del2              =   0.0000000000000E+00
(PID.TID 0000.0001) %MON forcing_fv_max               =   0.0000000000000E+00
(PID.TID 0000.0001) %MON forcing_fv_min               =   0.0000000000000E+00
(PID.TID 0000.0001) %MON forcing_fv_mean              =   0.0000000000000E+00
(PID.TID 0000.0001) %MON forcing_fv_sd                =   0.0000000000000E+00
(PID.TID 0000.0001) %MON forcing_fv_del2              =   0.0000000000000E+00
(PID.TID 0000.0001) %MON advcfl_uvel_max              =   1.2826923330803E-02
(PID.TID 0000.0001) %MON advcfl_vvel_max              =   0.0000000000000E+00
(PID.TID 0000.0001) %MON advcfl_wvel_max              =   6.5716235849092E-02
(PID.TID 0000.0001) %MON advcfl_W_hf_max              =   6.5725542983356E-02
(PID.TID 0000.0001) %MON pe_b_mean                    =   3.3253155899808E-07
(PID.TID 0000.0001) %MON ke_max                       =   1.3546904491341E-02
(PID.TID 0000.0001) %MON ke_mean                      =   6.4774910806590E-03
(PID.TID 0000.0001) %MON ke_vol                       =   9.6656886657870E+10
(PID.TID 0000.0001) %MON vort_r_min                   =   0.0000000000000E+00
(PID.TID 0000.0001) %MON vort_r_max                   =   0.0000000000000E+00
(PID.TID 0000.0001) %MON vort_a_mean                  =   0.0000000000000E+00
(PID.TID 0000.0001) %MON vort_a_sd                    =   0.0000000000000E+00
(PID.TID 0000.0001) %MON vort_p_mean                  =   0.0000000000000E+00
(PID.TID 0000.0001) %MON vort_p_sd                    =   0.0000000000000E+00
(PID.TID 0000.0001) %MON surfExpan_theta_mean         =   5.2373940800368E-19
(PID.TID 0000.0001) %MON surfExpan_salt_mean          =   2.2066887057222E-19
(PID.TID 0000.0001) // =======================================================
(PID.TID 0000.0001) // End MONITOR dynamic field statistics
(PID.TID 0000.0001) // =======================================================
(PID.TID 0000.0001) // =======================================================
(PID.TID 0000.0001) // Begin OBCS MONITOR field statistics
(PID.TID 0000.0001) // =======================================================
(PID.TID 0000.0001) %MON obc_E_uVel_max               =   1.1205712828732E-01
(PID.TID 0000.0001) %MON obc_E_uVel_min               =   1.1205712828732E-01
(PID.TID 0000.0001) %MON obc_E_uVel_mean              =   1.1205712828732E-01
(PID.TID 0000.0001) %MON obc_E_uVel_sd                =  -1.2143064331838E-17
(PID.TID 0000.0001) %MON obc_E_uVel_Int               =   1.1205712828732E+05
(PID.TID 0000.0001) %MON obc_W_uVel_max               =   1.1205712828732E-01
(PID.TID 0000.0001) %MON obc_W_uVel_min               =   1.1205712828732E-01
(PID.TID 0000.0001) %MON obc_W_uVel_mean              =   1.1205712828732E-01
(PID.TID 0000.0001) %MON obc_W_uVel_sd                =  -1.2143064331838E-17
(PID.TID 0000.0001) %MON obc_W_uVel_Int               =   1.1205712828732E+05
(PID.TID 0000.0001) // =======================================================
(PID.TID 0000.0001) // End OBCS MONITOR field statistics
(PID.TID 0000.0001) // =======================================================
(PID.TID 0000.0001) %CHECKPOINT      2880 0000002880
 cg2d: Sum(rhs),rhsMax =  -4.01034760955099E-11  2.82391096573211E-02
 cg2d: Sum(rhs),rhsMax =  -3.96364052690501E-11  2.85185736861955E-02
 cg2d: Sum(rhs),rhsMax =  -3.91811028066513E-11  2.87854776898837E-02
 cg2d: Sum(rhs),rhsMax =  -3.87478937824426E-11  2.90397378560236E-02
 cg2d: Sum(rhs),rhsMax =  -3.83829634742483E-11  2.92812754991843E-02
 cg2d: Sum(rhs),rhsMax =  -3.80114828502087E-11  2.95100170059813E-02
 cg2d: Sum(rhs),rhsMax =  -3.76657594003404E-11  2.97258937746390E-02
 cg2d: Sum(rhs),rhsMax =  -3.73634456707350E-11  2.99288421494699E-02
 cg2d: Sum(rhs),rhsMax =  -3.70733443944005E-11  3.01188033630373E-02
 cg2d: Sum(rhs),rhsMax =  -3.67693653302581E-11  3.02957234863692E-02
 cg2d: Sum(rhs),rhsMax =  -3.65555363757153E-11  3.04595533884487E-02
 cg2d: Sum(rhs),rhsMax =  -3.63470364916907E-11  3.06102487074951E-02
 cg2d: Sum(rhs),rhsMax =  -3.60507179664182E-11  3.07477698318627E-02
 cg2d: Sum(rhs),rhsMax =  -3.58105767261918E-11  3.08720818913380E-02
 cg2d: Sum(rhs),rhsMax =  -3.55493412484975E-11  3.09831547593808E-02
 cg2d: Sum(rhs),rhsMax =  -3.52898821276426E-11  3.10809630660765E-02
 cg2d: Sum(rhs),rhsMax =  -3.50711681917915E-11  3.11654862209746E-02
 cg2d: Sum(rhs),rhsMax =  -3.51086937300238E-11  3.12367084507855E-02
 cg2d: Sum(rhs),rhsMax =  -3.51411122423428E-11  3.12946188245914E-02
 cg2d: Sum(rhs),rhsMax =  -3.51251250307882E-11  3.13392112848292E-02
 cg2d: Sum(rhs),rhsMax =  -3.52019524640923E-11  3.13704846658366E-02
 cg2d: Sum(rhs),rhsMax =  -3.53274076658749E-11  3.13884427279577E-02
 cg2d: Sum(rhs),rhsMax =  -3.53322926471833E-11  3.13930942017954E-02
 cg2d: Sum(rhs),rhsMax =  -3.54034579430618E-11  3.13844528135901E-02
 cg2d: Sum(rhs),rhsMax =  -3.54608564734349E-11  3.13625372948828E-02
 cg2d: Sum(rhs),rhsMax =  -3.55908635896185E-11  3.13273713789589E-02
 cg2d: Sum(rhs),rhsMax =  -3.57001095352416E-11  3.12789837899108E-02
 cg2d: Sum(rhs),rhsMax =  -3.58086893470499E-11  3.12174082262993E-02
 cg2d: Sum(rhs),rhsMax =  -3.59801077820521E-11  3.11426833667193E-02
 cg2d: Sum(rhs),rhsMax =  -3.61590757336216E-11  3.10548528275457E-02
 cg2d: Sum(rhs),rhsMax =  -3.63686858406709E-11  3.09539651107862E-02
 cg2d: Sum(rhs),rhsMax =  -3.65251162648406E-11  3.08400735611670E-02
 cg2d: Sum(rhs),rhsMax =  -3.67534891410060E-11  3.07132363271847E-02
 cg2d: Sum(rhs),rhsMax =  -3.69546615530680E-11  3.05735163201124E-02
 cg2d: Sum(rhs),rhsMax =  -3.71787045594374E-11  3.04209811674450E-02
 cg2d: Sum(rhs),rhsMax =  -3.74394959479218E-11  3.02557031611087E-02
 cg2d: Sum(rhs),rhsMax =  -3.77086140090910E-11  3.00777591860947E-02
 cg2d: Sum(rhs),rhsMax =  -3.80195874782885E-11  2.98872306332366E-02
 cg2d: Sum(rhs),rhsMax =  -3.83637566159223E-11  2.96842033229923E-02
 cg2d: Sum(rhs),rhsMax =  -3.86897180959522E-11  2.94687674415258E-02
 cg2d: Sum(rhs),rhsMax =  -3.90979471021069E-11  2.92410174621144E-02
 cg2d: Sum(rhs),rhsMax =  -3.94750898635721E-11  2.90010520565114E-02
 cg2d: Sum(rhs),rhsMax =  -3.99050792410094E-11  2.87489740031932E-02
 cg2d: Sum(rhs),rhsMax =  -4.03757027811480E-11  2.84848900978917E-02
 cg2d: Sum(rhs),rhsMax =  -4.08858502609633E-11  2.82089110687416E-02
 cg2d: Sum(rhs),rhsMax =  -4.14218659372523E-11  2.79211515012915E-02
 cg2d: Sum(rhs),rhsMax =  -4.19679846430654E-11  2.76217297743768E-02
 cg2d: Sum(rhs),rhsMax =  -4.24907886653614E-11  2.73107680282854E-02
 cg2d: Sum(rhs),rhsMax =  -4.30542268503586E-11  2.69883920881152E-02
 cg2d: Sum(rhs),rhsMax =  -4.36254365965283E-11  2.66547314337108E-02
 cg2d: Sum(rhs),rhsMax =  -4.42532677169538E-11  2.63099191872350E-02
 cg2d: Sum(rhs),rhsMax =  -4.49363879440057E-11  2.59540920974167E-02
 cg2d: Sum(rhs),rhsMax =  -4.56350512934023E-11  2.55873905288142E-02
 cg2d: Sum(rhs),rhsMax =  -4.63956650875730E-11  2.52099584555367E-02
 cg2d: Sum(rhs),rhsMax =  -4.72071270962715E-11  2.48219434550081E-02
 cg2d: Sum(rhs),rhsMax =  -4.80322448481729E-11  2.44234966999937E-02
 cg2d: Sum(rhs),rhsMax =  -4.89265294945085E-11  2.40147729476689E-02
 cg2d: Sum(rhs),rhsMax =  -4.98890928568585E-11  2.35959305244997E-02
 cg2d: Sum(rhs),rhsMax =  -5.08888486905335E-11  2.31671313057957E-02
 cg2d: Sum(rhs),rhsMax =  -5.19561060841056E-11  2.27285406892053E-02
 cg2d: Sum(rhs),rhsMax =  -5.31070742937345E-11  2.22803275620601E-02
 cg2d: Sum(rhs),rhsMax =  -5.43265432639828E-11  2.18226642631588E-02
 cg2d: Sum(rhs),rhsMax =  -5.56057422329559E-11  2.13557265434065E-02
 cg2d: Sum(rhs),rhsMax =  -5.70131719612732E-11  2.08796935235004E-02
 cg2d: Sum(rhs),rhsMax =  -5.84681192350445E-11  2.03947476343538E-02
 cg2d: Sum(rhs),rhsMax =  -6.00450800192220E-11  1.99010745679772E-02
 cg2d: Sum(rhs),rhsMax =  -6.17248474554799E-11  1.93988632351183E-02
 cg2d: Sum(rhs),rhsMax =  -6.35437258367233E-11  1.88883057255323E-02
 cg2d: Sum(rhs),rhsMax =  -6.54625242901830E-11  1.83695972692040E-02
 cg2d: Sum(rhs),rhsMax =  -6.74690303625880E-11  1.78429361879141E-02
 cg2d: Sum(rhs),rhsMax =  -6.95951074547452E-11  1.73085238506549E-02
 cg2d: Sum(rhs),rhsMax =  -7.18990422754473E-11  1.67665646678330E-02
 cg2d: Sum(rhs),rhsMax =  -7.44236894334449E-11  1.62172660706979E-02
 cg2d: Sum(rhs),rhsMax =  -7.71376296171411E-11  1.56608384858667E-02
 cg2d: Sum(rhs),rhsMax =  -8.01143595907661E-11  1.50974953107219E-02
 cg2d: Sum(rhs),rhsMax =  -8.33464408600548E-11  1.45274528936184E-02
 cg2d: Sum(rhs),rhsMax =  -8.68556337962900E-11  1.39509305138485E-02
 cg2d: Sum(rhs),rhsMax =  -9.07380837134042E-11  1.33681503772998E-02
 cg2d: Sum(rhs),rhsMax =  -9.49935685667924E-11  1.27793376152024E-02
 cg2d: Sum(rhs),rhsMax =  -9.97389948409477E-11  1.21847202790213E-02
 cg2d: Sum(rhs),rhsMax =  -1.05003672423720E-10  1.15845293341222E-02
 cg2d: Sum(rhs),rhsMax =  -1.10918052520503E-10  1.09789986536079E-02
 cg2d: Sum(rhs),rhsMax =  -1.17564513679724E-10  1.03683650126348E-02
 cg2d: Sum(rhs),rhsMax =  -1.25017995955545E-10  9.75286808009699E-03
 cg2d: Sum(rhs),rhsMax =  -1.33561717241548E-10  9.13275040670671E-03
 cg2d: Sum(rhs),rhsMax =  -1.43410283648393E-10  8.50825740898192E-03
 cg2d: Sum(rhs),rhsMax =  -1.54844359556705E-10  7.87963734775790E-03
 cg2d: Sum(rhs),rhsMax =  -1.68421609991753E-10  7.24714129991446E-03
 cg2d: Sum(rhs),rhsMax =  -1.84698478733480E-10  6.61102312843094E-03
 cg2d: Sum(rhs),rhsMax =  -2.04523953328817E-10  5.97153943293409E-03
 cg2d: Sum(rhs),rhsMax =  -2.29276375662835E-10  5.32894948842313E-03
 cg2d: Sum(rhs),rhsMax =  -2.61005994595109E-10  4.68351518629741E-03
 cg2d: Sum(rhs),rhsMax =  -3.03009617397265E-10  4.03550097278300E-03
 cg2d: Sum(rhs),rhsMax =  -3.61299601348009E-10  3.38517378098047E-03
 cg2d: Sum(rhs),rhsMax =  -3.96692345638883E-10  3.08382739864035E-03
 cg2d: Sum(rhs),rhsMax =  -4.14246220659109E-10  2.95349490075091E-03
 cg2d: Sum(rhs),rhsMax =  -4.33344307486372E-10  2.82340155351943E-03
 cg2d: Sum(rhs),rhsMax =  -4.54295240315261E-10  2.69360894711614E-03
 cg2d: Sum(rhs),rhsMax =  -4.77276662635973E-10  2.56417547977980E-03
 cg2d: Sum(rhs),rhsMax =  -5.02633157317689E-10  2.43516309475046E-03
 cg2d: Sum(rhs),rhsMax =  -5.00889774102120E-10  2.44419082183458E-03
 cg2d: Sum(rhs),rhsMax =  -4.16052858831506E-10  2.94328615290854E-03
 cg2d: Sum(rhs),rhsMax =  -3.55342311131324E-10  3.44675763993120E-03
 cg2d: Sum(rhs),rhsMax =  -3.09483549898459E-10  3.95817483539521E-03
 cg2d: Sum(rhs),rhsMax =  -2.73646105775072E-10  4.47672261995189E-03
 cg2d: Sum(rhs),rhsMax =  -2.44985254305163E-10  5.00237492814284E-03
 cg2d: Sum(rhs),rhsMax =  -2.21465512595387E-10  5.53664930643771E-03
 cg2d: Sum(rhs),rhsMax =  -2.01961225521075E-10  6.07332757018644E-03
 cg2d: Sum(rhs),rhsMax =  -1.85726767298888E-10  6.60636261568546E-03
 cg2d: Sum(rhs),rhsMax =  -1.70971570234713E-10  7.17977071040396E-03
 cg2d: Sum(rhs),rhsMax =  -1.57626689478718E-10  7.79096724943832E-03
 cg2d: Sum(rhs),rhsMax =  -1.46066825301716E-10  8.40807964409148E-03
 cg2d: Sum(rhs),rhsMax =  -1.35927491484722E-10  9.04009590240784E-03
 cg2d: Sum(rhs),rhsMax =  -1.26975430170262E-10  9.67754659492022E-03
 cg2d: Sum(rhs),rhsMax =  -1.19236509554810E-10  1.03112849716598E-02
 cg2d: Sum(rhs),rhsMax =  -1.12389653139644E-10  1.09410130429567E-02
 cg2d: Sum(rhs),rhsMax =  -1.06343933659048E-10  1.15664328550805E-02
 cg2d: Sum(rhs),rhsMax =  -1.01068153846029E-10  1.21872466600372E-02
 cg2d: Sum(rhs),rhsMax =  -9.62989687991467E-11  1.28031570928311E-02
 cg2d: Sum(rhs),rhsMax =  -9.19861964376878E-11  1.34138673557420E-02
 cg2d: Sum(rhs),rhsMax =  -8.81162920407519E-11  1.40190814089349E-02
 cg2d: Sum(rhs),rhsMax =  -8.45716829900311E-11  1.46185041668335E-02
 cg2d: Sum(rhs),rhsMax =  -8.13349387840390E-11  1.52118416999132E-02
 cg2d: Sum(rhs),rhsMax =  -7.84087239580344E-11  1.57988014417154E-02
 cg2d: Sum(rhs),rhsMax =  -7.57137685880593E-11  1.63790924009133E-02
 cg2d: Sum(rhs),rhsMax =  -7.32004457049129E-11  1.69524253781770E-02
 cg2d: Sum(rhs),rhsMax =  -7.09026171108462E-11  1.75185131874546E-02
 cg2d: Sum(rhs),rhsMax =  -6.87661039222576E-11  1.80770708818634E-02
 cg2d: Sum(rhs),rhsMax =  -6.67964572542701E-11  1.86278159820573E-02
 cg2d: Sum(rhs),rhsMax =  -6.49670317542927E-11  1.91704687064521E-02
 cg2d: Sum(rhs),rhsMax =  -6.32526253596666E-11  1.97047522034838E-02
 cg2d: Sum(rhs),rhsMax =  -6.16564577171630E-11  2.02303927853886E-02
 cg2d: Sum(rhs),rhsMax =  -6.01609873029929E-11  2.07471201620571E-02
 cg2d: Sum(rhs),rhsMax =  -5.87682125186006E-11  2.12546676718741E-02
 cg2d: Sum(rhs),rhsMax =  -5.75463010576982E-11  2.17527725089161E-02
 cg2d: Sum(rhs),rhsMax =  -5.63896707106437E-11  2.22411759443586E-02
 cg2d: Sum(rhs),rhsMax =  -5.53125323321524E-11  2.27196235361138E-02
 cg2d: Sum(rhs),rhsMax =  -5.42614841947398E-11  2.31878653232216E-02
 cg2d: Sum(rhs),rhsMax =  -5.33237898281413E-11  2.36456560094117E-02
 cg2d: Sum(rhs),rhsMax =  -5.24176257954423E-11  2.40927551263137E-02
 cg2d: Sum(rhs),rhsMax =  -5.15840703485537E-11  2.45289271785988E-02
 cg2d: Sum(rhs),rhsMax =  -5.08183495284698E-11  2.49539417710111E-02
 cg2d: Sum(rhs),rhsMax =  -5.00534058645030E-11  2.53675737189646E-02
 cg2d: Sum(rhs),rhsMax =  -4.93569629611557E-11  2.57696031461584E-02
 cg2d: Sum(rhs),rhsMax =  -4.86669593513511E-11  2.61598155742719E-02
 cg2d: Sum(rhs),rhsMax =  -4.80462336582832E-11  2.65380020109710E-02
 cg2d: Sum(rhs),rhsMax =  -4.74726924437618E-11  2.69039590430381E-02
 cg2d: Sum(rhs),rhsMax =  -4.69038141659439E-11  2.72574889396894E-02
 cg2d: Sum(rhs),rhsMax =  -4.63865612587711E-11  2.75983997782925E-02
 cg2d: Sum(rhs),rhsMax =  -4.58840743178257E-11  2.79265055921835E-02
 cg2d: Sum(rhs),rhsMax =  -4.54295490115442E-11  2.82416265439036E-02
 cg2d: Sum(rhs),rhsMax =  -4.49991155448970E-11  2.85435891251307E-02
 cg2d: Sum(rhs),rhsMax =  -4.46691572619784E-11  2.88322263820856E-02
 cg2d: Sum(rhs),rhsMax =  -4.43460823618125E-11  2.91073781624798E-02
 cg2d: Sum(rhs),rhsMax =  -4.40562031300828E-11  2.93688913776268E-02
 cg2d: Sum(rhs),rhsMax =  -4.37369029882007E-11  2.96166202715420E-02
 cg2d: Sum(rhs),rhsMax =  -4.34677849270315E-11  2.98504266878279E-02
 cg2d: Sum(rhs),rhsMax =  -4.32341940026504E-11  3.00701803243171E-02
 cg2d: Sum(rhs),rhsMax =  -4.29913882271649E-11  3.02757589738400E-02
 cg2d: Sum(rhs),rhsMax =  -4.28045376921204E-11  3.04670487362700E-02
 cg2d: Sum(rhs),rhsMax =  -4.25963708750032E-11  3.06439441880167E-02
 cg2d: Sum(rhs),rhsMax =  -4.24229540385568E-11  3.08063485206218E-02
 cg2d: Sum(rhs),rhsMax =  -4.22860635396205E-11  3.09541736469218E-02
 cg2d: Sum(rhs),rhsMax =  -4.21382928550429E-11  3.10873402749083E-02
 cg2d: Sum(rhs),rhsMax =  -4.20609103102265E-11  3.12057779511670E-02
 cg2d: Sum(rhs),rhsMax =  -4.20266044187656E-11  3.13094250775495E-02
 cg2d: Sum(rhs),rhsMax =  -4.19249079897099E-11  3.13982289059976E-02
 cg2d: Sum(rhs),rhsMax =  -4.18720613737378E-11  3.14721455169516E-02
 cg2d: Sum(rhs),rhsMax =  -4.18244328059814E-11  3.15311397896309E-02
 cg2d: Sum(rhs),rhsMax =  -4.18224344045370E-11  3.15751853683266E-02
 cg2d: Sum(rhs),rhsMax =  -4.18032275462110E-11  3.16042646125684E-02
 cg2d: Sum(rhs),rhsMax =  -4.18012291447667E-11  3.16183685469217E-02
 cg2d: Sum(rhs),rhsMax =  -4.19160262055129E-11  3.16174968035902E-02
 cg2d: Sum(rhs),rhsMax =  -4.18247658728887E-11  3.16016576107847E-02
 cg2d: Sum(rhs),rhsMax =  -4.17782475281570E-11  3.15708677707842E-02
 cg2d: Sum(rhs),rhsMax =  -4.18096668397538E-11  3.15251526274804E-02
 cg2d: Sum(rhs),rhsMax =  -4.18191037354632E-11  3.14645460273765E-02
 cg2d: Sum(rhs),rhsMax =  -4.18619583442137E-11  3.13890902770454E-02
 cg2d: Sum(rhs),rhsMax =  -4.18808321356323E-11  3.12988360998721E-02
 cg2d: Sum(rhs),rhsMax =  -4.19411172458695E-11  3.11938426218978E-02
 cg2d: Sum(rhs),rhsMax =  -4.20511403476098E-11  3.10741772833745E-02
 cg2d: Sum(rhs),rhsMax =  -4.21802592853737E-11  3.09399157613358E-02
 cg2d: Sum(rhs),rhsMax =  -4.23251433900873E-11  3.07911418976080E-02
 cg2d: Sum(rhs),rhsMax =  -4.25152135719031E-11  3.06279476254968E-02
 cg2d: Sum(rhs),rhsMax =  -4.26819690702018E-11  3.04504328888053E-02
 cg2d: Sum(rhs),rhsMax =  -4.28889146419920E-11  3.02587055497700E-02
 cg2d: Sum(rhs),rhsMax =  -4.31473745621247E-11  3.00528812881469E-02
 cg2d: Sum(rhs),rhsMax =  -4.33673097433029E-11  2.98330834585655E-02
 cg2d: Sum(rhs),rhsMax =  -4.35975699986102E-11  2.95994429907467E-02
 cg2d: Sum(rhs),rhsMax =  -4.38835634497536E-11  2.93520982708131E-02
 cg2d: Sum(rhs),rhsMax =  -4.41755521052301E-11  2.90911950087438E-02
 cg2d: Sum(rhs),rhsMax =  -4.44918546449458E-11  2.88168860953440E-02
 cg2d: Sum(rhs),rhsMax =  -4.49028592086620E-11  2.85293314527580E-02
 cg2d: Sum(rhs),rhsMax =  -4.53277415601860E-11  2.82286978813850E-02
 cg2d: Sum(rhs),rhsMax =  -4.57813786880479E-11  2.79151589045298E-02
 cg2d: Sum(rhs),rhsMax =  -4.62649918375746E-11  2.75888946109951E-02
 cg2d: Sum(rhs),rhsMax =  -4.67851313246115E-11  2.72500915261529E-02
 cg2d: Sum(rhs),rhsMax =  -4.73112660159813E-11  2.68989424277377E-02
 cg2d: Sum(rhs),rhsMax =  -4.78864725650396E-11  2.65356461363619E-02
 cg2d: Sum(rhs),rhsMax =  -4.85188555998661E-11  2.61604073567664E-02
 cg2d: Sum(rhs),rhsMax =  -4.91793272772156E-11  2.57734365306467E-02
 cg2d: Sum(rhs),rhsMax =  -4.98805441395689E-11  2.53749496687307E-02
 cg2d: Sum(rhs),rhsMax =  -5.05986363918964E-11  2.49651681739887E-02
 cg2d: Sum(rhs),rhsMax =  -5.14003284379783E-11  2.45443186599994E-02
 cg2d: Sum(rhs),rhsMax =  -5.22284437920462E-11  2.41126327663084E-02
 cg2d: Sum(rhs),rhsMax =  -5.31115151858330E-11  2.36703469715216E-02
 cg2d: Sum(rhs),rhsMax =  -5.40369970991605E-11  2.32177024053400E-02
 cg2d: Sum(rhs),rhsMax =  -5.50430812040759E-11  2.27549446598966E-02
 cg2d: Sum(rhs),rhsMax =  -5.61283242106470E-11  2.22823236001870E-02
 cg2d: Sum(rhs),rhsMax =  -5.72440983503952E-11  2.18000931732602E-02
 cg2d: Sum(rhs),rhsMax =  -5.84533532688170E-11  2.13085112160502E-02
 cg2d: Sum(rhs),rhsMax =  -5.97174532046552E-11  2.08078392620346E-02
 cg2d: Sum(rhs),rhsMax =  -6.11808381734136E-11  2.02983423560136E-02
 cg2d: Sum(rhs),rhsMax =  -6.27360385863085E-11  1.97802888498647E-02
 cg2d: Sum(rhs),rhsMax =  -6.43667341648779E-11  1.92539502018563E-02
 cg2d: Sum(rhs),rhsMax =  -6.61793952971834E-11  1.87196007848954E-02
 cg2d: Sum(rhs),rhsMax =  -6.81092959808893E-11  1.81775176945071E-02
 cg2d: Sum(rhs),rhsMax =  -7.02066182967087E-11  1.76279805631843E-02
 cg2d: Sum(rhs),rhsMax =  -7.24444948474456E-11  1.70712713509942E-02
 cg2d: Sum(rhs),rhsMax =  -7.48214823431681E-11  1.65076741723520E-02
 cg2d: Sum(rhs),rhsMax =  -7.74249553359141E-11  1.59374751245912E-02
 cg2d: Sum(rhs),rhsMax =  -8.02552468925910E-11  1.53609621034099E-02
 cg2d: Sum(rhs),rhsMax =  -8.33552116219494E-11  1.47784246133490E-02
 cg2d: Sum(rhs),rhsMax =  -8.67391714010068E-11  1.41901535801894E-02
 cg2d: Sum(rhs),rhsMax =  -9.04314401140027E-11  1.35964411697423E-02
 cg2d: Sum(rhs),rhsMax =  -9.45357125914370E-11  1.29975806089403E-02
 cg2d: Sum(rhs),rhsMax =  -9.90409976253659E-11  1.23938660156065E-02
 cg2d: Sum(rhs),rhsMax =  -1.04049657778660E-10  1.17855922358139E-02
 cg2d: Sum(rhs),rhsMax =  -1.09671938197664E-10  1.11730546808495E-02
 cg2d: Sum(rhs),rhsMax =  -1.15997211835861E-10  1.05565491659353E-02
 cg2d: Sum(rhs),rhsMax =  -1.23175913913087E-10  9.93637175227472E-03
 cg2d: Sum(rhs),rhsMax =  -1.31394450875177E-10  9.31281859557832E-03
 cg2d: Sum(rhs),rhsMax =  -1.40849221175188E-10  8.68618579601243E-03
 cg2d: Sum(rhs),rhsMax =  -1.51778256629598E-10  8.05676924718571E-03
 cg2d: Sum(rhs),rhsMax =  -1.64664837321027E-10  7.42486449098134E-03
 cg2d: Sum(rhs),rhsMax =  -1.80011228145815E-10  6.79076657690973E-03
 cg2d: Sum(rhs),rhsMax =  -1.98545513363513E-10  6.15476992583369E-03
 cg2d: Sum(rhs),rhsMax =  -2.21433760216883E-10  5.51716820409231E-03
 cg2d: Sum(rhs),rhsMax =  -2.50381937405564E-10  4.87825417621716E-03
 cg2d: Sum(rhs),rhsMax =  -2.88072232734748E-10  4.23831957315614E-03
 cg2d: Sum(rhs),rhsMax =  -3.39281602812491E-10  3.59765497130006E-03
 cg2d: Sum(rhs),rhsMax =  -4.12830769569439E-10  2.95654967621258E-03
 cg2d: Sum(rhs),rhsMax =  -4.50382509065150E-10  2.70952454010290E-03
 cg2d: Sum(rhs),rhsMax =  -4.28215907177787E-10  2.84954071166766E-03
 cg2d: Sum(rhs),rhsMax =  -4.08063860479757E-10  2.98967611305607E-03
 cg2d: Sum(rhs),rhsMax =  -3.89692889068982E-10  3.12986708350198E-03
 cg2d: Sum(rhs),rhsMax =  -3.72949060523098E-10  3.27004958601070E-03
 cg2d: Sum(rhs),rhsMax =  -3.45494605147323E-10  3.52956233440916E-03
 cg2d: Sum(rhs),rhsMax =  -3.13874537472003E-10  3.88450858922146E-03
 cg2d: Sum(rhs),rhsMax =  -2.87552426314619E-10  4.23903036046513E-03
 cg2d: Sum(rhs),rhsMax =  -2.65340194260943E-10  4.59296883597214E-03
 cg2d: Sum(rhs),rhsMax =  -2.46311970819590E-10  4.94616495205560E-03
 cg2d: Sum(rhs),rhsMax =  -2.29860686040695E-10  5.29845945295514E-03
 cg2d: Sum(rhs),rhsMax =  -2.15550688409394E-10  5.64969292287055E-03
 cg2d: Sum(rhs),rhsMax =  -2.02926342396381E-10  5.99970590061032E-03
 cg2d: Sum(rhs),rhsMax =  -1.91446303254850E-10  6.35614572833257E-03
 cg2d: Sum(rhs),rhsMax =  -1.81059278681062E-10  6.72008831000371E-03
 cg2d: Sum(rhs),rhsMax =  -1.69923297654861E-10  7.15795336958212E-03
 cg2d: Sum(rhs),rhsMax =  -1.56998303246780E-10  7.74426799153834E-03
 cg2d: Sum(rhs),rhsMax =  -1.45734091461236E-10  8.33925520404121E-03
 cg2d: Sum(rhs),rhsMax =  -1.35976674364713E-10  8.93619922524024E-03
 cg2d: Sum(rhs),rhsMax =  -1.27510668690434E-10  9.52821530657628E-03
 cg2d: Sum(rhs),rhsMax =  -1.20070176024001E-10  1.01150623027282E-02
 cg2d: Sum(rhs),rhsMax =  -1.13512643729052E-10  1.06965022489208E-02
 cg2d: Sum(rhs),rhsMax =  -1.07624797962558E-10  1.12723004338023E-02
 cg2d: Sum(rhs),rhsMax =  -1.02319819283991E-10  1.18422254628297E-02
 cg2d: Sum(rhs),rhsMax =  -9.75708402961573E-11  1.24060493186748E-02
 cg2d: Sum(rhs),rhsMax =  -9.32953714283258E-11  1.29635474175892E-02
 cg2d: Sum(rhs),rhsMax =  -8.94148088903535E-11  1.35144986604137E-02
 cg2d: Sum(rhs),rhsMax =  -8.58623172561579E-11  1.40586854775136E-02
 cg2d: Sum(rhs),rhsMax =  -8.26465562653311E-11  1.45958938678194E-02
 cg2d: Sum(rhs),rhsMax =  -7.96704924255209E-11  1.51259134329027E-02
 cg2d: Sum(rhs),rhsMax =  -7.69326824467953E-11  1.56485374073920E-02
 cg2d: Sum(rhs),rhsMax =  -7.43839434491633E-11  1.61635626871797E-02
 cg2d: Sum(rhs),rhsMax =  -7.20927761932444E-11  1.66707898567834E-02
 cg2d: Sum(rhs),rhsMax =  -6.99140745297200E-11  1.71700232170170E-02
 cg2d: Sum(rhs),rhsMax =  -6.79076794796174E-11  1.76610708148171E-02
 cg2d: Sum(rhs),rhsMax =  -6.59681198555973E-11  1.81437444738233E-02
 cg2d: Sum(rhs),rhsMax =  -6.41479092067243E-11  1.86178598271150E-02
 cg2d: Sum(rhs),rhsMax =  -6.24567064733128E-11  1.90832363507578E-02
 cg2d: Sum(rhs),rhsMax =  -6.09037265064671E-11  1.95396974060450E-02
 cg2d: Sum(rhs),rhsMax =  -5.94225779693147E-11  1.99870702870640E-02
 cg2d: Sum(rhs),rhsMax =  -5.80226977575649E-11  2.04251862704300E-02
 cg2d: Sum(rhs),rhsMax =  -5.67407232310302E-11  2.08538806647775E-02
 cg2d: Sum(rhs),rhsMax =  -5.55303580895838E-11  2.12729928549200E-02
 cg2d: Sum(rhs),rhsMax =  -5.44008171843302E-11  2.16823663607483E-02
 cg2d: Sum(rhs),rhsMax =  -5.33043609252104E-11  2.20818488896577E-02
 cg2d: Sum(rhs),rhsMax =  -5.23184828793433E-11  2.24712923848321E-02
 cg2d: Sum(rhs),rhsMax =  -5.13654674350050E-11  2.28505530719851E-02
 cg2d: Sum(rhs),rhsMax =  -5.04857267102921E-11  2.32194915032647E-02
 cg2d: Sum(rhs),rhsMax =  -4.96437335684163E-11  2.35779725972843E-02
 cg2d: Sum(rhs),rhsMax =  -4.88281637345267E-11  2.39258656746654E-02
 cg2d: Sum(rhs),rhsMax =  -4.80797623936269E-11  2.42630444881062E-02
 cg2d: Sum(rhs),rhsMax =  -4.73934225198036E-11  2.45893872485228E-02
 cg2d: Sum(rhs),rhsMax =  -4.67414995597437E-11  2.49047766485216E-02
 cg2d: Sum(rhs),rhsMax =  -4.61199967105586E-11  2.52090998805201E-02
 cg2d: Sum(rhs),rhsMax =  -4.55171456081871E-11  2.55022486523940E-02
 cg2d: Sum(rhs),rhsMax =  -4.49241754907348E-11  2.57841192004086E-02
 cg2d: Sum(rhs),rhsMax =  -4.43683978446074E-11  2.60546123005302E-02
 cg2d: Sum(rhs),rhsMax =  -4.38248326517510E-11  2.63136332790149E-02
 cg2d: Sum(rhs),rhsMax =  -4.33157953949603E-11  2.65610920229465E-02
 cg2d: Sum(rhs),rhsMax =  -4.28361790483223E-11  2.67969029911363E-02
 cg2d: Sum(rhs),rhsMax =  -4.24091872730514E-11  2.70209852255471E-02
 cg2d: Sum(rhs),rhsMax =  -4.20140588985873E-11  2.72332623693153E-02
 cg2d: Sum(rhs),rhsMax =  -4.16496837019054E-11  2.74336626744560E-02
 cg2d: Sum(rhs),rhsMax =  -4.12775369440510E-11  2.76221190103865E-02
 cg2d: Sum(rhs),rhsMax =  -4.09721145899766E-11  2.77985688749555E-02
 cg2d: Sum(rhs),rhsMax =  -4.06579214740077E-11  2.79629544062473E-02
 cg2d: Sum(rhs),rhsMax =  -4.03795885617342E-11  2.81152223938502E-02
 cg2d: Sum(rhs),rhsMax =  -4.01469968380752E-11  2.82553242887989E-02
 cg2d: Sum(rhs),rhsMax =  -3.99352773072792E-11  2.83832162120123E-02
 cg2d: Sum(rhs),rhsMax =  -3.97036847843424E-11  2.84988589612750E-02
 cg2d: Sum(rhs),rhsMax =  -3.94531074476845E-11  2.86022180167657E-02
 cg2d: Sum(rhs),rhsMax =  -3.92640364665908E-11  2.86932635450415E-02
 cg2d: Sum(rhs),rhsMax =  -3.90887322510025E-11  2.87719704013956E-02
 cg2d: Sum(rhs),rhsMax =  -3.89082099871985E-11  2.88383181332760E-02
 cg2d: Sum(rhs),rhsMax =  -3.87357923514742E-11  2.88922909827445E-02
 cg2d: Sum(rhs),rhsMax =  -3.85574905337194E-11  2.89338778738751E-02
 cg2d: Sum(rhs),rhsMax =  -3.85425025228869E-11  2.89630723902964E-02
 cg2d: Sum(rhs),rhsMax =  -3.85640408495647E-11  2.89798727911945E-02
 cg2d: Sum(rhs),rhsMax =  -3.85527165747135E-11  2.89842820158127E-02
 cg2d: Sum(rhs),rhsMax =  -3.86946030772606E-11  2.89763076776913E-02
 cg2d: Sum(rhs),rhsMax =  -3.88200582790432E-11  2.89559620519686E-02
 cg2d: Sum(rhs),rhsMax =  -3.89476229045727E-11  2.89232620573198E-02
 cg2d: Sum(rhs),rhsMax =  -3.90626420099238E-11  2.88782292363720E-02
 cg2d: Sum(rhs),rhsMax =  -3.92167409657418E-11  2.88208897517883E-02
 cg2d: Sum(rhs),rhsMax =  -3.93951538057991E-11  2.87512743630505E-02
 cg2d: Sum(rhs),rhsMax =  -3.95707910882948E-11  2.86694183781744E-02
 cg2d: Sum(rhs),rhsMax =  -3.97845090205351E-11  2.85753616167269E-02
 cg2d: Sum(rhs),rhsMax =  -3.99966726405410E-11  2.84691483796433E-02
 cg2d: Sum(rhs),rhsMax =  -4.02037292346336E-11  2.83508274208166E-02
 cg2d: Sum(rhs),rhsMax =  -4.04564159950382E-11  2.82204519168038E-02
 cg2d: Sum(rhs),rhsMax =  -4.07102129784676E-11  2.80780794374716E-02
 cg2d: Sum(rhs),rhsMax =  -4.09684508539954E-11  2.79237719069290E-02
 cg2d: Sum(rhs),rhsMax =  -4.12802014793101E-11  2.77575955633504E-02
 cg2d: Sum(rhs),rhsMax =  -4.16064960262474E-11  2.75796209235034E-02
 cg2d: Sum(rhs),rhsMax =  -4.19845269661323E-11  2.73899227316479E-02
 cg2d: Sum(rhs),rhsMax =  -4.23576729247088E-11  2.71885799471691E-02
 cg2d: Sum(rhs),rhsMax =  -4.27862190122141E-11  2.69756757313903E-02
 cg2d: Sum(rhs),rhsMax =  -4.32088809176889E-11  2.67512974279704E-02
 cg2d: Sum(rhs),rhsMax =  -4.36937153125427E-11  2.65155365407105E-02
 cg2d: Sum(rhs),rhsMax =  -4.41944258966487E-11  2.62684887127157E-02
 cg2d: Sum(rhs),rhsMax =  -4.47316628182648E-11  2.60102537091604E-02
 cg2d: Sum(rhs),rhsMax =  -4.53154180846127E-11  2.57409354047853E-02
 cg2d: Sum(rhs),rhsMax =  -4.58165727579285E-11  2.54606417728551E-02
 cg2d: Sum(rhs),rhsMax =  -4.63989957566469E-11  2.51694848515785E-02
 cg2d: Sum(rhs),rhsMax =  -4.70732341995017E-11  2.48675807807306E-02
 cg2d: Sum(rhs),rhsMax =  -4.76871875321194E-11  2.45550497778124E-02
 cg2d: Sum(rhs),rhsMax =  -4.84160489477858E-11  2.42320161176691E-02
 cg2d: Sum(rhs),rhsMax =  -4.91622298426364E-11  2.38986081024055E-02
 cg2d: Sum(rhs),rhsMax =  -4.99190688785234E-11  2.35549580361486E-02
 cg2d: Sum(rhs),rhsMax =  -5.07496267232455E-11  2.32012022025311E-02
 cg2d: Sum(rhs),rhsMax =  -5.16329201616372E-11  2.28374808404771E-02
 cg2d: Sum(rhs),rhsMax =  -5.25827159592041E-11  2.24639381161236E-02
 cg2d: Sum(rhs),rhsMax =  -5.35825828151815E-11  2.20807220903389E-02
 cg2d: Sum(rhs),rhsMax =  -5.46325207295695E-11  2.16879846824239E-02
 cg2d: Sum(rhs),rhsMax =  -5.57510704268793E-11  2.12858816311146E-02
 cg2d: Sum(rhs),rhsMax =  -5.69385649740184E-11  2.08745724541218E-02
 cg2d: Sum(rhs),rhsMax =  -5.82108805602388E-11  2.04542204073987E-02
 cg2d: Sum(rhs),rhsMax =  -5.95664628733061E-11  2.00249924507733E-02
 cg2d: Sum(rhs),rhsMax =  -6.09937655937642E-11  1.95870592072959E-02
 cg2d: Sum(rhs),rhsMax =  -6.25367535533883E-11  1.91405949196709E-02
 cg2d: Sum(rhs),rhsMax =  -6.42013109342088E-11  1.86857774197921E-02
 cg2d: Sum(rhs),rhsMax =  -6.59349241871610E-11  1.82227881078600E-02
 cg2d: Sum(rhs),rhsMax =  -6.78425093880719E-11  1.77518119380220E-02
 cg2d: Sum(rhs),rhsMax =  -6.98416879885144E-11  1.72730374097237E-02
 cg2d: Sum(rhs),rhsMax =  -7.19240222935014E-11  1.67866565676928E-02
 cg2d: Sum(rhs),rhsMax =  -7.41499084355723E-11  1.62928650077195E-02
 cg2d: Sum(rhs),rhsMax =  -7.66020580300619E-11  1.57918618702840E-02
 cg2d: Sum(rhs),rhsMax =  -7.91743337558160E-11  1.52838498772667E-02
 cg2d: Sum(rhs),rhsMax =  -8.20472578766385E-11  1.47690353772837E-02
 cg2d: Sum(rhs),rhsMax =  -8.51213544095231E-11  1.42476283786415E-02
 cg2d: Sum(rhs),rhsMax =  -8.84704531856073E-11  1.37198425673343E-02
 cg2d: Sum(rhs),rhsMax =  -9.21457354863264E-11  1.31858953107755E-02
 cg2d: Sum(rhs),rhsMax =  -9.61531965160134E-11  1.26460076460049E-02
 cg2d: Sum(rhs),rhsMax =  -1.00570440864090E-10  1.21004042335177E-02
 cg2d: Sum(rhs),rhsMax =  -1.05491171353833E-10  1.15493132700258E-02
 cg2d: Sum(rhs),rhsMax =  -1.10901732242041E-10  1.09929663533925E-02
 cg2d: Sum(rhs),rhsMax =  -1.16996523580326E-10  1.04315982942698E-02
 cg2d: Sum(rhs),rhsMax =  -1.23817844865926E-10  9.86544687201494E-03
 cg2d: Sum(rhs),rhsMax =  -1.31448518736477E-10  9.29475253469435E-03
 cg2d: Sum(rhs),rhsMax =  -1.40167655260370E-10  8.71975805797101E-03
 cg2d: Sum(rhs),rhsMax =  -1.50186196812285E-10  8.14070817131893E-03
 cg2d: Sum(rhs),rhsMax =  -1.61822222288777E-10  7.55784916871222E-03
 cg2d: Sum(rhs),rhsMax =  -1.75521264189626E-10  6.97142852647151E-03
 cg2d: Sum(rhs),rhsMax =  -1.91792692838533E-10  6.38169454975500E-03
 cg2d: Sum(rhs),rhsMax =  -2.11506701042197E-10  5.78889607403039E-03
 cg2d: Sum(rhs),rhsMax =  -2.35856334462881E-10  5.19328225259730E-03
 cg2d: Sum(rhs),rhsMax =  -2.66670463489049E-10  4.59510241511786E-03
 cg2d: Sum(rhs),rhsMax =  -2.91613400094093E-10  4.20309090501212E-03
 cg2d: Sum(rhs),rhsMax =  -3.19358206546383E-10  3.83933880114520E-03
 cg2d: Sum(rhs),rhsMax =  -3.52817663973326E-10  3.47562284590284E-03
 cg2d: Sum(rhs),rhsMax =  -3.77424036468454E-10  3.24978098207830E-03
 cg2d: Sum(rhs),rhsMax =  -3.94694554817221E-10  3.10793773856148E-03
 cg2d: Sum(rhs),rhsMax =  -4.13602950499747E-10  2.96628888217431E-03
 cg2d: Sum(rhs),rhsMax =  -4.34387026349015E-10  2.82490033555550E-03
 cg2d: Sum(rhs),rhsMax =  -4.57300419753892E-10  2.68383751395461E-03
 cg2d: Sum(rhs),rhsMax =  -4.82695994286075E-10  2.54316529568939E-03
 cg2d: Sum(rhs),rhsMax =  -5.10868236602846E-10  2.40294799697358E-03
 cg2d: Sum(rhs),rhsMax =  -4.44685621658891E-10  2.76088465007401E-03
 cg2d: Sum(rhs),rhsMax =  -3.81125242476799E-10  3.22202528874307E-03
 cg2d: Sum(rhs),rhsMax =  -3.32726068918987E-10  3.69108935935848E-03
 cg2d: Sum(rhs),rhsMax =  -2.91345836345158E-10  4.21595583374116E-03
 cg2d: Sum(rhs),rhsMax =  -2.58650656448367E-10  4.74969123825017E-03
 cg2d: Sum(rhs),rhsMax =  -2.32051267090583E-10  5.29632125823321E-03
 cg2d: Sum(rhs),rhsMax =  -2.10354067498031E-10  5.84373974501984E-03
 cg2d: Sum(rhs),rhsMax =  -1.92083904337892E-10  6.40116701642175E-03
 cg2d: Sum(rhs),rhsMax =  -1.76660575057497E-10  6.96205591443418E-03
 cg2d: Sum(rhs),rhsMax =  -1.63444036083149E-10  7.52907295265306E-03
 cg2d: Sum(rhs),rhsMax =  -1.51789025792937E-10  8.10753886678630E-03
 cg2d: Sum(rhs),rhsMax =  -1.41552880528195E-10  8.69670929570425E-03
 cg2d: Sum(rhs),rhsMax =  -1.32637456573548E-10  9.28233779915218E-03
 cg2d: Sum(rhs),rhsMax =  -1.24869670159455E-10  9.86414601672096E-03
 cg2d: Sum(rhs),rhsMax =  -1.17986842518292E-10  1.04418565682649E-02
 cg2d: Sum(rhs),rhsMax =  -1.11883280418112E-10  1.10151932614695E-02
 cg2d: Sum(rhs),rhsMax =  -1.06480158024169E-10  1.15838812775905E-02
 cg2d: Sum(rhs),rhsMax =  -1.01644248573507E-10  1.21476473404608E-02
 cg2d: Sum(rhs),rhsMax =  -9.72514291319726E-11  1.27062198731314E-02
 cg2d: Sum(rhs),rhsMax =  -9.32692811872471E-11  1.32593291457681E-02
 cg2d: Sum(rhs),rhsMax =  -8.96369645175810E-11  1.38067074178221E-02
 cg2d: Sum(rhs),rhsMax =  -8.63448201826600E-11  1.43480890770089E-02
 cg2d: Sum(rhs),rhsMax =  -8.33244584441672E-11  1.48832107771444E-02
 cg2d: Sum(rhs),rhsMax =  -8.05234767753404E-11  1.54118115763471E-02
 cg2d: Sum(rhs),rhsMax =  -7.79384334848032E-11  1.59336330759705E-02
 cg2d: Sum(rhs),rhsMax =  -7.55635554128276E-11  1.64484195608323E-02
 cg2d: Sum(rhs),rhsMax =  -7.33708649391929E-11  1.69559181437726E-02
 cg2d: Sum(rhs),rhsMax =  -7.13054060241802E-11  1.74558789114671E-02
 cg2d: Sum(rhs),rhsMax =  -6.94172497262002E-11  1.79480550705832E-02
 cg2d: Sum(rhs),rhsMax =  -6.76305678126710E-11  1.84322030959987E-02
 cg2d: Sum(rhs),rhsMax =  -6.59775567513066E-11  1.89080828768877E-02
 cg2d: Sum(rhs),rhsMax =  -6.44436726204844E-11  1.93754578624425E-02
 cg2d: Sum(rhs),rhsMax =  -6.30500096576725E-11  1.98340952111016E-02
 cg2d: Sum(rhs),rhsMax =  -6.17901285693279E-11  2.02837659431114E-02
 cg2d: Sum(rhs),rhsMax =  -6.05465677594452E-11  2.07242450943560E-02
 cg2d: Sum(rhs),rhsMax =  -5.94343463333757E-11  2.11553118689545E-02
 cg2d: Sum(rhs),rhsMax =  -5.83635362261248E-11  2.15767497910907E-02
 cg2d: Sum(rhs),rhsMax =  -5.73554537197651E-11  2.19883468563621E-02
 cg2d: Sum(rhs),rhsMax =  -5.64280844272957E-11  2.23898956836283E-02
 cg2d: Sum(rhs),rhsMax =  -5.55588908213167E-11  2.27811936666770E-02
 cg2d: Sum(rhs),rhsMax =  -5.47251133298232E-11  2.31620431231967E-02
 cg2d: Sum(rhs),rhsMax =  -5.39274180866300E-11  2.35322514426510E-02
 cg2d: Sum(rhs),rhsMax =  -5.31868993292051E-11  2.38916312319643E-02
 cg2d: Sum(rhs),rhsMax =  -5.24914556265799E-11  2.42400004581910E-02
 cg2d: Sum(rhs),rhsMax =  -5.18206588751013E-11  2.45771825876369E-02
 cg2d: Sum(rhs),rhsMax =  -5.12255793339023E-11  2.49030067204058E-02
 cg2d: Sum(rhs),rhsMax =  -5.06265029898145E-11  2.52173077207995E-02
 cg2d: Sum(rhs),rhsMax =  -5.00882668674762E-11  2.55199263460172E-02
 cg2d: Sum(rhs),rhsMax =  -4.95676832912295E-11  2.58107093686639E-02
 cg2d: Sum(rhs),rhsMax =  -4.91225948806573E-11  2.60895096932238E-02
 cg2d: Sum(rhs),rhsMax =  -4.87251350378415E-11  2.63561864669501E-02
 cg2d: Sum(rhs),rhsMax =  -4.83282303065380E-11  2.66106051852295E-02
 cg2d: Sum(rhs),rhsMax =  -4.80318007589631E-11  2.68526377940743E-02
 cg2d: Sum(rhs),rhsMax =  -4.77038408774888E-11  2.70821627873868E-02
 cg2d: Sum(rhs),rhsMax =  -4.74188466270675E-11  2.72990652991282E-02
 cg2d: Sum(rhs),rhsMax =  -4.71356287334856E-11  2.75032371905566E-02
 cg2d: Sum(rhs),rhsMax =  -4.68762806349332E-11  2.76945771398521E-02
 cg2d: Sum(rhs),rhsMax =  -4.66532368292860E-11  2.78729907144369E-02
 cg2d: Sum(rhs),rhsMax =  -4.64327465365955E-11  2.80383904384916E-02
 cg2d: Sum(rhs),rhsMax =  -4.62504479159520E-11  2.81906958585800E-02
 cg2d: Sum(rhs),rhsMax =  -4.60780302802277E-11  2.83298336057438E-02
 cg2d: Sum(rhs),rhsMax =  -4.59091653581822E-11  2.84557374522413E-02
 cg2d: Sum(rhs),rhsMax =  -4.57462956404697E-11  2.85683483613790E-02
 cg2d: Sum(rhs),rhsMax =  -4.56870097309547E-11  2.86676145296023E-02
 cg2d: Sum(rhs),rhsMax =  -4.56471527243707E-11  2.87534914206239E-02
 cg2d: Sum(rhs),rhsMax =  -4.55888660155779E-11  2.88259417917314E-02
 cg2d: Sum(rhs),rhsMax =  -4.55184778758166E-11  2.88849357123941E-02
 cg2d: Sum(rhs),rhsMax =  -4.55322446413220E-11  2.89304505818039E-02
 cg2d: Sum(rhs),rhsMax =  -4.55233628571250E-11  2.89624711305384E-02
 cg2d: Sum(rhs),rhsMax =  -4.55069315563605E-11  2.89809893954523E-02
 cg2d: Sum(rhs),rhsMax =  -4.55374626895377E-11  2.89860047127276E-02
 cg2d: Sum(rhs),rhsMax =  -4.54611903677460E-11  2.89775237176127E-02
 cg2d: Sum(rhs),rhsMax =  -4.54455362230988E-11  2.89555603284453E-02
 cg2d: Sum(rhs),rhsMax =  -4.53731496818932E-11  2.89201357196766E-02
 cg2d: Sum(rhs),rhsMax =  -4.54246640302358E-11  2.88712782860027E-02
 cg2d: Sum(rhs),rhsMax =  -4.54744020217390E-11  2.88090236023133E-02
 cg2d: Sum(rhs),rhsMax =  -4.54843940289607E-11  2.87334143966363E-02
 cg2d: Sum(rhs),rhsMax =  -4.55862014803188E-11  2.86445005091534E-02
 cg2d: Sum(rhs),rhsMax =  -4.56864546194424E-11  2.85423388215614E-02
 cg2d: Sum(rhs),rhsMax =  -4.58054705276822E-11  2.84269931987356E-02
 cg2d: Sum(rhs),rhsMax =  -4.59891014159552E-11  2.82985344375821E-02
(PID.TID 0000.0001)      cg2d_init_res =   2.60585085392034E-02
(PID.TID 0000.0001)      cg2d_iters(min,last) =      -1      37
(PID.TID 0000.0001)      cg2d_last_res =   5.13125843039450E-14
(PID.TID 0000.0001) // =======================================================
(PID.TID 0000.0001) // Begin MONITOR dynamic field statistics
(PID.TID 0000.0001) // =======================================================
(PID.TID 0000.0001) %MON time_tsnumber                =                  3360
(PID.TID 0000.0001) %MON time_secondsf                =   5.0400000000000E+04
(PID.TID 0000.0001) %MON dynstat_eta_max              =   4.9217510386750E-03
(PID.TID 0000.0001) %MON dynstat_eta_min              =  -4.7553909188443E-03
(PID.TID 0000.0001) %MON dynstat_eta_mean             =   2.8647395630801E-15
(PID.TID 0000.0001) %MON dynstat_eta_sd               =   3.3392724265908E-03
(PID.TID 0000.0001) %MON dynstat_eta_del2             =   1.6316400344230E-06
(PID.TID 0000.0001) %MON dynstat_uvel_max             =   1.8967752967768E-01
(PID.TID 0000.0001) %MON dynstat_uvel_min             =   7.5488999261830E-04
(PID.TID 0000.0001) %MON dynstat_uvel_mean            =   1.1344094975473E-01
(PID.TID 0000.0001) %MON dynstat_uvel_sd              =   6.4021924265042E-03
(PID.TID 0000.0001) %MON dynstat_uvel_del2            =   8.0013964160935E-05
(PID.TID 0000.0001) %MON dynstat_vvel_max             =   0.0000000000000E+00
(PID.TID 0000.0001) %MON dynstat_vvel_min             =   0.0000000000000E+00
(PID.TID 0000.0001) %MON dynstat_vvel_mean            =   0.0000000000000E+00
(PID.TID 0000.0001) %MON dynstat_vvel_sd              =   0.0000000000000E+00
(PID.TID 0000.0001) %MON dynstat_vvel_del2            =   0.0000000000000E+00
(PID.TID 0000.0001) %MON dynstat_wvel_max             =   3.3643815696204E-03
(PID.TID 0000.0001) %MON dynstat_wvel_min             =  -2.3843744823086E-03
(PID.TID 0000.0001) %MON dynstat_wvel_mean            =   5.2890280254255E-21
(PID.TID 0000.0001) %MON dynstat_wvel_sd              =   2.2249271298396E-04
(PID.TID 0000.0001) %MON dynstat_wvel_del2            =   6.5009762251635E-06
(PID.TID 0000.0001) %MON dynstat_theta_max            =   1.5000000000006E+01
(PID.TID 0000.0001) %MON dynstat_theta_min            =   9.9999999999939E+00
(PID.TID 0000.0001) %MON dynstat_theta_mean           =   1.1004791509500E+01
(PID.TID 0000.0001) %MON dynstat_theta_sd             =   1.9399211510267E+00
(PID.TID 0000.0001) %MON dynstat_theta_del2           =   1.7325875203857E-05
(PID.TID 0000.0001) %MON dynstat_salt_max             =   3.5000000000000E+01
(PID.TID 0000.0001) %MON dynstat_salt_min             =   3.5000000000000E+01
(PID.TID 0000.0001) %MON dynstat_salt_mean            =   3.5000000000000E+01
(PID.TID 0000.0001) %MON dynstat_salt_sd              =   4.0500935938326E-13
(PID.TID 0000.0001) %MON dynstat_salt_del2            =   0.0000000000000E+00
(PID.TID 0000.0001) %MON dynstat_sst_max              =   1.5000000000006E+01
(PID.TID 0000.0001) %MON dynstat_sst_min              =   1.5000000000000E+01
(PID.TID 0000.0001) %MON dynstat_sst_mean             =   1.5000000000005E+01
(PID.TID 0000.0001) %MON dynstat_sst_sd               =   2.2835687165961E-12
(PID.TID 0000.0001) %MON dynstat_sst_del2             =   1.4611606161144E-14
(PID.TID 0000.0001) %MON dynstat_sss_max              =   3.5000000000000E+01
(PID.TID 0000.0001) %MON dynstat_sss_min              =   3.5000000000000E+01
(PID.TID 0000.0001) %MON dynstat_sss_mean             =   3.5000000000000E+01
(PID.TID 0000.0001) %MON dynstat_sss_sd               =   4.2632564145606E-14
(PID.TID 0000.0001) %MON dynstat_sss_del2             =   0.0000000000000E+00
(PID.TID 0000.0001) %MON forcing_qnet_max             =   0.0000000000000E+00
(PID.TID 0000.0001) %MON forcing_qnet_min             =   0.0000000000000E+00
(PID.TID 0000.0001) %MON forcing_qnet_mean            =   0.0000000000000E+00
(PID.TID 0000.0001) %MON forcing_qnet_sd              =   0.0000000000000E+00
(PID.TID 0000.0001) %MON forcing_qnet_del2            =   0.0000000000000E+00
(PID.TID 0000.0001) %MON forcing_qsw_max              =   0.0000000000000E+00
(PID.TID 0000.0001) %MON forcing_qsw_min              =   0.0000000000000E+00
(PID.TID 0000.0001) %MON forcing_qsw_mean             =   0.0000000000000E+00
(PID.TID 0000.0001) %MON forcing_qsw_sd               =   0.0000000000000E+00
(PID.TID 0000.0001) %MON forcing_qsw_del2             =   0.0000000000000E+00
(PID.TID 0000.0001) %MON forcing_empmr_max            =   0.0000000000000E+00
(PID.TID 0000.0001) %MON forcing_empmr_min            =   0.0000000000000E+00
(PID.TID 0000.0001) %MON forcing_empmr_mean           =   0.0000000000000E+00
(PID.TID 0000.0001) %MON forcing_empmr_sd             =   0.0000000000000E+00
(PID.TID 0000.0001) %MON forcing_empmr_del2           =   0.0000000000000E+00
(PID.TID 0000.0001) %MON forcing_fu_max               =   0.0000000000000E+00
(PID.TID 0000.0001) %MON forcing_fu_min               =   0.0000000000000E+00
(PID.TID 0000.0001) %MON forcing_fu_mean              =   0.0000000000000E+00
(PID.TID 0000.0001) %MON forcing_fu_sd                =   0.0000000000000E+00
(PID.TID 0000.0001) %MON forcing_fu_del2              =   0.0000000000000E+00
(PID.TID 0000.0001) %MON forcing_fv_max               =   0.0000000000000E+00
(PID.TID 0000.0001) %MON forcing_fv_min               =   0.0000000000000E+00
(PID.TID 0000.0001) %MON forcing_fv_mean              =   0.0000000000000E+00
(PID.TID 0000.0001) %MON forcing_fv_sd                =   0.0000000000000E+00
(PID.TID 0000.0001) %MON forcing_fv_del2              =   0.0000000000000E+00
(PID.TID 0000.0001) %MON advcfl_uvel_max              =   1.2794503174171E-02
(PID.TID 0000.0001) %MON advcfl_vvel_max              =   0.0000000000000E+00
(PID.TID 0000.0001) %MON advcfl_wvel_max              =   4.9433875156800E-02
(PID.TID 0000.0001) %MON advcfl_W_hf_max              =   4.9971686265131E-02
(PID.TID 0000.0001) %MON pe_b_mean                    =   2.7636775059907E-07
(PID.TID 0000.0001) %MON ke_max                       =   1.4268891633144E-02
(PID.TID 0000.0001) %MON ke_mean                      =   6.4549808024238E-03
(PID.TID 0000.0001) %MON ke_vol                       =   9.6656886657870E+10
(PID.TID 0000.0001) %MON vort_r_min                   =   0.0000000000000E+00
(PID.TID 0000.0001) %MON vort_r_max                   =   0.0000000000000E+00
(PID.TID 0000.0001) %MON vort_a_mean                  =   0.0000000000000E+00
(PID.TID 0000.0001) %MON vort_a_sd                    =   0.0000000000000E+00
(PID.TID 0000.0001) %MON vort_p_mean                  =   0.0000000000000E+00
(PID.TID 0000.0001) %MON vort_p_sd                    =   0.0000000000000E+00
(PID.TID 0000.0001) %MON surfExpan_theta_mean         =   6.0131103365578E-19
(PID.TID 0000.0001) %MON surfExpan_salt_mean          =   2.7094785374057E-19
(PID.TID 0000.0001) // =======================================================
(PID.TID 0000.0001) // End MONITOR dynamic field statistics
(PID.TID 0000.0001) // =======================================================
(PID.TID 0000.0001) // =======================================================
(PID.TID 0000.0001) // Begin OBCS MONITOR field statistics
(PID.TID 0000.0001) // =======================================================
(PID.TID 0000.0001) %MON obc_E_uVel_max               =   1.1205712828732E-01
(PID.TID 0000.0001) %MON obc_E_uVel_min               =   1.1205712828732E-01
(PID.TID 0000.0001) %MON obc_E_uVel_mean              =   1.1205712828732E-01
(PID.TID 0000.0001) %MON obc_E_uVel_sd                =  -1.2143064331838E-17
(PID.TID 0000.0001) %MON obc_E_uVel_Int               =   1.1205712828732E+05
(PID.TID 0000.0001) %MON obc_W_uVel_max               =   1.1205712828732E-01
(PID.TID 0000.0001) %MON obc_W_uVel_min               =   1.1205712828732E-01
(PID.TID 0000.0001) %MON obc_W_uVel_mean              =   1.1205712828732E-01
(PID.TID 0000.0001) %MON obc_W_uVel_sd                =  -1.2143064331838E-17
(PID.TID 0000.0001) %MON obc_W_uVel_Int               =   1.1205712828732E+05
(PID.TID 0000.0001) // =======================================================
(PID.TID 0000.0001) // End OBCS MONITOR field statistics
(PID.TID 0000.0001) // =======================================================
 cg2d: Sum(rhs),rhsMax =  -4.61465310408471E-11  2.81570402170776E-02
 cg2d: Sum(rhs),rhsMax =  -4.63360461111506E-11  2.80025950445378E-02
 cg2d: Sum(rhs),rhsMax =  -4.65294469620403E-11  2.78352901964138E-02
 cg2d: Sum(rhs),rhsMax =  -4.67779148749514E-11  2.76552236549736E-02
 cg2d: Sum(rhs),rhsMax =  -4.70301575461463E-11  2.74625000281327E-02
 cg2d: Sum(rhs),rhsMax =  -4.72755168345884E-11  2.72572304447377E-02
 cg2d: Sum(rhs),rhsMax =  -4.75509631669979E-11  2.70395324885961E-02
 cg2d: Sum(rhs),rhsMax =  -4.78767026024229E-11  2.68095301239228E-02
 cg2d: Sum(rhs),rhsMax =  -4.82225370745937E-11  2.65673536023905E-02
 cg2d: Sum(rhs),rhsMax =  -4.85692597251841E-11  2.63131393556393E-02
 cg2d: Sum(rhs),rhsMax =  -4.90046891954421E-11  2.60470298800572E-02
 cg2d: Sum(rhs),rhsMax =  -4.94859708766171E-11  2.57691736170432E-02
 cg2d: Sum(rhs),rhsMax =  -4.99821295463221E-11  2.54797248300765E-02
 cg2d: Sum(rhs),rhsMax =  -5.05114838844634E-11  2.51788434786312E-02
 cg2d: Sum(rhs),rhsMax =  -5.10929076824596E-11  2.48666950989196E-02
 cg2d: Sum(rhs),rhsMax =  -5.16992004762074E-11  2.45434506549950E-02
 cg2d: Sum(rhs),rhsMax =  -5.23627807780258E-11  2.42092864050523E-02
 cg2d: Sum(rhs),rhsMax =  -5.30404609122570E-11  2.38643837653035E-02
 cg2d: Sum(rhs),rhsMax =  -5.37550004509058E-11  2.35089291670209E-02
 cg2d: Sum(rhs),rhsMax =  -5.45450351552290E-11  2.31431139050569E-02
 cg2d: Sum(rhs),rhsMax =  -5.53709300632477E-11  2.27671339900975E-02
 cg2d: Sum(rhs),rhsMax =  -5.62286883720731E-11  2.23811900018712E-02
 cg2d: Sum(rhs),rhsMax =  -5.71525049508637E-11  2.19854869413746E-02
 cg2d: Sum(rhs),rhsMax =  -5.81248382758304E-11  2.15802340815642E-02
 cg2d: Sum(rhs),rhsMax =  -5.91817705952735E-11  2.11656448165727E-02
 cg2d: Sum(rhs),rhsMax =  -6.02689009809865E-11  2.07419365096689E-02
 cg2d: Sum(rhs),rhsMax =  -6.14343020899355E-11  2.03093303400972E-02
 cg2d: Sum(rhs),rhsMax =  -6.26845242379659E-11  1.98680511488143E-02
 cg2d: Sum(rhs),rhsMax =  -6.40286712538796E-11  1.94183272862274E-02
 cg2d: Sum(rhs),rhsMax =  -6.54558629520352E-11  1.89603904582916E-02
 cg2d: Sum(rhs),rhsMax =  -6.70512534384216E-11  1.84944755573773E-02
 cg2d: Sum(rhs),rhsMax =  -6.87674361898871E-11  1.80208205010768E-02
 cg2d: Sum(rhs),rhsMax =  -7.06263936223195E-11  1.75396660752038E-02
 cg2d: Sum(rhs),rhsMax =  -7.25920434874183E-11  1.70512557736594E-02
 cg2d: Sum(rhs),rhsMax =  -7.46903650039599E-11  1.65558356327096E-02
 cg2d: Sum(rhs),rhsMax =  -7.69805330591566E-11  1.60536540611177E-02
 cg2d: Sum(rhs),rhsMax =  -7.94426746608679E-11  1.55449616643433E-02
 cg2d: Sum(rhs),rhsMax =  -8.20681300695014E-11  1.50300110468356E-02
 cg2d: Sum(rhs),rhsMax =  -8.49701420335691E-11  1.45090566656651E-02
 cg2d: Sum(rhs),rhsMax =  -8.80733264096989E-11  1.39823546635489E-02
 cg2d: Sum(rhs),rhsMax =  -9.15031383996734E-11  1.34501626946274E-02
 cg2d: Sum(rhs),rhsMax =  -9.52440348811479E-11  1.29127397475999E-02
 cg2d: Sum(rhs),rhsMax =  -9.93342075261694E-11  1.23703459667552E-02
 cg2d: Sum(rhs),rhsMax =  -1.03837161091747E-10  1.18232424885567E-02
 cg2d: Sum(rhs),rhsMax =  -1.08838271728473E-10  1.12716912815566E-02
 cg2d: Sum(rhs),rhsMax =  -1.14350751090342E-10  1.07159549925452E-02
 cg2d: Sum(rhs),rhsMax =  -1.20560450511675E-10  1.01562968017920E-02
 cg2d: Sum(rhs),rhsMax =  -1.27618582368427E-10  9.59298028456646E-03
 cg2d: Sum(rhs),rhsMax =  -1.35606414986000E-10  9.02626928234541E-03
 cg2d: Sum(rhs),rhsMax =  -1.44695255777094E-10  8.45642778335136E-03
 cg2d: Sum(rhs),rhsMax =  -1.55166102189241E-10  7.88371981124470E-03
 cg2d: Sum(rhs),rhsMax =  -1.67317160126856E-10  7.30840932085047E-03
 cg2d: Sum(rhs),rhsMax =  -1.81615389394096E-10  6.73076010014882E-03
 cg2d: Sum(rhs),rhsMax =  -1.98720817579101E-10  6.15103567792726E-03
 cg2d: Sum(rhs),rhsMax =  -2.19412377155948E-10  5.56949923565253E-03
 cg2d: Sum(rhs),rhsMax =  -2.44973485941102E-10  4.98641352637906E-03
 cg2d: Sum(rhs),rhsMax =  -2.77395661996138E-10  4.40204079950900E-03
 cg2d: Sum(rhs),rhsMax =  -3.19876902743488E-10  3.81664271230934E-03
 cg2d: Sum(rhs),rhsMax =  -3.77784581395701E-10  3.23048024659737E-03
 cg2d: Sum(rhs),rhsMax =  -4.27191060303755E-10  2.85660155134973E-03
 cg2d: Sum(rhs),rhsMax =  -4.06000677521945E-10  3.00537985894102E-03
 cg2d: Sum(rhs),rhsMax =  -3.86828125087391E-10  3.15424033961213E-03
 cg2d: Sum(rhs),rhsMax =  -3.69329511418215E-10  3.30311611586101E-03
 cg2d: Sum(rhs),rhsMax =  -3.53334875247135E-10  3.45194005592326E-03
 cg2d: Sum(rhs),rhsMax =  -3.38698694091200E-10  3.60064481162307E-03
 cg2d: Sum(rhs),rhsMax =  -3.13061021550709E-10  3.89462637276706E-03
 cg2d: Sum(rhs),rhsMax =  -2.85671541977450E-10  4.26640157271917E-03
 cg2d: Sum(rhs),rhsMax =  -2.62705190934298E-10  4.63762564004282E-03
 cg2d: Sum(rhs),rhsMax =  -2.43215558803911E-10  5.00813192432739E-03
 cg2d: Sum(rhs),rhsMax =  -2.26433372052526E-10  5.37775376282314E-03
 cg2d: Sum(rhs),rhsMax =  -2.11789030757359E-10  5.74632449498432E-03
 cg2d: Sum(rhs),rhsMax =  -1.98996819023023E-10  6.11367751690924E-03
 cg2d: Sum(rhs),rhsMax =  -1.87733495415898E-10  6.47964634776438E-03
 cg2d: Sum(rhs),rhsMax =  -1.77695413938750E-10  6.84406474010728E-03
 cg2d: Sum(rhs),rhsMax =  -1.68666636213288E-10  7.20676779955037E-03
 cg2d: Sum(rhs),rhsMax =  -1.60594093578936E-10  7.56759314711148E-03
 cg2d: Sum(rhs),rhsMax =  -1.53300261374056E-10  7.92637645853428E-03
 cg2d: Sum(rhs),rhsMax =  -1.46618606144955E-10  8.28295226427207E-03
 cg2d: Sum(rhs),rhsMax =  -1.40600420195369E-10  8.63715577355518E-03
 cg2d: Sum(rhs),rhsMax =  -1.35067512729847E-10  8.98882361892366E-03
 cg2d: Sum(rhs),rhsMax =  -1.29847799179572E-10  9.34428989273281E-03
 cg2d: Sum(rhs),rhsMax =  -1.22732601859354E-10  9.87881508094203E-03
 cg2d: Sum(rhs),rhsMax =  -1.16378240377912E-10  1.04082648274400E-02
 cg2d: Sum(rhs),rhsMax =  -1.10695452804066E-10  1.09324228501837E-02
 cg2d: Sum(rhs),rhsMax =  -1.05588204846185E-10  1.14510757312336E-02
 cg2d: Sum(rhs),rhsMax =  -1.00988328810558E-10  1.19640129851120E-02
 cg2d: Sum(rhs),rhsMax =  -9.67866897738645E-11  1.24710271249781E-02
 cg2d: Sum(rhs),rhsMax =  -9.29666343907343E-11  1.29719137262528E-02
 cg2d: Sum(rhs),rhsMax =  -8.94890828107009E-11  1.34664714874528E-02
 cg2d: Sum(rhs),rhsMax =  -8.62764304443431E-11  1.39545022882515E-02
 cg2d: Sum(rhs),rhsMax =  -8.33274560463337E-11  1.44358112450078E-02
 cg2d: Sum(rhs),rhsMax =  -8.06191780000631E-11  1.49102067640786E-02
 cg2d: Sum(rhs),rhsMax =  -7.80918663068064E-11  1.53775005931853E-02
 cg2d: Sum(rhs),rhsMax =  -7.57750528990186E-11  1.58375078709926E-02
 cg2d: Sum(rhs),rhsMax =  -7.36398719780595E-11  1.62900471749593E-02
 cg2d: Sum(rhs),rhsMax =  -7.15270065398954E-11  1.67349405661724E-02
 cg2d: Sum(rhs),rhsMax =  -6.96002144806585E-11  1.71720136344620E-02
 cg2d: Sum(rhs),rhsMax =  -6.77473632748615E-11  1.76010955432831E-02
 cg2d: Sum(rhs),rhsMax =  -6.60694832177455E-11  1.80220190688299E-02
 cg2d: Sum(rhs),rhsMax =  -6.44877484745621E-11  1.84346206406802E-02
 cg2d: Sum(rhs),rhsMax =  -6.30167029669337E-11  1.88387403820232E-02
 cg2d: Sum(rhs),rhsMax =  -6.16020567889564E-11  1.92342221463176E-02
 cg2d: Sum(rhs),rhsMax =  -6.02704552932209E-11  1.96209135527760E-02
 cg2d: Sum(rhs),rhsMax =  -5.90465454308742E-11  1.99986660216123E-02
 cg2d: Sum(rhs),rhsMax =  -5.78814773888325E-11  2.03673348086547E-02
 cg2d: Sum(rhs),rhsMax =  -5.68021185642920E-11  2.07267790393986E-02
 cg2d: Sum(rhs),rhsMax =  -5.57947021917471E-11  2.10768617425199E-02
 cg2d: Sum(rhs),rhsMax =  -5.48061596106209E-11  2.14174498826288E-02
 cg2d: Sum(rhs),rhsMax =  -5.39158717671739E-11  2.17484143919551E-02
 cg2d: Sum(rhs),rhsMax =  -5.30792076958164E-11  2.20696302008268E-02
 cg2d: Sum(rhs),rhsMax =  -5.22053511531340E-11  2.23809762670160E-02
 cg2d: Sum(rhs),rhsMax =  -5.14565057230243E-11  2.26823356026674E-02
 cg2d: Sum(rhs),rhsMax =  -5.07545117045538E-11  2.29735953041476E-02
 cg2d: Sum(rhs),rhsMax =  -5.00993690977225E-11  2.32546465809672E-02
 cg2d: Sum(rhs),rhsMax =  -4.94519980520636E-11  2.35253847829615E-02
 cg2d: Sum(rhs),rhsMax =  -4.88638018936172E-11  2.37857094261321E-02
 cg2d: Sum(rhs),rhsMax =  -4.82482942487650E-11  2.40355242176161E-02
 cg2d: Sum(rhs),rhsMax =  -4.76580996888742E-11  2.42747370800443E-02
 cg2d: Sum(rhs),rhsMax =  -4.71074290686602E-11  2.45032601742820E-02
 cg2d: Sum(rhs),rhsMax =  -4.65987248787769E-11  2.47210099235261E-02
 cg2d: Sum(rhs),rhsMax =  -4.61147786623428E-11  2.49279070363518E-02
 cg2d: Sum(rhs),rhsMax =  -4.56817916827390E-11  2.51238765330068E-02
 cg2d: Sum(rhs),rhsMax =  -4.52740067657942E-11  2.53088477562320E-02
 cg2d: Sum(rhs),rhsMax =  -4.48850956402680E-11  2.54827543835860E-02
 cg2d: Sum(rhs),rhsMax =  -4.45651293645710E-11  2.56455344401333E-02
 cg2d: Sum(rhs),rhsMax =  -4.42422765090100E-11  2.57971303099565E-02
 cg2d: Sum(rhs),rhsMax =  -4.39362990434233E-11  2.59374887451448E-02
 cg2d: Sum(rhs),rhsMax =  -4.36902736211664E-11  2.60665608713234E-02
 cg2d: Sum(rhs),rhsMax =  -4.34406954852307E-11  2.61843021895366E-02
 cg2d: Sum(rhs),rhsMax =  -4.32109903414357E-11  2.62906725749937E-02
 cg2d: Sum(rhs),rhsMax =  -4.29822843983629E-11  2.63856362735895E-02
 cg2d: Sum(rhs),rhsMax =  -4.27593516150182E-11  2.64691618971951E-02
 cg2d: Sum(rhs),rhsMax =  -4.25671720094556E-11  2.65412224185996E-02
 cg2d: Sum(rhs),rhsMax =  -4.23977519758978E-11  2.66017951668041E-02
 cg2d: Sum(rhs),rhsMax =  -4.22836210489663E-11  2.66508618286827E-02
 cg2d: Sum(rhs),rhsMax =  -4.21409573903020E-11  2.66884084214926E-02
 cg2d: Sum(rhs),rhsMax =  -4.20599111095044E-11  2.67144253073170E-02
 cg2d: Sum(rhs),rhsMax =  -4.19880796798111E-11  2.67289072032880E-02
 cg2d: Sum(rhs),rhsMax =  -4.19078105551307E-11  2.67318531873181E-02
 cg2d: Sum(rhs),rhsMax =  -4.19783097171944E-11  2.67232667002019E-02
 cg2d: Sum(rhs),rhsMax =  -4.21374046766232E-11  2.67031555473652E-02
 cg2d: Sum(rhs),rhsMax =  -4.23052703979465E-11  2.66715318997446E-02
 cg2d: Sum(rhs),rhsMax =  -4.24088542061440E-11  2.66284123093285E-02
 cg2d: Sum(rhs),rhsMax =  -4.25465218611976E-11  2.65738177143427E-02
 cg2d: Sum(rhs),rhsMax =  -4.27614610387650E-11  2.65077734168678E-02
 cg2d: Sum(rhs),rhsMax =  -4.29413171687543E-11  2.64303090714711E-02
 cg2d: Sum(rhs),rhsMax =  -4.32033298025658E-11  2.63414586804468E-02
 cg2d: Sum(rhs),rhsMax =  -4.34068336829796E-11  2.62412605907191E-02
 cg2d: Sum(rhs),rhsMax =  -4.36332081577007E-11  2.61297574886050E-02
 cg2d: Sum(rhs),rhsMax =  -4.38921121670433E-11  2.60069963930848E-02
 cg2d: Sum(rhs),rhsMax =  -4.41563452469040E-11  2.58730286443578E-02
 cg2d: Sum(rhs),rhsMax =  -4.44733139204345E-11  2.57279098853532E-02
 cg2d: Sum(rhs),rhsMax =  -4.47885062371256E-11  2.55717000467789E-02
 cg2d: Sum(rhs),rhsMax =  -4.51603199280726E-11  2.54044633351854E-02
 cg2d: Sum(rhs),rhsMax =  -4.55567805701662E-11  2.52262682173418E-02
 cg2d: Sum(rhs),rhsMax =  -4.59658977547406E-11  2.50371874000222E-02
 cg2d: Sum(rhs),rhsMax =  -4.64286387114043E-11  2.48372978383735E-02
 cg2d: Sum(rhs),rhsMax =  -4.69190242213813E-11  2.46266807342643E-02
 cg2d: Sum(rhs),rhsMax =  -4.74368322400665E-11  2.44054215272607E-02
 cg2d: Sum(rhs),rhsMax =  -4.80004924696686E-11  2.41736098815905E-02
 cg2d: Sum(rhs),rhsMax =  -4.85718132381407E-11  2.39313396720279E-02
 cg2d: Sum(rhs),rhsMax =  -4.92369478521937E-11  2.36787089700752E-02
 cg2d: Sum(rhs),rhsMax =  -4.98445729135710E-11  2.34158200067067E-02
 cg2d: Sum(rhs),rhsMax =  -5.04903896469955E-11  2.31427791792913E-02
 cg2d: Sum(rhs),rhsMax =  -5.11464204322465E-11  2.28596970639361E-02
 cg2d: Sum(rhs),rhsMax =  -5.18677323313455E-11  2.25666884067988E-02
 cg2d: Sum(rhs),rhsMax =  -5.26779730947169E-11  2.22638720797805E-02
 cg2d: Sum(rhs),rhsMax =  -5.34623456616146E-11  2.19513710462991E-02
 cg2d: Sum(rhs),rhsMax =  -5.43349809589699E-11  2.16293123307559E-02
 cg2d: Sum(rhs),rhsMax =  -5.52594636715753E-11  2.12978269960914E-02
 cg2d: Sum(rhs),rhsMax =  -5.62485613642139E-11  2.09570501233230E-02
 cg2d: Sum(rhs),rhsMax =  -5.73060487951693E-11  2.06071207881213E-02
 cg2d: Sum(rhs),rhsMax =  -5.83983972290980E-11  2.02481820316794E-02
 cg2d: Sum(rhs),rhsMax =  -5.95974380956932E-11  1.98803808251582E-02
 cg2d: Sum(rhs),rhsMax =  -6.08171291105464E-11  1.95038680281756E-02
 cg2d: Sum(rhs),rhsMax =  -6.21398488220848E-11  1.91187983421845E-02
 cg2d: Sum(rhs),rhsMax =  -6.35500541079637E-11  1.87253302681857E-02
 cg2d: Sum(rhs),rhsMax =  -6.50453024775288E-11  1.83236260407024E-02
 cg2d: Sum(rhs),rhsMax =  -6.66480204358777E-11  1.79138515652644E-02
 cg2d: Sum(rhs),rhsMax =  -6.83554324254487E-11  1.74961763594326E-02
 cg2d: Sum(rhs),rhsMax =  -7.02157221255106E-11  1.70707734937744E-02
 cg2d: Sum(rhs),rhsMax =  -7.21754878085790E-11  1.66378195289313E-02
 cg2d: Sum(rhs),rhsMax =  -7.42518269092329E-11  1.61974944472508E-02
 cg2d: Sum(rhs),rhsMax =  -7.64204255432333E-11  1.57499815828765E-02
 cg2d: Sum(rhs),rhsMax =  -7.87572229654643E-11  1.52954675518715E-02
 cg2d: Sum(rhs),rhsMax =  -8.12586664622472E-11  1.48341421836426E-02
 cg2d: Sum(rhs),rhsMax =  -8.39431857357908E-11  1.43661984503455E-02
 cg2d: Sum(rhs),rhsMax =  -8.69042615647686E-11  1.38918323787099E-02
 cg2d: Sum(rhs),rhsMax =  -9.00590713115434E-11  1.34112430089531E-02
 cg2d: Sum(rhs),rhsMax =  -9.35541644153659E-11  1.29246323362379E-02
 cg2d: Sum(rhs),rhsMax =  -9.73490177358372E-11  1.24322052485701E-02
 cg2d: Sum(rhs),rhsMax =  -1.01483377257239E-10  1.19341694586753E-02
 cg2d: Sum(rhs),rhsMax =  -1.06053832382713E-10  1.14307354329123E-02
 cg2d: Sum(rhs),rhsMax =  -1.11074482944673E-10  1.09221163212885E-02
 cg2d: Sum(rhs),rhsMax =  -1.16641807323958E-10  1.04085278895155E-02
 cg2d: Sum(rhs),rhsMax =  -1.22863830220865E-10  9.89018845211707E-03
 cg2d: Sum(rhs),rhsMax =  -1.29855348696140E-10  9.36731880514396E-03
 cg2d: Sum(rhs),rhsMax =  -1.37644118325397E-10  8.84014215756033E-03
 cg2d: Sum(rhs),rhsMax =  -1.46487377783444E-10  8.30888406081598E-03
 cg2d: Sum(rhs),rhsMax =  -1.56623936042877E-10  7.77377233633218E-03
 cg2d: Sum(rhs),rhsMax =  -1.68327463079265E-10  7.23503700102067E-03
 cg2d: Sum(rhs),rhsMax =  -1.78958403651563E-10  6.80721246751318E-03
 cg2d: Sum(rhs),rhsMax =  -1.89233517744469E-10  6.43911899591860E-03
 cg2d: Sum(rhs),rhsMax =  -2.00782945825040E-10  6.06999989181285E-03
 cg2d: Sum(rhs),rhsMax =  -2.13911222068930E-10  5.70002397534883E-03
 cg2d: Sum(rhs),rhsMax =  -2.28864149853791E-10  5.32935971594593E-03
 cg2d: Sum(rhs),rhsMax =  -2.46044407070656E-10  4.95817708102947E-03
 cg2d: Sum(rhs),rhsMax =  -2.66013988614588E-10  4.58664584082985E-03
 cg2d: Sum(rhs),rhsMax =  -2.89571311373749E-10  4.21493401445083E-03
 cg2d: Sum(rhs),rhsMax =  -3.17618042977585E-10  3.84321987940925E-03
 cg2d: Sum(rhs),rhsMax =  -3.51712214907707E-10  3.47167833077522E-03
 cg2d: Sum(rhs),rhsMax =  -3.75275824304744E-10  3.25398405624151E-03
 cg2d: Sum(rhs),rhsMax =  -3.93634493056627E-10  3.10275246098245E-03
 cg2d: Sum(rhs),rhsMax =  -4.13849954306045E-10  2.95173632043849E-03
 cg2d: Sum(rhs),rhsMax =  -4.36130742631491E-10  2.80099247638541E-03
 cg2d: Sum(rhs),rhsMax =  -4.60946614211366E-10  2.65058002522957E-03
 cg2d: Sum(rhs),rhsMax =  -4.88636131557030E-10  2.50056087178169E-03
 cg2d: Sum(rhs),rhsMax =  -4.51386927835529E-10  2.70718754196918E-03
 cg2d: Sum(rhs),rhsMax =  -3.83313047969125E-10  3.18838780611777E-03
 cg2d: Sum(rhs),rhsMax =  -3.32516014722728E-10  3.67585828611020E-03
 cg2d: Sum(rhs),rhsMax =  -2.93283286545432E-10  4.16851499448181E-03
 cg2d: Sum(rhs),rhsMax =  -2.61827781677937E-10  4.67044158162979E-03
 cg2d: Sum(rhs),rhsMax =  -2.36429320565890E-10  5.17358557337276E-03
 cg2d: Sum(rhs),rhsMax =  -2.15139350778770E-10  5.68739031229815E-03
 cg2d: Sum(rhs),rhsMax =  -1.97334593110554E-10  6.20148081149532E-03
 cg2d: Sum(rhs),rhsMax =  -1.82060588826971E-10  6.72517629423277E-03
 cg2d: Sum(rhs),rhsMax =  -1.68813296674841E-10  7.25420278605715E-03
 cg2d: Sum(rhs),rhsMax =  -1.57154955715555E-10  7.79450813395174E-03
 cg2d: Sum(rhs),rhsMax =  -1.46974432624347E-10  8.33519492926891E-03
 cg2d: Sum(rhs),rhsMax =  -1.38142164374244E-10  8.87229492631880E-03
 cg2d: Sum(rhs),rhsMax =  -1.30342514559345E-10  9.40555751884000E-03
 cg2d: Sum(rhs),rhsMax =  -1.23414389818777E-10  9.93473313056586E-03
 cg2d: Sum(rhs),rhsMax =  -1.17328480264689E-10  1.04595733194403E-02
 cg2d: Sum(rhs),rhsMax =  -1.11884834730347E-10  1.09798308786836E-02
 cg2d: Sum(rhs),rhsMax =  -1.06909148200884E-10  1.14952599354158E-02
 cg2d: Sum(rhs),rhsMax =  -1.02456709782928E-10  1.20056160476105E-02
 cg2d: Sum(rhs),rhsMax =  -9.84224923783472E-11  1.25106563004474E-02
 cg2d: Sum(rhs),rhsMax =  -9.47194545020125E-11  1.30101394056962E-02
 cg2d: Sum(rhs),rhsMax =  -9.13132902624625E-11  1.35038258021705E-02
 cg2d: Sum(rhs),rhsMax =  -8.82276474101218E-11  1.39914777654353E-02
 cg2d: Sum(rhs),rhsMax =  -8.53248582899369E-11  1.44728595326077E-02
 cg2d: Sum(rhs),rhsMax =  -8.26897439409890E-11  1.49477374484069E-02
 cg2d: Sum(rhs),rhsMax =  -8.02065081018100E-11  1.54158801386579E-02
 cg2d: Sum(rhs),rhsMax =  -7.79696307517952E-11  1.58770587168098E-02
 cg2d: Sum(rhs),rhsMax =  -7.58280105372933E-11  1.63310470275252E-02
 cg2d: Sum(rhs),rhsMax =  -7.38719085902062E-11  1.67776219286049E-02
 cg2d: Sum(rhs),rhsMax =  -7.20585813240859E-11  1.72165636102253E-02
 cg2d: Sum(rhs),rhsMax =  -7.03290758963249E-11  1.76476559452646E-02
 cg2d: Sum(rhs),rhsMax =  -6.88095136425204E-11  1.80706868625940E-02
 cg2d: Sum(rhs),rhsMax =  -6.73923139515864E-11  1.84854487290759E-02
 cg2d: Sum(rhs),rhsMax =  -6.60416166198274E-11  1.88917387227503E-02
 cg2d: Sum(rhs),rhsMax =  -6.47855102897665E-11  1.92893591794651E-02
 cg2d: Sum(rhs),rhsMax =  -6.35738128806906E-11  1.96781178947793E-02
 cg2d: Sum(rhs),rhsMax =  -6.24913454316811E-11  2.00578283643686E-02
 cg2d: Sum(rhs),rhsMax =  -6.14349682237503E-11  2.04283099494410E-02
 cg2d: Sum(rhs),rhsMax =  -6.04526428915619E-11  2.07893879586140E-02
 cg2d: Sum(rhs),rhsMax =  -5.95499205502392E-11  2.11408936437129E-02
 cg2d: Sum(rhs),rhsMax =  -5.86889425946424E-11  2.14826641138113E-02
 cg2d: Sum(rhs),rhsMax =  -5.78758152514069E-11  2.18145421792631E-02
 cg2d: Sum(rhs),rhsMax =  -5.70867797478058E-11  2.21363761401376E-02
 cg2d: Sum(rhs),rhsMax =  -5.63491475702449E-11  2.24480195395486E-02
 cg2d: Sum(rhs),rhsMax =  -5.56842350007969E-11  2.27493309058133E-02
 cg2d: Sum(rhs),rhsMax =  -5.50171019852996E-11  2.30401735054445E-02
 cg2d: Sum(rhs),rhsMax =  -5.44203571095636E-11  2.33204151307887E-02
 cg2d: Sum(rhs),rhsMax =  -5.38742384037505E-11  2.35899279389927E-02
 cg2d: Sum(rhs),rhsMax =  -5.33434407756772E-11  2.38485883520253E-02
 cg2d: Sum(rhs),rhsMax =  -5.28621590945022E-11  2.40962770252670E-02
 cg2d: Sum(rhs),rhsMax =  -5.24499332854589E-11  2.43328788862164E-02
 cg2d: Sum(rhs),rhsMax =  -5.20866683118015E-11  2.45582832389617E-02
 cg2d: Sum(rhs),rhsMax =  -5.16942044725965E-11  2.47723839250690E-02
 cg2d: Sum(rhs),rhsMax =  -5.13735720630848E-11  2.49750795279959E-02
 cg2d: Sum(rhs),rhsMax =  -5.10889108795709E-11  2.51662736075960E-02
 cg2d: Sum(rhs),rhsMax =  -5.07852648823359E-11  2.53458749523321E-02
 cg2d: Sum(rhs),rhsMax =  -5.05500086234179E-11  2.55137978185893E-02
 cg2d: Sum(rhs),rhsMax =  -5.02752284248231E-11  2.56699621610473E-02
 cg2d: Sum(rhs),rhsMax =  -5.00839369976802E-11  2.58142938436309E-02
 cg2d: Sum(rhs),rhsMax =  -4.98606711474281E-11  2.59467248231387E-02
 cg2d: Sum(rhs),rhsMax =  -4.96737095900812E-11  2.60671933007607E-02
 cg2d: Sum(rhs),rhsMax =  -4.95119500953933E-11  2.61756438401149E-02
 cg2d: Sum(rhs),rhsMax =  -4.94120300231771E-11  2.62720274530428E-02
 cg2d: Sum(rhs),rhsMax =  -4.93464158424217E-11  2.63563016564310E-02
 cg2d: Sum(rhs),rhsMax =  -4.93058927020229E-11  2.64284305047617E-02
 cg2d: Sum(rhs),rhsMax =  -4.92379470529158E-11  2.64883846033603E-02
 cg2d: Sum(rhs),rhsMax =  -4.91863216822708E-11  2.65361411070709E-02
 cg2d: Sum(rhs),rhsMax =  -4.91938711988382E-11  2.65716837152371E-02
 cg2d: Sum(rhs),rhsMax =  -4.92856866429747E-11  2.65950026261565E-02
 cg2d: Sum(rhs),rhsMax =  -4.91309215533420E-11  2.66060945313568E-02
 cg2d: Sum(rhs),rhsMax =  -4.90329998825700E-11  2.66049625999245E-02
 cg2d: Sum(rhs),rhsMax =  -4.90376628192735E-11  2.65916164542628E-02
 cg2d: Sum(rhs),rhsMax =  -4.90225637861386E-11  2.65660721413927E-02
 cg2d: Sum(rhs),rhsMax =  -4.90217866300213E-11  2.65283521003555E-02
 cg2d: Sum(rhs),rhsMax =  -4.90582019452290E-11  2.64784851273870E-02
 cg2d: Sum(rhs),rhsMax =  -4.91061635798928E-11  2.64165063649715E-02
 cg2d: Sum(rhs),rhsMax =  -4.91630069987536E-11  2.63424572401093E-02
 cg2d: Sum(rhs),rhsMax =  -4.92517138184212E-11  2.62563854024473E-02
 cg2d: Sum(rhs),rhsMax =  -4.93909357857092E-11  2.61583446690655E-02
 cg2d: Sum(rhs),rhsMax =  -4.95554708379586E-11  2.60483949704772E-02
 cg2d: Sum(rhs),rhsMax =  -4.97294427859174E-11  2.59266022934953E-02
 cg2d: Sum(rhs),rhsMax =  -4.99493779670956E-11  2.57930386179786E-02
 cg2d: Sum(rhs),rhsMax =  -5.01649832784778E-11  2.56477818490268E-02
 cg2d: Sum(rhs),rhsMax =  -5.04198904849318E-11  2.54909157417685E-02
 cg2d: Sum(rhs),rhsMax =  -5.06803488065088E-11  2.53225298170610E-02
 cg2d: Sum(rhs),rhsMax =  -5.09420283734130E-11  2.51427192786021E-02
 cg2d: Sum(rhs),rhsMax =  -5.12409004116421E-11  2.49515849197135E-02
 cg2d: Sum(rhs),rhsMax =  -5.15605336204317E-11  2.47492330399917E-02
 cg2d: Sum(rhs),rhsMax =  -5.19306819768417E-11  2.45357753795539E-02
 cg2d: Sum(rhs),rhsMax =  -5.22847320993947E-11  2.43113290418287E-02
 cg2d: Sum(rhs),rhsMax =  -5.27209387257699E-11  2.40760164084717E-02
 cg2d: Sum(rhs),rhsMax =  -5.32167643285675E-11  2.38299650517011E-02
 cg2d: Sum(rhs),rhsMax =  -5.37030420133533E-11  2.35733076425133E-02
 cg2d: Sum(rhs),rhsMax =  -5.42607070386225E-11  2.33061818600647E-02
 cg2d: Sum(rhs),rhsMax =  -5.48732170813082E-11  2.30287302870736E-02
 cg2d: Sum(rhs),rhsMax =  -5.55043788708076E-11  2.27411003204604E-02
 cg2d: Sum(rhs),rhsMax =  -5.61709567747926E-11  2.24434441220463E-02
 cg2d: Sum(rhs),rhsMax =  -5.68802782652256E-11  2.21359185084255E-02
 cg2d: Sum(rhs),rhsMax =  -5.76471093083342E-11  2.18186848282044E-02
 cg2d: Sum(rhs),rhsMax =  -5.84504666889529E-11  2.14919088456957E-02
 cg2d: Sum(rhs),rhsMax =  -5.93218807409812E-11  2.11557606198496E-02
 cg2d: Sum(rhs),rhsMax =  -6.01804162059238E-11  2.08104143864794E-02
 cg2d: Sum(rhs),rhsMax =  -6.11418693452492E-11  2.04560484390649E-02
 cg2d: Sum(rhs),rhsMax =  -6.21827034308353E-11  2.00928450050220E-02
 cg2d: Sum(rhs),rhsMax =  -6.32586205639996E-11  1.97209901162335E-02
 cg2d: Sum(rhs),rhsMax =  -6.43923803167468E-11  1.93406734742896E-02
 cg2d: Sum(rhs),rhsMax =  -6.56216192496117E-11  1.89520883118534E-02
 cg2d: Sum(rhs),rhsMax =  -6.68990418617454E-11  1.85554312518611E-02
 cg2d: Sum(rhs),rhsMax =  -6.82556233755349E-11  1.81509021750321E-02
 cg2d: Sum(rhs),rhsMax =  -6.97487623213533E-11  1.77387040684167E-02
 cg2d: Sum(rhs),rhsMax =  -7.13341608005180E-11  1.73190428800426E-02
 cg2d: Sum(rhs),rhsMax =  -7.30617788491372E-11  1.68921273822438E-02
 cg2d: Sum(rhs),rhsMax =  -7.49216244599893E-11  1.64581690391990E-02
 cg2d: Sum(rhs),rhsMax =  -7.69574404202444E-11  1.60173818753827E-02
 cg2d: Sum(rhs),rhsMax =  -7.90901788505494E-11  1.55699823439663E-02
 cg2d: Sum(rhs),rhsMax =  -8.14245337821262E-11  1.51161891959019E-02
 cg2d: Sum(rhs),rhsMax =  -8.39173175393171E-11  1.46562233508821E-02
 cg2d: Sum(rhs),rhsMax =  -8.66159366452735E-11  1.41903077715434E-02
 cg2d: Sum(rhs),rhsMax =  -8.95394869360189E-11  1.37186673297148E-02
 cg2d: Sum(rhs),rhsMax =  -9.27073973144843E-11  1.32415286786839E-02
 cg2d: Sum(rhs),rhsMax =  -9.61216661821140E-11  1.27591201559253E-02
 cg2d: Sum(rhs),rhsMax =  -9.98512383887373E-11  1.22716716689353E-02
 cg2d: Sum(rhs),rhsMax =  -1.03961284025900E-10  1.17794145798944E-02
 cg2d: Sum(rhs),rhsMax =  -1.08458908520959E-10  1.12825815878579E-02
 cg2d: Sum(rhs),rhsMax =  -1.13424269976292E-10  1.07814066106799E-02
 cg2d: Sum(rhs),rhsMax =  -1.18887011346658E-10  1.02761246696569E-02
 cg2d: Sum(rhs),rhsMax =  -1.24982579841060E-10  9.76697177746263E-03
 cg2d: Sum(rhs),rhsMax =  -1.31797794900024E-10  9.25418482574224E-03
 cg2d: Sum(rhs),rhsMax =  -1.39559030998271E-10  8.73800147808129E-03
 cg2d: Sum(rhs),rhsMax =  -1.48312362391323E-10  8.21866006210607E-03
 cg2d: Sum(rhs),rhsMax =  -1.58355883961292E-10  7.69639946027141E-03
 cg2d: Sum(rhs),rhsMax =  -1.69937397487274E-10  7.17145900077832E-03
 cg2d: Sum(rhs),rhsMax =  -1.83347892424024E-10  6.64407834842844E-03
 cg2d: Sum(rhs),rhsMax =  -1.99166017011976E-10  6.11449739523170E-03
 cg2d: Sum(rhs),rhsMax =  -2.18078000102651E-10  5.58295615400463E-03
 cg2d: Sum(rhs),rhsMax =  -2.41036413051177E-10  5.04969465372652E-03
 cg2d: Sum(rhs),rhsMax =  -2.69533284580348E-10  4.51495283562017E-03
 cg2d: Sum(rhs),rhsMax =  -3.05755309959466E-10  3.97897045163411E-03
 cg2d: Sum(rhs),rhsMax =  -3.53395979146853E-10  3.44198696632392E-03
 cg2d: Sum(rhs),rhsMax =  -4.15976919576622E-10  2.92389991214408E-03
 cg2d: Sum(rhs),rhsMax =  -3.94496879607686E-10  3.08288256276218E-03
 cg2d: Sum(rhs),rhsMax =  -3.75089459492273E-10  3.24194286884852E-03
 cg2d: Sum(rhs),rhsMax =  -3.57560259178769E-10  3.40101042902105E-03
 cg2d: Sum(rhs),rhsMax =  -3.41549816207376E-10  3.56001476951154E-03
 cg2d: Sum(rhs),rhsMax =  -3.26774690639908E-10  3.71996757841356E-03
 cg2d: Sum(rhs),rhsMax =  -2.98124788744580E-10  4.07619911923660E-03
 cg2d: Sum(rhs),rhsMax =  -2.74117006870966E-10  4.43203591470715E-03
 cg2d: Sum(rhs),rhsMax =  -2.53675969119627E-10  4.78731408667219E-03
 cg2d: Sum(rhs),rhsMax =  -2.36130004438451E-10  5.14186982033721E-03
 cg2d: Sum(rhs),rhsMax =  -2.20854279309179E-10  5.49553965177405E-03
 cg2d: Sum(rhs),rhsMax =  -2.07461603451975E-10  5.84816001512370E-03
 cg2d: Sum(rhs),rhsMax =  -1.95672922309598E-10  6.19956723539331E-03
 cg2d: Sum(rhs),rhsMax =  -1.85128357088615E-10  6.54959774070726E-03
 cg2d: Sum(rhs),rhsMax =  -1.75727876694509E-10  6.89808286726876E-03
 cg2d: Sum(rhs),rhsMax =  -1.67024838404473E-10  7.25507503785270E-03
 cg2d: Sum(rhs),rhsMax =  -1.59054991399898E-10  7.61698331771650E-03
 cg2d: Sum(rhs),rhsMax =  -1.51837209472205E-10  7.97684775557013E-03
 cg2d: Sum(rhs),rhsMax =  -1.45297773812558E-10  8.33450094084286E-03
 cg2d: Sum(rhs),rhsMax =  -1.39335876170321E-10  8.68977676725431E-03
 cg2d: Sum(rhs),rhsMax =  -1.33843047755988E-10  9.04251071856270E-03
 cg2d: Sum(rhs),rhsMax =  -1.28751787009662E-10  9.39253967505546E-03
 cg2d: Sum(rhs),rhsMax =  -1.24074417406916E-10  9.73970128604708E-03
 cg2d: Sum(rhs),rhsMax =  -1.19720899860454E-10  1.00838340334902E-02
 cg2d: Sum(rhs),rhsMax =  -1.15714993143001E-10  1.04247775207453E-02
 cg2d: Sum(rhs),rhsMax =  -1.12005738017729E-10  1.07623726778787E-02
 cg2d: Sum(rhs),rhsMax =  -1.08559827793897E-10  1.10964618449072E-02
 cg2d: Sum(rhs),rhsMax =  -1.05366382285865E-10  1.14268888105995E-02
 cg2d: Sum(rhs),rhsMax =  -1.02300168336455E-10  1.17534988681387E-02
 cg2d: Sum(rhs),rhsMax =  -9.95197257935843E-11  1.20761388994687E-02
 cg2d: Sum(rhs),rhsMax =  -9.65281188314293E-11  1.24376765012431E-02
 cg2d: Sum(rhs),rhsMax =  -9.30876487004184E-11  1.28866751268233E-02
 cg2d: Sum(rhs),rhsMax =  -8.99319507752239E-11  1.33295047283649E-02
 cg2d: Sum(rhs),rhsMax =  -8.70236105399158E-11  1.37659859309043E-02
 cg2d: Sum(rhs),rhsMax =  -8.42986791482758E-11  1.41959424926151E-02
 cg2d: Sum(rhs),rhsMax =  -8.18040080119431E-11  1.46192013648641E-02
 cg2d: Sum(rhs),rhsMax =  -7.94811993998223E-11  1.50355927477556E-02
 cg2d: Sum(rhs),rhsMax =  -7.73181518809452E-11  1.54449501403989E-02
 cg2d: Sum(rhs),rhsMax =  -7.52516937652103E-11  1.58471103878880E-02
 cg2d: Sum(rhs),rhsMax =  -7.32918170598396E-11  1.62419137264592E-02
 cg2d: Sum(rhs),rhsMax =  -7.14481807051470E-11  1.66292038229086E-02
 cg2d: Sum(rhs),rhsMax =  -6.97485402767484E-11  1.70088278081534E-02
 cg2d: Sum(rhs),rhsMax =  -6.81417144932084E-11  1.73806363067698E-02
 cg2d: Sum(rhs),rhsMax =  -6.66524613279762E-11  1.77444834637267E-02
 cg2d: Sum(rhs),rhsMax =  -6.52448095550540E-11  1.81002269686254E-02
 cg2d: Sum(rhs),rhsMax =  -6.39088781895225E-11  1.84477280773673E-02
 cg2d: Sum(rhs),rhsMax =  -6.26468876774311E-11  1.87868516315613E-02
 cg2d: Sum(rhs),rhsMax =  -6.14919226649135E-11  1.91174660721632E-02
 cg2d: Sum(rhs),rhsMax =  -6.04016836547316E-11  1.94394434506217E-02
 cg2d: Sum(rhs),rhsMax =  -5.93726179332066E-11  1.97526594379534E-02
 cg2d: Sum(rhs),rhsMax =  -5.83609827131681E-11  2.00569933323376E-02
 cg2d: Sum(rhs),rhsMax =  -5.74564840150060E-11  2.03523280655714E-02
 cg2d: Sum(rhs),rhsMax =  -5.65730795543118E-11  2.06385502091435E-02
 cg2d: Sum(rhs),rhsMax =  -5.57609514117985E-11  2.09155499802986E-02
 cg2d: Sum(rhs),rhsMax =  -5.49974510377638E-11  2.11832212492008E-02
 cg2d: Sum(rhs),rhsMax =  -5.42851319451643E-11  2.14414615501449E-02
 cg2d: Sum(rhs),rhsMax =  -5.36052313648838E-11  2.16901720964511E-02
 cg2d: Sum(rhs),rhsMax =  -5.29687405048662E-11  2.19292577994418E-02
 cg2d: Sum(rhs),rhsMax =  -5.22933918389867E-11  2.21586272922775E-02
 cg2d: Sum(rhs),rhsMax =  -5.16579001796913E-11  2.23781929594894E-02
 cg2d: Sum(rhs),rhsMax =  -5.11084508048043E-11  2.25878709721876E-02
 cg2d: Sum(rhs),rhsMax =  -5.05359087910051E-11  2.27875813280835E-02
 cg2d: Sum(rhs),rhsMax =  -5.00439689687937E-11  2.29772478999746E-02
 cg2d: Sum(rhs),rhsMax =  -4.95830043689693E-11  2.31567984775775E-02
 cg2d: Sum(rhs),rhsMax =  -4.91267027058484E-11  2.33261648066833E-02
 cg2d: Sum(rhs),rhsMax =  -4.87099249824041E-11  2.34852826278231E-02
 cg2d: Sum(rhs),rhsMax =  -4.83518780569625E-11  2.36340917109615E-02
 cg2d: Sum(rhs),rhsMax =  -4.80206985287168E-11  2.37725358827638E-02
 cg2d: Sum(rhs),rhsMax =  -4.76723105435894E-11  2.39005630437726E-02
 cg2d: Sum(rhs),rhsMax =  -4.73946437651307E-11  2.40181251741230E-02
 cg2d: Sum(rhs),rhsMax =  -4.71569450155584E-11  2.41251783278294E-02
 cg2d: Sum(rhs),rhsMax =  -4.69172478645419E-11  2.42216826169795E-02
 cg2d: Sum(rhs),rhsMax =  -4.66555682976377E-11  2.43076021884097E-02
 cg2d: Sum(rhs),rhsMax =  -4.64510652165018E-11  2.43829051959800E-02
 cg2d: Sum(rhs),rhsMax =  -4.62571092540998E-11  2.44475637723070E-02
 cg2d: Sum(rhs),rhsMax =  -4.60675941837962E-11  2.45015540042243E-02
 cg2d: Sum(rhs),rhsMax =  -4.60010918246212E-11  2.45448558985771E-02
 cg2d: Sum(rhs),rhsMax =  -4.58367788169767E-11  2.45774533974187E-02
 cg2d: Sum(rhs),rhsMax =  -4.57274218490511E-11  2.45993343912666E-02
 cg2d: Sum(rhs),rhsMax =  -4.57133220166384E-11  2.46104907428956E-02
 cg2d: Sum(rhs),rhsMax =  -4.56379378732663E-11  2.46109183237532E-02
 cg2d: Sum(rhs),rhsMax =  -4.55677717781100E-11  2.46006170644668E-02
 cg2d: Sum(rhs),rhsMax =  -4.57296422951003E-11  2.45795910176785E-02
 cg2d: Sum(rhs),rhsMax =  -4.58776350242829E-11  2.45478484446905E-02
 cg2d: Sum(rhs),rhsMax =  -4.61166660414847E-11  2.45054018870159E-02
 cg2d: Sum(rhs),rhsMax =  -4.62967442160789E-11  2.44522682199035E-02
 cg2d: Sum(rhs),rhsMax =  -4.65107952152266E-11  2.43884687114567E-02
 cg2d: Sum(rhs),rhsMax =  -4.67573757489959E-11  2.43140290794310E-02
 cg2d: Sum(rhs),rhsMax =  -4.69901895172598E-11  2.42289795380618E-02
 cg2d: Sum(rhs),rhsMax =  -4.72303307574862E-11  2.41333548294168E-02
 cg2d: Sum(rhs),rhsMax =  -4.74712491538298E-11  2.40271942382458E-02
 cg2d: Sum(rhs),rhsMax =  -4.77585748726028E-11  2.39105415899502E-02
 cg2d: Sum(rhs),rhsMax =  -4.80349093834320E-11  2.37834452263585E-02
 cg2d: Sum(rhs),rhsMax =  -4.83859619038185E-11  2.36459579727190E-02
 cg2d: Sum(rhs),rhsMax =  -4.87906381962944E-11  2.34981370976649E-02
 cg2d: Sum(rhs),rhsMax =  -4.92005325369860E-11  2.33400442675361E-02
 cg2d: Sum(rhs),rhsMax =  -4.96026553165052E-11  2.31717454966479E-02
 cg2d: Sum(rhs),rhsMax =  -5.00783858825571E-11  2.29933110813889E-02
 cg2d: Sum(rhs),rhsMax =  -5.05913089199339E-11  2.28048155563292E-02
 cg2d: Sum(rhs),rhsMax =  -5.10997910652122E-11  2.26063376563848E-02
 cg2d: Sum(rhs),rhsMax =  -5.16963138963433E-11  2.23979602737437E-02
 cg2d: Sum(rhs),rhsMax =  -5.23090459836340E-11  2.21797704129686E-02
 cg2d: Sum(rhs),rhsMax =  -5.29237764723689E-11  2.19518591438312E-02
 cg2d: Sum(rhs),rhsMax =  -5.35502753251649E-11  2.17143215429159E-02
 cg2d: Sum(rhs),rhsMax =  -5.42405009795743E-11  2.14672566813105E-02
 cg2d: Sum(rhs),rhsMax =  -5.49504886038221E-11  2.12107676002792E-02
 cg2d: Sum(rhs),rhsMax =  -5.57214274721218E-11  2.09449612778960E-02
 cg2d: Sum(rhs),rhsMax =  -5.65344437930548E-11  2.06699486134788E-02
 cg2d: Sum(rhs),rhsMax =  -5.73486813593149E-11  2.03858443731435E-02
 cg2d: Sum(rhs),rhsMax =  -5.83031400935852E-11  2.00927671440155E-02
 cg2d: Sum(rhs),rhsMax =  -5.92482729544486E-11  1.97908392900948E-02
 cg2d: Sum(rhs),rhsMax =  -6.03167515933478E-11  1.94801869172048E-02
 cg2d: Sum(rhs),rhsMax =  -6.14064354920174E-11  1.91609398438965E-02
 cg2d: Sum(rhs),rhsMax =  -6.25500762296838E-11  1.88332315729749E-02
 cg2d: Sum(rhs),rhsMax =  -6.37677688430927E-11  1.84971992605550E-02
 cg2d: Sum(rhs),rhsMax =  -6.51008136287601E-11  1.81529836819076E-02
 cg2d: Sum(rhs),rhsMax =  -6.64397425964580E-11  1.78007291989485E-02
 cg2d: Sum(rhs),rhsMax =  -6.79531986236270E-11  1.74405837210269E-02
 cg2d: Sum(rhs),rhsMax =  -6.94968527170658E-11  1.70726986588207E-02
 cg2d: Sum(rhs),rhsMax =  -7.11659620122873E-11  1.66972288846461E-02
 cg2d: Sum(rhs),rhsMax =  -7.29839522151110E-11  1.63143326942602E-02
 cg2d: Sum(rhs),rhsMax =  -7.48834327879422E-11  1.59241717676618E-02
 cg2d: Sum(rhs),rhsMax =  -7.69255770194377E-11  1.55269111262963E-02
 cg2d: Sum(rhs),rhsMax =  -7.91228194074733E-11  1.51227190860932E-02
(PID.TID 0000.0001)      cg2d_init_res =   1.46523269646888E-01
(PID.TID 0000.0001)      cg2d_iters(min,last) =      -1      39
(PID.TID 0000.0001)      cg2d_last_res =   4.76812215425196E-14
(PID.TID 0000.0001) // =======================================================
(PID.TID 0000.0001) // Begin MONITOR dynamic field statistics
(PID.TID 0000.0001) // =======================================================
(PID.TID 0000.0001) %MON time_tsnumber                =                  3840
(PID.TID 0000.0001) %MON time_secondsf                =   5.7600000000000E+04
(PID.TID 0000.0001) %MON dynstat_eta_max              =   3.0223581505123E-03
(PID.TID 0000.0001) %MON dynstat_eta_min              =  -2.6260379494096E-03
(PID.TID 0000.0001) %MON dynstat_eta_mean             =   2.6402655049739E-15
(PID.TID 0000.0001) %MON dynstat_eta_sd               =   1.8962333936916E-03
(PID.TID 0000.0001) %MON dynstat_eta_del2             =   2.0493276784377E-06
(PID.TID 0000.0001) %MON dynstat_uvel_max             =   1.9018411145398E-01
(PID.TID 0000.0001) %MON dynstat_uvel_min             =   5.4726599037401E-02
(PID.TID 0000.0001) %MON dynstat_uvel_mean            =   1.1278877012078E-01
(PID.TID 0000.0001) %MON dynstat_uvel_sd              =   6.2907438610205E-03
(PID.TID 0000.0001) %MON dynstat_uvel_del2            =   8.4511337348448E-05
(PID.TID 0000.0001) %MON dynstat_vvel_max             =   0.0000000000000E+00
(PID.TID 0000.0001) %MON dynstat_vvel_min             =   0.0000000000000E+00
(PID.TID 0000.0001) %MON dynstat_vvel_mean            =   0.0000000000000E+00
(PID.TID 0000.0001) %MON dynstat_vvel_sd              =   0.0000000000000E+00
(PID.TID 0000.0001) %MON dynstat_vvel_del2            =   0.0000000000000E+00
(PID.TID 0000.0001) %MON dynstat_wvel_max             =   4.2533121362936E-03
(PID.TID 0000.0001) %MON dynstat_wvel_min             =  -2.5785707523609E-03
(PID.TID 0000.0001) %MON dynstat_wvel_mean            =  -7.9125503820685E-21
(PID.TID 0000.0001) %MON dynstat_wvel_sd              =   2.4181804341272E-04
(PID.TID 0000.0001) %MON dynstat_wvel_del2            =   7.9803010285454E-06
(PID.TID 0000.0001) %MON dynstat_theta_max            =   1.5000000000007E+01
(PID.TID 0000.0001) %MON dynstat_theta_min            =   9.9999999999934E+00
(PID.TID 0000.0001) %MON dynstat_theta_mean           =   1.1004381824807E+01
(PID.TID 0000.0001) %MON dynstat_theta_sd             =   1.9393318195794E+00
(PID.TID 0000.0001) %MON dynstat_theta_del2           =   2.1909643121992E-05
(PID.TID 0000.0001) %MON dynstat_salt_max             =   3.5000000000000E+01
(PID.TID 0000.0001) %MON dynstat_salt_min             =   3.5000000000000E+01
(PID.TID 0000.0001) %MON dynstat_salt_mean            =   3.5000000000000E+01
(PID.TID 0000.0001) %MON dynstat_salt_sd              =   4.0500935938326E-13
(PID.TID 0000.0001) %MON dynstat_salt_del2            =   0.0000000000000E+00
(PID.TID 0000.0001) %MON dynstat_sst_max              =   1.5000000000007E+01
(PID.TID 0000.0001) %MON dynstat_sst_min              =   1.5000000000000E+01
(PID.TID 0000.0001) %MON dynstat_sst_mean             =   1.5000000000005E+01
(PID.TID 0000.0001) %MON dynstat_sst_sd               =   2.6215877015290E-12
(PID.TID 0000.0001) %MON dynstat_sst_del2             =   1.6615376356382E-14
(PID.TID 0000.0001) %MON dynstat_sss_max              =   3.5000000000000E+01
(PID.TID 0000.0001) %MON dynstat_sss_min              =   3.5000000000000E+01
(PID.TID 0000.0001) %MON dynstat_sss_mean             =   3.5000000000000E+01
(PID.TID 0000.0001) %MON dynstat_sss_sd               =   4.2632564145606E-14
(PID.TID 0000.0001) %MON dynstat_sss_del2             =   0.0000000000000E+00
(PID.TID 0000.0001) %MON forcing_qnet_max             =   0.0000000000000E+00
(PID.TID 0000.0001) %MON forcing_qnet_min             =   0.0000000000000E+00
(PID.TID 0000.0001) %MON forcing_qnet_mean            =   0.0000000000000E+00
(PID.TID 0000.0001) %MON forcing_qnet_sd              =   0.0000000000000E+00
(PID.TID 0000.0001) %MON forcing_qnet_del2            =   0.0000000000000E+00
(PID.TID 0000.0001) %MON forcing_qsw_max              =   0.0000000000000E+00
(PID.TID 0000.0001) %MON forcing_qsw_min              =   0.0000000000000E+00
(PID.TID 0000.0001) %MON forcing_qsw_mean             =   0.0000000000000E+00
(PID.TID 0000.0001) %MON forcing_qsw_sd               =   0.0000000000000E+00
(PID.TID 0000.0001) %MON forcing_qsw_del2             =   0.0000000000000E+00
(PID.TID 0000.0001) %MON forcing_empmr_max            =   0.0000000000000E+00
(PID.TID 0000.0001) %MON forcing_empmr_min            =   0.0000000000000E+00
(PID.TID 0000.0001) %MON forcing_empmr_mean           =   0.0000000000000E+00
(PID.TID 0000.0001) %MON forcing_empmr_sd             =   0.0000000000000E+00
(PID.TID 0000.0001) %MON forcing_empmr_del2           =   0.0000000000000E+00
(PID.TID 0000.0001) %MON forcing_fu_max               =   0.0000000000000E+00
(PID.TID 0000.0001) %MON forcing_fu_min               =   0.0000000000000E+00
(PID.TID 0000.0001) %MON forcing_fu_mean              =   0.0000000000000E+00
(PID.TID 0000.0001) %MON forcing_fu_sd                =   0.0000000000000E+00
(PID.TID 0000.0001) %MON forcing_fu_del2              =   0.0000000000000E+00
(PID.TID 0000.0001) %MON forcing_fv_max               =   0.0000000000000E+00
(PID.TID 0000.0001) %MON forcing_fv_min               =   0.0000000000000E+00
(PID.TID 0000.0001) %MON forcing_fv_mean              =   0.0000000000000E+00
(PID.TID 0000.0001) %MON forcing_fv_sd                =   0.0000000000000E+00
(PID.TID 0000.0001) %MON forcing_fv_del2              =   0.0000000000000E+00
(PID.TID 0000.0001) %MON advcfl_uvel_max              =   1.3179180339039E-02
(PID.TID 0000.0001) %MON advcfl_vvel_max              =   0.0000000000000E+00
(PID.TID 0000.0001) %MON advcfl_wvel_max              =   5.8416743324079E-02
(PID.TID 0000.0001) %MON advcfl_W_hf_max              =   5.9052282685955E-02
(PID.TID 0000.0001) %MON pe_b_mean                    =   8.9118371518141E-08
(PID.TID 0000.0001) %MON ke_max                       =   1.3719074050701E-02
(PID.TID 0000.0001) %MON ke_mean                      =   6.3796412092376E-03
(PID.TID 0000.0001) %MON ke_vol                       =   9.6656886657870E+10
(PID.TID 0000.0001) %MON vort_r_min                   =   0.0000000000000E+00
(PID.TID 0000.0001) %MON vort_r_max                   =   0.0000000000000E+00
(PID.TID 0000.0001) %MON vort_a_mean                  =   0.0000000000000E+00
(PID.TID 0000.0001) %MON vort_a_sd                    =   0.0000000000000E+00
(PID.TID 0000.0001) %MON vort_p_mean                  =   0.0000000000000E+00
(PID.TID 0000.0001) %MON vort_p_sd                    =   0.0000000000000E+00
(PID.TID 0000.0001) %MON surfExpan_theta_mean         =  -1.6205661148985E-18
(PID.TID 0000.0001) %MON surfExpan_salt_mean          =  -3.9804195008280E-19
(PID.TID 0000.0001) // =======================================================
(PID.TID 0000.0001) // End MONITOR dynamic field statistics
(PID.TID 0000.0001) // =======================================================
(PID.TID 0000.0001) // =======================================================
(PID.TID 0000.0001) // Begin OBCS MONITOR field statistics
(PID.TID 0000.0001) // =======================================================
(PID.TID 0000.0001) %MON obc_E_uVel_max               =   1.1205712828732E-01
(PID.TID 0000.0001) %MON obc_E_uVel_min               =   1.1205712828732E-01
(PID.TID 0000.0001) %MON obc_E_uVel_mean              =   1.1205712828732E-01
(PID.TID 0000.0001) %MON obc_E_uVel_sd                =  -1.2143064331838E-17
(PID.TID 0000.0001) %MON obc_E_uVel_Int               =   1.1205712828732E+05
(PID.TID 0000.0001) %MON obc_W_uVel_max               =   1.1205712828732E-01
(PID.TID 0000.0001) %MON obc_W_uVel_min               =   1.1205712828732E-01
(PID.TID 0000.0001) %MON obc_W_uVel_mean              =   1.1205712828732E-01
(PID.TID 0000.0001) %MON obc_W_uVel_sd                =  -1.2143064331838E-17
(PID.TID 0000.0001) %MON obc_W_uVel_Int               =   1.1205712828732E+05
(PID.TID 0000.0001) // =======================================================
(PID.TID 0000.0001) // End OBCS MONITOR field statistics
(PID.TID 0000.0001) // =======================================================
 cg2d: Sum(rhs),rhsMax =  -8.13986655856525E-11  1.47117672070312E-02
 cg2d: Sum(rhs),rhsMax =  -8.38051850138299E-11  1.42942302398047E-02
 cg2d: Sum(rhs),rhsMax =  -8.64346372253522E-11  1.38702860697924E-02
 cg2d: Sum(rhs),rhsMax =  -8.92446117006784E-11  1.34401156584463E-02
 cg2d: Sum(rhs),rhsMax =  -9.23285892184822E-11  1.30039029825367E-02
 cg2d: Sum(rhs),rhsMax =  -9.56345003189085E-11  1.25618349571259E-02
 cg2d: Sum(rhs),rhsMax =  -9.92768089957963E-11  1.21141013662243E-02
 cg2d: Sum(rhs),rhsMax =  -1.03207109525272E-10  1.16608948149794E-02
 cg2d: Sum(rhs),rhsMax =  -1.07521103132058E-10  1.12024106644106E-02
 cg2d: Sum(rhs),rhsMax =  -1.12233444760079E-10  1.07388469548225E-02
 cg2d: Sum(rhs),rhsMax =  -1.17435616786565E-10  1.02704043240016E-02
 cg2d: Sum(rhs),rhsMax =  -1.23240417870818E-10  9.79728592439352E-03
 cg2d: Sum(rhs),rhsMax =  -1.29669830428725E-10  9.31969734089744E-03
 cg2d: Sum(rhs),rhsMax =  -1.36847866372136E-10  8.83784650902726E-03
 cg2d: Sum(rhs),rhsMax =  -1.44914635846760E-10  8.35194363231693E-03
 cg2d: Sum(rhs),rhsMax =  -1.54002477437132E-10  7.86220109821902E-03
 cg2d: Sum(rhs),rhsMax =  -1.64338875840997E-10  7.36883339240262E-03
 cg2d: Sum(rhs),rhsMax =  -1.76310965827042E-10  6.87205701114772E-03
 cg2d: Sum(rhs),rhsMax =  -1.90226057128484E-10  6.37209037305543E-03
 cg2d: Sum(rhs),rhsMax =  -2.02044381225619E-10  6.00114054323596E-03
 cg2d: Sum(rhs),rhsMax =  -2.15004014592068E-10  5.64070772476349E-03
 cg2d: Sum(rhs),rhsMax =  -2.29776531135428E-10  5.27932347710576E-03
 cg2d: Sum(rhs),rhsMax =  -2.46780151869075E-10  4.91714550190840E-03
 cg2d: Sum(rhs),rhsMax =  -2.66479616151116E-10  4.55433181392040E-03
 cg2d: Sum(rhs),rhsMax =  -2.87498025386412E-10  4.22233481677911E-03
 cg2d: Sum(rhs),rhsMax =  -2.98913116481003E-10  4.06203827196606E-03
 cg2d: Sum(rhs),rhsMax =  -3.11352388315811E-10  3.90156846235704E-03
 cg2d: Sum(rhs),rhsMax =  -3.24790860872781E-10  3.74099721824655E-03
 cg2d: Sum(rhs),rhsMax =  -3.39457739695348E-10  3.58039626699502E-03
 cg2d: Sum(rhs),rhsMax =  -3.55524887307723E-10  3.41983721245371E-03
 cg2d: Sum(rhs),rhsMax =  -3.73097816530610E-10  3.25939150831440E-03
 cg2d: Sum(rhs),rhsMax =  -3.92464727383413E-10  3.09913043016245E-03
 cg2d: Sum(rhs),rhsMax =  -4.13867717874439E-10  2.93912505057142E-03
 cg2d: Sum(rhs),rhsMax =  -4.37697877941901E-10  2.77944620698470E-03
 cg2d: Sum(rhs),rhsMax =  -4.64374094732989E-10  2.62016446188100E-03
 cg2d: Sum(rhs),rhsMax =  -4.39163594379011E-10  2.77073338439983E-03
 cg2d: Sum(rhs),rhsMax =  -3.78311493243189E-10  3.21669973797988E-03
 cg2d: Sum(rhs),rhsMax =  -3.31514260487609E-10  3.67146654732418E-03
 cg2d: Sum(rhs),rhsMax =  -2.94695268188150E-10  4.13096752749364E-03
 cg2d: Sum(rhs),rhsMax =  -2.64926525161968E-10  4.59544716566923E-03
 cg2d: Sum(rhs),rhsMax =  -2.40404363083258E-10  5.06591847929979E-03
 cg2d: Sum(rhs),rhsMax =  -2.19959273017878E-10  5.53912550526240E-03
 cg2d: Sum(rhs),rhsMax =  -2.02392991255351E-10  6.02008209678633E-03
 cg2d: Sum(rhs),rhsMax =  -1.87374671334339E-10  6.50450236009872E-03
 cg2d: Sum(rhs),rhsMax =  -1.74164682675837E-10  6.99928404341551E-03
 cg2d: Sum(rhs),rhsMax =  -1.62623914334858E-10  7.49846413610883E-03
 cg2d: Sum(rhs),rhsMax =  -1.52566292932477E-10  7.99434008103634E-03
 cg2d: Sum(rhs),rhsMax =  -1.43727030277319E-10  8.48668196105398E-03
 cg2d: Sum(rhs),rhsMax =  -1.35962130443090E-10  8.97526116368212E-03
 cg2d: Sum(rhs),rhsMax =  -1.29111610291943E-10  9.45985050849403E-03
 cg2d: Sum(rhs),rhsMax =  -1.22945542635478E-10  9.94022437527588E-03
 cg2d: Sum(rhs),rhsMax =  -1.17414078459888E-10  1.04161588323399E-02
 cg2d: Sum(rhs),rhsMax =  -1.12409526131785E-10  1.08874317647862E-02
 cg2d: Sum(rhs),rhsMax =  -1.07910791413701E-10  1.13538230027728E-02
 cg2d: Sum(rhs),rhsMax =  -1.03736463863413E-10  1.18151144499217E-02
 cg2d: Sum(rhs),rhsMax =  -9.99560434422619E-11  1.22710902117153E-02
 cg2d: Sum(rhs),rhsMax =  -9.64882618248453E-11  1.27215367234262E-02
 cg2d: Sum(rhs),rhsMax =  -9.33300103866941E-11  1.31662428770992E-02
 cg2d: Sum(rhs),rhsMax =  -9.03723762490927E-11  1.36050001472155E-02
 cg2d: Sum(rhs),rhsMax =  -8.76636541136122E-11  1.40376027139826E-02
 cg2d: Sum(rhs),rhsMax =  -8.51223536102452E-11  1.44638475860095E-02
 cg2d: Sum(rhs),rhsMax =  -8.27672375081079E-11  1.48835347217431E-02
 cg2d: Sum(rhs),rhsMax =  -8.05852051755096E-11  1.52964671482567E-02
 cg2d: Sum(rhs),rhsMax =  -7.85467246799954E-11  1.57024510772615E-02
 cg2d: Sum(rhs),rhsMax =  -7.66621210956941E-11  1.61012960168440E-02
 cg2d: Sum(rhs),rhsMax =  -7.49522666154689E-11  1.64928148833106E-02
 cg2d: Sum(rhs),rhsMax =  -7.33850757939081E-11  1.68768241086421E-02
 cg2d: Sum(rhs),rhsMax =  -7.18922699149971E-11  1.72531437427552E-02
 cg2d: Sum(rhs),rhsMax =  -7.04900582348955E-11  1.76215975516865E-02
 cg2d: Sum(rhs),rhsMax =  -6.91693369248014E-11  1.79820131125483E-02
 cg2d: Sum(rhs),rhsMax =  -6.79364342559552E-11  1.83342219055516E-02
 cg2d: Sum(rhs),rhsMax =  -6.67728095038456E-11  1.86780594030477E-02
 cg2d: Sum(rhs),rhsMax =  -6.56902310325336E-11  1.90133651553802E-02
 cg2d: Sum(rhs),rhsMax =  -6.46844799945256E-11  1.93399828738123E-02
 cg2d: Sum(rhs),rhsMax =  -6.37160324501451E-11  1.96577605116312E-02
 cg2d: Sum(rhs),rhsMax =  -6.28083141052116E-11  1.99665503427670E-02
 cg2d: Sum(rhs),rhsMax =  -6.19357898301587E-11  2.02662090384437E-02
 cg2d: Sum(rhs),rhsMax =  -6.11373174308483E-11  2.05565977418986E-02
 cg2d: Sum(rhs),rhsMax =  -6.04118977065582E-11  2.08375821421844E-02
 cg2d: Sum(rhs),rhsMax =  -5.96800386887253E-11  2.11090325469620E-02
 cg2d: Sum(rhs),rhsMax =  -5.89999160638399E-11  2.13708239542711E-02
 cg2d: Sum(rhs),rhsMax =  -5.83331161152500E-11  2.16228361204708E-02
 cg2d: Sum(rhs),rhsMax =  -5.77748959784685E-11  2.18649536277168E-02
 cg2d: Sum(rhs),rhsMax =  -5.72377700791549E-11  2.20970659481518E-02
 cg2d: Sum(rhs),rhsMax =  -5.67821345498487E-11  2.23190675050518E-02
 cg2d: Sum(rhs),rhsMax =  -5.63485924587326E-11  2.25308577311939E-02
 cg2d: Sum(rhs),rhsMax =  -5.59328139360105E-11  2.27323411244470E-02
 cg2d: Sum(rhs),rhsMax =  -5.55705481630753E-11  2.29234273005703E-02
 cg2d: Sum(rhs),rhsMax =  -5.52407009024591E-11  2.31040310453305E-02
 cg2d: Sum(rhs),rhsMax =  -5.49191803145277E-11  2.32740723632156E-02
 cg2d: Sum(rhs),rhsMax =  -5.46174216964346E-11  2.34334765142802E-02
 cg2d: Sum(rhs),rhsMax =  -5.43547429288083E-11  2.35821740507388E-02
 cg2d: Sum(rhs),rhsMax =  -5.40932854065090E-11  2.37201008525358E-02
 cg2d: Sum(rhs),rhsMax =  -5.38608047051525E-11  2.38471981608730E-02
 cg2d: Sum(rhs),rhsMax =  -5.36305444498453E-11  2.39634126087684E-02
 cg2d: Sum(rhs),rhsMax =  -5.34332578183694E-11  2.40686962481762E-02
 cg2d: Sum(rhs),rhsMax =  -5.32935917618715E-11  2.41630065735706E-02
 cg2d: Sum(rhs),rhsMax =  -5.31867883069026E-11  2.42463065422018E-02
 cg2d: Sum(rhs),rhsMax =  -5.31213961707522E-11  2.43185645912606E-02
 cg2d: Sum(rhs),rhsMax =  -5.30224752992581E-11  2.43797546520456E-02
 cg2d: Sum(rhs),rhsMax =  -5.29771781998534E-11  2.44298561610612E-02
 cg2d: Sum(rhs),rhsMax =  -5.30127053366414E-11  2.44688540606711E-02
 cg2d: Sum(rhs),rhsMax =  -5.29980503927163E-11  2.44967388028736E-02
 cg2d: Sum(rhs),rhsMax =  -5.29862820286553E-11  2.45135063624720E-02
 cg2d: Sum(rhs),rhsMax =  -5.29803978466248E-11  2.45191582368792E-02
 cg2d: Sum(rhs),rhsMax =  -5.28987964543148E-11  2.45137014386938E-02
 cg2d: Sum(rhs),rhsMax =  -5.28688204326500E-11  2.44971484826981E-02
 cg2d: Sum(rhs),rhsMax =  -5.28707078117918E-11  2.44695173703525E-02
 cg2d: Sum(rhs),rhsMax =  -5.29175592234310E-11  2.44308315781298E-02
 cg2d: Sum(rhs),rhsMax =  -5.29510879587747E-11  2.43811200514024E-02
 cg2d: Sum(rhs),rhsMax =  -5.30216981431408E-11  2.43204171573878E-02
 cg2d: Sum(rhs),rhsMax =  -5.30898658368528E-11  2.42487626472054E-02
 cg2d: Sum(rhs),rhsMax =  -5.31964472472168E-11  2.41662016234395E-02
 cg2d: Sum(rhs),rhsMax =  -5.33569854965776E-11  2.40727845087014E-02
 cg2d: Sum(rhs),rhsMax =  -5.35196331696852E-11  2.39685670110817E-02
 cg2d: Sum(rhs),rhsMax =  -5.37325739458083E-11  2.38536100843037E-02
 cg2d: Sum(rhs),rhsMax =  -5.39370770269443E-11  2.37279798852100E-02
 cg2d: Sum(rhs),rhsMax =  -5.42009770398977E-11  2.35917477213134E-02
 cg2d: Sum(rhs),rhsMax =  -5.44631006960117E-11  2.34449899922123E-02
 cg2d: Sum(rhs),rhsMax =  -5.47439871212418E-11  2.32877881308349E-02
 cg2d: Sum(rhs),rhsMax =  -5.50770540286294E-11  2.31202285433427E-02
 cg2d: Sum(rhs),rhsMax =  -5.54012391518199E-11  2.29424025463437E-02
 cg2d: Sum(rhs),rhsMax =  -5.57841550730132E-11  2.27544062805578E-02
 cg2d: Sum(rhs),rhsMax =  -5.61835022949708E-11  2.25563406593275E-02
 cg2d: Sum(rhs),rhsMax =  -5.65771873795029E-11  2.23483113066764E-02
 cg2d: Sum(rhs),rhsMax =  -5.70196112548160E-11  2.21304284849415E-02
 cg2d: Sum(rhs),rhsMax =  -5.75584024886666E-11  2.19028070159261E-02
 cg2d: Sum(rhs),rhsMax =  -5.81470427363229E-11  2.16655661994586E-02
 cg2d: Sum(rhs),rhsMax =  -5.87668802509711E-11  2.14188297076593E-02
 cg2d: Sum(rhs),rhsMax =  -5.94184701441236E-11  2.11627255293344E-02
 cg2d: Sum(rhs),rhsMax =  -6.00840488473864E-11  2.08973858986960E-02
 cg2d: Sum(rhs),rhsMax =  -6.08055827910903E-11  2.06229472153773E-02
 cg2d: Sum(rhs),rhsMax =  -6.15756334809703E-11  2.03395499789491E-02
 cg2d: Sum(rhs),rhsMax =  -6.24275076077652E-11  2.00473386719943E-02
 cg2d: Sum(rhs),rhsMax =  -6.32730534633197E-11  1.97464616616105E-02
 cg2d: Sum(rhs),rhsMax =  -6.42401687400707E-11  1.94370711014909E-02
 cg2d: Sum(rhs),rhsMax =  -6.52053966376798E-11  1.91193228394026E-02
 cg2d: Sum(rhs),rhsMax =  -6.62445653887289E-11  1.87933763269057E-02
 cg2d: Sum(rhs),rhsMax =  -6.73429090269906E-11  1.84593945272210E-02
 cg2d: Sum(rhs),rhsMax =  -6.85410617151661E-11  1.81175438157020E-02
 cg2d: Sum(rhs),rhsMax =  -6.97607527300192E-11  1.77679938752503E-02
 cg2d: Sum(rhs),rhsMax =  -7.10778103041321E-11  1.74109175920066E-02
 cg2d: Sum(rhs),rhsMax =  -7.24997839540720E-11  1.70464909420225E-02
 cg2d: Sum(rhs),rhsMax =  -7.39945882344273E-11  1.66748928710562E-02
 cg2d: Sum(rhs),rhsMax =  -7.55797646689871E-11  1.62963051808616E-02
 cg2d: Sum(rhs),rhsMax =  -7.72956143535453E-11  1.59109124187248E-02
 cg2d: Sum(rhs),rhsMax =  -7.91755550011430E-11  1.55189017671166E-02
 cg2d: Sum(rhs),rhsMax =  -8.12619971313211E-11  1.51204629320863E-02
 cg2d: Sum(rhs),rhsMax =  -8.34066149479895E-11  1.47157880308180E-02
 cg2d: Sum(rhs),rhsMax =  -8.57681703436697E-11  1.43050714796018E-02
 cg2d: Sum(rhs),rhsMax =  -8.82720563311068E-11  1.38885098833287E-02
 cg2d: Sum(rhs),rhsMax =  -9.09805564219823E-11  1.34663019271693E-02
 cg2d: Sum(rhs),rhsMax =  -9.39189837012577E-11  1.30386482701598E-02
 cg2d: Sum(rhs),rhsMax =  -9.70308278169796E-11  1.26057514412717E-02
 cg2d: Sum(rhs),rhsMax =  -1.00467523189707E-10  1.21678157198496E-02
 cg2d: Sum(rhs),rhsMax =  -1.04206199225132E-10  1.17250470315200E-02
 cg2d: Sum(rhs),rhsMax =  -1.08215991723171E-10  1.12776528659848E-02
 cg2d: Sum(rhs),rhsMax =  -1.12683751218867E-10  1.08258421801284E-02
 cg2d: Sum(rhs),rhsMax =  -1.17587384274032E-10  1.03698252922822E-02
 cg2d: Sum(rhs),rhsMax =  -1.22941989921799E-10  9.90981377321890E-03
 cg2d: Sum(rhs),rhsMax =  -1.28857258197002E-10  9.44602033772684E-03
 cg2d: Sum(rhs),rhsMax =  -1.35502942200105E-10  8.97865873842137E-03
 cg2d: Sum(rhs),rhsMax =  -1.42926115387354E-10  8.50794366206949E-03
 cg2d: Sum(rhs),rhsMax =  -1.51309298423996E-10  8.03409062819406E-03
 cg2d: Sum(rhs),rhsMax =  -1.60820579075960E-10  7.55731588965202E-03
 cg2d: Sum(rhs),rhsMax =  -1.71663572245961E-10  7.07783633496917E-03
 cg2d: Sum(rhs),rhsMax =  -1.84178894357956E-10  6.59586939267677E-03
 cg2d: Sum(rhs),rhsMax =  -1.98775773618820E-10  6.11163293869387E-03
 cg2d: Sum(rhs),rhsMax =  -2.15903073197410E-10  5.62534520597278E-03
 cg2d: Sum(rhs),rhsMax =  -2.36311636925279E-10  5.13722469567902E-03
 cg2d: Sum(rhs),rhsMax =  -2.61185517658191E-10  4.64749008955057E-03
 cg2d: Sum(rhs),rhsMax =  -2.91982549249781E-10  4.15636016331190E-03
 cg2d: Sum(rhs),rhsMax =  -3.31094929251208E-10  3.66405370167603E-03
 cg2d: Sum(rhs),rhsMax =  -3.82489706574063E-10  3.17078941216980E-03
 cg2d: Sum(rhs),rhsMax =  -3.98070465479350E-10  3.04644929427563E-03
 cg2d: Sum(rhs),rhsMax =  -3.76940034740869E-10  3.21735755414328E-03
 cg2d: Sum(rhs),rhsMax =  -3.57780804982610E-10  3.38829326807916E-03
 cg2d: Sum(rhs),rhsMax =  -3.40499323181476E-10  3.55918090971464E-03
 cg2d: Sum(rhs),rhsMax =  -3.24837268195211E-10  3.72994502303908E-03
 cg2d: Sum(rhs),rhsMax =  -3.10602765729584E-10  3.90051038679616E-03
 cg2d: Sum(rhs),rhsMax =  -2.97529390014262E-10  4.07080197521325E-03
 cg2d: Sum(rhs),rhsMax =  -2.85567514080043E-10  4.24074490089014E-03
 cg2d: Sum(rhs),rhsMax =  -2.74566647195940E-10  4.41026416875939E-03
 cg2d: Sum(rhs),rhsMax =  -2.64347099765416E-10  4.57928473630963E-03
 cg2d: Sum(rhs),rhsMax =  -2.54867738025411E-10  4.74773167259930E-03
 cg2d: Sum(rhs),rhsMax =  -2.46114018054300E-10  4.91553022350631E-03
 cg2d: Sum(rhs),rhsMax =  -2.37922348489406E-10  5.08260580613178E-03
 cg2d: Sum(rhs),rhsMax =  -2.30401142609082E-10  5.24888398923015E-03
 cg2d: Sum(rhs),rhsMax =  -2.23252083486614E-10  5.41429052619570E-03
 cg2d: Sum(rhs),rhsMax =  -2.16606066416603E-10  5.57875143030492E-03
 cg2d: Sum(rhs),rhsMax =  -2.04401384706898E-10  5.91097057672479E-03
 cg2d: Sum(rhs),rhsMax =  -1.93418725480399E-10  6.24453211408181E-03
 cg2d: Sum(rhs),rhsMax =  -1.83604131898107E-10  6.57593946741198E-03
 cg2d: Sum(rhs),rhsMax =  -1.74817271769712E-10  6.90503774193729E-03
 cg2d: Sum(rhs),rhsMax =  -1.66889724262376E-10  7.23167303871331E-03
 cg2d: Sum(rhs),rhsMax =  -1.59647073338931E-10  7.55569245068070E-03
 cg2d: Sum(rhs),rhsMax =  -1.51824219862817E-10  7.94384131850273E-03
 cg2d: Sum(rhs),rhsMax =  -1.43626555093590E-10  8.39621808980000E-03
 cg2d: Sum(rhs),rhsMax =  -1.36218702984081E-10  8.84436447964656E-03
 cg2d: Sum(rhs),rhsMax =  -1.29629529332931E-10  9.28809363861315E-03
 cg2d: Sum(rhs),rhsMax =  -1.23691390463421E-10  9.72722094267037E-03
 cg2d: Sum(rhs),rhsMax =  -1.18290488515527E-10  1.01615640554665E-02
 cg2d: Sum(rhs),rhsMax =  -1.13428044734576E-10  1.05909429893122E-02
 cg2d: Sum(rhs),rhsMax =  -1.08979936186415E-10  1.10151801654565E-02
 cg2d: Sum(rhs),rhsMax =  -1.04923514321342E-10  1.14341004741797E-02
 cg2d: Sum(rhs),rhsMax =  -1.01183283973683E-10  1.18475313348562E-02
 cg2d: Sum(rhs),rhsMax =  -9.77565806081770E-11  1.22553027558242E-02
 cg2d: Sum(rhs),rhsMax =  -9.45835632037983E-11  1.26572473931782E-02
 cg2d: Sum(rhs),rhsMax =  -9.16785536375642E-11  1.30532006092428E-02
 cg2d: Sum(rhs),rhsMax =  -8.89781581747684E-11  1.34430005316733E-02
 cg2d: Sum(rhs),rhsMax =  -8.64017746238233E-11  1.38264881109971E-02
 cg2d: Sum(rhs),rhsMax =  -8.40854053052453E-11  1.42035071755628E-02
 cg2d: Sum(rhs),rhsMax =  -8.18078937925293E-11  1.45739044862218E-02
 cg2d: Sum(rhs),rhsMax =  -7.96822607895820E-11  1.49375297891826E-02
 cg2d: Sum(rhs),rhsMax =  -7.76891884157749E-11  1.52942358649416E-02
 cg2d: Sum(rhs),rhsMax =  -7.58468843287119E-11  1.56438785735363E-02
 cg2d: Sum(rhs),rhsMax =  -7.41078309829390E-11  1.59863168948613E-02
 cg2d: Sum(rhs),rhsMax =  -7.24940107943439E-11  1.63214129638239E-02
 cg2d: Sum(rhs),rhsMax =  -7.09304837087643E-11  1.66490321008562E-02
 cg2d: Sum(rhs),rhsMax =  -6.95309365639218E-11  1.69690428381503E-02
 cg2d: Sum(rhs),rhsMax =  -6.81450451622823E-11  1.72813169418603E-02
 cg2d: Sum(rhs),rhsMax =  -6.68853861185426E-11  1.75857294306565E-02
 cg2d: Sum(rhs),rhsMax =  -6.57077725563227E-11  1.78821585913785E-02
 cg2d: Sum(rhs),rhsMax =  -6.46039888252403E-11  1.81704859924945E-02
 cg2d: Sum(rhs),rhsMax =  -6.35370644985755E-11  1.84505964985837E-02
 cg2d: Sum(rhs),rhsMax =  -6.25234308770928E-11  1.87223782852909E-02
 cg2d: Sum(rhs),rhsMax =  -6.15923978486421E-11  1.89857228561948E-02
 cg2d: Sum(rhs),rhsMax =  -6.06958927562573E-11  1.92405250639266E-02
 cg2d: Sum(rhs),rhsMax =  -5.98723293165904E-11  1.94866831351926E-02
 cg2d: Sum(rhs),rhsMax =  -5.90913984410690E-11  1.97240987025432E-02
 cg2d: Sum(rhs),rhsMax =  -5.83492143491071E-11  1.99526768413285E-02
 cg2d: Sum(rhs),rhsMax =  -5.76465541968219E-11  2.01723261101808E-02
 cg2d: Sum(rhs),rhsMax =  -5.69418956430923E-11  2.03829585949361E-02
 cg2d: Sum(rhs),rhsMax =  -5.62824231664649E-11  2.05844899556095E-02
 cg2d: Sum(rhs),rhsMax =  -5.56480417301941E-11  2.07768394755320E-02
 cg2d: Sum(rhs),rhsMax =  -5.50691714451546E-11  2.09599301137231E-02
 cg2d: Sum(rhs),rhsMax =  -5.45444800437167E-11  2.11336885561774E-02
 cg2d: Sum(rhs),rhsMax =  -5.40304467833153E-11  2.12980452578360E-02
 cg2d: Sum(rhs),rhsMax =  -5.35425037639925E-11  2.14529344842570E-02
 cg2d: Sum(rhs),rhsMax =  -5.31156230110241E-11  2.15982943514355E-02
 cg2d: Sum(rhs),rhsMax =  -5.27466958999412E-11  2.17340668621483E-02
 cg2d: Sum(rhs),rhsMax =  -5.23560084175756E-11  2.18601979376160E-02
 cg2d: Sum(rhs),rhsMax =  -5.20370413426008E-11  2.19766374440736E-02
 cg2d: Sum(rhs),rhsMax =  -5.17235143604466E-11  2.20833392145261E-02
 cg2d: Sum(rhs),rhsMax =  -5.14415177121919E-11  2.21802610663320E-02
 cg2d: Sum(rhs),rhsMax =  -5.11993780705211E-11  2.22673648153524E-02
 cg2d: Sum(rhs),rhsMax =  -5.09383646374317E-11  2.23446162873236E-02
 cg2d: Sum(rhs),rhsMax =  -5.07475172994987E-11  2.24119853269795E-02
 cg2d: Sum(rhs),rhsMax =  -5.05508968018376E-11  2.24694458052897E-02
 cg2d: Sum(rhs),rhsMax =  -5.03748154301320E-11  2.25169756061875E-02
 cg2d: Sum(rhs),rhsMax =  -5.02209385189190E-11  2.25545566490300E-02
 cg2d: Sum(rhs),rhsMax =  -5.01360064575351E-11  2.25821749057226E-02
 cg2d: Sum(rhs),rhsMax =  -5.00735009012487E-11  2.25998203996524E-02
 cg2d: Sum(rhs),rhsMax =  -4.99723595837054E-11  2.26074871996652E-02
 cg2d: Sum(rhs),rhsMax =  -4.98684427086005E-11  2.26051734142764E-02
 cg2d: Sum(rhs),rhsMax =  -4.98721064445817E-11  2.25928811870670E-02
 cg2d: Sum(rhs),rhsMax =  -4.99918995089388E-11  2.25706167125354E-02
 cg2d: Sum(rhs),rhsMax =  -5.01908514749516E-11  2.25383902167144E-02
 cg2d: Sum(rhs),rhsMax =  -5.03562747056208E-11  2.24962159362092E-02
 cg2d: Sum(rhs),rhsMax =  -5.05396835492888E-11  2.24441121059692E-02
 cg2d: Sum(rhs),rhsMax =  -5.07578423736277E-11  2.23821009524279E-02
 cg2d: Sum(rhs),rhsMax =  -5.10299580369633E-11  2.23102086885364E-02
 cg2d: Sum(rhs),rhsMax =  -5.12381248540805E-11  2.22284655087851E-02
 cg2d: Sum(rhs),rhsMax =  -5.14890352576458E-11  2.21369055840217E-02
 cg2d: Sum(rhs),rhsMax =  -5.17983433923064E-11  2.20355670578221E-02
 cg2d: Sum(rhs),rhsMax =  -5.20802290182587E-11  2.19244920372788E-02
 cg2d: Sum(rhs),rhsMax =  -5.24684740099701E-11  2.18037265895083E-02
 cg2d: Sum(rhs),rhsMax =  -5.28150856382581E-11  2.16733207431111E-02
 cg2d: Sum(rhs),rhsMax =  -5.32398569674797E-11  2.15333284931128E-02
 cg2d: Sum(rhs),rhsMax =  -5.36866107125888E-11  2.13838078079896E-02
 cg2d: Sum(rhs),rhsMax =  -5.41584554980545E-11  2.12248206378830E-02
 cg2d: Sum(rhs),rhsMax =  -5.46939160628312E-11  2.10564329206444E-02
 cg2d: Sum(rhs),rhsMax =  -5.52464740621872E-11  2.08787145780841E-02
 cg2d: Sum(rhs),rhsMax =  -5.58338930645164E-11  2.06917395409148E-02
 cg2d: Sum(rhs),rhsMax =  -5.64560620475163E-11  2.04955857638038E-02
 cg2d: Sum(rhs),rhsMax =  -5.71326319587229E-11  2.02903352194298E-02
 cg2d: Sum(rhs),rhsMax =  -5.77895509223936E-11  2.00760739005923E-02
 cg2d: Sum(rhs),rhsMax =  -5.84740034170750E-11  1.98528918331241E-02
 cg2d: Sum(rhs),rhsMax =  -5.92699223034288E-11  1.96208830732026E-02
 cg2d: Sum(rhs),rhsMax =  -6.00572924724929E-11  1.93801456931369E-02
 cg2d: Sum(rhs),rhsMax =  -6.09006178819982E-11  1.91307817595358E-02
 cg2d: Sum(rhs),rhsMax =  -6.17931261714944E-11  1.88728973117403E-02
 cg2d: Sum(rhs),rhsMax =  -6.27705665223743E-11  1.86066023440190E-02
 cg2d: Sum(rhs),rhsMax =  -6.38028518906708E-11  1.83320107467229E-02
 cg2d: Sum(rhs),rhsMax =  -6.48699982619405E-11  1.80492402494989E-02
 cg2d: Sum(rhs),rhsMax =  -6.59962084981203E-11  1.77584123601869E-02
 cg2d: Sum(rhs),rhsMax =  -6.71883659819628E-11  1.74596523025605E-02
 cg2d: Sum(rhs),rhsMax =  -6.84959866603663E-11  1.71530889492384E-02
 cg2d: Sum(rhs),rhsMax =  -6.98754387684630E-11  1.68388547456407E-02
 cg2d: Sum(rhs),rhsMax =  -7.13425984955052E-11  1.65170856279164E-02
 cg2d: Sum(rhs),rhsMax =  -7.28983540199124E-11  1.61879209202980E-02
 cg2d: Sum(rhs),rhsMax =  -7.45525863266039E-11  1.58515032383801E-02
 cg2d: Sum(rhs),rhsMax =  -7.63145102666840E-11  1.55079783981964E-02
 cg2d: Sum(rhs),rhsMax =  -7.81983366948680E-11  1.51574953301471E-02
 cg2d: Sum(rhs),rhsMax =  -8.02272692723704E-11  1.48002059978202E-02
 cg2d: Sum(rhs),rhsMax =  -8.23738854904832E-11  1.44362653232031E-02
 cg2d: Sum(rhs),rhsMax =  -8.46831493817035E-11  1.40658311203552E-02
 cg2d: Sum(rhs),rhsMax =  -8.70817862264062E-11  1.36890640390634E-02
 cg2d: Sum(rhs),rhsMax =  -8.96689389406902E-11  1.33061275185183E-02
 cg2d: Sum(rhs),rhsMax =  -9.23846554812258E-11  1.29171877498094E-02
 cg2d: Sum(rhs),rhsMax =  -9.53613854548507E-11  1.25224136454067E-02
 cg2d: Sum(rhs),rhsMax =  -9.85871384528991E-11  1.21219768125167E-02
 cg2d: Sum(rhs),rhsMax =  -1.02083785868956E-10  1.17160515251427E-02
 cg2d: Sum(rhs),rhsMax =  -1.05843334097244E-10  1.13048147018997E-02
 cg2d: Sum(rhs),rhsMax =  -1.09971587392010E-10  1.08884458596753E-02
 cg2d: Sum(rhs),rhsMax =  -1.14475873225217E-10  1.04671270879143E-02
 cg2d: Sum(rhs),rhsMax =  -1.19449339308630E-10  1.00410430154811E-02
 cg2d: Sum(rhs),rhsMax =  -1.24894650177509E-10  9.61038075744589E-03
 cg2d: Sum(rhs),rhsMax =  -1.30896959937843E-10  9.17532984566605E-03
 cg2d: Sum(rhs),rhsMax =  -1.37574729386358E-10  8.73608214737565E-03
 cg2d: Sum(rhs),rhsMax =  -1.45074730006911E-10  8.29283177495463E-03
 cg2d: Sum(rhs),rhsMax =  -1.53415835590920E-10  7.84577498869365E-03
 cg2d: Sum(rhs),rhsMax =  -1.62815649851211E-10  7.39511009342886E-03
 cg2d: Sum(rhs),rhsMax =  -1.73504766110000E-10  6.94103732958146E-03
 cg2d: Sum(rhs),rhsMax =  -1.85787163431428E-10  6.48375876098424E-03
 cg2d: Sum(rhs),rhsMax =  -2.00010341622203E-10  6.02347816024989E-03
 cg2d: Sum(rhs),rhsMax =  -2.16728190949311E-10  5.56040089277993E-03
 cg2d: Sum(rhs),rhsMax =  -2.30437335879685E-10  5.23105889380778E-03
 cg2d: Sum(rhs),rhsMax =  -2.37958874826916E-10  5.06597673138927E-03
 cg2d: Sum(rhs),rhsMax =  -2.46095588352091E-10  4.90033134228446E-03
 cg2d: Sum(rhs),rhsMax =  -2.54801291177387E-10  4.73419679928142E-03
 cg2d: Sum(rhs),rhsMax =  -2.64159583096557E-10  4.56764700560360E-03
 cg2d: Sum(rhs),rhsMax =  -2.74244515985345E-10  4.40075564979395E-03
 cg2d: Sum(rhs),rhsMax =  -2.85153234358404E-10  4.23359621816443E-03
 cg2d: Sum(rhs),rhsMax =  -2.96959290491117E-10  4.06624203753172E-03
 cg2d: Sum(rhs),rhsMax =  -3.09787751007207E-10  3.89876550282545E-03
 cg2d: Sum(rhs),rhsMax =  -3.23744281383043E-10  3.73123929328552E-03
 cg2d: Sum(rhs),rhsMax =  -3.39078445876773E-10  3.56373270336325E-03
 cg2d: Sum(rhs),rhsMax =  -3.55903057025486E-10  3.39631772203343E-03
 cg2d: Sum(rhs),rhsMax =  -3.74435676908647E-10  3.22906868962468E-03
 cg2d: Sum(rhs),rhsMax =  -3.94968446837396E-10  3.06205573710550E-03
 cg2d: Sum(rhs),rhsMax =  -4.17775869454573E-10  2.89534805103056E-03
 cg2d: Sum(rhs),rhsMax =  -4.43252767823310E-10  2.72901865965357E-03
 cg2d: Sum(rhs),rhsMax =  -4.27245350209660E-10  2.83176404728066E-03
 cg2d: Sum(rhs),rhsMax =  -3.72297748185701E-10  3.25034831576199E-03
 cg2d: Sum(rhs),rhsMax =  -3.29766436379941E-10  3.67077502393278E-03
 cg2d: Sum(rhs),rhsMax =  -2.95379609660529E-10  4.09937580359443E-03
 cg2d: Sum(rhs),rhsMax =  -2.67298405631777E-10  4.53002186978379E-03
 cg2d: Sum(rhs),rhsMax =  -2.43821851597659E-10  4.96675173851178E-03
 cg2d: Sum(rhs),rhsMax =  -2.24005702875729E-10  5.40716462702786E-03
 cg2d: Sum(rhs),rhsMax =  -2.07054151601938E-10  5.85102576578833E-03
 cg2d: Sum(rhs),rhsMax =  -1.92219462569199E-10  6.30422886576133E-03
 cg2d: Sum(rhs),rhsMax =  -1.79175230208273E-10  6.76507729145817E-03
 cg2d: Sum(rhs),rhsMax =  -1.67904801173790E-10  7.22292954022742E-03
 cg2d: Sum(rhs),rhsMax =  -1.57998503169665E-10  7.67757438422080E-03
 cg2d: Sum(rhs),rhsMax =  -1.49277812333537E-10  8.12880182897482E-03
 cg2d: Sum(rhs),rhsMax =  -1.41592071400964E-10  8.57640322637517E-03
 cg2d: Sum(rhs),rhsMax =  -1.34718014521695E-10  9.02017138915558E-03
 cg2d: Sum(rhs),rhsMax =  -1.28548505173853E-10  9.45990071124114E-03
 cg2d: Sum(rhs),rhsMax =  -1.23007048991042E-10  9.89538729545488E-03
 cg2d: Sum(rhs),rhsMax =  -1.17943321775726E-10  1.03264290882430E-02
 cg2d: Sum(rhs),rhsMax =  -1.13348441743710E-10  1.07528260209522E-02
 cg2d: Sum(rhs),rhsMax =  -1.09138142967424E-10  1.11743801564978E-02
 cg2d: Sum(rhs),rhsMax =  -1.05319086785016E-10  1.15908958416942E-02
 cg2d: Sum(rhs),rhsMax =  -1.01763486526352E-10  1.20021798632478E-02
 cg2d: Sum(rhs),rhsMax =  -9.84760051281341E-11  1.24080416032921E-02
 cg2d: Sum(rhs),rhsMax =  -9.54953893739230E-11  1.28082931909576E-02
 cg2d: Sum(rhs),rhsMax =  -9.27053989130400E-11  1.32027496462480E-02
 cg2d: Sum(rhs),rhsMax =  -9.00607366460804E-11  1.35912290126531E-02
 cg2d: Sum(rhs),rhsMax =  -8.76754224776732E-11  1.39735524753141E-02
 cg2d: Sum(rhs),rhsMax =  -8.54404325068003E-11  1.43495444623121E-02
 cg2d: Sum(rhs),rhsMax =  -8.33400015665120E-11  1.47190327267543E-02
 cg2d: Sum(rhs),rhsMax =  -8.14784906211230E-11  1.50818484133776E-02
 cg2d: Sum(rhs),rhsMax =  -7.97136801011789E-11  1.54378261061671E-02
 cg2d: Sum(rhs),rhsMax =  -7.80771003405789E-11  1.57868038594990E-02
 cg2d: Sum(rhs),rhsMax =  -7.65384422507509E-11  1.61286232170385E-02
 cg2d: Sum(rhs),rhsMax =  -7.50814965755353E-11  1.64631292214172E-02
 cg2d: Sum(rhs),rhsMax =  -7.37652161575397E-11  1.67901704195574E-02
 cg2d: Sum(rhs),rhsMax =  -7.24674764640554E-11  1.71095988686675E-02
 cg2d: Sum(rhs),rhsMax =  -7.12266912117343E-11  1.74212701472028E-02
 cg2d: Sum(rhs),rhsMax =  -7.01273483727505E-11  1.77250433741156E-02
 cg2d: Sum(rhs),rhsMax =  -6.90479895482099E-11  1.80207812387529E-02
 cg2d: Sum(rhs),rhsMax =  -6.80308032130483E-11  1.83083500428634E-02
 cg2d: Sum(rhs),rhsMax =  -6.70908884004007E-11  1.85876197551261E-02
 cg2d: Sum(rhs),rhsMax =  -6.61702914683815E-11  1.88584640781657E-02
 cg2d: Sum(rhs),rhsMax =  -6.53662679539480E-11  1.91207605268925E-02
 cg2d: Sum(rhs),rhsMax =  -6.45518083430829E-11  1.93743905160120E-02
 cg2d: Sum(rhs),rhsMax =  -6.38067376712570E-11  1.96192394541040E-02
 cg2d: Sum(rhs),rhsMax =  -6.31186214405943E-11  1.98551968410437E-02
 cg2d: Sum(rhs),rhsMax =  -6.24794660453176E-11  2.00821563663945E-02
 cg2d: Sum(rhs),rhsMax =  -6.18574080846201E-11  2.03000160084549E-02
 cg2d: Sum(rhs),rhsMax =  -6.13213924083311E-11  2.05086781286412E-02
 cg2d: Sum(rhs),rhsMax =  -6.08479933106310E-11  2.07080495595095E-02
 cg2d: Sum(rhs),rhsMax =  -6.03903593798805E-11  2.08980416860456E-02
 cg2d: Sum(rhs),rhsMax =  -5.99645888499367E-11  2.10785705172852E-02
 cg2d: Sum(rhs),rhsMax =  -5.95821170179534E-11  2.12495567529924E-02
 cg2d: Sum(rhs),rhsMax =  -5.92047522118833E-11  2.14109258388590E-02
 cg2d: Sum(rhs),rhsMax =  -5.88884496721676E-11  2.15626080085236E-02
 cg2d: Sum(rhs),rhsMax =  -5.85770321137602E-11  2.17045383203067E-02
 cg2d: Sum(rhs),rhsMax =  -5.82872639043330E-11  2.18366566881326E-02
 cg2d: Sum(rhs),rhsMax =  -5.80263614935461E-11  2.19589079061324E-02
 cg2d: Sum(rhs),rhsMax =  -5.77542458302105E-11  2.20712416667958E-02
 cg2d: Sum(rhs),rhsMax =  -5.75470782138154E-11  2.21736125730715E-02
 cg2d: Sum(rhs),rhsMax =  -5.73512348722716E-11  2.22659801452921E-02
 cg2d: Sum(rhs),rhsMax =  -5.72544234245242E-11  2.23483088239953E-02
 cg2d: Sum(rhs),rhsMax =  -5.71337421817475E-11  2.24205679696383E-02
 cg2d: Sum(rhs),rhsMax =  -5.70717917369734E-11  2.24827318600063E-02
 cg2d: Sum(rhs),rhsMax =  -5.70046232439836E-11  2.25347796859232E-02
 cg2d: Sum(rhs),rhsMax =  -5.69142510897791E-11  2.25766955322374E-02
 cg2d: Sum(rhs),rhsMax =  -5.69191360710875E-11  2.26084683786814E-02
 cg2d: Sum(rhs),rhsMax =  -5.69689850848931E-11  2.26300921084446E-02
 cg2d: Sum(rhs),rhsMax =  -5.68076696794151E-11  2.26415655024778E-02
 cg2d: Sum(rhs),rhsMax =  -5.67862423750398E-11  2.26428922250573E-02
 cg2d: Sum(rhs),rhsMax =  -5.67762503678182E-11  2.26340808096212E-02
 cg2d: Sum(rhs),rhsMax =  -5.67800251261019E-11  2.26151446454539E-02
 cg2d: Sum(rhs),rhsMax =  -5.67955682484467E-11  2.25861019832937E-02
 cg2d: Sum(rhs),rhsMax =  -5.68503022435607E-11  2.25469759139464E-02
 cg2d: Sum(rhs),rhsMax =  -5.69069236178166E-11  2.24977943379994E-02
 cg2d: Sum(rhs),rhsMax =  -5.70189451210013E-11  2.24385899429390E-02
 cg2d: Sum(rhs),rhsMax =  -5.70473668304317E-11  2.23694001832508E-02
 cg2d: Sum(rhs),rhsMax =  -5.72579761382030E-11  2.22902672590264E-02
 cg2d: Sum(rhs),rhsMax =  -5.74370551120751E-11  2.22012380900125E-02
 cg2d: Sum(rhs),rhsMax =  -5.76462211299145E-11  2.21023642839462E-02
 cg2d: Sum(rhs),rhsMax =  -5.78647130211607E-11  2.19937021030291E-02
 cg2d: Sum(rhs),rhsMax =  -5.81366066398914E-11  2.18753124180232E-02
 cg2d: Sum(rhs),rhsMax =  -5.84106096823689E-11  2.17472606599492E-02
 cg2d: Sum(rhs),rhsMax =  -5.86813930780750E-11  2.16096167711541E-02
 cg2d: Sum(rhs),rhsMax =  -5.90008042422596E-11  2.14624551548053E-02
 cg2d: Sum(rhs),rhsMax =  -5.93757265576755E-11  2.13058546220077E-02
 cg2d: Sum(rhs),rhsMax =  -5.97470961594126E-11  2.11398983364382E-02
 cg2d: Sum(rhs),rhsMax =  -6.01715344217268E-11  2.09646737507852E-02
 cg2d: Sum(rhs),rhsMax =  -6.06136252301326E-11  2.07802725407242E-02
 cg2d: Sum(rhs),rhsMax =  -6.10813621904072E-11  2.05867905608868E-02
 cg2d: Sum(rhs),rhsMax =  -6.15584250240886E-11  2.03843277916836E-02
 cg2d: Sum(rhs),rhsMax =  -6.21553919444295E-11  2.01729882679051E-02
 cg2d: Sum(rhs),rhsMax =  -6.27606855374552E-11  1.99528800160076E-02
 cg2d: Sum(rhs),rhsMax =  -6.34495789242351E-11  1.97241150058517E-02
 cg2d: Sum(rhs),rhsMax =  -6.41676711765626E-11  1.94868090903735E-02
 cg2d: Sum(rhs),rhsMax =  -6.49442721822879E-11  1.92410819372023E-02
 cg2d: Sum(rhs),rhsMax =  -6.57389698233146E-11  1.89870569569915E-02
 cg2d: Sum(rhs),rhsMax =  -6.65737465155303E-11  1.87248612374027E-02
 cg2d: Sum(rhs),rhsMax =  -6.74923450461051E-11  1.84546254773841E-02
 cg2d: Sum(rhs),rhsMax =  -6.84268197659321E-11  1.81764838890770E-02
 cg2d: Sum(rhs),rhsMax =  -6.94316826255204E-11  1.78905741080695E-02
 cg2d: Sum(rhs),rhsMax =  -7.05087099817092E-11  1.75970371036400E-02
 cg2d: Sum(rhs),rhsMax =  -7.16782189158494E-11  1.72960170931287E-02
 cg2d: Sum(rhs),rhsMax =  -7.28450633147304E-11  1.69876614552061E-02
 cg2d: Sum(rhs),rhsMax =  -7.41354755362522E-11  1.66721206410092E-02
 cg2d: Sum(rhs),rhsMax =  -7.54806217528881E-11  1.63495480807491E-02
 cg2d: Sum(rhs),rhsMax =  -7.69574404202444E-11  1.60201000756771E-02
 cg2d: Sum(rhs),rhsMax =  -7.84946552201404E-11  1.56839356957236E-02
 cg2d: Sum(rhs),rhsMax =  -8.01239075087778E-11  1.53412166814181E-02
 cg2d: Sum(rhs),rhsMax =  -8.18886070064195E-11  1.49921073479534E-02
 cg2d: Sum(rhs),rhsMax =  -8.37496738625987E-11  1.46367744901470E-02
 cg2d: Sum(rhs),rhsMax =  -8.57364179651654E-11  1.42753872884074E-02
 cg2d: Sum(rhs),rhsMax =  -8.79742945159023E-11  1.39081172165760E-02
 cg2d: Sum(rhs),rhsMax =  -9.03448427180820E-11  1.35351379523716E-02
 cg2d: Sum(rhs),rhsMax =  -9.28882526451957E-11  1.31566252905526E-02
 cg2d: Sum(rhs),rhsMax =  -9.56287271591805E-11  1.27727570584365E-02
 cg2d: Sum(rhs),rhsMax =  -9.85609371895180E-11  1.23837130333944E-02
 cg2d: Sum(rhs),rhsMax =  -1.01738173441390E-10  1.19896748582387E-02
 cg2d: Sum(rhs),rhsMax =  -1.05199626787567E-10  1.15908259563164E-02
 cg2d: Sum(rhs),rhsMax =  -1.08899889106340E-10  1.11873514517176E-02
 cg2d: Sum(rhs),rhsMax =  -1.12950870878592E-10  1.07794380719818E-02
 cg2d: Sum(rhs),rhsMax =  -1.17372778163372E-10  1.03672740655962E-02
 cg2d: Sum(rhs),rhsMax =  -1.22209908859361E-10  9.95104912927319E-03
 cg2d: Sum(rhs),rhsMax =  -1.27488908319151E-10  9.53095432313321E-03
 cg2d: Sum(rhs),rhsMax =  -1.33336341967549E-10  9.10718197887813E-03
 cg2d: Sum(rhs),rhsMax =  -1.39798062015473E-10  8.67992560604362E-03
 cg2d: Sum(rhs),rhsMax =  -1.46986756099921E-10  8.24937979971143E-03
 cg2d: Sum(rhs),rhsMax =  -1.55047641392514E-10  7.81574015086213E-03
 cg2d: Sum(rhs),rhsMax =  -1.64167679450600E-10  7.37920315850251E-03
 cg2d: Sum(rhs),rhsMax =  -1.74535497166062E-10  6.93996614421417E-03
 cg2d: Sum(rhs),rhsMax =  -1.86349824460308E-10  6.49822716792215E-03
 cg2d: Sum(rhs),rhsMax =  -1.99998351213537E-10  6.05418494377482E-03
 cg2d: Sum(rhs),rhsMax =  -2.15845563644734E-10  5.60803875566696E-03
 cg2d: Sum(rhs),rhsMax =  -2.34529728970756E-10  5.15998837182756E-03
 cg2d: Sum(rhs),rhsMax =  -2.56855203772943E-10  4.71023395853944E-03
 cg2d: Sum(rhs),rhsMax =  -2.83997603212072E-10  4.25897599282113E-03
 cg2d: Sum(rhs),rhsMax =  -3.17738391153455E-10  3.80641517364316E-03
 cg2d: Sum(rhs),rhsMax =  -3.60635299401224E-10  3.35275233133329E-03
 cg2d: Sum(rhs),rhsMax =  -3.92676224869604E-10  3.07856765754151E-03
 cg2d: Sum(rhs),rhsMax =  -3.72469222131855E-10  3.24437880233809E-03
 cg2d: Sum(rhs),rhsMax =  -3.54292262194633E-10  3.41026234791914E-03
 cg2d: Sum(rhs),rhsMax =  -3.37797428917597E-10  3.57614388864039E-03
 cg2d: Sum(rhs),rhsMax =  -3.22770393745841E-10  3.74194905309351E-03
 cg2d: Sum(rhs),rhsMax =  -3.09001981987911E-10  3.90760349341608E-03
 cg2d: Sum(rhs),rhsMax =  -2.96363461549376E-10  4.07303286664883E-03
 cg2d: Sum(rhs),rhsMax =  -2.84737011746472E-10  4.23816284089679E-03
 cg2d: Sum(rhs),rhsMax =  -2.74023526092293E-10  4.40291895252906E-03
(PID.TID 0000.0001)      cg2d_init_res =   5.42899589724404E-01
(PID.TID 0000.0001)      cg2d_iters(min,last) =      -1      40
(PID.TID 0000.0001)      cg2d_last_res =   6.63172588434934E-14
(PID.TID 0000.0001) // =======================================================
(PID.TID 0000.0001) // Begin MONITOR dynamic field statistics
(PID.TID 0000.0001) // =======================================================
(PID.TID 0000.0001) %MON time_tsnumber                =                  4320
(PID.TID 0000.0001) %MON time_secondsf                =   6.4800000000000E+04
(PID.TID 0000.0001) %MON dynstat_eta_max              =   4.0290259765856E-04
(PID.TID 0000.0001) %MON dynstat_eta_min              =  -1.2378336593337E-03
(PID.TID 0000.0001) %MON dynstat_eta_mean             =   2.6598389213656E-15
(PID.TID 0000.0001) %MON dynstat_eta_sd               =   3.3780530857839E-04
(PID.TID 0000.0001) %MON dynstat_eta_del2             =   1.6896086498551E-06
(PID.TID 0000.0001) %MON dynstat_uvel_max             =   1.8696550195686E-01
(PID.TID 0000.0001) %MON dynstat_uvel_min             =   5.4478954380481E-02
(PID.TID 0000.0001) %MON dynstat_uvel_mean            =   1.1380648338866E-01
(PID.TID 0000.0001) %MON dynstat_uvel_sd              =   6.4892867778599E-03
(PID.TID 0000.0001) %MON dynstat_uvel_del2            =   8.8346141556292E-05
(PID.TID 0000.0001) %MON dynstat_vvel_max             =   0.0000000000000E+00
(PID.TID 0000.0001) %MON dynstat_vvel_min             =   0.0000000000000E+00
(PID.TID 0000.0001) %MON dynstat_vvel_mean            =   0.0000000000000E+00
(PID.TID 0000.0001) %MON dynstat_vvel_sd              =   0.0000000000000E+00
(PID.TID 0000.0001) %MON dynstat_vvel_del2            =   0.0000000000000E+00
(PID.TID 0000.0001) %MON dynstat_wvel_max             =   4.4148172277532E-03
(PID.TID 0000.0001) %MON dynstat_wvel_min             =  -2.4669721231006E-03
(PID.TID 0000.0001) %MON dynstat_wvel_mean            =   5.5332024637654E-22
(PID.TID 0000.0001) %MON dynstat_wvel_sd              =   2.6137312740991E-04
(PID.TID 0000.0001) %MON dynstat_wvel_del2            =   8.8335459843758E-06
(PID.TID 0000.0001) %MON dynstat_theta_max            =   1.5000000000008E+01
(PID.TID 0000.0001) %MON dynstat_theta_min            =   9.9999999999927E+00
(PID.TID 0000.0001) %MON dynstat_theta_mean           =   1.1003824261081E+01
(PID.TID 0000.0001) %MON dynstat_theta_sd             =   1.9386487104712E+00
(PID.TID 0000.0001) %MON dynstat_theta_del2           =   1.9235143999153E-05
(PID.TID 0000.0001) %MON dynstat_salt_max             =   3.5000000000000E+01
(PID.TID 0000.0001) %MON dynstat_salt_min             =   3.5000000000000E+01
(PID.TID 0000.0001) %MON dynstat_salt_mean            =   3.5000000000000E+01
(PID.TID 0000.0001) %MON dynstat_salt_sd              =   4.0500935938326E-13
(PID.TID 0000.0001) %MON dynstat_salt_del2            =   0.0000000000000E+00
(PID.TID 0000.0001) %MON dynstat_sst_max              =   1.5000000000008E+01
(PID.TID 0000.0001) %MON dynstat_sst_min              =   1.5000000000000E+01
(PID.TID 0000.0001) %MON dynstat_sst_mean             =   1.5000000000006E+01
(PID.TID 0000.0001) %MON dynstat_sst_sd               =   2.9670004288684E-12
(PID.TID 0000.0001) %MON dynstat_sst_del2             =   1.8789283861054E-14
(PID.TID 0000.0001) %MON dynstat_sss_max              =   3.5000000000000E+01
(PID.TID 0000.0001) %MON dynstat_sss_min              =   3.5000000000000E+01
(PID.TID 0000.0001) %MON dynstat_sss_mean             =   3.5000000000000E+01
(PID.TID 0000.0001) %MON dynstat_sss_sd               =   4.2632564145606E-14
(PID.TID 0000.0001) %MON dynstat_sss_del2             =   0.0000000000000E+00
(PID.TID 0000.0001) %MON forcing_qnet_max             =   0.0000000000000E+00
(PID.TID 0000.0001) %MON forcing_qnet_min             =   0.0000000000000E+00
(PID.TID 0000.0001) %MON forcing_qnet_mean            =   0.0000000000000E+00
(PID.TID 0000.0001) %MON forcing_qnet_sd              =   0.0000000000000E+00
(PID.TID 0000.0001) %MON forcing_qnet_del2            =   0.0000000000000E+00
(PID.TID 0000.0001) %MON forcing_qsw_max              =   0.0000000000000E+00
(PID.TID 0000.0001) %MON forcing_qsw_min              =   0.0000000000000E+00
(PID.TID 0000.0001) %MON forcing_qsw_mean             =   0.0000000000000E+00
(PID.TID 0000.0001) %MON forcing_qsw_sd               =   0.0000000000000E+00
(PID.TID 0000.0001) %MON forcing_qsw_del2             =   0.0000000000000E+00
(PID.TID 0000.0001) %MON forcing_empmr_max            =   0.0000000000000E+00
(PID.TID 0000.0001) %MON forcing_empmr_min            =   0.0000000000000E+00
(PID.TID 0000.0001) %MON forcing_empmr_mean           =   0.0000000000000E+00
(PID.TID 0000.0001) %MON forcing_empmr_sd             =   0.0000000000000E+00
(PID.TID 0000.0001) %MON forcing_empmr_del2           =   0.0000000000000E+00
(PID.TID 0000.0001) %MON forcing_fu_max               =   0.0000000000000E+00
(PID.TID 0000.0001) %MON forcing_fu_min               =   0.0000000000000E+00
(PID.TID 0000.0001) %MON forcing_fu_mean              =   0.0000000000000E+00
(PID.TID 0000.0001) %MON forcing_fu_sd                =   0.0000000000000E+00
(PID.TID 0000.0001) %MON forcing_fu_del2              =   0.0000000000000E+00
(PID.TID 0000.0001) %MON forcing_fv_max               =   0.0000000000000E+00
(PID.TID 0000.0001) %MON forcing_fv_min               =   0.0000000000000E+00
(PID.TID 0000.0001) %MON forcing_fv_mean              =   0.0000000000000E+00
(PID.TID 0000.0001) %MON forcing_fv_sd                =   0.0000000000000E+00
(PID.TID 0000.0001) %MON forcing_fv_del2              =   0.0000000000000E+00
(PID.TID 0000.0001) %MON advcfl_uvel_max              =   1.3223066510713E-02
(PID.TID 0000.0001) %MON advcfl_vvel_max              =   0.0000000000000E+00
(PID.TID 0000.0001) %MON advcfl_wvel_max              =   6.5787224601487E-02
(PID.TID 0000.0001) %MON advcfl_W_hf_max              =   6.6241016016832E-02
(PID.TID 0000.0001) %MON pe_b_mean                    =   2.8282422215472E-09
(PID.TID 0000.0001) %MON ke_max                       =   1.4941594455993E-02
(PID.TID 0000.0001) %MON ke_mean                      =   6.4975621559512E-03
(PID.TID 0000.0001) %MON ke_vol                       =   9.6656886657870E+10
(PID.TID 0000.0001) %MON vort_r_min                   =   0.0000000000000E+00
(PID.TID 0000.0001) %MON vort_r_max                   =   0.0000000000000E+00
(PID.TID 0000.0001) %MON vort_a_mean                  =   0.0000000000000E+00
(PID.TID 0000.0001) %MON vort_a_sd                    =   0.0000000000000E+00
(PID.TID 0000.0001) %MON vort_p_mean                  =   0.0000000000000E+00
(PID.TID 0000.0001) %MON vort_p_sd                    =   0.0000000000000E+00
(PID.TID 0000.0001) %MON surfExpan_theta_mean         =   1.9999862193634E-18
(PID.TID 0000.0001) %MON surfExpan_salt_mean          =   1.2104199651641E-20
(PID.TID 0000.0001) // =======================================================
(PID.TID 0000.0001) // End MONITOR dynamic field statistics
(PID.TID 0000.0001) // =======================================================
(PID.TID 0000.0001) // =======================================================
(PID.TID 0000.0001) // Begin OBCS MONITOR field statistics
(PID.TID 0000.0001) // =======================================================
(PID.TID 0000.0001) %MON obc_E_uVel_max               =   1.1205712828732E-01
(PID.TID 0000.0001) %MON obc_E_uVel_min               =   1.1205712828732E-01
(PID.TID 0000.0001) %MON obc_E_uVel_mean              =   1.1205712828732E-01
(PID.TID 0000.0001) %MON obc_E_uVel_sd                =  -1.2143064331838E-17
(PID.TID 0000.0001) %MON obc_E_uVel_Int               =   1.1205712828732E+05
(PID.TID 0000.0001) %MON obc_W_uVel_max               =   1.1205712828732E-01
(PID.TID 0000.0001) %MON obc_W_uVel_min               =   1.1205712828732E-01
(PID.TID 0000.0001) %MON obc_W_uVel_mean              =   1.1205712828732E-01
(PID.TID 0000.0001) %MON obc_W_uVel_sd                =  -1.2143064331838E-17
(PID.TID 0000.0001) %MON obc_W_uVel_Int               =   1.1205712828732E+05
(PID.TID 0000.0001) // =======================================================
(PID.TID 0000.0001) // End OBCS MONITOR field statistics
(PID.TID 0000.0001) // =======================================================
(PID.TID 0000.0001) %CHECKPOINT      4320 0000004320
 cg2d: Sum(rhs),rhsMax =  -2.64102462121940E-10  4.56722700325222E-03
 cg2d: Sum(rhs),rhsMax =  -2.54894771956060E-10  4.73101313127555E-03
 cg2d: Sum(rhs),rhsMax =  -2.46348330623647E-10  4.89420368736543E-03
 cg2d: Sum(rhs),rhsMax =  -2.38361330673342E-10  5.05672519983581E-03
 cg2d: Sum(rhs),rhsMax =  -2.30706453940854E-10  5.22284553861004E-03
 cg2d: Sum(rhs),rhsMax =  -2.23053242542903E-10  5.40098154979212E-03
 cg2d: Sum(rhs),rhsMax =  -2.15910067602465E-10  5.57824205425926E-03
 cg2d: Sum(rhs),rhsMax =  -2.09243289361893E-10  5.75454921651363E-03
 cg2d: Sum(rhs),rhsMax =  -2.02998173826074E-10  5.92982262675389E-03
 cg2d: Sum(rhs),rhsMax =  -1.97159399917268E-10  6.10397390834248E-03
 cg2d: Sum(rhs),rhsMax =  -1.91632598678382E-10  6.27692135267512E-03
 cg2d: Sum(rhs),rhsMax =  -1.86534787616210E-10  6.44858863401249E-03
 cg2d: Sum(rhs),rhsMax =  -1.81715864577825E-10  6.61890072639716E-03
 cg2d: Sum(rhs),rhsMax =  -1.73503211797765E-10  6.92899534651124E-03
 cg2d: Sum(rhs),rhsMax =  -1.63519420226521E-10  7.35004357522598E-03
 cg2d: Sum(rhs),rhsMax =  -1.54743551306069E-10  7.76737499326924E-03
 cg2d: Sum(rhs),rhsMax =  -1.46793577293636E-10  8.18081326082840E-03
 cg2d: Sum(rhs),rhsMax =  -1.39717126756977E-10  8.59018399087571E-03
 cg2d: Sum(rhs),rhsMax =  -1.33323907469673E-10  8.99531483102572E-03
 cg2d: Sum(rhs),rhsMax =  -1.27539867555981E-10  9.39603554136172E-03
 cg2d: Sum(rhs),rhsMax =  -1.22326038187737E-10  9.79217806588947E-03
 cg2d: Sum(rhs),rhsMax =  -1.17522547249393E-10  1.01835765960772E-02
 cg2d: Sum(rhs),rhsMax =  -1.13144715818692E-10  1.05700676270663E-02
 cg2d: Sum(rhs),rhsMax =  -1.09147357818529E-10  1.09514900089707E-02
 cg2d: Sum(rhs),rhsMax =  -1.05428221708337E-10  1.13276849924478E-02
 cg2d: Sum(rhs),rhsMax =  -1.02017394532083E-10  1.16984962696142E-02
 cg2d: Sum(rhs),rhsMax =  -9.88564785586732E-11  1.20637700113094E-02
 cg2d: Sum(rhs),rhsMax =  -9.59080592721762E-11  1.24233549017507E-02
 cg2d: Sum(rhs),rhsMax =  -9.32007804266277E-11  1.27771021708986E-02
 cg2d: Sum(rhs),rhsMax =  -9.06900110564379E-11  1.31248656272193E-02
 cg2d: Sum(rhs),rhsMax =  -8.82778294908348E-11  1.34665016915229E-02
 cg2d: Sum(rhs),rhsMax =  -8.59793347629534E-11  1.38018694305554E-02
 cg2d: Sum(rhs),rhsMax =  -8.38421554405500E-11  1.41308305909172E-02
 cg2d: Sum(rhs),rhsMax =  -8.18273226954602E-11  1.44532496334672E-02
 cg2d: Sum(rhs),rhsMax =  -8.00275401502404E-11  1.47689937679550E-02
 cg2d: Sum(rhs),rhsMax =  -7.82696130130489E-11  1.50779329885415E-02
 cg2d: Sum(rhs),rhsMax =  -7.66098295912343E-11  1.53799401074513E-02
 cg2d: Sum(rhs),rhsMax =  -7.51149142885765E-11  1.56748907857335E-02
 cg2d: Sum(rhs),rhsMax =  -7.36452010485777E-11  1.59626635609701E-02
 cg2d: Sum(rhs),rhsMax =  -7.22727433455361E-11  1.62431398716106E-02
 cg2d: Sum(rhs),rhsMax =  -7.10115299895620E-11  1.65162040772932E-02
 cg2d: Sum(rhs),rhsMax =  -6.97923940862211E-11  1.67817434750654E-02
 cg2d: Sum(rhs),rhsMax =  -6.86765089241703E-11  1.70396483116919E-02
 cg2d: Sum(rhs),rhsMax =  -6.76128042442770E-11  1.72898117928254E-02
 cg2d: Sum(rhs),rhsMax =  -6.66038335594976E-11  1.75321300908520E-02
 cg2d: Sum(rhs),rhsMax =  -6.56551479849554E-11  1.77665023542237E-02
 cg2d: Sum(rhs),rhsMax =  -6.47807363307606E-11  1.79928307217996E-02
 cg2d: Sum(rhs),rhsMax =  -6.39555075565568E-11  1.82110203462150E-02
 cg2d: Sum(rhs),rhsMax =  -6.31448227039755E-11  1.84209794337996E-02
 cg2d: Sum(rhs),rhsMax =  -6.24120755077229E-11  1.86226193010328E-02
 cg2d: Sum(rhs),rhsMax =  -6.16869888503402E-11  1.88158544525245E-02
 cg2d: Sum(rhs),rhsMax =  -6.09420292008167E-11  1.90006026833301E-02
 cg2d: Sum(rhs),rhsMax =  -6.02927707760159E-11  1.91767852074679E-02
 cg2d: Sum(rhs),rhsMax =  -5.96662719232199E-11  1.93443268147648E-02
 cg2d: Sum(rhs),rhsMax =  -5.91166005037280E-11  1.95031560376366E-02
 cg2d: Sum(rhs),rhsMax =  -5.85871351432843E-11  1.96532053346051E-02
 cg2d: Sum(rhs),rhsMax =  -5.80757664181419E-11  1.97944112808708E-02
 cg2d: Sum(rhs),rhsMax =  -5.76230174686998E-11  1.99267147541839E-02
 cg2d: Sum(rhs),rhsMax =  -5.72071279236752E-11  2.00500611032978E-02
 cg2d: Sum(rhs),rhsMax =  -5.68144420398653E-11  2.01644002867404E-02
 cg2d: Sum(rhs),rhsMax =  -5.64587265827754E-11  2.02696869712014E-02
 cg2d: Sum(rhs),rhsMax =  -5.61428681322695E-11  2.03658805812935E-02
 cg2d: Sum(rhs),rhsMax =  -5.58489920976513E-11  2.04529452956837E-02
 cg2d: Sum(rhs),rhsMax =  -5.55374635169414E-11  2.05308499883964E-02
 cg2d: Sum(rhs),rhsMax =  -5.52821122212777E-11  2.05995681181762E-02
 cg2d: Sum(rhs),rhsMax =  -5.50437473378906E-11  2.06590775692641E-02
 cg2d: Sum(rhs),rhsMax =  -5.48574519143585E-11  2.07093604499035E-02
 cg2d: Sum(rhs),rhsMax =  -5.46693801339870E-11  2.07504028952470E-02
 cg2d: Sum(rhs),rhsMax =  -5.45102851745582E-11  2.07821948544854E-02
 cg2d: Sum(rhs),rhsMax =  -5.44193579088414E-11  2.08047298817157E-02
 cg2d: Sum(rhs),rhsMax =  -5.43668443597767E-11  2.08180049415624E-02
 cg2d: Sum(rhs),rhsMax =  -5.43290967769394E-11  2.08220202409800E-02
 cg2d: Sum(rhs),rhsMax =  -5.43064482272371E-11  2.08167791079864E-02
 cg2d: Sum(rhs),rhsMax =  -5.43747269432515E-11  2.08022879313485E-02
 cg2d: Sum(rhs),rhsMax =  -5.45549161401482E-11  2.07785561086881E-02
 cg2d: Sum(rhs),rhsMax =  -5.47971668041214E-11  2.07455960497828E-02
 cg2d: Sum(rhs),rhsMax =  -5.49603695887413E-11  2.07034232258319E-02
 cg2d: Sum(rhs),rhsMax =  -5.51747536547964E-11  2.06520562530020E-02
 cg2d: Sum(rhs),rhsMax =  -5.54583046152857E-11  2.05915169977167E-02
 cg2d: Sum(rhs),rhsMax =  -5.57375257059789E-11  2.05218306925686E-02
 cg2d: Sum(rhs),rhsMax =  -5.59563506641325E-11  2.04430260549120E-02
 cg2d: Sum(rhs),rhsMax =  -5.62663249326079E-11  2.03551354000677E-02
 cg2d: Sum(rhs),rhsMax =  -5.65906210781009E-11  2.02581947375733E-02
 cg2d: Sum(rhs),rhsMax =  -5.69150282458963E-11  2.01522438551485E-02
 cg2d: Sum(rhs),rhsMax =  -5.73109337764777E-11  2.00373263865940E-02
 cg2d: Sum(rhs),rhsMax =  -5.77369263510263E-11  1.99134898610196E-02
 cg2d: Sum(rhs),rhsMax =  -5.82157655415472E-11  1.97807857323081E-02
 cg2d: Sum(rhs),rhsMax =  -5.86750648068346E-11  1.96392693904230E-02
 cg2d: Sum(rhs),rhsMax =  -5.92038640334636E-11  1.94890001570310E-02
 cg2d: Sum(rhs),rhsMax =  -5.97982774408479E-11  1.93300412685930E-02
 cg2d: Sum(rhs),rhsMax =  -6.03932459597445E-11  1.91624598403552E-02
 cg2d: Sum(rhs),rhsMax =  -6.10907990861165E-11  1.89863268355838E-02
 cg2d: Sum(rhs),rhsMax =  -6.17809137182235E-11  1.88017170205319E-02
 cg2d: Sum(rhs),rhsMax =  -6.25474116944247E-11  1.86087089530277E-02
 cg2d: Sum(rhs),rhsMax =  -6.32766061769985E-11  1.84073849533806E-02
 cg2d: Sum(rhs),rhsMax =  -6.40879571633945E-11  1.81978310648169E-02
 cg2d: Sum(rhs),rhsMax =  -6.48956444138094E-11  1.79801370109785E-02
 cg2d: Sum(rhs),rhsMax =  -6.57959242644779E-11  1.77543961559315E-02
 cg2d: Sum(rhs),rhsMax =  -6.67563782030811E-11  1.75207054690811E-02
 cg2d: Sum(rhs),rhsMax =  -6.77350397992882E-11  1.72791654931889E-02
 cg2d: Sum(rhs),rhsMax =  -6.87857548697934E-11  1.70298803264603E-02
 cg2d: Sum(rhs),rhsMax =  -6.99375002355396E-11  1.67729575893731E-02
 cg2d: Sum(rhs),rhsMax =  -7.11475323100785E-11  1.65085083794764E-02
 cg2d: Sum(rhs),rhsMax =  -7.23742177299869E-11  1.62366472258454E-02
 cg2d: Sum(rhs),rhsMax =  -7.37865324396125E-11  1.59574920499706E-02
 cg2d: Sum(rhs),rhsMax =  -7.52180540075642E-11  1.56711641355034E-02
 cg2d: Sum(rhs),rhsMax =  -7.67423902203745E-11  1.53777880792639E-02
 cg2d: Sum(rhs),rhsMax =  -7.83652032154691E-11  1.50774917430332E-02
 cg2d: Sum(rhs),rhsMax =  -8.01164690145129E-11  1.47704062047265E-02
 cg2d: Sum(rhs),rhsMax =  -8.19606604807177E-11  1.44566657065242E-02
 cg2d: Sum(rhs),rhsMax =  -8.38931146773803E-11  1.41364075983386E-02
 cg2d: Sum(rhs),rhsMax =  -8.60400639624004E-11  1.38097722762130E-02
 cg2d: Sum(rhs),rhsMax =  -8.82645068145393E-11  1.34769031183102E-02
 cg2d: Sum(rhs),rhsMax =  -9.06652530829888E-11  1.31379464197966E-02
 cg2d: Sum(rhs),rhsMax =  -9.31821286798140E-11  1.27930513271869E-02
 cg2d: Sum(rhs),rhsMax =  -9.58677581763823E-11  1.24423697721242E-02
 cg2d: Sum(rhs),rhsMax =  -9.87583348432963E-11  1.20860564049303E-02
 cg2d: Sum(rhs),rhsMax =  -1.01876840297166E-10  1.17242685267244E-02
 cg2d: Sum(rhs),rhsMax =  -1.05224273738713E-10  1.13571660167531E-02
 cg2d: Sum(rhs),rhsMax =  -1.08879794069594E-10  1.09849112682846E-02
 cg2d: Sum(rhs),rhsMax =  -1.12825415676809E-10  1.06076691217438E-02
 cg2d: Sum(rhs),rhsMax =  -1.17107989971998E-10  1.02256067961972E-02
 cg2d: Sum(rhs),rhsMax =  -1.21776255745942E-10  9.83889381890297E-03
 cg2d: Sum(rhs),rhsMax =  -1.26895050023279E-10  9.44770193516399E-03
 cg2d: Sum(rhs),rhsMax =  -1.32538757746659E-10  9.05220505583630E-03
 cg2d: Sum(rhs),rhsMax =  -1.38728806220456E-10  8.65257919630762E-03
 cg2d: Sum(rhs),rhsMax =  -1.45615741686811E-10  8.24900240615698E-03
 cg2d: Sum(rhs),rhsMax =  -1.53331791707956E-10  7.84165469362601E-03
 cg2d: Sum(rhs),rhsMax =  -1.61866520187459E-10  7.43071794816314E-03
 cg2d: Sum(rhs),rhsMax =  -1.71494041190101E-10  7.01637586391348E-03
 cg2d: Sum(rhs),rhsMax =  -1.82357129396848E-10  6.59881386381442E-03
 cg2d: Sum(rhs),rhsMax =  -1.94805060971248E-10  6.17821902256035E-03
 cg2d: Sum(rhs),rhsMax =  -2.06669459323905E-10  5.82410118246739E-03
 cg2d: Sum(rhs),rhsMax =  -2.12888151551738E-10  5.65570405714368E-03
 cg2d: Sum(rhs),rhsMax =  -2.19549045610279E-10  5.48649456080181E-03
 cg2d: Sum(rhs),rhsMax =  -2.26601515329605E-10  5.31654901631074E-03
 cg2d: Sum(rhs),rhsMax =  -2.34182562230956E-10  5.14594444125211E-03
 cg2d: Sum(rhs),rhsMax =  -2.42342368395043E-10  4.97475844507076E-03
 cg2d: Sum(rhs),rhsMax =  -2.51058840383678E-10  4.80306707664961E-03
 cg2d: Sum(rhs),rhsMax =  -2.60412913455355E-10  4.63094724041612E-03
 cg2d: Sum(rhs),rhsMax =  -2.70578170979974E-10  4.45847694928503E-03
 cg2d: Sum(rhs),rhsMax =  -2.81518919287294E-10  4.28573471304720E-03
 cg2d: Sum(rhs),rhsMax =  -2.93438329190820E-10  4.11279910357355E-03
 cg2d: Sum(rhs),rhsMax =  -3.06429465135594E-10  3.93974862455560E-03
 cg2d: Sum(rhs),rhsMax =  -3.20657361774224E-10  3.76666170344298E-03
 cg2d: Sum(rhs),rhsMax =  -3.36180118465368E-10  3.59361680404283E-03
 cg2d: Sum(rhs),rhsMax =  -3.53239076877898E-10  3.42069229342983E-03
 cg2d: Sum(rhs),rhsMax =  -3.72162994866088E-10  3.24796640782743E-03
 cg2d: Sum(rhs),rhsMax =  -3.93092058903477E-10  3.07551728286584E-03
 cg2d: Sum(rhs),rhsMax =  -4.16442214046242E-10  2.90342297966134E-03
 cg2d: Sum(rhs),rhsMax =  -4.42816561196935E-10  2.73176141567015E-03
 cg2d: Sum(rhs),rhsMax =  -4.29818070024623E-10  2.81434665598317E-03
 cg2d: Sum(rhs),rhsMax =  -3.78019171520805E-10  3.20031930021531E-03
 cg2d: Sum(rhs),rhsMax =  -3.36737082662353E-10  3.59327506723475E-03
 cg2d: Sum(rhs),rhsMax =  -3.03501002107964E-10  3.98734182314128E-03
 cg2d: Sum(rhs),rhsMax =  -2.75787948034178E-10  4.38939053077609E-03
 cg2d: Sum(rhs),rhsMax =  -2.52733611816325E-10  4.79138321998503E-03
 cg2d: Sum(rhs),rhsMax =  -2.32874830530250E-10  5.20133558028760E-03
 cg2d: Sum(rhs),rhsMax =  -2.15771844835899E-10  5.61463824792622E-03
 cg2d: Sum(rhs),rhsMax =  -2.00748306866672E-10  6.03645024157948E-03
 cg2d: Sum(rhs),rhsMax =  -1.87642790194786E-10  6.45948218112634E-03
 cg2d: Sum(rhs),rhsMax =  -1.76209713487196E-10  6.87962471482575E-03
 cg2d: Sum(rhs),rhsMax =  -1.66168412363277E-10  7.29668564304353E-03
 cg2d: Sum(rhs),rhsMax =  -1.57296620173497E-10  7.71047412201340E-03
 cg2d: Sum(rhs),rhsMax =  -1.49452672459915E-10  8.12080076978512E-03
 cg2d: Sum(rhs),rhsMax =  -1.42416523019051E-10  8.52747776932423E-03
 cg2d: Sum(rhs),rhsMax =  -1.36056832467091E-10  8.93031897085048E-03
 cg2d: Sum(rhs),rhsMax =  -1.30328303704630E-10  9.32913999147982E-03
 cg2d: Sum(rhs),rhsMax =  -1.25136234707668E-10  9.72375831446577E-03
 cg2d: Sum(rhs),rhsMax =  -1.20352838806070E-10  1.01139933864657E-02
 cg2d: Sum(rhs),rhsMax =  -1.16024412299964E-10  1.04996667115198E-02
 cg2d: Sum(rhs),rhsMax =  -1.12024833853752E-10  1.08806019413856E-02
 cg2d: Sum(rhs),rhsMax =  -1.08359876627162E-10  1.12566249626348E-02
 cg2d: Sum(rhs),rhsMax =  -1.04953490343007E-10  1.16275639811483E-02
 cg2d: Sum(rhs),rhsMax =  -1.01805563978985E-10  1.19932496045100E-02
 cg2d: Sum(rhs),rhsMax =  -9.89267556761320E-11  1.23535149225858E-02
 cg2d: Sum(rhs),rhsMax =  -9.62158130946023E-11  1.27081955864815E-02
 cg2d: Sum(rhs),rhsMax =  -9.36755117919574E-11  1.30571298858301E-02
 cg2d: Sum(rhs),rhsMax =  -9.13387143697264E-11  1.34001588246203E-02
 cg2d: Sum(rhs),rhsMax =  -8.92268481322844E-11  1.37371261985961E-02
 cg2d: Sum(rhs),rhsMax =  -8.72256711303976E-11  1.40678786714120E-02
 cg2d: Sum(rhs),rhsMax =  -8.53933590505562E-11  1.43922658502559E-02
 cg2d: Sum(rhs),rhsMax =  -8.36452018759815E-11  1.47101403616290E-02
 cg2d: Sum(rhs),rhsMax =  -8.20490342334779E-11  1.50213579277224E-02
 cg2d: Sum(rhs),rhsMax =  -8.04706301593683E-11  1.53257774434786E-02
 cg2d: Sum(rhs),rhsMax =  -7.90446597065397E-11  1.56232610545839E-02
 cg2d: Sum(rhs),rhsMax =  -7.77022890474655E-11  1.59136742351230E-02
 cg2d: Sum(rhs),rhsMax =  -7.64407426245839E-11  1.61968858645876E-02
 cg2d: Sum(rhs),rhsMax =  -7.52542472781670E-11  1.64727683043928E-02
 cg2d: Sum(rhs),rhsMax =  -7.41272598858700E-11  1.67411974736541E-02
 cg2d: Sum(rhs),rhsMax =  -7.30708826779392E-11  1.70020529237435E-02
 cg2d: Sum(rhs),rhsMax =  -7.20571380341539E-11  1.72552179110975E-02
 cg2d: Sum(rhs),rhsMax =  -7.11407599496283E-11  1.75005794673039E-02
 cg2d: Sum(rhs),rhsMax =  -7.02168323485353E-11  1.77380284656455E-02
 cg2d: Sum(rhs),rhsMax =  -6.93735069390300E-11  1.79674596834911E-02
 cg2d: Sum(rhs),rhsMax =  -6.85963508217924E-11  1.81887718600197E-02
 cg2d: Sum(rhs),rhsMax =  -6.78838096845880E-11  1.84018677486518E-02
 cg2d: Sum(rhs),rhsMax =  -6.71910305172219E-11  1.86066541623637E-02
 cg2d: Sum(rhs),rhsMax =  -6.65286714607305E-11  1.88030420148053E-02
 cg2d: Sum(rhs),rhsMax =  -6.60118626427675E-11  1.89909463523144E-02
 cg2d: Sum(rhs),rhsMax =  -6.54599707772263E-11  1.91702863758735E-02
 cg2d: Sum(rhs),rhsMax =  -6.49932330176739E-11  1.93409854522840E-02
 cg2d: Sum(rhs),rhsMax =  -6.45490327855214E-11  1.95029711179682E-02
 cg2d: Sum(rhs),rhsMax =  -6.41217079433432E-11  1.96561750647101E-02
 cg2d: Sum(rhs),rhsMax =  -6.37446762041805E-11  1.98005331104878E-02
 cg2d: Sum(rhs),rhsMax =  -6.33848529218994E-11  1.99359851600200E-02
 cg2d: Sum(rhs),rhsMax =  -6.30770990994733E-11  2.00624751553176E-02
 cg2d: Sum(rhs),rhsMax =  -6.27333740510494E-11  2.01799510178355E-02
 cg2d: Sum(rhs),rhsMax =  -6.24763574208487E-11  2.02883645856440E-02
 cg2d: Sum(rhs),rhsMax =  -6.22395468496961E-11  2.03876715515789E-02
 cg2d: Sum(rhs),rhsMax =  -6.19979623195377E-11  2.04778314081816E-02
 cg2d: Sum(rhs),rhsMax =  -6.17865758556491E-11  2.05588074092853E-02
 cg2d: Sum(rhs),rhsMax =  -6.16799944452850E-11  2.06305665574651E-02
 cg2d: Sum(rhs),rhsMax =  -6.15595352471132E-11  2.06930796263834E-02
 cg2d: Sum(rhs),rhsMax =  -6.14475137439285E-11  2.07463212235088E-02
 cg2d: Sum(rhs),rhsMax =  -6.13932238380244E-11  2.07902698914498E-02
 cg2d: Sum(rhs),rhsMax =  -6.13961104178884E-11  2.08249082880800E-02
 cg2d: Sum(rhs),rhsMax =  -6.14130968301652E-11  2.08502234080101E-02
 cg2d: Sum(rhs),rhsMax =  -6.14237549712016E-11  2.08662068433786E-02
 cg2d: Sum(rhs),rhsMax =  -6.14159834100292E-11  2.08728550709596E-02
 cg2d: Sum(rhs),rhsMax =  -6.13689099537851E-11  2.08701697467613E-02
 cg2d: Sum(rhs),rhsMax =  -6.13660233739211E-11  2.08581580030425E-02
 cg2d: Sum(rhs),rhsMax =  -6.13249451220099E-11  2.08368327287740E-02
 cg2d: Sum(rhs),rhsMax =  -6.13996631315672E-11  2.08062127671153E-02
 cg2d: Sum(rhs),rhsMax =  -6.14337469784232E-11  2.07663230510955E-02
 cg2d: Sum(rhs),rhsMax =  -6.15340001175468E-11  2.07171946568827E-02
 cg2d: Sum(rhs),rhsMax =  -6.16243722717513E-11  2.06588647596883E-02
 cg2d: Sum(rhs),rhsMax =  -6.17754736254028E-11  2.05913764849606E-02
 cg2d: Sum(rhs),rhsMax =  -6.19309048488503E-11  2.05147786573320E-02
 cg2d: Sum(rhs),rhsMax =  -6.21674933753980E-11  2.04291254598599E-02
 cg2d: Sum(rhs),rhsMax =  -6.23875395788787E-11  2.03344760250451E-02
 cg2d: Sum(rhs),rhsMax =  -6.26700913386458E-11  2.02308939734500E-02
 cg2d: Sum(rhs),rhsMax =  -6.29248875227972E-11  2.01184469384029E-02
 cg2d: Sum(rhs),rhsMax =  -6.32511820697346E-11  1.99972061041258E-02
 cg2d: Sum(rhs),rhsMax =  -6.36101171735959E-11  1.98672457822296E-02
 cg2d: Sum(rhs),rhsMax =  -6.39773789501419E-11  1.97286430476667E-02
 cg2d: Sum(rhs),rhsMax =  -6.43786135512414E-11  1.95814774501188E-02
 cg2d: Sum(rhs),rhsMax =  -6.47942810516611E-11  1.94258308106435E-02
 cg2d: Sum(rhs),rhsMax =  -6.52411458190727E-11  1.92617871068404E-02
 cg2d: Sum(rhs),rhsMax =  -6.57469634290919E-11  1.90894324292322E-02
 cg2d: Sum(rhs),rhsMax =  -6.62577770427220E-11  1.89088550273492E-02
 cg2d: Sum(rhs),rhsMax =  -6.67891297823076E-11  1.87201454110445E-02
 cg2d: Sum(rhs),rhsMax =  -6.74528211064285E-11  1.85233965210134E-02
 cg2d: Sum(rhs),rhsMax =  -6.81379397349247E-11  1.83187039085812E-02
 cg2d: Sum(rhs),rhsMax =  -6.88891166333860E-11  1.81061659138568E-02
 cg2d: Sum(rhs),rhsMax =  -6.96840363190177E-11  1.78858838336902E-02
 cg2d: Sum(rhs),rhsMax =  -7.05197011896530E-11  1.76579620717370E-02
 cg2d: Sum(rhs),rhsMax =  -7.14129866352664E-11  1.74225082635886E-02
 cg2d: Sum(rhs),rhsMax =  -7.23410220615506E-11  1.71796333704641E-02
 cg2d: Sum(rhs),rhsMax =  -7.33531013707989E-11  1.69294517486165E-02
 cg2d: Sum(rhs),rhsMax =  -7.43838324268609E-11  1.66720811735362E-02
 cg2d: Sum(rhs),rhsMax =  -7.54957207860230E-11  1.64076428167602E-02
 cg2d: Sum(rhs),rhsMax =  -7.66953167641304E-11  1.61362611967359E-02
 cg2d: Sum(rhs),rhsMax =  -7.79674103057459E-11  1.58580641156687E-02
 cg2d: Sum(rhs),rhsMax =  -7.93043408719996E-11  1.55731825846596E-02
 cg2d: Sum(rhs),rhsMax =  -8.06889000060096E-11  1.52817507251148E-02
 cg2d: Sum(rhs),rhsMax =  -8.21948065166112E-11  1.49839056668633E-02
 cg2d: Sum(rhs),rhsMax =  -8.38081826159964E-11  1.46797874431477E-02
 cg2d: Sum(rhs),rhsMax =  -8.55000514832227E-11  1.43695388828280E-02
 cg2d: Sum(rhs),rhsMax =  -8.73361383213478E-11  1.40533055010338E-02
 cg2d: Sum(rhs),rhsMax =  -8.92432794330489E-11  1.37312353902750E-02
 cg2d: Sum(rhs),rhsMax =  -9.13031872329384E-11  1.34034791139787E-02
 cg2d: Sum(rhs),rhsMax =  -9.35084232267513E-11  1.30701896037130E-02
 cg2d: Sum(rhs),rhsMax =  -9.59456958327110E-11  1.27315220604915E-02
 cg2d: Sum(rhs),rhsMax =  -9.85518333607160E-11  1.23876338600342E-02
 cg2d: Sum(rhs),rhsMax =  -1.01352592984938E-10  1.20386844614357E-02
 cg2d: Sum(rhs),rhsMax =  -1.04370845299684E-10  1.16848353154470E-02
 cg2d: Sum(rhs),rhsMax =  -1.07585940156696E-10  1.13262497748407E-02
 cg2d: Sum(rhs),rhsMax =  -1.11149756065743E-10  1.09630930110878E-02
 cg2d: Sum(rhs),rhsMax =  -1.14908194071006E-10  1.05955319297403E-02
 cg2d: Sum(rhs),rhsMax =  -1.19029563983020E-10  1.02237350857005E-02
 cg2d: Sum(rhs),rhsMax =  -1.23465793144817E-10  9.84787259784296E-03
 cg2d: Sum(rhs),rhsMax =  -1.28374089136685E-10  9.46811605219192E-03
 cg2d: Sum(rhs),rhsMax =  -1.33682176439720E-10  9.08463842095283E-03
 cg2d: Sum(rhs),rhsMax =  -1.39562028600437E-10  8.69761399370993E-03
 cg2d: Sum(rhs),rhsMax =  -1.46065493034087E-10  8.30721829862741E-03
 cg2d: Sum(rhs),rhsMax =  -1.53174917194576E-10  7.91362801695286E-03
 cg2d: Sum(rhs),rhsMax =  -1.61159419143075E-10  7.51702089604116E-03
 cg2d: Sum(rhs),rhsMax =  -1.70056413395514E-10  7.11757566364002E-03
 cg2d: Sum(rhs),rhsMax =  -1.80160553142628E-10  6.71547194403370E-03
 cg2d: Sum(rhs),rhsMax =  -1.91670568305824E-10  6.31089017564050E-03
 cg2d: Sum(rhs),rhsMax =  -2.04833039418872E-10  5.90401152952201E-03
 cg2d: Sum(rhs),rhsMax =  -2.20032769782108E-10  5.49501782853961E-03
 cg2d: Sum(rhs),rhsMax =  -2.37762254329255E-10  5.08409146719328E-03
 cg2d: Sum(rhs),rhsMax =  -2.58743915182436E-10  4.67141533236075E-03
 cg2d: Sum(rhs),rhsMax =  -2.83846057769210E-10  4.25717272518228E-03
 cg2d: Sum(rhs),rhsMax =  -3.14539172485695E-10  3.84154728428721E-03
 cg2d: Sum(rhs),rhsMax =  -3.52731954755825E-10  3.42472291053020E-03
 cg2d: Sum(rhs),rhsMax =  -3.83396536740577E-10  3.14984071910323E-03
 cg2d: Sum(rhs),rhsMax =  -3.62581853430299E-10  3.32966082689846E-03
 cg2d: Sum(rhs),rhsMax =  -3.43912287537051E-10  3.50957671421863E-03
 cg2d: Sum(rhs),rhsMax =  -3.27089133556058E-10  3.68950985922153E-03
 cg2d: Sum(rhs),rhsMax =  -3.11844855493959E-10  3.86938169283206E-03
 cg2d: Sum(rhs),rhsMax =  -2.97974589447136E-10  4.04911355689387E-03
 cg2d: Sum(rhs),rhsMax =  -2.85278856093640E-10  4.22862686155968E-03
 cg2d: Sum(rhs),rhsMax =  -2.73624262137062E-10  4.40784269393648E-03
 cg2d: Sum(rhs),rhsMax =  -2.62840554876576E-10  4.58668196336030E-03
 cg2d: Sum(rhs),rhsMax =  -2.52940890455022E-10  4.76506579473640E-03
 cg2d: Sum(rhs),rhsMax =  -2.43780995390352E-10  4.94291571588845E-03
 cg2d: Sum(rhs),rhsMax =  -2.35298724948763E-10  5.12015361344697E-03
 cg2d: Sum(rhs),rhsMax =  -2.27406815600517E-10  5.29670163098374E-03
 cg2d: Sum(rhs),rhsMax =  -2.20083784530090E-10  5.47248215547333E-03
 cg2d: Sum(rhs),rhsMax =  -2.13210560318089E-10  5.64741788500710E-03
 cg2d: Sum(rhs),rhsMax =  -2.06758499210480E-10  5.82143190228305E-03
 cg2d: Sum(rhs),rhsMax =  -2.00751748558048E-10  5.99444772188793E-03
 cg2d: Sum(rhs),rhsMax =  -1.95122473733988E-10  6.16638929506684E-03
 cg2d: Sum(rhs),rhsMax =  -1.89837034980656E-10  6.33718099896540E-03
 cg2d: Sum(rhs),rhsMax =  -1.84823711890658E-10  6.50674767415818E-03
 cg2d: Sum(rhs),rhsMax =  -1.80105819147514E-10  6.67501462907719E-03
 cg2d: Sum(rhs),rhsMax =  -1.75658931844680E-10  6.84190702243767E-03
 cg2d: Sum(rhs),rhsMax =  -1.71508141022514E-10  7.00735062815210E-03
 cg2d: Sum(rhs),rhsMax =  -1.67430957986880E-10  7.17126848699611E-03
 cg2d: Sum(rhs),rhsMax =  -1.63629332305959E-10  7.33358634898091E-03
 cg2d: Sum(rhs),rhsMax =  -1.60014557160082E-10  7.49423274810369E-03
 cg2d: Sum(rhs),rhsMax =  -1.56596735578773E-10  7.65313594515935E-03
 cg2d: Sum(rhs),rhsMax =  -1.49873446986248E-10  7.99259275705123E-03
 cg2d: Sum(rhs),rhsMax =  -1.43072331759697E-10  8.36558948682470E-03
 cg2d: Sum(rhs),rhsMax =  -1.36965994101956E-10  8.73450434043476E-03
 cg2d: Sum(rhs),rhsMax =  -1.31390565094591E-10  9.09918103886515E-03
 cg2d: Sum(rhs),rhsMax =  -1.26295640612284E-10  9.45946523064116E-03
 cg2d: Sum(rhs),rhsMax =  -1.21641474670753E-10  9.81520454250093E-03
 cg2d: Sum(rhs),rhsMax =  -1.17382326081383E-10  1.01662486296824E-02
 cg2d: Sum(rhs),rhsMax =  -1.13482223618178E-10  1.05124492260348E-02
 cg2d: Sum(rhs),rhsMax =  -1.09869224829140E-10  1.08536601943295E-02
 cg2d: Sum(rhs),rhsMax =  -1.06492925588952E-10  1.11897375769108E-02
 cg2d: Sum(rhs),rhsMax =  -1.03383634986187E-10  1.15205396457845E-02
 cg2d: Sum(rhs),rhsMax =  -1.00488617427175E-10  1.18459269534222E-02
 cg2d: Sum(rhs),rhsMax =  -9.77619096786952E-11  1.21657623836342E-02
 cg2d: Sum(rhs),rhsMax =  -9.51686507377758E-11  1.24799112007779E-02
 cg2d: Sum(rhs),rhsMax =  -9.27440346742969E-11  1.27882410977374E-02
 cg2d: Sum(rhs),rhsMax =  -9.04688546299326E-11  1.30906222432518E-02
 cg2d: Sum(rhs),rhsMax =  -8.83758621839092E-11  1.33869273290314E-02
 cg2d: Sum(rhs),rhsMax =  -8.63858984345711E-11  1.36770316168298E-02
 cg2d: Sum(rhs),rhsMax =  -8.45539194216371E-11  1.39608129854226E-02
 cg2d: Sum(rhs),rhsMax =  -8.27731216901384E-11  1.42381519773358E-02
 cg2d: Sum(rhs),rhsMax =  -8.11505307396487E-11  1.45089318453141E-02
 cg2d: Sum(rhs),rhsMax =  -7.95842280965076E-11  1.47730385983119E-02
 cg2d: Sum(rhs),rhsMax =  -7.81368303393037E-11  1.50303610462823E-02
 cg2d: Sum(rhs),rhsMax =  -7.67733654427616E-11  1.52807908444971E-02
 cg2d: Sum(rhs),rhsMax =  -7.54841744665669E-11  1.55242225377527E-02
 cg2d: Sum(rhs),rhsMax =  -7.42839123546446E-11  1.57605536045733E-02
 cg2d: Sum(rhs),rhsMax =  -7.31211757809547E-11  1.59896845014121E-02
 cg2d: Sum(rhs),rhsMax =  -7.20810078291834E-11  1.62115187068839E-02
 cg2d: Sum(rhs),rhsMax =  -7.10440595241835E-11  1.64259627661519E-02
 cg2d: Sum(rhs),rhsMax =  -7.01291247295899E-11  1.66329263356261E-02
 cg2d: Sum(rhs),rhsMax =  -6.92343959940445E-11  1.68323222275817E-02
 cg2d: Sum(rhs),rhsMax =  -6.84012846363657E-11  1.70240664560786E-02
 cg2d: Sum(rhs),rhsMax =  -6.76283473666217E-11  1.72080782843992E-02
 cg2d: Sum(rhs),rhsMax =  -6.68414212867674E-11  1.73842802720134E-02
 cg2d: Sum(rhs),rhsMax =  -6.60977939048735E-11  1.75525983216349E-02
 cg2d: Sum(rhs),rhsMax =  -6.54093446073034E-11  1.77129617310484E-02
 cg2d: Sum(rhs),rhsMax =  -6.47321085622821E-11  1.78653032340379E-02
 cg2d: Sum(rhs),rhsMax =  -6.41326991512869E-11  1.80095590436926E-02
 cg2d: Sum(rhs),rhsMax =  -6.35593799813705E-11  1.81456688963863E-02
 cg2d: Sum(rhs),rhsMax =  -6.30407948065681E-11  1.82735760949143E-02
 cg2d: Sum(rhs),rhsMax =  -6.25615115268374E-11  1.83932275503082E-02
 cg2d: Sum(rhs),rhsMax =  -6.21430684688562E-11  1.85045738212799E-02
 cg2d: Sum(rhs),rhsMax =  -6.17391693324976E-11  1.86075691505725E-02
 cg2d: Sum(rhs),rhsMax =  -6.13679107530629E-11  1.87021714977190E-02
 cg2d: Sum(rhs),rhsMax =  -6.10387296262616E-11  1.87883425678200E-02
 cg2d: Sum(rhs),rhsMax =  -6.07494055060442E-11  1.88660478360064E-02
 cg2d: Sum(rhs),rhsMax =  -6.04264416281808E-11  1.89352565672796E-02
 cg2d: Sum(rhs),rhsMax =  -6.01653171727889E-11  1.89959418223932E-02
 cg2d: Sum(rhs),rhsMax =  -5.99409410995122E-11  1.90480804688209E-02
 cg2d: Sum(rhs),rhsMax =  -5.97509819399988E-11  1.90916531964285E-02
 cg2d: Sum(rhs),rhsMax =  -5.95864468877494E-11  1.91266445207478E-02
 cg2d: Sum(rhs),rhsMax =  -5.94179150326113E-11  1.91530427761174E-02
 cg2d: Sum(rhs),rhsMax =  -5.93201043841418E-11  1.91708401021016E-02
 cg2d: Sum(rhs),rhsMax =  -5.93063376186365E-11  1.91800324289727E-02
 cg2d: Sum(rhs),rhsMax =  -5.91828808182981E-11  1.91806194647640E-02
 cg2d: Sum(rhs),rhsMax =  -5.91942050931493E-11  1.91726046611388E-02
 cg2d: Sum(rhs),rhsMax =  -5.93612936583554E-11  1.91559951715492E-02
 cg2d: Sum(rhs),rhsMax =  -5.95964388949710E-11  1.91308018166190E-02
 cg2d: Sum(rhs),rhsMax =  -5.97687455083928E-11  1.90970390542386E-02
 cg2d: Sum(rhs),rhsMax =  -5.99367222520186E-11  1.90547249504825E-02
 cg2d: Sum(rhs),rhsMax =  -6.02041749786508E-11  1.90038811494195E-02
 cg2d: Sum(rhs),rhsMax =  -6.04726269060052E-11  1.89445328414161E-02
 cg2d: Sum(rhs),rhsMax =  -6.07333072721872E-11  1.88767087327178E-02
 cg2d: Sum(rhs),rhsMax =  -6.10177464110961E-11  1.88004410136082E-02
 cg2d: Sum(rhs),rhsMax =  -6.13314954378552E-11  1.87157653258433E-02
 cg2d: Sum(rhs),rhsMax =  -6.16765527539087E-11  1.86227207356247E-02
 cg2d: Sum(rhs),rhsMax =  -6.20965501241244E-11  1.85213497112783E-02
 cg2d: Sum(rhs),rhsMax =  -6.25297591483331E-11  1.84116981044107E-02
 cg2d: Sum(rhs),rhsMax =  -6.30249186173160E-11  1.82938151336034E-02
 cg2d: Sum(rhs),rhsMax =  -6.35471675280996E-11  1.81677533702087E-02
 cg2d: Sum(rhs),rhsMax =  -6.40700825726981E-11  1.80335687261443E-02
 cg2d: Sum(rhs),rhsMax =  -6.46594999764716E-11  1.78913204436282E-02
 cg2d: Sum(rhs),rhsMax =  -6.53085363566674E-11  1.77410710866323E-02
 cg2d: Sum(rhs),rhsMax =  -6.60010934794286E-11  1.75828865194438E-02
 cg2d: Sum(rhs),rhsMax =  -6.67571553591984E-11  1.74168358942124E-02
 cg2d: Sum(rhs),rhsMax =  -6.75458577958921E-11  1.72429916708000E-02
 cg2d: Sum(rhs),rhsMax =  -6.82880418878540E-11  1.70614296196000E-02
 cg2d: Sum(rhs),rhsMax =  -6.91188217771810E-11  1.68722288113883E-02
 cg2d: Sum(rhs),rhsMax =  -6.99954538774250E-11  1.66754716011204E-02
 cg2d: Sum(rhs),rhsMax =  -7.09208247684501E-11  1.64712436105062E-02
 cg2d: Sum(rhs),rhsMax =  -7.18824999523804E-11  1.62596337119091E-02
 cg2d: Sum(rhs),rhsMax =  -7.29343252459103E-11  1.60407340116641E-02
 cg2d: Sum(rhs),rhsMax =  -7.40779659835766E-11  1.58146398322020E-02
 cg2d: Sum(rhs),rhsMax =  -7.52345963306311E-11  1.55814496923849E-02
 cg2d: Sum(rhs),rhsMax =  -7.64790453189335E-11  1.53412653021362E-02
 cg2d: Sum(rhs),rhsMax =  -7.78577202709130E-11  1.50941915277383E-02
 cg2d: Sum(rhs),rhsMax =  -7.92564902596382E-11  1.48403363588449E-02
 cg2d: Sum(rhs),rhsMax =  -8.07460764917778E-11  1.45798108624947E-02
 cg2d: Sum(rhs),rhsMax =  -8.23723311782487E-11  1.43127291476185E-02
 cg2d: Sum(rhs),rhsMax =  -8.40781888555853E-11  1.40392083342547E-02
 cg2d: Sum(rhs),rhsMax =  -8.59036175526739E-11  1.37593685205541E-02
 cg2d: Sum(rhs),rhsMax =  -8.77951045197278E-11  1.34733327436113E-02
 cg2d: Sum(rhs),rhsMax =  -8.98605634347405E-11  1.31812269335582E-02
 cg2d: Sum(rhs),rhsMax =  -9.20450382579929E-11  1.28831798623809E-02
 cg2d: Sum(rhs),rhsMax =  -9.43660705132743E-11  1.25793230894153E-02
 cg2d: Sum(rhs),rhsMax =  -9.69049285259871E-11  1.22697909049017E-02
 cg2d: Sum(rhs),rhsMax =  -9.95792337477042E-11  1.19547202722572E-02
 cg2d: Sum(rhs),rhsMax =  -1.02373332033778E-10  1.16342507693073E-02
 cg2d: Sum(rhs),rhsMax =  -1.05396358307530E-10  1.13085245264727E-02
 cg2d: Sum(rhs),rhsMax =  -1.08609898852308E-10  1.09776861623931E-02
 cg2d: Sum(rhs),rhsMax =  -1.12079123759656E-10  1.06418827250923E-02
 cg2d: Sum(rhs),rhsMax =  -1.15850329329703E-10  1.03012636306395E-02
 cg2d: Sum(rhs),rhsMax =  -1.19938059484070E-10  9.95598059962607E-03
 cg2d: Sum(rhs),rhsMax =  -1.24382726340855E-10  9.60618759201082E-03
 cg2d: Sum(rhs),rhsMax =  -1.29187549546828E-10  9.25204074142466E-03
 cg2d: Sum(rhs),rhsMax =  -1.34498079340517E-10  8.89369828862971E-03
 cg2d: Sum(rhs),rhsMax =  -1.40274347693037E-10  8.53132051359448E-03
 cg2d: Sum(rhs),rhsMax =  -1.46658352129236E-10  8.16506964964958E-03
 cg2d: Sum(rhs),rhsMax =  -1.53713153316914E-10  7.79510983316338E-03
 cg2d: Sum(rhs),rhsMax =  -1.61552882183003E-10  7.42160704060382E-03
 cg2d: Sum(rhs),rhsMax =  -1.70287450806939E-10  7.04472901488039E-03
 cg2d: Sum(rhs),rhsMax =  -1.77328374206809E-10  6.76959957131876E-03
 cg2d: Sum(rhs),rhsMax =  -1.81919923569751E-10  6.59900937233175E-03
 cg2d: Sum(rhs),rhsMax =  -1.86829773873853E-10  6.42729879029521E-03
 cg2d: Sum(rhs),rhsMax =  -1.92026283762914E-10  6.25454576158770E-03
 cg2d: Sum(rhs),rhsMax =  -1.97575622529200E-10  6.08082853925643E-03
 cg2d: Sum(rhs),rhsMax =  -2.03457029002152E-10  5.90622492648227E-03
 cg2d: Sum(rhs),rhsMax =  -2.09736006340222E-10  5.73081313185208E-03
 cg2d: Sum(rhs),rhsMax =  -2.16479278947190E-10  5.55466842296060E-03
 cg2d: Sum(rhs),rhsMax =  -2.23630447493406E-10  5.37786809757537E-03
 cg2d: Sum(rhs),rhsMax =  -2.31262342609284E-10  5.20049157416070E-03
 cg2d: Sum(rhs),rhsMax =  -2.39501418697330E-10  5.02261697225347E-03
 cg2d: Sum(rhs),rhsMax =  -2.48365439325937E-10  4.84431854538599E-03
 cg2d: Sum(rhs),rhsMax =  -2.57922405655364E-10  4.66567341726784E-03
 cg2d: Sum(rhs),rhsMax =  -2.68267574821124E-10  4.48676122642265E-03
 cg2d: Sum(rhs),rhsMax =  -2.79491152443967E-10  4.30765821381724E-03
 cg2d: Sum(rhs),rhsMax =  -2.91684620901123E-10  4.12844236404881E-03
 cg2d: Sum(rhs),rhsMax =  -3.04997263556039E-10  3.94919361014373E-03
 cg2d: Sum(rhs),rhsMax =  -3.19566643980362E-10  3.76999252113696E-03
 cg2d: Sum(rhs),rhsMax =  -3.35536765039279E-10  3.59091948434006E-03
 cg2d: Sum(rhs),rhsMax =  -3.53249485218754E-10  3.41205455615183E-03
 cg2d: Sum(rhs),rhsMax =  -3.72801123305067E-10  3.23347757005736E-03
 cg2d: Sum(rhs),rhsMax =  -3.94610566445408E-10  3.05526821972204E-03
 cg2d: Sum(rhs),rhsMax =  -4.19114520866515E-10  2.87750606606018E-03
 cg2d: Sum(rhs),rhsMax =  -4.37869629443810E-10  2.75453117005847E-03
 cg2d: Sum(rhs),rhsMax =  -3.87698428916394E-10  3.11152186239795E-03
 cg2d: Sum(rhs),rhsMax =  -3.47230022512690E-10  3.47486416980540E-03
 cg2d: Sum(rhs),rhsMax =  -3.14246517696404E-10  3.84041681217053E-03
 cg2d: Sum(rhs),rhsMax =  -2.86656143266839E-10  4.21057237184813E-03
 cg2d: Sum(rhs),rhsMax =  -2.63385424581486E-10  4.58422293525902E-03
 cg2d: Sum(rhs),rhsMax =  -2.43432607405225E-10  4.96050676993627E-03
 cg2d: Sum(rhs),rhsMax =  -2.26019758464702E-10  5.34485741853085E-03
 cg2d: Sum(rhs),rhsMax =  -2.10677031375894E-10  5.73530913156538E-03
 cg2d: Sum(rhs),rhsMax =  -1.97378113853119E-10  6.12318806903579E-03
 cg2d: Sum(rhs),rhsMax =  -1.85741533265116E-10  6.50831769102219E-03
 cg2d: Sum(rhs),rhsMax =  -1.75483072517579E-10  6.89052266928524E-03
 cg2d: Sum(rhs),rhsMax =  -1.66457070349679E-10  7.26962898930665E-03
 cg2d: Sum(rhs),rhsMax =  -1.58316915133128E-10  7.64546404887283E-03
 cg2d: Sum(rhs),rhsMax =  -1.51100132406157E-10  8.01785675324160E-03
 cg2d: Sum(rhs),rhsMax =  -1.44518952360784E-10  8.38663760763799E-03
 cg2d: Sum(rhs),rhsMax =  -1.38584921316465E-10  8.75163880790255E-03
 cg2d: Sum(rhs),rhsMax =  -1.33162925131103E-10  9.11269432967042E-03
 cg2d: Sum(rhs),rhsMax =  -1.28204669103127E-10  9.46964001530265E-03
 cg2d: Sum(rhs),rhsMax =  -1.23653198791374E-10  9.82231366018215E-03
 cg2d: Sum(rhs),rhsMax =  -1.19504961482164E-10  1.01705550967664E-02
 cg2d: Sum(rhs),rhsMax =  -1.15642939668703E-10  1.05142062751749E-02
 cg2d: Sum(rhs),rhsMax =  -1.12127862550437E-10  1.08531113399762E-02
 cg2d: Sum(rhs),rhsMax =  -1.08851150315559E-10  1.11871167034300E-02
 cg2d: Sum(rhs),rhsMax =  -1.05796593707908E-10  1.15160711155048E-02
 cg2d: Sum(rhs),rhsMax =  -1.02921449141036E-10  1.18398257301167E-02
 cg2d: Sum(rhs),rhsMax =  -1.00295105553982E-10  1.21582341687632E-02
 cg2d: Sum(rhs),rhsMax =  -9.78368497328574E-11  1.24711525814966E-02
 cg2d: Sum(rhs),rhsMax =  -9.56116297246012E-11  1.27784397033407E-02
 cg2d: Sum(rhs),rhsMax =  -9.35008737101839E-11  1.30799569067476E-02
 cg2d: Sum(rhs),rhsMax =  -9.15603148854416E-11  1.33755682510505E-02
(PID.TID 0000.0001)      cg2d_init_res =   1.10931134723600E-01
(PID.TID 0000.0001)      cg2d_iters(min,last) =      -1      38
(PID.TID 0000.0001)      cg2d_last_res =   8.54490854948141E-14
(PID.TID 0000.0001) // =======================================================
(PID.TID 0000.0001) // Begin MONITOR dynamic field statistics
(PID.TID 0000.0001) // =======================================================
(PID.TID 0000.0001) %MON time_tsnumber                =                  4800
(PID.TID 0000.0001) %MON time_secondsf                =   7.2000000000000E+04
(PID.TID 0000.0001) %MON dynstat_eta_max              =   2.3515213688172E-03
(PID.TID 0000.0001) %MON dynstat_eta_min              =  -2.2617581295500E-03
(PID.TID 0000.0001) %MON dynstat_eta_mean             =   2.7043746970085E-15
(PID.TID 0000.0001) %MON dynstat_eta_sd               =   1.6177261494912E-03
(PID.TID 0000.0001) %MON dynstat_eta_del2             =   1.9742982405765E-06
(PID.TID 0000.0001) %MON dynstat_uvel_max             =   2.1398391363266E-01
(PID.TID 0000.0001) %MON dynstat_uvel_min             =   5.1739719637259E-02
(PID.TID 0000.0001) %MON dynstat_uvel_mean            =   1.1295154331643E-01
(PID.TID 0000.0001) %MON dynstat_uvel_sd              =   6.4259710312648E-03
(PID.TID 0000.0001) %MON dynstat_uvel_del2            =   9.4497232209846E-05
(PID.TID 0000.0001) %MON dynstat_vvel_max             =   0.0000000000000E+00
(PID.TID 0000.0001) %MON dynstat_vvel_min             =   0.0000000000000E+00
(PID.TID 0000.0001) %MON dynstat_vvel_mean            =   0.0000000000000E+00
(PID.TID 0000.0001) %MON dynstat_vvel_sd              =   0.0000000000000E+00
(PID.TID 0000.0001) %MON dynstat_vvel_del2            =   0.0000000000000E+00
(PID.TID 0000.0001) %MON dynstat_wvel_max             =   3.6021564057408E-03
(PID.TID 0000.0001) %MON dynstat_wvel_min             =  -2.1876000669587E-03
(PID.TID 0000.0001) %MON dynstat_wvel_mean            =  -6.2943525660763E-21
(PID.TID 0000.0001) %MON dynstat_wvel_sd              =   2.5047076697684E-04
(PID.TID 0000.0001) %MON dynstat_wvel_del2            =   8.0312334687105E-06
(PID.TID 0000.0001) %MON dynstat_theta_max            =   1.5000000000009E+01
(PID.TID 0000.0001) %MON dynstat_theta_min            =   9.9999999999920E+00
(PID.TID 0000.0001) %MON dynstat_theta_mean           =   1.1003764154678E+01
(PID.TID 0000.0001) %MON dynstat_theta_sd             =   1.9383410817216E+00
(PID.TID 0000.0001) %MON dynstat_theta_del2           =   2.4054887641471E-05
(PID.TID 0000.0001) %MON dynstat_salt_max             =   3.5000000000000E+01
(PID.TID 0000.0001) %MON dynstat_salt_min             =   3.5000000000000E+01
(PID.TID 0000.0001) %MON dynstat_salt_mean            =   3.5000000000000E+01
(PID.TID 0000.0001) %MON dynstat_salt_sd              =   4.0500935938326E-13
(PID.TID 0000.0001) %MON dynstat_salt_del2            =   0.0000000000000E+00
(PID.TID 0000.0001) %MON dynstat_sst_max              =   1.5000000000009E+01
(PID.TID 0000.0001) %MON dynstat_sst_min              =   1.5000000000000E+01
(PID.TID 0000.0001) %MON dynstat_sst_mean             =   1.5000000000007E+01
(PID.TID 0000.0001) %MON dynstat_sst_sd               =   3.3065955091322E-12
(PID.TID 0000.0001) %MON dynstat_sst_del2             =   2.0205983239913E-14
(PID.TID 0000.0001) %MON dynstat_sss_max              =   3.5000000000000E+01
(PID.TID 0000.0001) %MON dynstat_sss_min              =   3.5000000000000E+01
(PID.TID 0000.0001) %MON dynstat_sss_mean             =   3.5000000000000E+01
(PID.TID 0000.0001) %MON dynstat_sss_sd               =   4.2632564145606E-14
(PID.TID 0000.0001) %MON dynstat_sss_del2             =   0.0000000000000E+00
(PID.TID 0000.0001) %MON forcing_qnet_max             =   0.0000000000000E+00
(PID.TID 0000.0001) %MON forcing_qnet_min             =   0.0000000000000E+00
(PID.TID 0000.0001) %MON forcing_qnet_mean            =   0.0000000000000E+00
(PID.TID 0000.0001) %MON forcing_qnet_sd              =   0.0000000000000E+00
(PID.TID 0000.0001) %MON forcing_qnet_del2            =   0.0000000000000E+00
(PID.TID 0000.0001) %MON forcing_qsw_max              =   0.0000000000000E+00
(PID.TID 0000.0001) %MON forcing_qsw_min              =   0.0000000000000E+00
(PID.TID 0000.0001) %MON forcing_qsw_mean             =   0.0000000000000E+00
(PID.TID 0000.0001) %MON forcing_qsw_sd               =   0.0000000000000E+00
(PID.TID 0000.0001) %MON forcing_qsw_del2             =   0.0000000000000E+00
(PID.TID 0000.0001) %MON forcing_empmr_max            =   0.0000000000000E+00
(PID.TID 0000.0001) %MON forcing_empmr_min            =   0.0000000000000E+00
(PID.TID 0000.0001) %MON forcing_empmr_mean           =   0.0000000000000E+00
(PID.TID 0000.0001) %MON forcing_empmr_sd             =   0.0000000000000E+00
(PID.TID 0000.0001) %MON forcing_empmr_del2           =   0.0000000000000E+00
(PID.TID 0000.0001) %MON forcing_fu_max               =   0.0000000000000E+00
(PID.TID 0000.0001) %MON forcing_fu_min               =   0.0000000000000E+00
(PID.TID 0000.0001) %MON forcing_fu_mean              =   0.0000000000000E+00
(PID.TID 0000.0001) %MON forcing_fu_sd                =   0.0000000000000E+00
(PID.TID 0000.0001) %MON forcing_fu_del2              =   0.0000000000000E+00
(PID.TID 0000.0001) %MON forcing_fv_max               =   0.0000000000000E+00
(PID.TID 0000.0001) %MON forcing_fv_min               =   0.0000000000000E+00
(PID.TID 0000.0001) %MON forcing_fv_mean              =   0.0000000000000E+00
(PID.TID 0000.0001) %MON forcing_fv_sd                =   0.0000000000000E+00
(PID.TID 0000.0001) %MON forcing_fv_del2              =   0.0000000000000E+00
(PID.TID 0000.0001) %MON advcfl_uvel_max              =   1.2834220869986E-02
(PID.TID 0000.0001) %MON advcfl_vvel_max              =   0.0000000000000E+00
(PID.TID 0000.0001) %MON advcfl_wvel_max              =   5.2107124671117E-02
(PID.TID 0000.0001) %MON advcfl_W_hf_max              =   5.2107124671117E-02
(PID.TID 0000.0001) %MON pe_b_mean                    =   6.4862498293047E-08
(PID.TID 0000.0001) %MON ke_max                       =   1.4559373235622E-02
(PID.TID 0000.0001) %MON ke_mean                      =   6.3990956187348E-03
(PID.TID 0000.0001) %MON ke_vol                       =   9.6656886657870E+10
(PID.TID 0000.0001) %MON vort_r_min                   =   0.0000000000000E+00
(PID.TID 0000.0001) %MON vort_r_max                   =   0.0000000000000E+00
(PID.TID 0000.0001) %MON vort_a_mean                  =   0.0000000000000E+00
(PID.TID 0000.0001) %MON vort_a_sd                    =   0.0000000000000E+00
(PID.TID 0000.0001) %MON vort_p_mean                  =   0.0000000000000E+00
(PID.TID 0000.0001) %MON vort_p_sd                    =   0.0000000000000E+00
(PID.TID 0000.0001) %MON surfExpan_theta_mean         =  -1.7474274381705E-18
(PID.TID 0000.0001) %MON surfExpan_salt_mean          =  -3.5102178989758E-19
(PID.TID 0000.0001) // =======================================================
(PID.TID 0000.0001) // End MONITOR dynamic field statistics
(PID.TID 0000.0001) // =======================================================
(PID.TID 0000.0001) // =======================================================
(PID.TID 0000.0001) // Begin OBCS MONITOR field statistics
(PID.TID 0000.0001) // =======================================================
(PID.TID 0000.0001) %MON obc_E_uVel_max               =   1.1205712828732E-01
(PID.TID 0000.0001) %MON obc_E_uVel_min               =   1.1205712828732E-01
(PID.TID 0000.0001) %MON obc_E_uVel_mean              =   1.1205712828732E-01
(PID.TID 0000.0001) %MON obc_E_uVel_sd                =  -1.2143064331838E-17
(PID.TID 0000.0001) %MON obc_E_uVel_Int               =   1.1205712828732E+05
(PID.TID 0000.0001) %MON obc_W_uVel_max               =   1.1205712828732E-01
(PID.TID 0000.0001) %MON obc_W_uVel_min               =   1.1205712828732E-01
(PID.TID 0000.0001) %MON obc_W_uVel_mean              =   1.1205712828732E-01
(PID.TID 0000.0001) %MON obc_W_uVel_sd                =  -1.2143064331838E-17
(PID.TID 0000.0001) %MON obc_W_uVel_Int               =   1.1205712828732E+05
(PID.TID 0000.0001) // =======================================================
(PID.TID 0000.0001) // End OBCS MONITOR field statistics
(PID.TID 0000.0001) // =======================================================
 cg2d: Sum(rhs),rhsMax =  -8.97418805934080E-11  1.36651405300292E-02
 cg2d: Sum(rhs),rhsMax =  -8.80323591800902E-11  1.39485433187773E-02
 cg2d: Sum(rhs),rhsMax =  -8.64192051253099E-11  1.42256490211655E-02
 cg2d: Sum(rhs),rhsMax =  -8.48937586894749E-11  1.44963329193561E-02
 cg2d: Sum(rhs),rhsMax =  -8.34485813783203E-11  1.47604732269838E-02
 cg2d: Sum(rhs),rhsMax =  -8.21180901056096E-11  1.50179511477884E-02
 cg2d: Sum(rhs),rhsMax =  -8.08481059877408E-11  1.52686509412953E-02
 cg2d: Sum(rhs),rhsMax =  -7.96678278902618E-11  1.55124599964440E-02
 cg2d: Sum(rhs),rhsMax =  -7.85401743641501E-11  1.57492689143817E-02
 cg2d: Sum(rhs),rhsMax =  -7.75088881965758E-11  1.59789716008865E-02
 cg2d: Sum(rhs),rhsMax =  -7.64922569729265E-11  1.62014653678538E-02
 cg2d: Sum(rhs),rhsMax =  -7.55393525508907E-11  1.64166510422119E-02
 cg2d: Sum(rhs),rhsMax =  -7.46632755621590E-11  1.66244330796616E-02
 cg2d: Sum(rhs),rhsMax =  -7.38463734606398E-11  1.68247196798245E-02
 cg2d: Sum(rhs),rhsMax =  -7.30351334965462E-11  1.70174228987643E-02
 cg2d: Sum(rhs),rhsMax =  -7.23210380471073E-11  1.72024587536317E-02
 cg2d: Sum(rhs),rhsMax =  -7.17174097886186E-11  1.73797473172172E-02
 cg2d: Sum(rhs),rhsMax =  -7.11302128308944E-11  1.75492127967958E-02
 cg2d: Sum(rhs),rhsMax =  -7.05807634560074E-11  1.77107835927714E-02
 cg2d: Sum(rhs),rhsMax =  -7.00587365898286E-11  1.78643923395310E-02
 cg2d: Sum(rhs),rhsMax =  -6.95791202431906E-11  1.80099759150496E-02
 cg2d: Sum(rhs),rhsMax =  -6.91391388585316E-11  1.81474754278409E-02
 cg2d: Sum(rhs),rhsMax =  -6.87321310977040E-11  1.82768361849573E-02
 cg2d: Sum(rhs),rhsMax =  -6.83505474441404E-11  1.83980076431983E-02
 cg2d: Sum(rhs),rhsMax =  -6.80001610575687E-11  1.85109433467532E-02
 cg2d: Sum(rhs),rhsMax =  -6.76528832954659E-11  1.86156008557647E-02
 cg2d: Sum(rhs),rhsMax =  -6.73924249738889E-11  1.87119416710709E-02
 cg2d: Sum(rhs),rhsMax =  -6.71164235299671E-11  1.87999311604697E-02
 cg2d: Sum(rhs),rhsMax =  -6.68838318063081E-11  1.88795384914178E-02
 cg2d: Sum(rhs),rhsMax =  -6.67295108058852E-11  1.89507365742607E-02
 cg2d: Sum(rhs),rhsMax =  -6.65614230399569E-11  1.90135020190144E-02
 cg2d: Sum(rhs),rhsMax =  -6.64310828568659E-11  1.90678150976149E-02
 cg2d: Sum(rhs),rhsMax =  -6.63047394766636E-11  1.91136597350883E-02
 cg2d: Sum(rhs),rhsMax =  -6.62659926931042E-11  1.91510235222476E-02
 cg2d: Sum(rhs),rhsMax =  -6.62048194044473E-11  1.91798977346392E-02
 cg2d: Sum(rhs),rhsMax =  -6.61906085497321E-11  1.92002773571584E-02
 cg2d: Sum(rhs),rhsMax =  -6.61667387547027E-11  1.92121611139740E-02
 cg2d: Sum(rhs),rhsMax =  -6.61500854093333E-11  1.92155515068416E-02
 cg2d: Sum(rhs),rhsMax =  -6.60997923063178E-11  1.92104548608755E-02
 cg2d: Sum(rhs),rhsMax =  -6.61031229753917E-11  1.91968813415252E-02
 cg2d: Sum(rhs),rhsMax =  -6.60631549465052E-11  1.91748449705628E-02
 cg2d: Sum(rhs),rhsMax =  -6.61356525100132E-11  1.91443636441489E-02
 cg2d: Sum(rhs),rhsMax =  -6.62068178058917E-11  1.91054591479526E-02
 cg2d: Sum(rhs),rhsMax =  -6.62950805363494E-11  1.90581571645599E-02
 cg2d: Sum(rhs),rhsMax =  -6.64237553849034E-11  1.90024872707017E-02
 cg2d: Sum(rhs),rhsMax =  -6.65573152147658E-11  1.89384829243045E-02
 cg2d: Sum(rhs),rhsMax =  -6.67579325153156E-11  1.88661814440065E-02
 cg2d: Sum(rhs),rhsMax =  -6.69678756892722E-11  1.87856239794925E-02
 cg2d: Sum(rhs),rhsMax =  -6.72354394382069E-11  1.86968554728635E-02
 cg2d: Sum(rhs),rhsMax =  -6.75409728145837E-11  1.85999246182323E-02
 cg2d: Sum(rhs),rhsMax =  -6.78596068226511E-11  1.84948838196741E-02
 cg2d: Sum(rhs),rhsMax =  -6.81965595106249E-11  1.83817891473222E-02
 cg2d: Sum(rhs),rhsMax =  -6.85689283130841E-11  1.82607002916343E-02
 cg2d: Sum(rhs),rhsMax =  -6.89976964451944E-11  1.81316805162938E-02
 cg2d: Sum(rhs),rhsMax =  -6.94279078672366E-11  1.79947966104558E-02
 cg2d: Sum(rhs),rhsMax =  -6.98869850879191E-11  1.78501188410079E-02
 cg2d: Sum(rhs),rhsMax =  -7.03945790547778E-11  1.76977209052908E-02
 cg2d: Sum(rhs),rhsMax =  -7.09271530396904E-11  1.75376798678620E-02
 cg2d: Sum(rhs),rhsMax =  -7.15298931197594E-11  1.73700761171270E-02
 cg2d: Sum(rhs),rhsMax =  -7.21642745560303E-11  1.71949933372355E-02
 cg2d: Sum(rhs),rhsMax =  -7.29116766962079E-11  1.70125184722708E-02
 cg2d: Sum(rhs),rhsMax =  -7.36807281853658E-11  1.68227416789345E-02
 cg2d: Sum(rhs),rhsMax =  -7.44959649523480E-11  1.66257562736983E-02
 cg2d: Sum(rhs),rhsMax =  -7.53572759748522E-11  1.64216586789355E-02
 cg2d: Sum(rhs),rhsMax =  -7.62597762715700E-11  1.62105483705288E-02
 cg2d: Sum(rhs),rhsMax =  -7.72336639087712E-11  1.59925278254570E-02
 cg2d: Sum(rhs),rhsMax =  -7.82800491094804E-11  1.57677024686735E-02
 cg2d: Sum(rhs),rhsMax =  -7.93661802944712E-11  1.55361806186721E-02
 cg2d: Sum(rhs),rhsMax =  -8.05290278904636E-11  1.52980734398070E-02
 cg2d: Sum(rhs),rhsMax =  -8.17399481434222E-11  1.50534948893317E-02
 cg2d: Sum(rhs),rhsMax =  -8.30236990267963E-11  1.48025616449350E-02
 cg2d: Sum(rhs),rhsMax =  -8.44082581608063E-11  1.45453930209109E-02
 cg2d: Sum(rhs),rhsMax =  -8.58562110295225E-11  1.42821108960133E-02
 cg2d: Sum(rhs),rhsMax =  -8.74118555316272E-11  1.40128396453587E-02
 cg2d: Sum(rhs),rhsMax =  -8.90617579685227E-11  1.37377060688139E-02
 cg2d: Sum(rhs),rhsMax =  -9.07954822437773E-11  1.34568393114718E-02
 cg2d: Sum(rhs),rhsMax =  -9.26562160330491E-11  1.31703707761403E-02
 cg2d: Sum(rhs),rhsMax =  -9.46139833146731E-11  1.28784340275803E-02
 cg2d: Sum(rhs),rhsMax =  -9.67285140873742E-11  1.25811646925456E-02
 cg2d: Sum(rhs),rhsMax =  -9.90213466778300E-11  1.22787003580561E-02
 cg2d: Sum(rhs),rhsMax =  -1.01429864507452E-10  1.19711804707939E-02
 cg2d: Sum(rhs),rhsMax =  -1.04112940491063E-10  1.16587462372871E-02
 cg2d: Sum(rhs),rhsMax =  -1.06971209667961E-10  1.13415405259473E-02
 cg2d: Sum(rhs),rhsMax =  -1.10046971535382E-10  1.10197077788789E-02
 cg2d: Sum(rhs),rhsMax =  -1.13324460926378E-10  1.06933939380214E-02
 cg2d: Sum(rhs),rhsMax =  -1.16876397449062E-10  1.03627463836031E-02
 cg2d: Sum(rhs),rhsMax =  -1.20706666884018E-10  1.00279138881057E-02
 cg2d: Sum(rhs),rhsMax =  -1.24894761199812E-10  9.68904658804223E-03
 cg2d: Sum(rhs),rhsMax =  -1.29401267479068E-10  9.34629597444714E-03
 cg2d: Sum(rhs),rhsMax =  -1.34299793508319E-10  8.99981490185738E-03
 cg2d: Sum(rhs),rhsMax =  -1.39667499787777E-10  8.64975761163923E-03
 cg2d: Sum(rhs),rhsMax =  -1.45561229736302E-10  8.29627975944927E-03
 cg2d: Sum(rhs),rhsMax =  -1.51945012127896E-10  7.93953844988682E-03
 cg2d: Sum(rhs),rhsMax =  -1.59048774150961E-10  7.57969229252651E-03
 cg2d: Sum(rhs),rhsMax =  -1.66959224223717E-10  7.21690143997336E-03
 cg2d: Sum(rhs),rhsMax =  -1.75743308794551E-10  6.85132760398062E-03
 cg2d: Sum(rhs),rhsMax =  -1.85598758584149E-10  6.48313404740902E-03
 cg2d: Sum(rhs),rhsMax =  -1.96799798679592E-10  6.11248555040751E-03
 cg2d: Sum(rhs),rhsMax =  -2.09557593500165E-10  5.73954834909792E-03
 cg2d: Sum(rhs),rhsMax =  -2.24144369731505E-10  5.36449004552584E-03
 cg2d: Sum(rhs),rhsMax =  -2.41026865133165E-10  4.98747948904465E-03
 cg2d: Sum(rhs),rhsMax =  -2.60770849358494E-10  4.60868663131636E-03
 cg2d: Sum(rhs),rhsMax =  -2.84185674992443E-10  4.22828235918546E-03
 cg2d: Sum(rhs),rhsMax =  -3.12341708053054E-10  3.84643831134353E-03
 cg2d: Sum(rhs),rhsMax =  -3.46817685681344E-10  3.46332668575301E-03
 cg2d: Sum(rhs),rhsMax =  -3.80797726684534E-10  3.15343081597844E-03
 cg2d: Sum(rhs),rhsMax =  -3.60640406427137E-10  3.32932024677551E-03
 cg2d: Sum(rhs),rhsMax =  -3.42437855849198E-10  3.50535930362353E-03
 cg2d: Sum(rhs),rhsMax =  -3.25967308700825E-10  3.68146914968923E-03
 cg2d: Sum(rhs),rhsMax =  -3.11002806840932E-10  3.85757097484648E-03
 cg2d: Sum(rhs),rhsMax =  -2.97383770386794E-10  4.03358600345382E-03
 cg2d: Sum(rhs),rhsMax =  -2.84892880987597E-10  4.20943550060548E-03
 cg2d: Sum(rhs),rhsMax =  -2.73387645854939E-10  4.38504106826434E-03
 cg2d: Sum(rhs),rhsMax =  -2.62875693435305E-10  4.56032467391742E-03
 cg2d: Sum(rhs),rhsMax =  -2.53107590442170E-10  4.73520852575391E-03
 cg2d: Sum(rhs),rhsMax =  -2.44076647781810E-10  4.90961501868663E-03
 cg2d: Sum(rhs),rhsMax =  -2.35710118090537E-10  5.08346681887895E-03
 cg2d: Sum(rhs),rhsMax =  -2.27870555757903E-10  5.25668695933111E-03
 cg2d: Sum(rhs),rhsMax =  -2.20587270671757E-10  5.42919888319422E-03
 cg2d: Sum(rhs),rhsMax =  -2.13788431402406E-10  5.60092640005951E-03
 cg2d: Sum(rhs),rhsMax =  -2.07395767226615E-10  5.77179368478398E-03
 cg2d: Sum(rhs),rhsMax =  -2.01421990198014E-10  5.94172539219381E-03
 cg2d: Sum(rhs),rhsMax =  -1.95811811209978E-10  6.11064676392286E-03
 cg2d: Sum(rhs),rhsMax =  -1.90571114444538E-10  6.27848359618193E-03
 cg2d: Sum(rhs),rhsMax =  -1.85581994216477E-10  6.44516210674954E-03
 cg2d: Sum(rhs),rhsMax =  -1.80540471461654E-10  6.62501684930833E-03
 cg2d: Sum(rhs),rhsMax =  -1.75631065246762E-10  6.80599465809414E-03
 cg2d: Sum(rhs),rhsMax =  -1.71043623709011E-10  6.98559525938030E-03
 cg2d: Sum(rhs),rhsMax =  -1.66676894508555E-10  7.16373869872458E-03
 cg2d: Sum(rhs),rhsMax =  -1.62576285767102E-10  7.34033921579180E-03
 cg2d: Sum(rhs),rhsMax =  -1.58674517969359E-10  7.51531679677693E-03
 cg2d: Sum(rhs),rhsMax =  -1.54979473698802E-10  7.68859663407657E-03
 cg2d: Sum(rhs),rhsMax =  -1.51506140966262E-10  7.86010574275157E-03
 cg2d: Sum(rhs),rhsMax =  -1.48235090868809E-10  8.02977124177907E-03
 cg2d: Sum(rhs),rhsMax =  -1.45066070267319E-10  8.19751983750821E-03
 cg2d: Sum(rhs),rhsMax =  -1.42126865831926E-10  8.36327078127669E-03
 cg2d: Sum(rhs),rhsMax =  -1.39311562286082E-10  8.52694171309411E-03
 cg2d: Sum(rhs),rhsMax =  -1.35153332969651E-10  8.78387118779641E-03
 cg2d: Sum(rhs),rhsMax =  -1.30259136810196E-10  9.11088957346612E-03
 cg2d: Sum(rhs),rhsMax =  -1.25700450048782E-10  9.43354232047093E-03
 cg2d: Sum(rhs),rhsMax =  -1.21557097720881E-10  9.75169152647720E-03
 cg2d: Sum(rhs),rhsMax =  -1.17671983268508E-10  1.00652012945946E-02
 cg2d: Sum(rhs),rhsMax =  -1.14127041150880E-10  1.03739377954964E-02
 cg2d: Sum(rhs),rhsMax =  -1.10816356091448E-10  1.06777693303983E-02
 cg2d: Sum(rhs),rhsMax =  -1.07732711640551E-10  1.09765663941664E-02
 cg2d: Sum(rhs),rhsMax =  -1.04882658114036E-10  1.12702017369631E-02
 cg2d: Sum(rhs),rhsMax =  -1.02126862522312E-10  1.15585504240783E-02
 cg2d: Sum(rhs),rhsMax =  -9.96088767024617E-11  1.18414898934825E-02
 cg2d: Sum(rhs),rhsMax =  -9.71712710295947E-11  1.21189000106004E-02
 cg2d: Sum(rhs),rhsMax =  -9.49476053335729E-11  1.23906631198618E-02
 cg2d: Sum(rhs),rhsMax =  -9.28521703968954E-11  1.26566640927438E-02
 cg2d: Sum(rhs),rhsMax =  -9.08538799748726E-11  1.29167903722188E-02
 cg2d: Sum(rhs),rhsMax =  -8.89914808510639E-11  1.31709320136441E-02
 cg2d: Sum(rhs),rhsMax =  -8.72456551448408E-11  1.34189817224759E-02
 cg2d: Sum(rhs),rhsMax =  -8.56046344921424E-11  1.36608348893998E-02
 cg2d: Sum(rhs),rhsMax =  -8.40676417368513E-11  1.38963896232441E-02
 cg2d: Sum(rhs),rhsMax =  -8.26216872695795E-11  1.41255467824019E-02
 cg2d: Sum(rhs),rhsMax =  -8.12755418522215E-11  1.43482100049631E-02
 cg2d: Sum(rhs),rhsMax =  -7.99975641285755E-11  1.45642857377807E-02
 cg2d: Sum(rhs),rhsMax =  -7.87921949907400E-11  1.47736832654425E-02
 cg2d: Sum(rhs),rhsMax =  -7.76525510559622E-11  1.49763147397041E-02
 cg2d: Sum(rhs),rhsMax =  -7.65947305580994E-11  1.51720952093805E-02
 cg2d: Sum(rhs),rhsMax =  -7.55846496502954E-11  1.53609426502936E-02
 cg2d: Sum(rhs),rhsMax =  -7.46022132958046E-11  1.55427779947643E-02
 cg2d: Sum(rhs),rhsMax =  -7.37420124963251E-11  1.57175251592775E-02
 cg2d: Sum(rhs),rhsMax =  -7.29095672724611E-11  1.58851110728983E-02
 cg2d: Sum(rhs),rhsMax =  -7.20926651709419E-11  1.60454657046433E-02
 cg2d: Sum(rhs),rhsMax =  -7.12667702629233E-11  1.61985220926236E-02
 cg2d: Sum(rhs),rhsMax =  -7.05375757803495E-11  1.63442163625089E-02
 cg2d: Sum(rhs),rhsMax =  -6.98374691410208E-11  1.64824877474260E-02
 cg2d: Sum(rhs),rhsMax =  -6.92110813105273E-11  1.66132786090349E-02
 cg2d: Sum(rhs),rhsMax =  -6.86254386650376E-11  1.67365344592874E-02
 cg2d: Sum(rhs),rhsMax =  -6.80794309815269E-11  1.68522039822391E-02
 cg2d: Sum(rhs),rhsMax =  -6.75781652859087E-11  1.69602390555392E-02
 cg2d: Sum(rhs),rhsMax =  -6.71216415781828E-11  1.70605947716228E-02
 cg2d: Sum(rhs),rhsMax =  -6.66984245611957E-11  1.71532294589736E-02
 cg2d: Sum(rhs),rhsMax =  -6.63241683795945E-11  1.72381047040060E-02
 cg2d: Sum(rhs),rhsMax =  -6.59450272166850E-11  1.73151853741201E-02
 cg2d: Sum(rhs),rhsMax =  -6.56537046950234E-11  1.73844396420357E-02
 cg2d: Sum(rhs),rhsMax =  -6.53858078791814E-11  1.74458389978880E-02
 cg2d: Sum(rhs),rhsMax =  -6.50622888898056E-11  1.74993582919019E-02
 cg2d: Sum(rhs),rhsMax =  -6.48436859762569E-11  1.75449757718098E-02
 cg2d: Sum(rhs),rhsMax =  -6.46661613146193E-11  1.75826731165510E-02
 cg2d: Sum(rhs),rhsMax =  -6.45403730459293E-11  1.76124354683728E-02
 cg2d: Sum(rhs),rhsMax =  -6.44110320635605E-11  1.76342514653553E-02
 cg2d: Sum(rhs),rhsMax =  -6.43092246122023E-11  1.76481132809072E-02
 cg2d: Sum(rhs),rhsMax =  -6.42618180890508E-11  1.76540166694197E-02
 cg2d: Sum(rhs),rhsMax =  -6.41490194297489E-11  1.76519609806243E-02
 cg2d: Sum(rhs),rhsMax =  -6.42159658781338E-11  1.76419491777605E-02
 cg2d: Sum(rhs),rhsMax =  -6.43622932727794E-11  1.76239878575153E-02
 cg2d: Sum(rhs),rhsMax =  -6.46196429698875E-11  1.75980872662520E-02
 cg2d: Sum(rhs),rhsMax =  -6.48239240064186E-11  1.75642613060721E-02
 cg2d: Sum(rhs),rhsMax =  -6.50390852285909E-11  1.75225275266566E-02
 cg2d: Sum(rhs),rhsMax =  -6.53184173415866E-11  1.74729071009465E-02
 cg2d: Sum(rhs),rhsMax =  -6.56593668324490E-11  1.74154247877508E-02
 cg2d: Sum(rhs),rhsMax =  -6.59132748381808E-11  1.73501088738194E-02
 cg2d: Sum(rhs),rhsMax =  -6.62463417455683E-11  1.72769911031817E-02
 cg2d: Sum(rhs),rhsMax =  -6.66088295631084E-11  1.71961065982858E-02
 cg2d: Sum(rhs),rhsMax =  -6.70145050563065E-11  1.71074937754084E-02
 cg2d: Sum(rhs),rhsMax =  -6.74535982625457E-11  1.70111942575525E-02
 cg2d: Sum(rhs),rhsMax =  -6.79509781775778E-11  1.69072527890816E-02
 cg2d: Sum(rhs),rhsMax =  -6.84459156019557E-11  1.67957171570820E-02
 cg2d: Sum(rhs),rhsMax =  -6.90211221510140E-11  1.66766381245109E-02
 cg2d: Sum(rhs),rhsMax =  -6.96716018211418E-11  1.65500693795543E-02
 cg2d: Sum(rhs),rhsMax =  -7.03003211199871E-11  1.64160674949176E-02
 cg2d: Sum(rhs),rhsMax =  -7.10155267924506E-11  1.62746919190924E-02
 cg2d: Sum(rhs),rhsMax =  -7.17744752520844E-11  1.61260050007439E-02
 cg2d: Sum(rhs),rhsMax =  -7.26029236730596E-11  1.59700720206598E-02
 cg2d: Sum(rhs),rhsMax =  -7.34575733574161E-11  1.58069612281822E-02
 cg2d: Sum(rhs),rhsMax =  -7.43067829489519E-11  1.56367439088973E-02
 cg2d: Sum(rhs),rhsMax =  -7.52289341932055E-11  1.54594944527566E-02
 cg2d: Sum(rhs),rhsMax =  -7.61781748792600E-11  1.52752904195364E-02
 cg2d: Sum(rhs),rhsMax =  -7.72221175893151E-11  1.50842125972258E-02
 cg2d: Sum(rhs),rhsMax =  -7.83161313577807E-11  1.48863450482866E-02
 cg2d: Sum(rhs),rhsMax =  -7.94946330984203E-11  1.46817751397977E-02
 cg2d: Sum(rhs),rhsMax =  -8.06896771621268E-11  1.44705935537711E-02
 cg2d: Sum(rhs),rhsMax =  -8.20116197175480E-11  1.42528942753453E-02
 cg2d: Sum(rhs),rhsMax =  -8.34192714904702E-11  1.40287745602187E-02
 cg2d: Sum(rhs),rhsMax =  -8.49236236888373E-11  1.37983348823329E-02
 cg2d: Sum(rhs),rhsMax =  -8.65003624284100E-11  1.35616788361403E-02
 cg2d: Sum(rhs),rhsMax =  -8.81367201444050E-11  1.33189130218493E-02
 cg2d: Sum(rhs),rhsMax =  -8.99328389536436E-11  1.30701469243607E-02
 cg2d: Sum(rhs),rhsMax =  -9.18386477977151E-11  1.28154927878723E-02
 cg2d: Sum(rhs),rhsMax =  -9.38510380521507E-11  1.25550654870611E-02
 cg2d: Sum(rhs),rhsMax =  -9.59804458133817E-11  1.22889823980788E-02
 cg2d: Sum(rhs),rhsMax =  -9.82683934225292E-11  1.20173632743462E-02
 cg2d: Sum(rhs),rhsMax =  -1.00687236326280E-10  1.17403301326537E-02
 cg2d: Sum(rhs),rhsMax =  -1.03287933761465E-10  1.14580071541993E-02
 cg2d: Sum(rhs),rhsMax =  -1.06081365913724E-10  1.11705206019898E-02
 cg2d: Sum(rhs),rhsMax =  -1.09021236482931E-10  1.08779987555089E-02
 cg2d: Sum(rhs),rhsMax =  -1.12145848163436E-10  1.05805718664970E-02
 cg2d: Sum(rhs),rhsMax =  -1.15490728092027E-10  1.02783721351743E-02
 cg2d: Sum(rhs),rhsMax =  -1.19108278795466E-10  9.97153369853851E-03
 cg2d: Sum(rhs),rhsMax =  -1.23049015421373E-10  9.66019262798509E-03
 cg2d: Sum(rhs),rhsMax =  -1.27237220759469E-10  9.34448693319602E-03
 cg2d: Sum(rhs),rhsMax =  -1.31863520103082E-10  9.02455656917523E-03
 cg2d: Sum(rhs),rhsMax =  -1.36879618750640E-10  8.70054344272976E-03
 cg2d: Sum(rhs),rhsMax =  -1.42291844973386E-10  8.37259141448218E-03
 cg2d: Sum(rhs),rhsMax =  -1.48216217077390E-10  8.04084629340308E-03
 cg2d: Sum(rhs),rhsMax =  -1.54745882774421E-10  7.70545582071392E-03
 cg2d: Sum(rhs),rhsMax =  -1.59315227676871E-10  7.49000273944069E-03
 cg2d: Sum(rhs),rhsMax =  -1.63068114567011E-10  7.31976895523596E-03
 cg2d: Sum(rhs),rhsMax =  -1.67060032474353E-10  7.14812962463809E-03
 cg2d: Sum(rhs),rhsMax =  -1.71298863982372E-10  6.97516107342798E-03
 cg2d: Sum(rhs),rhsMax =  -1.75815473291152E-10  6.80094024125229E-03
 cg2d: Sum(rhs),rhsMax =  -1.80582659936590E-10  6.62554477690435E-03
 cg2d: Sum(rhs),rhsMax =  -1.85649051687165E-10  6.44905302801908E-03
 cg2d: Sum(rhs),rhsMax =  -1.90954918544151E-10  6.27154390778050E-03
 cg2d: Sum(rhs),rhsMax =  -1.96577976119272E-10  6.09309673621408E-03
 cg2d: Sum(rhs),rhsMax =  -2.02550309857941E-10  5.91379113484050E-03
 cg2d: Sum(rhs),rhsMax =  -2.08988604200044E-10  5.73370696499132E-03
 cg2d: Sum(rhs),rhsMax =  -2.15892859145583E-10  5.55292427813906E-03
 cg2d: Sum(rhs),rhsMax =  -2.23208229677141E-10  5.37152333380359E-03
 cg2d: Sum(rhs),rhsMax =  -2.31069774425663E-10  5.18958457784290E-03
 cg2d: Sum(rhs),rhsMax =  -2.39549602376599E-10  5.00718860238638E-03
 cg2d: Sum(rhs),rhsMax =  -2.48654929979608E-10  4.82441935391594E-03
 cg2d: Sum(rhs),rhsMax =  -2.58539523123602E-10  4.64137194753703E-03
 cg2d: Sum(rhs),rhsMax =  -2.69223754401082E-10  4.45813527977088E-03
 cg2d: Sum(rhs),rhsMax =  -2.80836104371573E-10  4.27479122112625E-03
 cg2d: Sum(rhs),rhsMax =  -2.93445961974115E-10  4.09141905274486E-03
 cg2d: Sum(rhs),rhsMax =  -3.07316158631998E-10  3.90809807018097E-03
 cg2d: Sum(rhs),rhsMax =  -3.22495178131654E-10  3.72490861483940E-03
 cg2d: Sum(rhs),rhsMax =  -3.39189690223840E-10  3.54193187215506E-03
 cg2d: Sum(rhs),rhsMax =  -3.57725987720769E-10  3.35926586591769E-03
 cg2d: Sum(rhs),rhsMax =  -3.78303166570504E-10  3.17700678536443E-03
 cg2d: Sum(rhs),rhsMax =  -4.01323529963804E-10  2.99524000310469E-03
 cg2d: Sum(rhs),rhsMax =  -4.27255675283789E-10  2.81404645246760E-03
 cg2d: Sum(rhs),rhsMax =  -4.48458825630382E-10  2.68130937305275E-03
 cg2d: Sum(rhs),rhsMax =  -3.99120847482948E-10  3.01370692977965E-03
 cg2d: Sum(rhs),rhsMax =  -3.59375529335182E-10  3.34742613529307E-03
 cg2d: Sum(rhs),rhsMax =  -3.26295324093451E-10  3.68750368340753E-03
 cg2d: Sum(rhs),rhsMax =  -2.98796654085720E-10  4.02745258508807E-03
 cg2d: Sum(rhs),rhsMax =  -2.75179212749777E-10  4.37456911707372E-03
 cg2d: Sum(rhs),rhsMax =  -2.54889331863239E-10  4.72399424431330E-03
 cg2d: Sum(rhs),rhsMax =  -2.37002195646596E-10  5.08055942447536E-03
 cg2d: Sum(rhs),rhsMax =  -2.21423546165056E-10  5.43870717351127E-03
 cg2d: Sum(rhs),rhsMax =  -2.07863615209192E-10  5.79439895361737E-03
 cg2d: Sum(rhs),rhsMax =  -1.95973459682364E-10  6.14747406703976E-03
 cg2d: Sum(rhs),rhsMax =  -1.85428450372171E-10  6.49777303753365E-03
 cg2d: Sum(rhs),rhsMax =  -1.76141656815787E-10  6.84513769045015E-03
 cg2d: Sum(rhs),rhsMax =  -1.67782121529569E-10  7.18941123275993E-03
 cg2d: Sum(rhs),rhsMax =  -1.60242263902433E-10  7.53043833209994E-03
 cg2d: Sum(rhs),rhsMax =  -1.53481893860885E-10  7.86806519430815E-03
 cg2d: Sum(rhs),rhsMax =  -1.47310164066994E-10  8.20213963937341E-03
 cg2d: Sum(rhs),rhsMax =  -1.41674560971694E-10  8.53251117574883E-03
 cg2d: Sum(rhs),rhsMax =  -1.36525679650390E-10  8.85903107286619E-03
 cg2d: Sum(rhs),rhsMax =  -1.31791133561876E-10  9.18155243164187E-03
 cg2d: Sum(rhs),rhsMax =  -1.27426180718260E-10  9.49993025242655E-03
 cg2d: Sum(rhs),rhsMax =  -1.23412058350425E-10  9.81402150159657E-03
 cg2d: Sum(rhs),rhsMax =  -1.19698362333054E-10  1.01236851769594E-02
 cg2d: Sum(rhs),rhsMax =  -1.16240794767464E-10  1.04287823716846E-02
 cg2d: Sum(rhs),rhsMax =  -1.13039355653655E-10  1.07291763361905E-02
 cg2d: Sum(rhs),rhsMax =  -1.10100262240564E-10  1.10247325416335E-02
 cg2d: Sum(rhs),rhsMax =  -1.07309827690472E-10  1.13153187437671E-02
 cg2d: Sum(rhs),rhsMax =  -1.04794839472788E-10  1.16008050472287E-02
 cg2d: Sum(rhs),rhsMax =  -1.02441832794398E-10  1.18810639706912E-02
 cg2d: Sum(rhs),rhsMax =  -1.00252361967534E-10  1.21559705128946E-02
 cg2d: Sum(rhs),rhsMax =  -9.82159908957669E-11  1.24254022191927E-02
 cg2d: Sum(rhs),rhsMax =  -9.62839807883142E-11  1.26892392480132E-02
 cg2d: Sum(rhs),rhsMax =  -9.44777589495516E-11  1.29473644365576E-02
 cg2d: Sum(rhs),rhsMax =  -9.27616872203885E-11  1.31996633651016E-02
 cg2d: Sum(rhs),rhsMax =  -9.11768438527361E-11  1.34460244192927E-02
 cg2d: Sum(rhs),rhsMax =  -8.96235308189830E-11  1.36863388500046E-02
 cg2d: Sum(rhs),rhsMax =  -8.82107720201475E-11  1.39205008306669E-02
 cg2d: Sum(rhs),rhsMax =  -8.68811689258564E-11  1.41484075116902E-02
 cg2d: Sum(rhs),rhsMax =  -8.56394954951156E-11  1.43699590717748E-02
 cg2d: Sum(rhs),rhsMax =  -8.44569969515874E-11  1.45850587662830E-02
 cg2d: Sum(rhs),rhsMax =  -8.32975910469713E-11  1.47936129726508E-02
 cg2d: Sum(rhs),rhsMax =  -8.22570900282926E-11  1.49955312326161E-02
 cg2d: Sum(rhs),rhsMax =  -8.12577782838275E-11  1.51907262919348E-02
 cg2d: Sum(rhs),rhsMax =  -8.03269672999818E-11  1.53791141380515E-02
 cg2d: Sum(rhs),rhsMax =  -7.94627696976136E-11  1.55606140358368E-02
 cg2d: Sum(rhs),rhsMax =  -7.86098963700965E-11  1.57351485612551E-02
 cg2d: Sum(rhs),rhsMax =  -7.78515030219751E-11  1.59026436324709E-02
 cg2d: Sum(rhs),rhsMax =  -7.71738228877439E-11  1.60630285383542E-02
 cg2d: Sum(rhs),rhsMax =  -7.65600915997311E-11  1.62162359660996E-02
 cg2d: Sum(rhs),rhsMax =  -7.59499130253971E-11  1.63622020305074E-02
 cg2d: Sum(rhs),rhsMax =  -7.54132312152933E-11  1.65008662904651E-02
 cg2d: Sum(rhs),rhsMax =  -7.49151851664465E-11  1.66321717654039E-02
 cg2d: Sum(rhs),rhsMax =  -7.44365680205306E-11  1.67560649515366E-02
 cg2d: Sum(rhs),rhsMax =  -7.39750483091939E-11  1.68724958372711E-02
 cg2d: Sum(rhs),rhsMax =  -7.35576044519348E-11  1.69814179170986E-02
 cg2d: Sum(rhs),rhsMax =  -7.31893434746667E-11  1.70827882036339E-02
 cg2d: Sum(rhs),rhsMax =  -7.28788140946790E-11  1.71765672378619E-02
 cg2d: Sum(rhs),rhsMax =  -7.25435267412422E-11  1.72627190978711E-02
 cg2d: Sum(rhs),rhsMax =  -7.22526483087904E-11  1.73412114064029E-02
 cg2d: Sum(rhs),rhsMax =  -7.19965198570094E-11  1.74120153374874E-02
 cg2d: Sum(rhs),rhsMax =  -7.18409776112594E-11  1.74751056201752E-02
 cg2d: Sum(rhs),rhsMax =  -7.17105264058659E-11  1.75304605335112E-02
 cg2d: Sum(rhs),rhsMax =  -7.15981718357739E-11  1.75780619232322E-02
 cg2d: Sum(rhs),rhsMax =  -7.14966974513231E-11  1.76178952107003E-02
 cg2d: Sum(rhs),rhsMax =  -7.13916703531936E-11  1.76499493954915E-02
 cg2d: Sum(rhs),rhsMax =  -7.14109882338221E-11  1.76742170535563E-02
 cg2d: Sum(rhs),rhsMax =  -7.14378556310180E-11  1.76906943327688E-02
 cg2d: Sum(rhs),rhsMax =  -7.13411552055732E-11  1.76993809558911E-02
 cg2d: Sum(rhs),rhsMax =  -7.13252790163210E-11  1.77002802171001E-02
 cg2d: Sum(rhs),rhsMax =  -7.13045178457605E-11  1.76933989581488E-02
 cg2d: Sum(rhs),rhsMax =  -7.12896408572306E-11  1.76787475467774E-02
 cg2d: Sum(rhs),rhsMax =  -7.13458181422766E-11  1.76563398610818E-02
 cg2d: Sum(rhs),rhsMax =  -7.14208692187412E-11  1.76261932745878E-02
 cg2d: Sum(rhs),rhsMax =  -7.15247860938462E-11  1.75883286390767E-02
 cg2d: Sum(rhs),rhsMax =  -7.16394721322899E-11  1.75427702633191E-02
 cg2d: Sum(rhs),rhsMax =  -7.17695902707760E-11  1.74895458874961E-02
 cg2d: Sum(rhs),rhsMax =  -7.19549975158884E-11  1.74286866565668E-02
 cg2d: Sum(rhs),rhsMax =  -7.21935844438804E-11  1.73602270861128E-02
 cg2d: Sum(rhs),rhsMax =  -7.24699189547096E-11  1.72842050276308E-02
 cg2d: Sum(rhs),rhsMax =  -7.27754523310864E-11  1.72006616353450E-02
 cg2d: Sum(rhs),rhsMax =  -7.30776550383894E-11  1.71096413341477E-02
 cg2d: Sum(rhs),rhsMax =  -7.34438065919107E-11  1.70111917884064E-02
 cg2d: Sum(rhs),rhsMax =  -7.38449301707078E-11  1.69053638718507E-02
 cg2d: Sum(rhs),rhsMax =  -7.43035633021805E-11  1.67922116391130E-02
 cg2d: Sum(rhs),rhsMax =  -7.46894768255402E-11  1.66717922995186E-02
 cg2d: Sum(rhs),rhsMax =  -7.52157225392125E-11  1.65441661934469E-02
 cg2d: Sum(rhs),rhsMax =  -7.57531815054335E-11  1.64093967590471E-02
 cg2d: Sum(rhs),rhsMax =  -7.62991891889442E-11  1.62675505206204E-02
 cg2d: Sum(rhs),rhsMax =  -7.68942687301433E-11  1.61186970806897E-02
 cg2d: Sum(rhs),rhsMax =  -7.75424169319194E-11  1.59629091034818E-02
 cg2d: Sum(rhs),rhsMax =  -7.82840459123690E-11  1.58002622808796E-02
 cg2d: Sum(rhs),rhsMax =  -7.90959520102774E-11  1.56308353120059E-02
 cg2d: Sum(rhs),rhsMax =  -7.99346144830793E-11  1.54547098807566E-02
 cg2d: Sum(rhs),rhsMax =  -8.08304534416493E-11  1.52719706239850E-02
 cg2d: Sum(rhs),rhsMax =  -8.17929057816968E-11  1.50827050916866E-02
 cg2d: Sum(rhs),rhsMax =  -8.28136448305372E-11  1.48870037004289E-02
 cg2d: Sum(rhs),rhsMax =  -8.38873415176522E-11  1.46849596826475E-02
 cg2d: Sum(rhs),rhsMax =  -8.50018944120734E-11  1.44766690341292E-02
 cg2d: Sum(rhs),rhsMax =  -8.62101501297730E-11  1.42622304637922E-02
 cg2d: Sum(rhs),rhsMax =  -8.74711414411422E-11  1.40417453429980E-02
 cg2d: Sum(rhs),rhsMax =  -8.88421558542518E-11  1.38153176565213E-02
 cg2d: Sum(rhs),rhsMax =  -9.02188324047870E-11  1.35830539696397E-02
 cg2d: Sum(rhs),rhsMax =  -9.17520504017943E-11  1.33450633751084E-02
 cg2d: Sum(rhs),rhsMax =  -9.33704225047904E-11  1.31014574488924E-02
 cg2d: Sum(rhs),rhsMax =  -9.50733936022630E-11  1.28523502162658E-02
 cg2d: Sum(rhs),rhsMax =  -9.68958246971852E-11  1.25978581217690E-02
 cg2d: Sum(rhs),rhsMax =  -9.87920856232449E-11  1.23380999965909E-02
 cg2d: Sum(rhs),rhsMax =  -1.00873198682905E-10  1.20731970183634E-02
 cg2d: Sum(rhs),rhsMax =  -1.03088093617032E-10  1.18032726608923E-02
 cg2d: Sum(rhs),rhsMax =  -1.05389807991685E-10  1.15284526298725E-02
 cg2d: Sum(rhs),rhsMax =  -1.07893360912215E-10  1.12488647841042E-02
 cg2d: Sum(rhs),rhsMax =  -1.10671916075944E-10  1.09646390406096E-02
 cg2d: Sum(rhs),rhsMax =  -1.13616116514947E-10  1.06759072731655E-02
 cg2d: Sum(rhs),rhsMax =  -1.16775256131518E-10  1.03828032009393E-02
 cg2d: Sum(rhs),rhsMax =  -1.20144894033558E-10  1.00854622692585E-02
 cg2d: Sum(rhs),rhsMax =  -1.23791754624847E-10  9.78402152753524E-03
 cg2d: Sum(rhs),rhsMax =  -1.27735266808315E-10  9.47861950812703E-03
 cg2d: Sum(rhs),rhsMax =  -1.31960109506224E-10  9.16939611168656E-03
 cg2d: Sum(rhs),rhsMax =  -1.36570310615980E-10  8.85649250231037E-03
 cg2d: Sum(rhs),rhsMax =  -1.41574085787965E-10  8.54005101510861E-03
 cg2d: Sum(rhs),rhsMax =  -1.46974654668952E-10  8.22021507810701E-03
 cg2d: Sum(rhs),rhsMax =  -1.52898138594537E-10  7.89712914859356E-03
 cg2d: Sum(rhs),rhsMax =  -1.59388058307286E-10  7.57093866169409E-03
 cg2d: Sum(rhs),rhsMax =  -1.66537783563570E-10  7.24178999011605E-03
 cg2d: Sum(rhs),rhsMax =  -1.74443348655018E-10  6.90983039711980E-03
 cg2d: Sum(rhs),rhsMax =  -1.83254633689955E-10  6.57520802981465E-03
 cg2d: Sum(rhs),rhsMax =  -1.93034477291576E-10  6.23807190753093E-03
 cg2d: Sum(rhs),rhsMax =  -2.04014249938211E-10  5.89857190374367E-03
 cg2d: Sum(rhs),rhsMax =  -2.16562434651735E-10  5.55685872256234E-03
 cg2d: Sum(rhs),rhsMax =  -2.30814478641150E-10  5.21308387098129E-03
 cg2d: Sum(rhs),rhsMax =  -2.47162068589546E-10  4.86739962689352E-03
 cg2d: Sum(rhs),rhsMax =  -2.66088817646448E-10  4.51995900178535E-03
 cg2d: Sum(rhs),rhsMax =  -2.88320256558450E-10  4.17091569667979E-03
 cg2d: Sum(rhs),rhsMax =  -3.14720360883314E-10  3.82042405025235E-03
 cg2d: Sum(rhs),rhsMax =  -3.46553785668391E-10  3.46863897881080E-03
 cg2d: Sum(rhs),rhsMax =  -3.85731113716759E-10  3.11571590867172E-03
 cg2d: Sum(rhs),rhsMax =  -3.70803832083766E-10  3.24053389637485E-03
 cg2d: Sum(rhs),rhsMax =  -3.50110274105475E-10  3.43158961015953E-03
 cg2d: Sum(rhs),rhsMax =  -3.31529304009592E-10  3.62279432531119E-03
 cg2d: Sum(rhs),rhsMax =  -3.14838904946768E-10  3.81406426757999E-03
 cg2d: Sum(rhs),rhsMax =  -2.99728436514712E-10  4.00531569472804E-03
 cg2d: Sum(rhs),rhsMax =  -2.86045138964131E-10  4.19646496159048E-03
 cg2d: Sum(rhs),rhsMax =  -2.73499688174805E-10  4.38742856230644E-03
 cg2d: Sum(rhs),rhsMax =  -2.62057889277578E-10  4.57812315648332E-03
 cg2d: Sum(rhs),rhsMax =  -2.51566101283629E-10  4.76846559250205E-03
 cg2d: Sum(rhs),rhsMax =  -2.41874464901315E-10  4.95837292543889E-03
 cg2d: Sum(rhs),rhsMax =  -2.32901142815933E-10  5.14776243952288E-03
 cg2d: Sum(rhs),rhsMax =  -2.24619489674893E-10  5.33655168227711E-03
 cg2d: Sum(rhs),rhsMax =  -2.16926809848417E-10  5.52465850340885E-03
 cg2d: Sum(rhs),rhsMax =  -2.09751271906811E-10  5.71200109469917E-03
 cg2d: Sum(rhs),rhsMax =  -2.03058125869404E-10  5.89849803178110E-03
 cg2d: Sum(rhs),rhsMax =  -1.96848204403466E-10  6.08406831816619E-03
 cg2d: Sum(rhs),rhsMax =  -1.91033966423504E-10  6.26863142710635E-03
 cg2d: Sum(rhs),rhsMax =  -1.85469195557175E-10  6.45210733456331E-03
 cg2d: Sum(rhs),rhsMax =  -1.80296999552354E-10  6.63441654102379E-03
 cg2d: Sum(rhs),rhsMax =  -1.75389480716603E-10  6.81548008766976E-03
 cg2d: Sum(rhs),rhsMax =  -1.70782721298224E-10  6.99521957711621E-03
 cg2d: Sum(rhs),rhsMax =  -1.66426206149595E-10  7.17355720740688E-03
 cg2d: Sum(rhs),rhsMax =  -1.62355906496714E-10  7.35041582138427E-03
 cg2d: Sum(rhs),rhsMax =  -1.58461244126329E-10  7.52571896581485E-03
 cg2d: Sum(rhs),rhsMax =  -1.54842694222168E-10  7.69939095005982E-03
 cg2d: Sum(rhs),rhsMax =  -1.51368140244301E-10  7.87135689494163E-03
 cg2d: Sum(rhs),rhsMax =  -1.48069223548930E-10  8.04154276785342E-03
 cg2d: Sum(rhs),rhsMax =  -1.44933953727389E-10  8.20987540667792E-03
 cg2d: Sum(rhs),rhsMax =  -1.42004630276915E-10  8.37628272478316E-03
 cg2d: Sum(rhs),rhsMax =  -1.39197098292243E-10  8.54069351521376E-03
 cg2d: Sum(rhs),rhsMax =  -1.36519462401452E-10  8.70303724655164E-03
 cg2d: Sum(rhs),rhsMax =  -1.34003474983047E-10  8.86324419007961E-03
 cg2d: Sum(rhs),rhsMax =  -1.31566424421692E-10  9.02124557900988E-03
 cg2d: Sum(rhs),rhsMax =  -1.29224297928943E-10  9.17697391698243E-03
 cg2d: Sum(rhs),rhsMax =  -1.27089672119496E-10  9.33036293545108E-03
 cg2d: Sum(rhs),rhsMax =  -1.24997567851892E-10  9.48134762420390E-03
 cg2d: Sum(rhs),rhsMax =  -1.23048016220650E-10  9.62986407069103E-03
 cg2d: Sum(rhs),rhsMax =  -1.21137544439875E-10  9.77584920230168E-03
 cg2d: Sum(rhs),rhsMax =  -1.19348531057994E-10  9.91924092635552E-03
 cg2d: Sum(rhs),rhsMax =  -1.16337717237514E-10  1.01688992110637E-02
 cg2d: Sum(rhs),rhsMax =  -1.13304365889633E-10  1.04383669635102E-02
 cg2d: Sum(rhs),rhsMax =  -1.10361053629049E-10  1.07029293853689E-02
 cg2d: Sum(rhs),rhsMax =  -1.07592934561751E-10  1.09624732068847E-02
 cg2d: Sum(rhs),rhsMax =  -1.05069064559871E-10  1.12168873292738E-02
 cg2d: Sum(rhs),rhsMax =  -1.02652220057564E-10  1.14660628666180E-02
 cg2d: Sum(rhs),rhsMax =  -1.00413122261500E-10  1.17098931879979E-02
 cg2d: Sum(rhs),rhsMax =  -9.83109149643724E-11  1.19482739602065E-02
 cg2d: Sum(rhs),rhsMax =  -9.63008561782885E-11  1.21811031913995E-02
 cg2d: Sum(rhs),rhsMax =  -9.44451183926276E-11  1.24082812758625E-02
 cg2d: Sum(rhs),rhsMax =  -9.26830834302450E-11  1.26297110400595E-02
 cg2d: Sum(rhs),rhsMax =  -9.10578279444962E-11  1.28452977900362E-02
 cg2d: Sum(rhs),rhsMax =  -8.95297169734022E-11  1.30549493600808E-02
 cg2d: Sum(rhs),rhsMax =  -8.80534534175581E-11  1.32585761623694E-02
 cg2d: Sum(rhs),rhsMax =  -8.67177440966316E-11  1.34560912371695E-02
 cg2d: Sum(rhs),rhsMax =  -8.54236681391285E-11  1.36474103031978E-02
 cg2d: Sum(rhs),rhsMax =  -8.42308445214712E-11  1.38324518076754E-02
 cg2d: Sum(rhs),rhsMax =  -8.30980839694462E-11  1.40111369749138E-02
 cg2d: Sum(rhs),rhsMax =  -8.20332690665282E-11  1.41833898534639E-02
 cg2d: Sum(rhs),rhsMax =  -8.10265188277981E-11  1.43491373618506E-02
 cg2d: Sum(rhs),rhsMax =  -8.00772781417436E-11  1.45083093326227E-02
 cg2d: Sum(rhs),rhsMax =  -7.91897658558582E-11  1.46608385548673E-02
 cg2d: Sum(rhs),rhsMax =  -7.82817144440173E-11  1.48066608184113E-02
 cg2d: Sum(rhs),rhsMax =  -7.74804664871453E-11  1.49457149476351E-02
 cg2d: Sum(rhs),rhsMax =  -7.67229613174436E-11  1.50779428343233E-02
 cg2d: Sum(rhs),rhsMax =  -7.59337037692376E-11  1.52032894690614E-02
 cg2d: Sum(rhs),rhsMax =  -7.52897744149550E-11  1.53217029702545E-02
 cg2d: Sum(rhs),rhsMax =  -7.46220862879454E-11  1.54331346095015E-02
 cg2d: Sum(rhs),rhsMax =  -7.40851824332367E-11  1.55375388320668E-02
 cg2d: Sum(rhs),rhsMax =  -7.35577154742373E-11  1.56348732713228E-02
 cg2d: Sum(rhs),rhsMax =  -7.30591143138781E-11  1.57250987561962E-02
 cg2d: Sum(rhs),rhsMax =  -7.26144699925158E-11  1.58081793107502E-02
 cg2d: Sum(rhs),rhsMax =  -7.22145676590458E-11  1.58840821454130E-02
 cg2d: Sum(rhs),rhsMax =  -7.18672898969430E-11  1.59527776311937E-02
 cg2d: Sum(rhs),rhsMax =  -7.15449921528943E-11  1.60142392766112E-02
 cg2d: Sum(rhs),rhsMax =  -7.12205849850989E-11  1.60684437032955E-02
 cg2d: Sum(rhs),rhsMax =  -7.09640124441080E-11  1.61153706095479E-02
 cg2d: Sum(rhs),rhsMax =  -7.07202074679003E-11  1.61550027259935E-02
(PID.TID 0000.0001)      cg2d_init_res =   9.15508116070487E-03
(PID.TID 0000.0001)      cg2d_iters(min,last) =      -1      36
(PID.TID 0000.0001)      cg2d_last_res =   4.88231400076257E-14
(PID.TID 0000.0001) // =======================================================
(PID.TID 0000.0001) // Begin MONITOR dynamic field statistics
(PID.TID 0000.0001) // =======================================================
(PID.TID 0000.0001) %MON time_tsnumber                =                  5280
(PID.TID 0000.0001) %MON time_secondsf                =   7.9200000000000E+04
(PID.TID 0000.0001) %MON dynstat_eta_max              =   2.9562643052142E-03
(PID.TID 0000.0001) %MON dynstat_eta_min              =  -3.2888805986367E-03
(PID.TID 0000.0001) %MON dynstat_eta_mean             =   2.5177985029271E-15
(PID.TID 0000.0001) %MON dynstat_eta_sd               =   2.1348939997508E-03
(PID.TID 0000.0001) %MON dynstat_eta_del2             =   2.3488900885441E-06
(PID.TID 0000.0001) %MON dynstat_uvel_max             =   2.0166663288763E-01
(PID.TID 0000.0001) %MON dynstat_uvel_min             =   5.4001443311945E-02
(PID.TID 0000.0001) %MON dynstat_uvel_mean            =   1.1330972942275E-01
(PID.TID 0000.0001) %MON dynstat_uvel_sd              =   6.5178867713416E-03
(PID.TID 0000.0001) %MON dynstat_uvel_del2            =   9.6335026750265E-05
(PID.TID 0000.0001) %MON dynstat_vvel_max             =   0.0000000000000E+00
(PID.TID 0000.0001) %MON dynstat_vvel_min             =   0.0000000000000E+00
(PID.TID 0000.0001) %MON dynstat_vvel_mean            =   0.0000000000000E+00
(PID.TID 0000.0001) %MON dynstat_vvel_sd              =   0.0000000000000E+00
(PID.TID 0000.0001) %MON dynstat_vvel_del2            =   0.0000000000000E+00
(PID.TID 0000.0001) %MON dynstat_wvel_max             =   3.7749496534640E-03
(PID.TID 0000.0001) %MON dynstat_wvel_min             =  -1.9841275279398E-03
(PID.TID 0000.0001) %MON dynstat_wvel_mean            =   2.8889025699949E-21
(PID.TID 0000.0001) %MON dynstat_wvel_sd              =   2.4845565536810E-04
(PID.TID 0000.0001) %MON dynstat_wvel_del2            =   7.8403065063008E-06
(PID.TID 0000.0001) %MON dynstat_theta_max            =   1.5000000000009E+01
(PID.TID 0000.0001) %MON dynstat_theta_min            =   9.9999999999914E+00
(PID.TID 0000.0001) %MON dynstat_theta_mean           =   1.1003749933301E+01
(PID.TID 0000.0001) %MON dynstat_theta_sd             =   1.9380685350123E+00
(PID.TID 0000.0001) %MON dynstat_theta_del2           =   3.0214088289784E-05
(PID.TID 0000.0001) %MON dynstat_salt_max             =   3.5000000000000E+01
(PID.TID 0000.0001) %MON dynstat_salt_min             =   3.5000000000000E+01
(PID.TID 0000.0001) %MON dynstat_salt_mean            =   3.5000000000000E+01
(PID.TID 0000.0001) %MON dynstat_salt_sd              =   4.0500935938326E-13
(PID.TID 0000.0001) %MON dynstat_salt_del2            =   0.0000000000000E+00
(PID.TID 0000.0001) %MON dynstat_sst_max              =   1.5000000000009E+01
(PID.TID 0000.0001) %MON dynstat_sst_min              =   1.5000000000000E+01
(PID.TID 0000.0001) %MON dynstat_sst_mean             =   1.5000000000007E+01
(PID.TID 0000.0001) %MON dynstat_sst_sd               =   3.6552365355562E-12
(PID.TID 0000.0001) %MON dynstat_sst_del2             =   2.2428209675814E-14
(PID.TID 0000.0001) %MON dynstat_sss_max              =   3.5000000000000E+01
(PID.TID 0000.0001) %MON dynstat_sss_min              =   3.5000000000000E+01
(PID.TID 0000.0001) %MON dynstat_sss_mean             =   3.5000000000000E+01
(PID.TID 0000.0001) %MON dynstat_sss_sd               =   4.2632564145606E-14
(PID.TID 0000.0001) %MON dynstat_sss_del2             =   0.0000000000000E+00
(PID.TID 0000.0001) %MON forcing_qnet_max             =   0.0000000000000E+00
(PID.TID 0000.0001) %MON forcing_qnet_min             =   0.0000000000000E+00
(PID.TID 0000.0001) %MON forcing_qnet_mean            =   0.0000000000000E+00
(PID.TID 0000.0001) %MON forcing_qnet_sd              =   0.0000000000000E+00
(PID.TID 0000.0001) %MON forcing_qnet_del2            =   0.0000000000000E+00
(PID.TID 0000.0001) %MON forcing_qsw_max              =   0.0000000000000E+00
(PID.TID 0000.0001) %MON forcing_qsw_min              =   0.0000000000000E+00
(PID.TID 0000.0001) %MON forcing_qsw_mean             =   0.0000000000000E+00
(PID.TID 0000.0001) %MON forcing_qsw_sd               =   0.0000000000000E+00
(PID.TID 0000.0001) %MON forcing_qsw_del2             =   0.0000000000000E+00
(PID.TID 0000.0001) %MON forcing_empmr_max            =   0.0000000000000E+00
(PID.TID 0000.0001) %MON forcing_empmr_min            =   0.0000000000000E+00
(PID.TID 0000.0001) %MON forcing_empmr_mean           =   0.0000000000000E+00
(PID.TID 0000.0001) %MON forcing_empmr_sd             =   0.0000000000000E+00
(PID.TID 0000.0001) %MON forcing_empmr_del2           =   0.0000000000000E+00
(PID.TID 0000.0001) %MON forcing_fu_max               =   0.0000000000000E+00
(PID.TID 0000.0001) %MON forcing_fu_min               =   0.0000000000000E+00
(PID.TID 0000.0001) %MON forcing_fu_mean              =   0.0000000000000E+00
(PID.TID 0000.0001) %MON forcing_fu_sd                =   0.0000000000000E+00
(PID.TID 0000.0001) %MON forcing_fu_del2              =   0.0000000000000E+00
(PID.TID 0000.0001) %MON forcing_fv_max               =   0.0000000000000E+00
(PID.TID 0000.0001) %MON forcing_fv_min               =   0.0000000000000E+00
(PID.TID 0000.0001) %MON forcing_fv_mean              =   0.0000000000000E+00
(PID.TID 0000.0001) %MON forcing_fv_sd                =   0.0000000000000E+00
(PID.TID 0000.0001) %MON forcing_fv_del2              =   0.0000000000000E+00
(PID.TID 0000.0001) %MON advcfl_uvel_max              =   1.3386333309893E-02
(PID.TID 0000.0001) %MON advcfl_vvel_max              =   0.0000000000000E+00
(PID.TID 0000.0001) %MON advcfl_wvel_max              =   4.5564951061452E-02
(PID.TID 0000.0001) %MON advcfl_W_hf_max              =   4.6060670580784E-02
(PID.TID 0000.0001) %MON pe_b_mean                    =   1.1296301993599E-07
(PID.TID 0000.0001) %MON ke_max                       =   1.5361405913946E-02
(PID.TID 0000.0001) %MON ke_mean                      =   6.4406876820997E-03
(PID.TID 0000.0001) %MON ke_vol                       =   9.6656886657870E+10
(PID.TID 0000.0001) %MON vort_r_min                   =   0.0000000000000E+00
(PID.TID 0000.0001) %MON vort_r_max                   =   0.0000000000000E+00
(PID.TID 0000.0001) %MON vort_a_mean                  =   0.0000000000000E+00
(PID.TID 0000.0001) %MON vort_a_sd                    =   0.0000000000000E+00
(PID.TID 0000.0001) %MON vort_p_mean                  =   0.0000000000000E+00
(PID.TID 0000.0001) %MON vort_p_sd                    =   0.0000000000000E+00
(PID.TID 0000.0001) %MON surfExpan_theta_mean         =   2.5122033603910E-19
(PID.TID 0000.0001) %MON surfExpan_salt_mean          =   5.5458183980834E-20
(PID.TID 0000.0001) // =======================================================
(PID.TID 0000.0001) // End MONITOR dynamic field statistics
(PID.TID 0000.0001) // =======================================================
(PID.TID 0000.0001) // =======================================================
(PID.TID 0000.0001) // Begin OBCS MONITOR field statistics
(PID.TID 0000.0001) // =======================================================
(PID.TID 0000.0001) %MON obc_E_uVel_max               =   1.1205712828732E-01
(PID.TID 0000.0001) %MON obc_E_uVel_min               =   1.1205712828732E-01
(PID.TID 0000.0001) %MON obc_E_uVel_mean              =   1.1205712828732E-01
(PID.TID 0000.0001) %MON obc_E_uVel_sd                =  -1.2143064331838E-17
(PID.TID 0000.0001) %MON obc_E_uVel_Int               =   1.1205712828732E+05
(PID.TID 0000.0001) %MON obc_W_uVel_max               =   1.1205712828732E-01
(PID.TID 0000.0001) %MON obc_W_uVel_min               =   1.1205712828732E-01
(PID.TID 0000.0001) %MON obc_W_uVel_mean              =   1.1205712828732E-01
(PID.TID 0000.0001) %MON obc_W_uVel_sd                =  -1.2143064331838E-17
(PID.TID 0000.0001) %MON obc_W_uVel_Int               =   1.1205712828732E+05
(PID.TID 0000.0001) // =======================================================
(PID.TID 0000.0001) // End OBCS MONITOR field statistics
(PID.TID 0000.0001) // =======================================================
 cg2d: Sum(rhs),rhsMax =  -7.05621117091937E-11  1.61873257684567E-02
 cg2d: Sum(rhs),rhsMax =  -7.03600511187119E-11  1.62123283943327E-02
 cg2d: Sum(rhs),rhsMax =  -7.02453650802681E-11  1.62300021801950E-02
 cg2d: Sum(rhs),rhsMax =  -7.01769753419512E-11  1.62403415762408E-02
 cg2d: Sum(rhs),rhsMax =  -7.00699498423774E-11  1.62433438825054E-02
 cg2d: Sum(rhs),rhsMax =  -7.00698388200749E-11  1.62390092477834E-02
 cg2d: Sum(rhs),rhsMax =  -7.02454761025706E-11  1.62273406800501E-02
 cg2d: Sum(rhs),rhsMax =  -7.04719615995941E-11  1.62083440738755E-02
 cg2d: Sum(rhs),rhsMax =  -7.06077418755058E-11  1.61820282524311E-02
 cg2d: Sum(rhs),rhsMax =  -7.08222369638634E-11  1.61484050203307E-02
 cg2d: Sum(rhs),rhsMax =  -7.10779213264345E-11  1.61074892245068E-02
 cg2d: Sum(rhs),rhsMax =  -7.13782366545956E-11  1.60592988201730E-02
 cg2d: Sum(rhs),rhsMax =  -7.16821046964355E-11  1.60038549315486E-02
 cg2d: Sum(rhs),rhsMax =  -7.20171700052674E-11  1.59411819115164E-02
 cg2d: Sum(rhs),rhsMax =  -7.23885396070045E-11  1.58713073957010E-02
 cg2d: Sum(rhs),rhsMax =  -7.27559124058530E-11  1.57942623464825E-02
 cg2d: Sum(rhs),rhsMax =  -7.32219840315906E-11  1.57100810835228E-02
 cg2d: Sum(rhs),rhsMax =  -7.36990468652721E-11  1.56188012989393E-02
 cg2d: Sum(rhs),rhsMax =  -7.42388372998448E-11  1.55204640567328E-02
 cg2d: Sum(rhs),rhsMax =  -7.48193729194213E-11  1.54151137772570E-02
 cg2d: Sum(rhs),rhsMax =  -7.54593054708153E-11  1.53027982002541E-02
 cg2d: Sum(rhs),rhsMax =  -7.61312124453184E-11  1.51835683450347E-02
 cg2d: Sum(rhs),rhsMax =  -7.68762831171443E-11  1.50574784744653E-02
 cg2d: Sum(rhs),rhsMax =  -7.76455566509071E-11  1.49245860448471E-02
 cg2d: Sum(rhs),rhsMax =  -7.84982079338192E-11  1.47849516475127E-02
 cg2d: Sum(rhs),rhsMax =  -7.93911603125252E-11  1.46386389481164E-02
 cg2d: Sum(rhs),rhsMax =  -8.02943267430578E-11  1.44857146240428E-02
 cg2d: Sum(rhs),rhsMax =  -8.12362399571498E-11  1.43262483051917E-02
 cg2d: Sum(rhs),rhsMax =  -8.22526491361941E-11  1.41603125358570E-02
 cg2d: Sum(rhs),rhsMax =  -8.33293434254756E-11  1.39879827340386E-02
 cg2d: Sum(rhs),rhsMax =  -8.44541103717233E-11  1.38093371492932E-02
 cg2d: Sum(rhs),rhsMax =  -8.56918980218779E-11  1.36244568207770E-02
 cg2d: Sum(rhs),rhsMax =  -8.69917471391091E-11  1.34334255394124E-02
 cg2d: Sum(rhs),rhsMax =  -8.83348949543006E-11  1.32363298080182E-02
 cg2d: Sum(rhs),rhsMax =  -8.98271457216993E-11  1.30332587984720E-02
 cg2d: Sum(rhs),rhsMax =  -9.13589204287746E-11  1.28243043137565E-02
 cg2d: Sum(rhs),rhsMax =  -9.30044929958740E-11  1.26095607518548E-02
 cg2d: Sum(rhs),rhsMax =  -9.47484313229552E-11  1.23891250843673E-02
 cg2d: Sum(rhs),rhsMax =  -9.66337010410712E-11  1.21630968087583E-02
 cg2d: Sum(rhs),rhsMax =  -9.86114523371384E-11  1.19315778957722E-02
 cg2d: Sum(rhs),rhsMax =  -1.00689123705422E-10  1.16946727460692E-02
 cg2d: Sum(rhs),rhsMax =  -1.02895136855352E-10  1.14524881535356E-02
 cg2d: Sum(rhs),rhsMax =  -1.05304653885696E-10  1.12051332708796E-02
 cg2d: Sum(rhs),rhsMax =  -1.07865161247389E-10  1.09527195736105E-02
 cg2d: Sum(rhs),rhsMax =  -1.10576325873524E-10  1.06953608214328E-02
 cg2d: Sum(rhs),rhsMax =  -1.13491660513887E-10  1.04331730139681E-02
 cg2d: Sum(rhs),rhsMax =  -1.16536336136619E-10  1.01662743508713E-02
 cg2d: Sum(rhs),rhsMax =  -1.19765197759136E-10  9.89478518704664E-03
 cg2d: Sum(rhs),rhsMax =  -1.23250742944947E-10  9.61882798329384E-03
 cg2d: Sum(rhs),rhsMax =  -1.26994192939378E-10  9.33852725317258E-03
 cg2d: Sum(rhs),rhsMax =  -1.31051725027476E-10  9.05400950680352E-03
 cg2d: Sum(rhs),rhsMax =  -1.34530053763626E-10  8.82319155942381E-03
 cg2d: Sum(rhs),rhsMax =  -1.37041822334538E-10  8.66544322412809E-03
 cg2d: Sum(rhs),rhsMax =  -1.39691036515899E-10  8.50571983137672E-03
 cg2d: Sum(rhs),rhsMax =  -1.42396539004608E-10  8.34409564580654E-03
 cg2d: Sum(rhs),rhsMax =  -1.45312761823391E-10  8.18064636856906E-03
 cg2d: Sum(rhs),rhsMax =  -1.48371648300838E-10  8.01544806518465E-03
 cg2d: Sum(rhs),rhsMax =  -1.51628376521273E-10  7.84857705866636E-03
 cg2d: Sum(rhs),rhsMax =  -1.55075841057339E-10  7.68011018467152E-03
 cg2d: Sum(rhs),rhsMax =  -1.58646540349139E-10  7.51012499699058E-03
 cg2d: Sum(rhs),rhsMax =  -1.62444391271777E-10  7.33869980858175E-03
 cg2d: Sum(rhs),rhsMax =  -1.66473612672746E-10  7.16591362787037E-03
 cg2d: Sum(rhs),rhsMax =  -1.70699232526772E-10  6.99184607237034E-03
 cg2d: Sum(rhs),rhsMax =  -1.75225278731261E-10  6.81657728500296E-03
 cg2d: Sum(rhs),rhsMax =  -1.79952719392418E-10  6.64018787561091E-03
 cg2d: Sum(rhs),rhsMax =  -1.84964488170181E-10  6.46275887931047E-03
 cg2d: Sum(rhs),rhsMax =  -1.90332749561151E-10  6.28437171958790E-03
 cg2d: Sum(rhs),rhsMax =  -1.96042959643705E-10  6.10510817332539E-03
 cg2d: Sum(rhs),rhsMax =  -2.02144301297835E-10  5.92505034042259E-03
 cg2d: Sum(rhs),rhsMax =  -2.08557671133036E-10  5.74428061837331E-03
 cg2d: Sum(rhs),rhsMax =  -2.15441997575283E-10  5.56288167735871E-03
 cg2d: Sum(rhs),rhsMax =  -2.22747098543863E-10  5.38093643208803E-03
 cg2d: Sum(rhs),rhsMax =  -2.30616858942767E-10  5.19852800545330E-03
 cg2d: Sum(rhs),rhsMax =  -2.39051112238542E-10  5.01573968271419E-03
 cg2d: Sum(rhs),rhsMax =  -2.48110199052576E-10  4.83265486084114E-03
 cg2d: Sum(rhs),rhsMax =  -2.57916549228909E-10  4.64935699993229E-03
 cg2d: Sum(rhs),rhsMax =  -2.68537886372044E-10  4.46592958029141E-03
 cg2d: Sum(rhs),rhsMax =  -2.80095835414329E-10  4.28245606342186E-03
 cg2d: Sum(rhs),rhsMax =  -2.92682413027823E-10  4.09901985300113E-03
 cg2d: Sum(rhs),rhsMax =  -3.06417934428649E-10  3.91570425425824E-03
 cg2d: Sum(rhs),rhsMax =  -3.21531717917267E-10  3.73259243383162E-03
 cg2d: Sum(rhs),rhsMax =  -3.38127664756271E-10  3.54976738323177E-03
 cg2d: Sum(rhs),rhsMax =  -3.56508655929844E-10  3.36731188672395E-03
 cg2d: Sum(rhs),rhsMax =  -3.76900843868100E-10  3.18530850479784E-03
 cg2d: Sum(rhs),rhsMax =  -3.99737021261615E-10  3.00383977359232E-03
 cg2d: Sum(rhs),rhsMax =  -4.25445123575230E-10  2.82298776306045E-03
 cg2d: Sum(rhs),rhsMax =  -4.13073353300319E-10  2.90792829289610E-03
 cg2d: Sum(rhs),rhsMax =  -3.73399755559944E-10  3.21685517571576E-03
 cg2d: Sum(rhs),rhsMax =  -3.40302563905936E-10  3.53033898166938E-03
 cg2d: Sum(rhs),rhsMax =  -3.12363357402035E-10  3.84607458452511E-03
 cg2d: Sum(rhs),rhsMax =  -2.88551960103689E-10  4.16460467253415E-03
 cg2d: Sum(rhs),rhsMax =  -2.67810884579944E-10  4.48881443442756E-03
 cg2d: Sum(rhs),rhsMax =  -2.49496201476518E-10  4.81938857102352E-03
 cg2d: Sum(rhs),rhsMax =  -2.33629560142390E-10  5.14786409724482E-03
 cg2d: Sum(rhs),rhsMax =  -2.19722462446725E-10  5.47401460892077E-03
 cg2d: Sum(rhs),rhsMax =  -2.07562744769518E-10  5.79769332217970E-03
 cg2d: Sum(rhs),rhsMax =  -1.96761384962940E-10  6.11875464663302E-03
 cg2d: Sum(rhs),rhsMax =  -1.87099669091140E-10  6.43705425648279E-03
 cg2d: Sum(rhs),rhsMax =  -1.78436598829990E-10  6.75244916212378E-03
 cg2d: Sum(rhs),rhsMax =  -1.70619518513604E-10  7.06479778113181E-03
 cg2d: Sum(rhs),rhsMax =  -1.63562718924481E-10  7.37396000845230E-03
 cg2d: Sum(rhs),rhsMax =  -1.57122537203236E-10  7.67979728564095E-03
 cg2d: Sum(rhs),rhsMax =  -1.51238244150420E-10  7.98217266917970E-03
 cg2d: Sum(rhs),rhsMax =  -1.45878309432135E-10  8.28095089797475E-03
 cg2d: Sum(rhs),rhsMax =  -1.40892075783938E-10  8.57599846012025E-03
 cg2d: Sum(rhs),rhsMax =  -1.36337052758506E-10  8.86718365890019E-03
 cg2d: Sum(rhs),rhsMax =  -1.32112765172110E-10  9.15437667788198E-03
 cg2d: Sum(rhs),rhsMax =  -1.28225097206780E-10  9.43744964466082E-03
 cg2d: Sum(rhs),rhsMax =  -1.24589116801133E-10  9.71627669224924E-03
 cg2d: Sum(rhs),rhsMax =  -1.21214815962389E-10  9.99073402159372E-03
 cg2d: Sum(rhs),rhsMax =  -1.18095200285495E-10  1.02606999615393E-02
 cg2d: Sum(rhs),rhsMax =  -1.15176423953756E-10  1.05260550257257E-02
 cg2d: Sum(rhs),rhsMax =  -1.12521214568062E-10  1.07866819666255E-02
 cg2d: Sum(rhs),rhsMax =  -1.10056630475697E-10  1.10424658272954E-02
 cg2d: Sum(rhs),rhsMax =  -1.07700071083627E-10  1.12932939913017E-02
 cg2d: Sum(rhs),rhsMax =  -1.05535247207911E-10  1.15390562309893E-02
 cg2d: Sum(rhs),rhsMax =  -1.03499209203051E-10  1.17796447540285E-02
 cg2d: Sum(rhs),rhsMax =  -1.01575747812888E-10  1.20149542480365E-02
 cg2d: Sum(rhs),rhsMax =  -9.97206761610414E-11  1.22448819233158E-02
 cg2d: Sum(rhs),rhsMax =  -9.80254766247413E-11  1.24693275538658E-02
 cg2d: Sum(rhs),rhsMax =  -9.64320845397992E-11  1.26881935166262E-02
 cg2d: Sum(rhs),rhsMax =  -9.49108569514578E-11  1.29013848289845E-02
 cg2d: Sum(rhs),rhsMax =  -9.35175270555533E-11  1.31088091846664E-02
 cg2d: Sum(rhs),rhsMax =  -9.21810405785095E-11  1.33103769881807E-02
 cg2d: Sum(rhs),rhsMax =  -9.09081698807768E-11  1.35060013880003E-02
 cg2d: Sum(rhs),rhsMax =  -8.97122376386505E-11  1.36955983086514E-02
 cg2d: Sum(rhs),rhsMax =  -8.86065665284264E-11  1.38790864818697E-02
 cg2d: Sum(rhs),rhsMax =  -8.75290950830276E-11  1.40563874769680E-02
 cg2d: Sum(rhs),rhsMax =  -8.65405525019014E-11  1.42274257308932E-02
 cg2d: Sum(rhs),rhsMax =  -8.55973070201799E-11  1.43921285771493E-02
 cg2d: Sum(rhs),rhsMax =  -8.47478753840392E-11  1.45504262739736E-02
 cg2d: Sum(rhs),rhsMax =  -8.39899261251276E-11  1.47022520321047E-02
 cg2d: Sum(rhs),rhsMax =  -8.32744984080591E-11  1.48475420425968E-02
 cg2d: Sum(rhs),rhsMax =  -8.25803869730635E-11  1.49862355068809E-02
 cg2d: Sum(rhs),rhsMax =  -8.19658785289334E-11  1.51182746596770E-02
 cg2d: Sum(rhs),rhsMax =  -8.13922262921096E-11  1.52436047925378E-02
 cg2d: Sum(rhs),rhsMax =  -8.08357825121675E-11  1.53621742777410E-02
 cg2d: Sum(rhs),rhsMax =  -8.03188626719020E-11  1.54739345921931E-02
 cg2d: Sum(rhs),rhsMax =  -7.98651145217377E-11  1.55788403409126E-02
 cg2d: Sum(rhs),rhsMax =  -7.94321275421339E-11  1.56768492797323E-02
 cg2d: Sum(rhs),rhsMax =  -7.90630894087485E-11  1.57679223369401E-02
 cg2d: Sum(rhs),rhsMax =  -7.86994913681838E-11  1.58520236335962E-02
 cg2d: Sum(rhs),rhsMax =  -7.83675346838208E-11  1.59291205022275E-02
 cg2d: Sum(rhs),rhsMax =  -7.80776554520912E-11  1.59991835035154E-02
 cg2d: Sum(rhs),rhsMax =  -7.78204167772856E-11  1.60621864305171E-02
 cg2d: Sum(rhs),rhsMax =  -7.76203545882481E-11  1.61181063264463E-02
 cg2d: Sum(rhs),rhsMax =  -7.74691422122942E-11  1.61669235002220E-02
 cg2d: Sum(rhs),rhsMax =  -7.73108244089826E-11  1.62086215334501E-02
 cg2d: Sum(rhs),rhsMax =  -7.72029107309891E-11  1.62431872809238E-02
 cg2d: Sum(rhs),rhsMax =  -7.72257813252963E-11  1.62706108672387E-02
 cg2d: Sum(rhs),rhsMax =  -7.71996910842176E-11  1.62908856861720E-02
 cg2d: Sum(rhs),rhsMax =  -7.72575337038006E-11  1.63040084037778E-02
 cg2d: Sum(rhs),rhsMax =  -7.71760433337931E-11  1.63099789389675E-02
 cg2d: Sum(rhs),rhsMax =  -7.71427366430544E-11  1.63088004523650E-02
 cg2d: Sum(rhs),rhsMax =  -7.71400721077953E-11  1.63004793456432E-02
 cg2d: Sum(rhs),rhsMax =  -7.70967734098349E-11  1.62850252556136E-02
 cg2d: Sum(rhs),rhsMax =  -7.71850361402926E-11  1.62624510497898E-02
 cg2d: Sum(rhs),rhsMax =  -7.72457653397396E-11  1.62327728219322E-02
 cg2d: Sum(rhs),rhsMax =  -7.73656694263991E-11  1.61960098857888E-02
 cg2d: Sum(rhs),rhsMax =  -7.74911246281818E-11  1.61521847665665E-02
 cg2d: Sum(rhs),rhsMax =  -7.76098074695142E-11  1.61013231894850E-02
 cg2d: Sum(rhs),rhsMax =  -7.78758169062144E-11  1.60434540600389E-02
 cg2d: Sum(rhs),rhsMax =  -7.81391618076555E-11  1.59786094428311E-02
 cg2d: Sum(rhs),rhsMax =  -7.84353693106254E-11  1.59068245383803E-02
 cg2d: Sum(rhs),rhsMax =  -7.87845344518701E-11  1.58281376575018E-02
 cg2d: Sum(rhs),rhsMax =  -7.91383625298181E-11  1.57425901928302E-02
 cg2d: Sum(rhs),rhsMax =  -7.95727927993539E-11  1.56502265876343E-02
 cg2d: Sum(rhs),rhsMax =  -7.99995625300198E-11  1.55510943025420E-02
 cg2d: Sum(rhs),rhsMax =  -8.04668554010846E-11  1.54452437809724E-02
 cg2d: Sum(rhs),rhsMax =  -8.10007616536268E-11  1.53327284034212E-02
 cg2d: Sum(rhs),rhsMax =  -8.15328915493296E-11  1.52136044583843E-02
 cg2d: Sum(rhs),rhsMax =  -8.21014367602402E-11  1.50879311170045E-02
 cg2d: Sum(rhs),rhsMax =  -8.27498070066213E-11  1.49557704004902E-02
 cg2d: Sum(rhs),rhsMax =  -8.34090574386437E-11  1.48171871433787E-02
 cg2d: Sum(rhs),rhsMax =  -8.40978398031211E-11  1.46722489558204E-02
 cg2d: Sum(rhs),rhsMax =  -8.49278425363309E-11  1.45210261868434E-02
 cg2d: Sum(rhs),rhsMax =  -8.58051407703897E-11  1.43635918807117E-02
 cg2d: Sum(rhs),rhsMax =  -8.67534932780245E-11  1.42000217459655E-02
 cg2d: Sum(rhs),rhsMax =  -8.77163897072819E-11  1.40303941290486E-02
 cg2d: Sum(rhs),rhsMax =  -8.87691031792315E-11  1.38547899810501E-02
 cg2d: Sum(rhs),rhsMax =  -8.98691121520301E-11  1.36732928194745E-02
 cg2d: Sum(rhs),rhsMax =  -9.10450603797130E-11  1.34859886912642E-02
 cg2d: Sum(rhs),rhsMax =  -9.22832921190775E-11  1.32929661260370E-02
 cg2d: Sum(rhs),rhsMax =  -9.36366539860956E-11  1.30943160901322E-02
 cg2d: Sum(rhs),rhsMax =  -9.50226564100376E-11  1.28901319435178E-02
 cg2d: Sum(rhs),rhsMax =  -9.64917035162216E-11  1.26805093967781E-02
 cg2d: Sum(rhs),rhsMax =  -9.80631131852761E-11  1.24655464660922E-02
 cg2d: Sum(rhs),rhsMax =  -9.97498750265891E-11  1.22453434428115E-02
 cg2d: Sum(rhs),rhsMax =  -1.01528008222829E-10  1.20200028299070E-02
 cg2d: Sum(rhs),rhsMax =  -1.03423158925864E-10  1.17896292796770E-02
 cg2d: Sum(rhs),rhsMax =  -1.05430664198991E-10  1.15543295402109E-02
 cg2d: Sum(rhs),rhsMax =  -1.07523545622712E-10  1.13142124060106E-02
 cg2d: Sum(rhs),rhsMax =  -1.09813824700211E-10  1.10693886693897E-02
 cg2d: Sum(rhs),rhsMax =  -1.12216347325500E-10  1.08199710696492E-02
 cg2d: Sum(rhs),rhsMax =  -1.14785736471390E-10  1.05660742406673E-02
 cg2d: Sum(rhs),rhsMax =  -1.17517107156573E-10  1.03078146602835E-02
 cg2d: Sum(rhs),rhsMax =  -1.20560228467070E-10  1.00453105962766E-02
 cg2d: Sum(rhs),rhsMax =  -1.23763888026929E-10  9.77868205014486E-03
 cg2d: Sum(rhs),rhsMax =  -1.27246879699783E-10  9.50805069980741E-03
 cg2d: Sum(rhs),rhsMax =  -1.30950805754537E-10  9.23353984164930E-03
 cg2d: Sum(rhs),rhsMax =  -1.34969369014470E-10  8.95527433230547E-03
 cg2d: Sum(rhs),rhsMax =  -1.39279365818368E-10  8.67338053032438E-03
 cg2d: Sum(rhs),rhsMax =  -1.43930978246942E-10  8.38798623726973E-03
 cg2d: Sum(rhs),rhsMax =  -1.49008805294670E-10  8.09922063809868E-03
 cg2d: Sum(rhs),rhsMax =  -1.54490531478757E-10  7.80721424102573E-03
 cg2d: Sum(rhs),rhsMax =  -1.60481627986542E-10  7.51209881727825E-03
 cg2d: Sum(rhs),rhsMax =  -1.67028058051244E-10  7.21400734122058E-03
 cg2d: Sum(rhs),rhsMax =  -1.74253611540109E-10  6.91307393129433E-03
 cg2d: Sum(rhs),rhsMax =  -1.82116099978202E-10  6.60943379077131E-03
 cg2d: Sum(rhs),rhsMax =  -1.90868765237440E-10  6.30322314873583E-03
 cg2d: Sum(rhs),rhsMax =  -2.00606309341822E-10  5.99457919494480E-03
 cg2d: Sum(rhs),rhsMax =  -2.11495598811950E-10  5.68364002018799E-03
 cg2d: Sum(rhs),rhsMax =  -2.23689844425223E-10  5.37054457007650E-03
 cg2d: Sum(rhs),rhsMax =  -2.37584729667617E-10  5.05543259032968E-03
 cg2d: Sum(rhs),rhsMax =  -2.53423726448432E-10  4.73844456626860E-03
 cg2d: Sum(rhs),rhsMax =  -2.71701883214348E-10  4.41972165981325E-03
 cg2d: Sum(rhs),rhsMax =  -2.92884716479591E-10  4.09940564651046E-03
 cg2d: Sum(rhs),rhsMax =  -3.17792236970149E-10  3.77763885360057E-03
 cg2d: Sum(rhs),rhsMax =  -3.47483930518422E-10  3.45456409902140E-03
 cg2d: Sum(rhs),rhsMax =  -3.79896780700051E-10  3.15919568356220E-03
 cg2d: Sum(rhs),rhsMax =  -3.58469476324785E-10  3.34733541960545E-03
 cg2d: Sum(rhs),rhsMax =  -3.39326455822686E-10  3.53575719301452E-03
 cg2d: Sum(rhs),rhsMax =  -3.22085746962131E-10  3.72437811612351E-03
 cg2d: Sum(rhs),rhsMax =  -3.06476455325111E-10  3.91311528756603E-03
 cg2d: Sum(rhs),rhsMax =  -2.92336627127909E-10  4.10188594604994E-03
 cg2d: Sum(rhs),rhsMax =  -2.79447062712102E-10  4.29060747916507E-03
 cg2d: Sum(rhs),rhsMax =  -2.67662491563320E-10  4.47919737164435E-03
 cg2d: Sum(rhs),rhsMax =  -2.56821557076403E-10  4.66757322556567E-03
 cg2d: Sum(rhs),rhsMax =  -2.46809350734623E-10  4.85565290633681E-03
 cg2d: Sum(rhs),rhsMax =  -2.37572572725497E-10  5.04335418819897E-03
 cg2d: Sum(rhs),rhsMax =  -2.29027047327079E-10  5.23059481316676E-03
 cg2d: Sum(rhs),rhsMax =  -2.21059004434920E-10  5.41729272899265E-03
 cg2d: Sum(rhs),rhsMax =  -2.13691175865449E-10  5.60336626925942E-03
 cg2d: Sum(rhs),rhsMax =  -2.06819394943381E-10  5.78873420289176E-03
 cg2d: Sum(rhs),rhsMax =  -2.00362504365614E-10  5.97331572268336E-03
 cg2d: Sum(rhs),rhsMax =  -1.94298410693960E-10  6.15703047769253E-03
 cg2d: Sum(rhs),rhsMax =  -1.88597748529418E-10  6.33979862735169E-03
 cg2d: Sum(rhs),rhsMax =  -1.83246695595329E-10  6.52154083623122E-03
 cg2d: Sum(rhs),rhsMax =  -1.78184245136492E-10  6.70217820841646E-03
 cg2d: Sum(rhs),rhsMax =  -1.73450365181793E-10  6.88163224162737E-03
 cg2d: Sum(rhs),rhsMax =  -1.68961178381721E-10  7.05982486718895E-03
 cg2d: Sum(rhs),rhsMax =  -1.64777080868816E-10  7.23667854614262E-03
 cg2d: Sum(rhs),rhsMax =  -1.60783941716147E-10  7.41211632106023E-03
 cg2d: Sum(rhs),rhsMax =  -1.56977875143127E-10  7.58606196634751E-03
 cg2d: Sum(rhs),rhsMax =  -1.53410728565007E-10  7.75844003444060E-03
 cg2d: Sum(rhs),rhsMax =  -1.50058077075244E-10  7.92917582274736E-03
 cg2d: Sum(rhs),rhsMax =  -1.46792134003704E-10  8.09819529744815E-03
 cg2d: Sum(rhs),rhsMax =  -1.43795531037938E-10  8.26542508198859E-03
 cg2d: Sum(rhs),rhsMax =  -1.40912059798382E-10  8.43079260226729E-03
 cg2d: Sum(rhs),rhsMax =  -1.38144273797991E-10  8.59422629311517E-03
 cg2d: Sum(rhs),rhsMax =  -1.35518152255543E-10  8.75565509515207E-03
 cg2d: Sum(rhs),rhsMax =  -1.33020705561648E-10  8.91500905472713E-03
 cg2d: Sum(rhs),rhsMax =  -1.30672694886869E-10  9.07221954302046E-03
 cg2d: Sum(rhs),rhsMax =  -1.28434707313829E-10  9.22721903508938E-03
 cg2d: Sum(rhs),rhsMax =  -1.26288424162624E-10  9.37994088411021E-03
 cg2d: Sum(rhs),rhsMax =  -1.24230736808784E-10  9.53031712945245E-03
 cg2d: Sum(rhs),rhsMax =  -1.22296173188374E-10  9.67828045833284E-03
 cg2d: Sum(rhs),rhsMax =  -1.20377818824124E-10  9.82376601444016E-03
 cg2d: Sum(rhs),rhsMax =  -1.18594689624274E-10  9.96671105327657E-03
 cg2d: Sum(rhs),rhsMax =  -1.16846532449699E-10  1.01070541635963E-02
 cg2d: Sum(rhs),rhsMax =  -1.15174092485404E-10  1.02447349003275E-02
 cg2d: Sum(rhs),rhsMax =  -1.13535181256452E-10  1.03796938267476E-02
 cg2d: Sum(rhs),rhsMax =  -1.11977871419811E-10  1.05118680827035E-02
 cg2d: Sum(rhs),rhsMax =  -1.10501607863966E-10  1.06411968066327E-02
 cg2d: Sum(rhs),rhsMax =  -1.09110942503321E-10  1.07676231984096E-02
 cg2d: Sum(rhs),rhsMax =  -1.07768016732734E-10  1.08910935110831E-02
 cg2d: Sum(rhs),rhsMax =  -1.06481157224891E-10  1.10115555769329E-02
 cg2d: Sum(rhs),rhsMax =  -1.05264463812205E-10  1.11289580483605E-02
 cg2d: Sum(rhs),rhsMax =  -1.03920871907803E-10  1.12571268565601E-02
 cg2d: Sum(rhs),rhsMax =  -1.01949115816069E-10  1.14649355742279E-02
 cg2d: Sum(rhs),rhsMax =  -1.00086272603050E-10  1.16674133688686E-02
 cg2d: Sum(rhs),rhsMax =  -9.83638726026470E-11  1.18644736048843E-02
 cg2d: Sum(rhs),rhsMax =  -9.66962065973576E-11  1.20560320328137E-02
 cg2d: Sum(rhs),rhsMax =  -9.51472234334005E-11  1.22420068289161E-02
 cg2d: Sum(rhs),rhsMax =  -9.37385724597561E-11  1.24223186339897E-02
 cg2d: Sum(rhs),rhsMax =  -9.23152665421867E-11  1.25968905906089E-02
 cg2d: Sum(rhs),rhsMax =  -9.10270747667141E-11  1.27656483779653E-02
 cg2d: Sum(rhs),rhsMax =  -8.98232599411131E-11  1.29285202436380E-02
 cg2d: Sum(rhs),rhsMax =  -8.86589690551887E-11  1.30854370319182E-02
 cg2d: Sum(rhs),rhsMax =  -8.76398953408852E-11  1.32363322087960E-02
 cg2d: Sum(rhs),rhsMax =  -8.66381411057660E-11  1.33811418859535E-02
 cg2d: Sum(rhs),rhsMax =  -8.56280601979620E-11  1.35198048405361E-02
 cg2d: Sum(rhs),rhsMax =  -8.46859249392651E-11  1.36522625294545E-02
 cg2d: Sum(rhs),rhsMax =  -8.38111802181629E-11  1.37784591067084E-02
 cg2d: Sum(rhs),rhsMax =  -8.29887270015206E-11  1.38983414421098E-02
 cg2d: Sum(rhs),rhsMax =  -8.22421020174602E-11  1.40118591414167E-02
 cg2d: Sum(rhs),rhsMax =  -8.15213452298735E-11  1.41189645676798E-02
 cg2d: Sum(rhs),rhsMax =  -8.08437761179448E-11  1.42196128635401E-02
 cg2d: Sum(rhs),rhsMax =  -8.02581334724550E-11  1.43137619741098E-02
 cg2d: Sum(rhs),rhsMax =  -7.96923638191060E-11  1.44013726699445E-02
 cg2d: Sum(rhs),rhsMax =  -7.92017562645242E-11  1.44824085695238E-02
 cg2d: Sum(rhs),rhsMax =  -7.87173659588802E-11  1.45568361564042E-02
 cg2d: Sum(rhs),rhsMax =  -7.82941489418931E-11  1.46246247945255E-02
 cg2d: Sum(rhs),rhsMax =  -7.79208919610141E-11  1.46857467557599E-02
 cg2d: Sum(rhs),rhsMax =  -7.75731701097016E-11  1.47401772394114E-02
 cg2d: Sum(rhs),rhsMax =  -7.72274466598333E-11  1.47878943850640E-02
 cg2d: Sum(rhs),rhsMax =  -7.69334596029125E-11  1.48288792807751E-02
 cg2d: Sum(rhs),rhsMax =  -7.67174102023205E-11  1.48631159685254E-02
 cg2d: Sum(rhs),rhsMax =  -7.65330021579302E-11  1.48905914648177E-02
 cg2d: Sum(rhs),rhsMax =  -7.63760166222482E-11  1.49112957480114E-02
 cg2d: Sum(rhs),rhsMax =  -7.62092611239495E-11  1.49252217526104E-02
 cg2d: Sum(rhs),rhsMax =  -7.61681828720384E-11  1.49323653692273E-02
 cg2d: Sum(rhs),rhsMax =  -7.60915774833393E-11  1.49327254476929E-02
 cg2d: Sum(rhs),rhsMax =  -7.62286900268805E-11  1.49263038034358E-02
 cg2d: Sum(rhs),rhsMax =  -7.63735741315941E-11  1.49131052187769E-02
 cg2d: Sum(rhs),rhsMax =  -7.66132712826106E-11  1.48931374401887E-02
 cg2d: Sum(rhs),rhsMax =  -7.68289876162953E-11  1.48664111760954E-02
 cg2d: Sum(rhs),rhsMax =  -7.70343788758510E-11  1.48329400967653E-02
 cg2d: Sum(rhs),rhsMax =  -7.72948371974280E-11  1.47927408300658E-02
 cg2d: Sum(rhs),rhsMax =  -7.76568809257583E-11  1.47458329563349E-02
 cg2d: Sum(rhs),rhsMax =  -7.79943887252443E-11  1.46922390042322E-02
 cg2d: Sum(rhs),rhsMax =  -7.83624276579076E-11  1.46319844465354E-02
 cg2d: Sum(rhs),rhsMax =  -7.87611087460505E-11  1.45650976948103E-02
 cg2d: Sum(rhs),rhsMax =  -7.92401699811762E-11  1.44916100927088E-02
 cg2d: Sum(rhs),rhsMax =  -7.97369947846960E-11  1.44115559074891E-02
 cg2d: Sum(rhs),rhsMax =  -8.02995447912735E-11  1.43249723195425E-02
 cg2d: Sum(rhs),rhsMax =  -8.09199374174341E-11  1.42318994001793E-02
 cg2d: Sum(rhs),rhsMax =  -8.15105760665347E-11  1.41323801018752E-02
 cg2d: Sum(rhs),rhsMax =  -8.22566459390828E-11  1.40264602515819E-02
 cg2d: Sum(rhs),rhsMax =  -8.29942781166437E-11  1.39141885349221E-02
 cg2d: Sum(rhs),rhsMax =  -8.38145108872368E-11  1.37956164743703E-02
 cg2d: Sum(rhs),rhsMax =  -8.46926972997153E-11  1.36707984046978E-02
 cg2d: Sum(rhs),rhsMax =  -8.56120729864074E-11  1.35397914478282E-02
 cg2d: Sum(rhs),rhsMax =  -8.65998384114164E-11  1.34026554877319E-02
 cg2d: Sum(rhs),rhsMax =  -8.75858274795860E-11  1.32594531452657E-02
 cg2d: Sum(rhs),rhsMax =  -8.86427597990291E-11  1.31102497478636E-02
 cg2d: Sum(rhs),rhsMax =  -8.97183438652860E-11  1.29551132967340E-02
 cg2d: Sum(rhs),rhsMax =  -9.09680109018041E-11  1.27941144468180E-02
 cg2d: Sum(rhs),rhsMax =  -9.22236731426551E-11  1.26273264828947E-02
 cg2d: Sum(rhs),rhsMax =  -9.35826971470988E-11  1.24548252807575E-02
 cg2d: Sum(rhs),rhsMax =  -9.49996747934279E-11  1.22766892704831E-02
 cg2d: Sum(rhs),rhsMax =  -9.65058033486343E-11  1.20929994016182E-02
 cg2d: Sum(rhs),rhsMax =  -9.81237313624206E-11  1.19038391088510E-02
 cg2d: Sum(rhs),rhsMax =  -9.98745530722545E-11  1.17092942768433E-02
 cg2d: Sum(rhs),rhsMax =  -1.01706532085188E-10  1.15094532037412E-02
 cg2d: Sum(rhs),rhsMax =  -1.03626107694765E-10  1.13044065636738E-02
 cg2d: Sum(rhs),rhsMax =  -1.05711883691129E-10  1.10942473807178E-02
 cg2d: Sum(rhs),rhsMax =  -1.07913677993565E-10  1.08790709850482E-02
 cg2d: Sum(rhs),rhsMax =  -1.10216169524335E-10  1.06589749594223E-02
 cg2d: Sum(rhs),rhsMax =  -1.12487019698904E-10  1.04558511226347E-02
 cg2d: Sum(rhs),rhsMax =  -1.14090403791067E-10  1.03198577414975E-02
 cg2d: Sum(rhs),rhsMax =  -1.15751852547419E-10  1.01812229592652E-02
 cg2d: Sum(rhs),rhsMax =  -1.17533649479640E-10  1.00400112415076E-02
 cg2d: Sum(rhs),rhsMax =  -1.19386833752344E-10  9.89628817344821E-03
 cg2d: Sum(rhs),rhsMax =  -1.21299192912261E-10  9.75012043305909E-03
 cg2d: Sum(rhs),rhsMax =  -1.23248633521200E-10  9.60157552554850E-03
 cg2d: Sum(rhs),rhsMax =  -1.25234156378440E-10  9.45072188278784E-03
 cg2d: Sum(rhs),rhsMax =  -1.27360122448295E-10  9.29762914745625E-03
 cg2d: Sum(rhs),rhsMax =  -1.29572352847163E-10  9.14236809382170E-03
 cg2d: Sum(rhs),rhsMax =  -1.31903821198875E-10  8.98501046571328E-03
 cg2d: Sum(rhs),rhsMax =  -1.34312894140010E-10  8.82562887738726E-03
 cg2d: Sum(rhs),rhsMax =  -1.36852085219630E-10  8.66429678050591E-03
 cg2d: Sum(rhs),rhsMax =  -1.39536715515476E-10  8.50108845309531E-03
 cg2d: Sum(rhs),rhsMax =  -1.42364564581499E-10  8.33607898096357E-03
 cg2d: Sum(rhs),rhsMax =  -1.45342071711241E-10  8.16934422629579E-03
 cg2d: Sum(rhs),rhsMax =  -1.48444589953556E-10  8.00096078897983E-03
 cg2d: Sum(rhs),rhsMax =  -1.51737844511501E-10  7.83100596678078E-03
 cg2d: Sum(rhs),rhsMax =  -1.55242374511033E-10  7.65955777792325E-03
 cg2d: Sum(rhs),rhsMax =  -1.58891233503766E-10  7.48669503493434E-03
 cg2d: Sum(rhs),rhsMax =  -1.62792224145392E-10  7.31249694727285E-03
 cg2d: Sum(rhs),rhsMax =  -1.66838098891731E-10  7.13704297409578E-03
 cg2d: Sum(rhs),rhsMax =  -1.71178182739595E-10  6.96041299531095E-03
 cg2d: Sum(rhs),rhsMax =  -1.75725101136948E-10  6.78268755170412E-03
 cg2d: Sum(rhs),rhsMax =  -1.80568449081875E-10  6.60394793133783E-03
 cg2d: Sum(rhs),rhsMax =  -1.85718995737716E-10  6.42427603789096E-03
 cg2d: Sum(rhs),rhsMax =  -1.91186455555936E-10  6.24375414275039E-03
 cg2d: Sum(rhs),rhsMax =  -1.97011185143481E-10  6.06246492640639E-03
 cg2d: Sum(rhs),rhsMax =  -2.03266292686521E-10  5.88049111231851E-03
 cg2d: Sum(rhs),rhsMax =  -2.09865180789137E-10  5.69791524547405E-03
 cg2d: Sum(rhs),rhsMax =  -2.16928364160651E-10  5.51481987223539E-03
 cg2d: Sum(rhs),rhsMax =  -2.24437135543099E-10  5.33128791060519E-03
 cg2d: Sum(rhs),rhsMax =  -2.32493357898989E-10  5.14740271854371E-03
 cg2d: Sum(rhs),rhsMax =  -2.41160869052237E-10  4.96324792173516E-03
 cg2d: Sum(rhs),rhsMax =  -2.50475279406359E-10  4.77890717117744E-03
 cg2d: Sum(rhs),rhsMax =  -2.60598292944891E-10  4.59446395479976E-03
 cg2d: Sum(rhs),rhsMax =  -2.71532810125485E-10  4.41000155317212E-03
 cg2d: Sum(rhs),rhsMax =  -2.83405472700782E-10  4.22560320153833E-03
 cg2d: Sum(rhs),rhsMax =  -2.96369193075741E-10  4.04135222410734E-03
 cg2d: Sum(rhs),rhsMax =  -3.10554595928103E-10  3.85733207056907E-03
 cg2d: Sum(rhs),rhsMax =  -3.26163845931760E-10  3.67362616860177E-03
 cg2d: Sum(rhs),rhsMax =  -3.43361949983745E-10  3.49031768248617E-03
 cg2d: Sum(rhs),rhsMax =  -3.62385343954941E-10  3.30748933520912E-03
 cg2d: Sum(rhs),rhsMax =  -3.83597487108034E-10  3.12522337587675E-03
 cg2d: Sum(rhs),rhsMax =  -4.07349376452260E-10  2.94360165508967E-03
 cg2d: Sum(rhs),rhsMax =  -4.24878021654251E-10  2.82187456489248E-03
 cg2d: Sum(rhs),rhsMax =  -3.88069354428922E-10  3.09003488738974E-03
 cg2d: Sum(rhs),rhsMax =  -3.55078744185278E-10  3.37783503452092E-03
 cg2d: Sum(rhs),rhsMax =  -3.26741744771653E-10  3.67107737402449E-03
 cg2d: Sum(rhs),rhsMax =  -3.02433855736695E-10  3.96619870299899E-03
 cg2d: Sum(rhs),rhsMax =  -2.81132228607817E-10  4.26741880663389E-03
 cg2d: Sum(rhs),rhsMax =  -2.62505017722958E-10  4.57078667001026E-03
 cg2d: Sum(rhs),rhsMax =  -2.46300313477832E-10  4.87209793997210E-03
 cg2d: Sum(rhs),rhsMax =  -2.32076580175544E-10  5.17121762805660E-03
 cg2d: Sum(rhs),rhsMax =  -2.19547269253439E-10  5.46801182219401E-03
 cg2d: Sum(rhs),rhsMax =  -2.08460249062625E-10  5.76234775226475E-03
 cg2d: Sum(rhs),rhsMax =  -1.98535965445501E-10  6.05409385025705E-03
 cg2d: Sum(rhs),rhsMax =  -1.89576576659078E-10  6.34311981620844E-03
 cg2d: Sum(rhs),rhsMax =  -1.81463954973538E-10  6.62929668112473E-03
 cg2d: Sum(rhs),rhsMax =  -1.74092518179236E-10  6.91249686304489E-03
 cg2d: Sum(rhs),rhsMax =  -1.67404645701197E-10  7.19259422237706E-03
 cg2d: Sum(rhs),rhsMax =  -1.61278768118223E-10  7.46946411710502E-03
 cg2d: Sum(rhs),rhsMax =  -1.55660706546712E-10  7.74298345814580E-03
 cg2d: Sum(rhs),rhsMax =  -1.50519152697370E-10  8.01303076500147E-03
 cg2d: Sum(rhs),rhsMax =  -1.45716438915144E-10  8.27948622184281E-03
 cg2d: Sum(rhs),rhsMax =  -1.41281097931767E-10  8.54223173344966E-03
 cg2d: Sum(rhs),rhsMax =  -1.37159394952846E-10  8.80115098256828E-03
 cg2d: Sum(rhs),rhsMax =  -1.33373645461177E-10  9.05612948743325E-03
 cg2d: Sum(rhs),rhsMax =  -1.29850463714831E-10  9.30705465790875E-03
 cg2d: Sum(rhs),rhsMax =  -1.26540222744609E-10  9.55381584978305E-03
 cg2d: Sum(rhs),rhsMax =  -1.23558607789676E-10  9.79630441639328E-03
 cg2d: Sum(rhs),rhsMax =  -1.20718213203475E-10  1.00344137582004E-02
 cg2d: Sum(rhs),rhsMax =  -1.18078546940126E-10  1.02680393696295E-02
 cg2d: Sum(rhs),rhsMax =  -1.15622622587352E-10  1.04970788825041E-02
 cg2d: Sum(rhs),rhsMax =  -1.13329012840779E-10  1.07214321060283E-02
 cg2d: Sum(rhs),rhsMax =  -1.11132214541954E-10  1.09410010643357E-02
 cg2d: Sum(rhs),rhsMax =  -1.09105391388198E-10  1.11556900325219E-02
 cg2d: Sum(rhs),rhsMax =  -1.07196473919657E-10  1.13654055719634E-02
 cg2d: Sum(rhs),rhsMax =  -1.05397135463647E-10  1.15700565655763E-02
 cg2d: Sum(rhs),rhsMax =  -1.03683728269743E-10  1.17695542534964E-02
 cg2d: Sum(rhs),rhsMax =  -1.02064245943723E-10  1.19638122694867E-02
 cg2d: Sum(rhs),rhsMax =  -1.00571995176324E-10  1.21527466781998E-02
 cg2d: Sum(rhs),rhsMax =  -9.91350335155516E-11  1.23362760132369E-02
 cg2d: Sum(rhs),rhsMax =  -9.77959935255512E-11  1.25143213157765E-02
 cg2d: Sum(rhs),rhsMax =  -9.65293400767564E-11  1.26868061733919E-02
 cg2d: Sum(rhs),rhsMax =  -9.53283008087169E-11  1.28536567585733E-02
 cg2d: Sum(rhs),rhsMax =  -9.42317335272946E-11  1.30148018663984E-02
 cg2d: Sum(rhs),rhsMax =  -9.31901222855913E-11  1.31701729507872E-02
 cg2d: Sum(rhs),rhsMax =  -9.21757115079913E-11  1.33197041588036E-02
 cg2d: Sum(rhs),rhsMax =  -9.12817599285631E-11  1.34633323625381E-02
 cg2d: Sum(rhs),rhsMax =  -9.04650798716489E-11  1.36009971904069E-02
 cg2d: Sum(rhs),rhsMax =  -8.96953622486762E-11  1.37326410534665E-02
 cg2d: Sum(rhs),rhsMax =  -8.89798235093053E-11  1.38582091646057E-02
 cg2d: Sum(rhs),rhsMax =  -8.83244588578691E-11  1.39776495582851E-02
 cg2d: Sum(rhs),rhsMax =  -8.76835271057530E-11  1.40909131081248E-02
 cg2d: Sum(rhs),rhsMax =  -8.71107630473489E-11  1.41979535422784E-02
 cg2d: Sum(rhs),rhsMax =  -8.65961746754351E-11  1.42987274566499E-02
 cg2d: Sum(rhs),rhsMax =  -8.60740367869539E-11  1.43931943262422E-02
 cg2d: Sum(rhs),rhsMax =  -8.56552606620653E-11  1.44813165150865E-02
 cg2d: Sum(rhs),rhsMax =  -8.52115045191226E-11  1.45630592852683E-02
 cg2d: Sum(rhs),rhsMax =  -8.48437986533668E-11  1.46383908055041E-02
 cg2d: Sum(rhs),rhsMax =  -8.44978531588936E-11  1.47072821534918E-02
 cg2d: Sum(rhs),rhsMax =  -8.41551273111918E-11  1.47697073242692E-02
 cg2d: Sum(rhs),rhsMax =  -8.39558422782716E-11  1.48256432466625E-02
 cg2d: Sum(rhs),rhsMax =  -8.37536706654873E-11  1.48750697942299E-02
 cg2d: Sum(rhs),rhsMax =  -8.35741476024054E-11  1.49179697919383E-02
 cg2d: Sum(rhs),rhsMax =  -8.34725621956522E-11  1.49543290201576E-02
 cg2d: Sum(rhs),rhsMax =  -8.33155766599702E-11  1.49841362202688E-02
 cg2d: Sum(rhs),rhsMax =  -8.32900415304039E-11  1.50073831062614E-02
 cg2d: Sum(rhs),rhsMax =  -8.32870439282374E-11  1.50240643522740E-02
 cg2d: Sum(rhs),rhsMax =  -8.33332292060618E-11  1.50341775862674E-02
 cg2d: Sum(rhs),rhsMax =  -8.33068058980757E-11  1.50377233877840E-02
 cg2d: Sum(rhs),rhsMax =  -8.31785751387315E-11  1.50347052872255E-02
 cg2d: Sum(rhs),rhsMax =  -8.31602564588252E-11  1.50251297653346E-02
 cg2d: Sum(rhs),rhsMax =  -8.32329760669381E-11  1.50090062519385E-02
 cg2d: Sum(rhs),rhsMax =  -8.32721669397074E-11  1.49863471164860E-02
 cg2d: Sum(rhs),rhsMax =  -8.33754176809975E-11  1.49571676587020E-02
 cg2d: Sum(rhs),rhsMax =  -8.34849966935280E-11  1.49214861011546E-02
 cg2d: Sum(rhs),rhsMax =  -8.36446467644691E-11  1.48793235768315E-02
 cg2d: Sum(rhs),rhsMax =  -8.38504821132346E-11  1.48307041154741E-02
 cg2d: Sum(rhs),rhsMax =  -8.41061664758058E-11  1.47756546294559E-02
 cg2d: Sum(rhs),rhsMax =  -8.44184722126329E-11  1.47142048981124E-02
 cg2d: Sum(rhs),rhsMax =  -8.47673042869701E-11  1.46463875498218E-02
 cg2d: Sum(rhs),rhsMax =  -8.51304582383250E-11  1.45722380416861E-02
 cg2d: Sum(rhs),rhsMax =  -8.55954196410380E-11  1.44917946372006E-02
 cg2d: Sum(rhs),rhsMax =  -8.60408411185176E-11  1.44050983826389E-02
 cg2d: Sum(rhs),rhsMax =  -8.65256755133714E-11  1.43121930708303E-02
 cg2d: Sum(rhs),rhsMax =  -8.70458150004083E-11  1.42131252257613E-02
 cg2d: Sum(rhs),rhsMax =  -8.76180239473001E-11  1.41079440840994E-02
 cg2d: Sum(rhs),rhsMax =  -8.82469652907503E-11  1.39967015695443E-02
 cg2d: Sum(rhs),rhsMax =  -8.88860096637245E-11  1.38794522627870E-02
 cg2d: Sum(rhs),rhsMax =  -8.95812313217448E-11  1.37562533697576E-02
 cg2d: Sum(rhs),rhsMax =  -9.03375152461194E-11  1.36271646896080E-02
 cg2d: Sum(rhs),rhsMax =  -9.11413167159481E-11  1.34922485826033E-02
 cg2d: Sum(rhs),rhsMax =  -9.20088449873901E-11  1.33515699375375E-02
 cg2d: Sum(rhs),rhsMax =  -9.29764043533510E-11  1.32051961380564E-02
 cg2d: Sum(rhs),rhsMax =  -9.39891497964140E-11  1.30531970223697E-02
 cg2d: Sum(rhs),rhsMax =  -9.50538536770296E-11  1.28956448446638E-02
 cg2d: Sum(rhs),rhsMax =  -9.62161461615096E-11  1.27326142457565E-02
 cg2d: Sum(rhs),rhsMax =  -9.74292868605175E-11  1.25641822131175E-02
 cg2d: Sum(rhs),rhsMax =  -9.87416814979269E-11  1.23904280406384E-02
(PID.TID 0000.0001)      cg2d_init_res =   7.65862758922101E-02
(PID.TID 0000.0001)      cg2d_iters(min,last) =      -1      38
(PID.TID 0000.0001)      cg2d_last_res =   5.76370803007166E-14
(PID.TID 0000.0001) // =======================================================
(PID.TID 0000.0001) // Begin MONITOR dynamic field statistics
(PID.TID 0000.0001) // =======================================================
(PID.TID 0000.0001) %MON time_tsnumber                =                  5760
(PID.TID 0000.0001) %MON time_secondsf                =   8.6400000000000E+04
(PID.TID 0000.0001) %MON dynstat_eta_max              =   2.1535892888089E-03
(PID.TID 0000.0001) %MON dynstat_eta_min              =  -2.0371278376627E-03
(PID.TID 0000.0001) %MON dynstat_eta_mean             =   2.6958156876675E-15
(PID.TID 0000.0001) %MON dynstat_eta_sd               =   1.4031986288231E-03
(PID.TID 0000.0001) %MON dynstat_eta_del2             =   2.6850813609006E-06
(PID.TID 0000.0001) %MON dynstat_uvel_max             =   2.1179668407018E-01
(PID.TID 0000.0001) %MON dynstat_uvel_min             =   5.5205796127842E-02
(PID.TID 0000.0001) %MON dynstat_uvel_mean            =   1.1348814762228E-01
(PID.TID 0000.0001) %MON dynstat_uvel_sd              =   6.5838657522968E-03
(PID.TID 0000.0001) %MON dynstat_uvel_del2            =   9.7803225779977E-05
(PID.TID 0000.0001) %MON dynstat_vvel_max             =   0.0000000000000E+00
(PID.TID 0000.0001) %MON dynstat_vvel_min             =   0.0000000000000E+00
(PID.TID 0000.0001) %MON dynstat_vvel_mean            =   0.0000000000000E+00
(PID.TID 0000.0001) %MON dynstat_vvel_sd              =   0.0000000000000E+00
(PID.TID 0000.0001) %MON dynstat_vvel_del2            =   0.0000000000000E+00
(PID.TID 0000.0001) %MON dynstat_wvel_max             =   2.8108638801896E-03
(PID.TID 0000.0001) %MON dynstat_wvel_min             =  -2.3632461736637E-03
(PID.TID 0000.0001) %MON dynstat_wvel_mean            =  -1.4208411221865E-21
(PID.TID 0000.0001) %MON dynstat_wvel_sd              =   2.3995699929813E-04
(PID.TID 0000.0001) %MON dynstat_wvel_del2            =   7.0482653857154E-06
(PID.TID 0000.0001) %MON dynstat_theta_max            =   1.5000000000010E+01
(PID.TID 0000.0001) %MON dynstat_theta_min            =   9.9999999999912E+00
(PID.TID 0000.0001) %MON dynstat_theta_mean           =   1.1003743404833E+01
(PID.TID 0000.0001) %MON dynstat_theta_sd             =   1.9378033284846E+00
(PID.TID 0000.0001) %MON dynstat_theta_del2           =   3.7321524160163E-05
(PID.TID 0000.0001) %MON dynstat_salt_max             =   3.5000000000000E+01
(PID.TID 0000.0001) %MON dynstat_salt_min             =   3.5000000000000E+01
(PID.TID 0000.0001) %MON dynstat_salt_mean            =   3.5000000000000E+01
(PID.TID 0000.0001) %MON dynstat_salt_sd              =   4.0500935938326E-13
(PID.TID 0000.0001) %MON dynstat_salt_del2            =   0.0000000000000E+00
(PID.TID 0000.0001) %MON dynstat_sst_max              =   1.5000000000010E+01
(PID.TID 0000.0001) %MON dynstat_sst_min              =   1.5000000000000E+01
(PID.TID 0000.0001) %MON dynstat_sst_mean             =   1.5000000000008E+01
(PID.TID 0000.0001) %MON dynstat_sst_sd               =   3.9987716195252E-12
(PID.TID 0000.0001) %MON dynstat_sst_del2             =   2.3979291826449E-14
(PID.TID 0000.0001) %MON dynstat_sss_max              =   3.5000000000000E+01
(PID.TID 0000.0001) %MON dynstat_sss_min              =   3.5000000000000E+01
(PID.TID 0000.0001) %MON dynstat_sss_mean             =   3.5000000000000E+01
(PID.TID 0000.0001) %MON dynstat_sss_sd               =   4.2632564145606E-14
(PID.TID 0000.0001) %MON dynstat_sss_del2             =   0.0000000000000E+00
(PID.TID 0000.0001) %MON forcing_qnet_max             =   0.0000000000000E+00
(PID.TID 0000.0001) %MON forcing_qnet_min             =   0.0000000000000E+00
(PID.TID 0000.0001) %MON forcing_qnet_mean            =   0.0000000000000E+00
(PID.TID 0000.0001) %MON forcing_qnet_sd              =   0.0000000000000E+00
(PID.TID 0000.0001) %MON forcing_qnet_del2            =   0.0000000000000E+00
(PID.TID 0000.0001) %MON forcing_qsw_max              =   0.0000000000000E+00
(PID.TID 0000.0001) %MON forcing_qsw_min              =   0.0000000000000E+00
(PID.TID 0000.0001) %MON forcing_qsw_mean             =   0.0000000000000E+00
(PID.TID 0000.0001) %MON forcing_qsw_sd               =   0.0000000000000E+00
(PID.TID 0000.0001) %MON forcing_qsw_del2             =   0.0000000000000E+00
(PID.TID 0000.0001) %MON forcing_empmr_max            =   0.0000000000000E+00
(PID.TID 0000.0001) %MON forcing_empmr_min            =   0.0000000000000E+00
(PID.TID 0000.0001) %MON forcing_empmr_mean           =   0.0000000000000E+00
(PID.TID 0000.0001) %MON forcing_empmr_sd             =   0.0000000000000E+00
(PID.TID 0000.0001) %MON forcing_empmr_del2           =   0.0000000000000E+00
(PID.TID 0000.0001) %MON forcing_fu_max               =   0.0000000000000E+00
(PID.TID 0000.0001) %MON forcing_fu_min               =   0.0000000000000E+00
(PID.TID 0000.0001) %MON forcing_fu_mean              =   0.0000000000000E+00
(PID.TID 0000.0001) %MON forcing_fu_sd                =   0.0000000000000E+00
(PID.TID 0000.0001) %MON forcing_fu_del2              =   0.0000000000000E+00
(PID.TID 0000.0001) %MON forcing_fv_max               =   0.0000000000000E+00
(PID.TID 0000.0001) %MON forcing_fv_min               =   0.0000000000000E+00
(PID.TID 0000.0001) %MON forcing_fv_mean              =   0.0000000000000E+00
(PID.TID 0000.0001) %MON forcing_fv_sd                =   0.0000000000000E+00
(PID.TID 0000.0001) %MON forcing_fv_del2              =   0.0000000000000E+00
(PID.TID 0000.0001) %MON advcfl_uvel_max              =   1.3104677723918E-02
(PID.TID 0000.0001) %MON advcfl_vvel_max              =   0.0000000000000E+00
(PID.TID 0000.0001) %MON advcfl_wvel_max              =   3.9518857921513E-02
(PID.TID 0000.0001) %MON advcfl_W_hf_max              =   3.9948799549826E-02
(PID.TID 0000.0001) %MON pe_b_mean                    =   4.8800240719481E-08
(PID.TID 0000.0001) %MON ke_max                       =   1.4268496726208E-02
(PID.TID 0000.0001) %MON ke_mean                      =   6.4615912502909E-03
(PID.TID 0000.0001) %MON ke_vol                       =   9.6656886657870E+10
(PID.TID 0000.0001) %MON vort_r_min                   =   0.0000000000000E+00
(PID.TID 0000.0001) %MON vort_r_max                   =   0.0000000000000E+00
(PID.TID 0000.0001) %MON vort_a_mean                  =   0.0000000000000E+00
(PID.TID 0000.0001) %MON vort_a_sd                    =   0.0000000000000E+00
(PID.TID 0000.0001) %MON vort_p_mean                  =   0.0000000000000E+00
(PID.TID 0000.0001) %MON vort_p_sd                    =   0.0000000000000E+00
(PID.TID 0000.0001) %MON surfExpan_theta_mean         =   1.3024235211700E-18
(PID.TID 0000.0001) %MON surfExpan_salt_mean          =  -1.2220586186753E-19
(PID.TID 0000.0001) // =======================================================
(PID.TID 0000.0001) // End MONITOR dynamic field statistics
(PID.TID 0000.0001) // =======================================================
(PID.TID 0000.0001) // =======================================================
(PID.TID 0000.0001) // Begin OBCS MONITOR field statistics
(PID.TID 0000.0001) // =======================================================
(PID.TID 0000.0001) %MON obc_E_uVel_max               =   1.1205712828732E-01
(PID.TID 0000.0001) %MON obc_E_uVel_min               =   1.1205712828732E-01
(PID.TID 0000.0001) %MON obc_E_uVel_mean              =   1.1205712828732E-01
(PID.TID 0000.0001) %MON obc_E_uVel_sd                =  -1.2143064331838E-17
(PID.TID 0000.0001) %MON obc_E_uVel_Int               =   1.1205712828732E+05
(PID.TID 0000.0001) %MON obc_W_uVel_max               =   1.1205712828732E-01
(PID.TID 0000.0001) %MON obc_W_uVel_min               =   1.1205712828732E-01
(PID.TID 0000.0001) %MON obc_W_uVel_mean              =   1.1205712828732E-01
(PID.TID 0000.0001) %MON obc_W_uVel_sd                =  -1.2143064331838E-17
(PID.TID 0000.0001) %MON obc_W_uVel_Int               =   1.1205712828732E+05
(PID.TID 0000.0001) // =======================================================
(PID.TID 0000.0001) // End OBCS MONITOR field statistics
(PID.TID 0000.0001) // =======================================================
(PID.TID 0000.0001) %CHECKPOINT      5760 0000005760
 cg2d: Sum(rhs),rhsMax =  -1.00087715892982E-10  1.22114332882885E-02
 cg2d: Sum(rhs),rhsMax =  -1.01549657571809E-10  1.20272817415668E-02
 cg2d: Sum(rhs),rhsMax =  -1.03110520122129E-10  1.18380593707273E-02
 cg2d: Sum(rhs),rhsMax =  -1.04754871443902E-10  1.16438542901602E-02
 cg2d: Sum(rhs),rhsMax =  -1.06478048600422E-10  1.14447567180738E-02
 cg2d: Sum(rhs),rhsMax =  -1.08305475698955E-10  1.12408589353421E-02
 cg2d: Sum(rhs),rhsMax =  -1.10288334020936E-10  1.10322552519553E-02
 cg2d: Sum(rhs),rhsMax =  -1.12322595668957E-10  1.08190419666022E-02
 cg2d: Sum(rhs),rhsMax =  -1.14547038521096E-10  1.06013173091034E-02
 cg2d: Sum(rhs),rhsMax =  -1.16876952560574E-10  1.03791813894889E-02
 cg2d: Sum(rhs),rhsMax =  -1.19365628492574E-10  1.01527361564738E-02
 cg2d: Sum(rhs),rhsMax =  -1.22024612636551E-10  9.92208535489933E-03
 cg2d: Sum(rhs),rhsMax =  -1.24847465698963E-10  9.68733448008166E-03
 cg2d: Sum(rhs),rhsMax =  -1.27823973627983E-10  9.44859072928809E-03
 cg2d: Sum(rhs),rhsMax =  -1.31168298445061E-10  9.20596295160994E-03
 cg2d: Sum(rhs),rhsMax =  -1.34741995339027E-10  8.95956159694024E-03
 cg2d: Sum(rhs),rhsMax =  -1.38558942097688E-10  8.70949866447102E-03
 cg2d: Sum(rhs),rhsMax =  -1.42688083570874E-10  8.45588765092624E-03
 cg2d: Sum(rhs),rhsMax =  -1.47079903811687E-10  8.19884349864977E-03
 cg2d: Sum(rhs),rhsMax =  -1.51818335680787E-10  7.93848254359310E-03
 cg2d: Sum(rhs),rhsMax =  -1.56968771314325E-10  7.67492246318128E-03
 cg2d: Sum(rhs),rhsMax =  -1.62539093295777E-10  7.40828222397974E-03
 cg2d: Sum(rhs),rhsMax =  -1.68588476512355E-10  7.13868202906806E-03
 cg2d: Sum(rhs),rhsMax =  -1.75185976836190E-10  6.86624326508454E-03
 cg2d: Sum(rhs),rhsMax =  -1.82440618168300E-10  6.59108844900355E-03
 cg2d: Sum(rhs),rhsMax =  -1.90340299077718E-10  6.31334117479071E-03
 cg2d: Sum(rhs),rhsMax =  -1.99071648054883E-10  6.03312606036538E-03
 cg2d: Sum(rhs),rhsMax =  -2.08755790431780E-10  5.75056869375471E-03
 cg2d: Sum(rhs),rhsMax =  -2.19529727729650E-10  5.46579557879920E-03
 cg2d: Sum(rhs),rhsMax =  -2.31572094833155E-10  5.17893408063853E-03
 cg2d: Sum(rhs),rhsMax =  -2.45174325286257E-10  4.89011236112202E-03
 cg2d: Sum(rhs),rhsMax =  -2.60609755997621E-10  4.59945932986576E-03
 cg2d: Sum(rhs),rhsMax =  -2.78277845211505E-10  4.30710459619583E-03
 cg2d: Sum(rhs),rhsMax =  -2.98656432917710E-10  4.01317841339256E-03
 cg2d: Sum(rhs),rhsMax =  -3.22332494029354E-10  3.71781161834994E-03
 cg2d: Sum(rhs),rhsMax =  -3.50194651055347E-10  3.42113557001447E-03
 cg2d: Sum(rhs),rhsMax =  -3.73789887930798E-10  3.20480315112762E-03
 cg2d: Sum(rhs),rhsMax =  -3.53255147356180E-10  3.39055838257586E-03
 cg2d: Sum(rhs),rhsMax =  -3.34777872090797E-10  3.57665486407925E-03
 cg2d: Sum(rhs),rhsMax =  -3.18146897715366E-10  3.76301046913970E-03
 cg2d: Sum(rhs),rhsMax =  -3.03103375731695E-10  3.94954298426007E-03
 cg2d: Sum(rhs),rhsMax =  -2.89389706642496E-10  4.13617019053035E-03
 cg2d: Sum(rhs),rhsMax =  -2.76888692529731E-10  4.32280993375789E-03
 cg2d: Sum(rhs),rhsMax =  -2.65407612554114E-10  4.50938020165144E-03
 cg2d: Sum(rhs),rhsMax =  -2.54847764419308E-10  4.69579916683435E-03
 cg2d: Sum(rhs),rhsMax =  -2.45077250160541E-10  4.88198517173845E-03
 cg2d: Sum(rhs),rhsMax =  -2.36050984314673E-10  5.06785668906944E-03
 cg2d: Sum(rhs),rhsMax =  -2.27705077016083E-10  5.25333229922626E-03
 cg2d: Sum(rhs),rhsMax =  -2.19947060564607E-10  5.43833070551493E-03
 cg2d: Sum(rhs),rhsMax =  -2.12652812026093E-10  5.62277077826822E-03
 cg2d: Sum(rhs),rhsMax =  -2.05799544072960E-10  5.80657166210995E-03
 cg2d: Sum(rhs),rhsMax =  -1.99404326384212E-10  5.98965289163054E-03
 cg2d: Sum(rhs),rhsMax =  -1.93425553352000E-10  6.17193418180009E-03
 cg2d: Sum(rhs),rhsMax =  -1.87813320451369E-10  6.35333551830113E-03
 cg2d: Sum(rhs),rhsMax =  -1.82539150461736E-10  6.53377758978588E-03
 cg2d: Sum(rhs),rhsMax =  -1.77563130865366E-10  6.71318164370926E-03
 cg2d: Sum(rhs),rhsMax =  -1.72921121865954E-10  6.89146928447436E-03
 cg2d: Sum(rhs),rhsMax =  -1.68526304022976E-10  7.06856254303558E-03
 cg2d: Sum(rhs),rhsMax =  -1.64360858256885E-10  7.24438408554132E-03
 cg2d: Sum(rhs),rhsMax =  -1.60411683935990E-10  7.41885437738993E-03
 cg2d: Sum(rhs),rhsMax =  -1.56685109331534E-10  7.59189515141222E-03
 cg2d: Sum(rhs),rhsMax =  -1.53117074574993E-10  7.76343018149198E-03
 cg2d: Sum(rhs),rhsMax =  -1.49767864776607E-10  7.93338473079402E-03
 cg2d: Sum(rhs),rhsMax =  -1.46582967985864E-10  8.10168496248201E-03
 cg2d: Sum(rhs),rhsMax =  -1.43556611043039E-10  8.26825771786107E-03
 cg2d: Sum(rhs),rhsMax =  -1.40694011996345E-10  8.43302974612396E-03
 cg2d: Sum(rhs),rhsMax =  -1.37969524693915E-10  8.59592464156796E-03
 cg2d: Sum(rhs),rhsMax =  -1.35393363187575E-10  8.75686837347978E-03
 cg2d: Sum(rhs),rhsMax =  -1.32889144133230E-10  8.91579021914314E-03
 cg2d: Sum(rhs),rhsMax =  -1.30544464127524E-10  9.07262157082128E-03
 cg2d: Sum(rhs),rhsMax =  -1.28293597967399E-10  9.22729479692572E-03
 cg2d: Sum(rhs),rhsMax =  -1.26163857139261E-10  9.37974023446677E-03
 cg2d: Sum(rhs),rhsMax =  -1.24119381439414E-10  9.52988897131160E-03
 cg2d: Sum(rhs),rhsMax =  -1.22148846593007E-10  9.67767458007668E-03
 cg2d: Sum(rhs),rhsMax =  -1.20217613641671E-10  9.82303279014247E-03
 cg2d: Sum(rhs),rhsMax =  -1.18375753643818E-10  9.96590067673804E-03
 cg2d: Sum(rhs),rhsMax =  -1.16610276990059E-10  1.01062162582192E-02
 cg2d: Sum(rhs),rhsMax =  -1.14885101432094E-10  1.02439184698167E-02
 cg2d: Sum(rhs),rhsMax =  -1.13266951373703E-10  1.03789472928092E-02
 cg2d: Sum(rhs),rhsMax =  -1.11726849993943E-10  1.05112438747381E-02
 cg2d: Sum(rhs),rhsMax =  -1.10248365992049E-10  1.06407505952236E-02
 cg2d: Sum(rhs),rhsMax =  -1.08832720613350E-10  1.07674110963105E-02
 cg2d: Sum(rhs),rhsMax =  -1.07496234136306E-10  1.08911703020197E-02
 cg2d: Sum(rhs),rhsMax =  -1.06261888177528E-10  1.10119744368676E-02
 cg2d: Sum(rhs),rhsMax =  -1.05029318575589E-10  1.11297710442364E-02
 cg2d: Sum(rhs),rhsMax =  -1.03865249734270E-10  1.12445090053675E-02
 cg2d: Sum(rhs),rhsMax =  -1.02753250352805E-10  1.13561384945898E-02
 cg2d: Sum(rhs),rhsMax =  -1.01690433851331E-10  1.14646110876422E-02
 cg2d: Sum(rhs),rhsMax =  -1.00682906456484E-10  1.15698799113477E-02
 cg2d: Sum(rhs),rhsMax =  -9.97217863840660E-11  1.16718995779101E-02
 cg2d: Sum(rhs),rhsMax =  -9.87928627793622E-11  1.17706260474533E-02
 cg2d: Sum(rhs),rhsMax =  -9.79304415338333E-11  1.18660167004302E-02
 cg2d: Sum(rhs),rhsMax =  -9.70775682063163E-11  1.19580303747584E-02
 cg2d: Sum(rhs),rhsMax =  -9.63302770884411E-11  1.20466273387552E-02
 cg2d: Sum(rhs),rhsMax =  -9.55681089820359E-11  1.21317693482372E-02
 cg2d: Sum(rhs),rhsMax =  -9.48512379750355E-11  1.22134196897451E-02
 cg2d: Sum(rhs),rhsMax =  -9.41551281385955E-11  1.22950222868174E-02
 cg2d: Sum(rhs),rhsMax =  -9.34552435438718E-11  1.23810645144852E-02
 cg2d: Sum(rhs),rhsMax =  -9.27707910491904E-11  1.24634566142383E-02
 cg2d: Sum(rhs),rhsMax =  -9.20705733875593E-11  1.25421658227550E-02
 cg2d: Sum(rhs),rhsMax =  -9.14580633448736E-11  1.26171610075939E-02
 cg2d: Sum(rhs),rhsMax =  -9.07417474493855E-11  1.26984747808689E-02
 cg2d: Sum(rhs),rhsMax =  -8.98935370585718E-11  1.28070446188366E-02
 cg2d: Sum(rhs),rhsMax =  -8.91089424470692E-11  1.29097263933952E-02
 cg2d: Sum(rhs),rhsMax =  -8.83270123708257E-11  1.30064767641695E-02
 cg2d: Sum(rhs),rhsMax =  -8.76640982028221E-11  1.30972549930672E-02
 cg2d: Sum(rhs),rhsMax =  -8.70148397780213E-11  1.31820229698289E-02
 cg2d: Sum(rhs),rhsMax =  -8.64339710915374E-11  1.32607452342507E-02
 cg2d: Sum(rhs),rhsMax =  -8.59321502844068E-11  1.33333889922703E-02
 cg2d: Sum(rhs),rhsMax =  -8.54274428974122E-11  1.33999241465758E-02
 cg2d: Sum(rhs),rhsMax =  -8.50033377020054E-11  1.34603233192524E-02
 cg2d: Sum(rhs),rhsMax =  -8.46094305728684E-11  1.35145618675649E-02
 cg2d: Sum(rhs),rhsMax =  -8.42179659343856E-11  1.35626178947089E-02
 cg2d: Sum(rhs),rhsMax =  -8.39235347882550E-11  1.36044722587768E-02
 cg2d: Sum(rhs),rhsMax =  -8.36356539579697E-11  1.36401085914161E-02
 cg2d: Sum(rhs),rhsMax =  -8.33950686285334E-11  1.36695132888238E-02
 cg2d: Sum(rhs),rhsMax =  -8.32405255835056E-11  1.36926755090194E-02
 cg2d: Sum(rhs),rhsMax =  -8.30641111448926E-11  1.37095871737482E-02
 cg2d: Sum(rhs),rhsMax =  -8.29516455524981E-11  1.37202429726351E-02
 cg2d: Sum(rhs),rhsMax =  -8.28748181191941E-11  1.37246403672165E-02
 cg2d: Sum(rhs),rhsMax =  -8.27455881591277E-11  1.37227795935071E-02
 cg2d: Sum(rhs),rhsMax =  -8.29547541769671E-11  1.37146636630854E-02
 cg2d: Sum(rhs),rhsMax =  -8.31609225926400E-11  1.37002983660553E-02
 cg2d: Sum(rhs),rhsMax =  -8.32985902476935E-11  1.36796922664892E-02
 cg2d: Sum(rhs),rhsMax =  -8.35329583281919E-11  1.36528566986916E-02
 cg2d: Sum(rhs),rhsMax =  -8.38003000325216E-11  1.36198057613663E-02
 cg2d: Sum(rhs),rhsMax =  -8.41531289097475E-11  1.35805563139935E-02
 cg2d: Sum(rhs),rhsMax =  -8.45358227863358E-11  1.35351279738312E-02
 cg2d: Sum(rhs),rhsMax =  -8.49009751391350E-11  1.34835431120556E-02
 cg2d: Sum(rhs),rhsMax =  -8.53263015798689E-11  1.34258268480832E-02
 cg2d: Sum(rhs),rhsMax =  -8.57618420724293E-11  1.33620070416770E-02
 cg2d: Sum(rhs),rhsMax =  -8.62822036040711E-11  1.32921142826757E-02
 cg2d: Sum(rhs),rhsMax =  -8.68463079228832E-11  1.32161818648759E-02
 cg2d: Sum(rhs),rhsMax =  -8.74673666828585E-11  1.31342457847790E-02
 cg2d: Sum(rhs),rhsMax =  -8.81124062601657E-11  1.30463447294822E-02
 cg2d: Sum(rhs),rhsMax =  -8.88499274154242E-11  1.29525200552758E-02
 cg2d: Sum(rhs),rhsMax =  -8.96023255592127E-11  1.28528157596633E-02
 cg2d: Sum(rhs),rhsMax =  -9.04241126420402E-11  1.27472784495967E-02
 cg2d: Sum(rhs),rhsMax =  -9.13317199646713E-11  1.26359573076543E-02
 cg2d: Sum(rhs),rhsMax =  -9.23019438658912E-11  1.25189040568769E-02
 cg2d: Sum(rhs),rhsMax =  -9.31194010789227E-11  1.24187606430167E-02
 cg2d: Sum(rhs),rhsMax =  -9.38037425513016E-11  1.23351000030701E-02
 cg2d: Sum(rhs),rhsMax =  -9.45149514208765E-11  1.22479272201352E-02
 cg2d: Sum(rhs),rhsMax =  -9.53063183928293E-11  1.21572843457115E-02
 cg2d: Sum(rhs),rhsMax =  -9.61201118698796E-11  1.20632148536465E-02
 cg2d: Sum(rhs),rhsMax =  -9.69808677808714E-11  1.19657637077025E-02
 cg2d: Sum(rhs),rhsMax =  -9.78179759414388E-11  1.18649774921337E-02
 cg2d: Sum(rhs),rhsMax =  -9.87669945828884E-11  1.17609044386163E-02
 cg2d: Sum(rhs),rhsMax =  -9.97455451567930E-11  1.16535942953978E-02
 cg2d: Sum(rhs),rhsMax =  -1.00751407217103E-10  1.15430981412597E-02
 cg2d: Sum(rhs),rhsMax =  -1.01844976896359E-10  1.14294682604088E-02
 cg2d: Sum(rhs),rhsMax =  -1.02970520998724E-10  1.13127581298701E-02
 cg2d: Sum(rhs),rhsMax =  -1.04144581847265E-10  1.11930224901568E-02
 cg2d: Sum(rhs),rhsMax =  -1.05374597936247E-10  1.10703174250025E-02
 cg2d: Sum(rhs),rhsMax =  -1.06690767331941E-10  1.09447003956786E-02
 cg2d: Sum(rhs),rhsMax =  -1.08041686708304E-10  1.08162302196348E-02
 cg2d: Sum(rhs),rhsMax =  -1.09515729818099E-10  1.06849670112069E-02
 cg2d: Sum(rhs),rhsMax =  -1.11022746551726E-10  1.05509720834460E-02
 cg2d: Sum(rhs),rhsMax =  -1.12601816759650E-10  1.04143078349851E-02
 cg2d: Sum(rhs),rhsMax =  -1.14207976409375E-10  1.02750376978178E-02
 cg2d: Sum(rhs),rhsMax =  -1.15918941112625E-10  1.01332261990542E-02
 cg2d: Sum(rhs),rhsMax =  -1.17722498416128E-10  9.98893909026515E-03
 cg2d: Sum(rhs),rhsMax =  -1.19588228209011E-10  9.84224353963450E-03
 cg2d: Sum(rhs),rhsMax =  -1.21521015472581E-10  9.69320792182761E-03
 cg2d: Sum(rhs),rhsMax =  -1.23564936060916E-10  9.54190127273935E-03
 cg2d: Sum(rhs),rhsMax =  -1.25722543486972E-10  9.38839343780383E-03
 cg2d: Sum(rhs),rhsMax =  -1.27875932065535E-10  9.23275513219488E-03
 cg2d: Sum(rhs),rhsMax =  -1.30172983503485E-10  9.07505796722486E-03
 cg2d: Sum(rhs),rhsMax =  -1.32535205032980E-10  8.91537445996218E-03
 cg2d: Sum(rhs),rhsMax =  -1.35050082228361E-10  8.75377801223373E-03
 cg2d: Sum(rhs),rhsMax =  -1.37649447395916E-10  8.59034285889869E-03
 cg2d: Sum(rhs),rhsMax =  -1.40456868358285E-10  8.42514419658165E-03
 cg2d: Sum(rhs),rhsMax =  -1.43345002534545E-10  8.25825785130819E-03
 cg2d: Sum(rhs),rhsMax =  -1.46414769197634E-10  8.08975992405712E-03
 cg2d: Sum(rhs),rhsMax =  -1.49654511005792E-10  7.91972695903189E-03
 cg2d: Sum(rhs),rhsMax =  -1.53014823034425E-10  7.74823618826016E-03
 cg2d: Sum(rhs),rhsMax =  -1.56553547903115E-10  7.57536565799327E-03
 cg2d: Sum(rhs),rhsMax =  -1.60321755870996E-10  7.40119419447337E-03
 cg2d: Sum(rhs),rhsMax =  -1.64274038816359E-10  7.22580129149441E-03
 cg2d: Sum(rhs),rhsMax =  -1.68472347183979E-10  7.04926699318700E-03
 cg2d: Sum(rhs),rhsMax =  -1.72919012442208E-10  6.87167180215999E-03
 cg2d: Sum(rhs),rhsMax =  -1.77608150409014E-10  6.69309659258896E-03
 cg2d: Sum(rhs),rhsMax =  -1.82550086158528E-10  6.51362255687439E-03
 cg2d: Sum(rhs),rhsMax =  -1.87868109957634E-10  6.33333120792846E-03
 cg2d: Sum(rhs),rhsMax =  -1.93481286547836E-10  6.15230439957023E-03
 cg2d: Sum(rhs),rhsMax =  -1.99475436168939E-10  5.97062432871109E-03
 cg2d: Sum(rhs),rhsMax =  -2.05888917026442E-10  5.78837350967718E-03
 cg2d: Sum(rhs),rhsMax =  -2.12695527856965E-10  5.60563472511468E-03
 cg2d: Sum(rhs),rhsMax =  -2.19990470284870E-10  5.42249096005574E-03
 cg2d: Sum(rhs),rhsMax =  -2.27783569783924E-10  5.23902532589256E-03
 cg2d: Sum(rhs),rhsMax =  -2.36088787408661E-10  5.05532097724510E-03
 cg2d: Sum(rhs),rhsMax =  -2.45045095326191E-10  4.87146115847915E-03
 cg2d: Sum(rhs),rhsMax =  -2.54710086355914E-10  4.68752919146979E-03
 cg2d: Sum(rhs),rhsMax =  -2.65171218316596E-10  4.50360829243721E-03
 cg2d: Sum(rhs),rhsMax =  -2.76477143262843E-10  4.31978138846815E-03
 cg2d: Sum(rhs),rhsMax =  -2.88827101124767E-10  4.13613110902231E-03
 cg2d: Sum(rhs),rhsMax =  -3.02259689499706E-10  3.95273970350019E-03
 cg2d: Sum(rhs),rhsMax =  -3.17007975425554E-10  3.76968932357089E-03
 cg2d: Sum(rhs),rhsMax =  -3.33192418100481E-10  3.58706217219206E-03
 cg2d: Sum(rhs),rhsMax =  -3.51038809132120E-10  3.40494028508462E-03
 cg2d: Sum(rhs),rhsMax =  -3.70858288523124E-10  3.22340536679811E-03
 cg2d: Sum(rhs),rhsMax =  -3.92996413189906E-10  3.04253881656149E-03
 cg2d: Sum(rhs),rhsMax =  -3.98225785680495E-10  3.00291435082636E-03
 cg2d: Sum(rhs),rhsMax =  -3.79453024557108E-10  3.15215439641118E-03
 cg2d: Sum(rhs),rhsMax =  -3.62525010011439E-10  3.30034018149281E-03
 cg2d: Sum(rhs),rhsMax =  -3.42261663455190E-10  3.49595124951609E-03
 cg2d: Sum(rhs),rhsMax =  -3.17461945620323E-10  3.76979899294822E-03
 cg2d: Sum(rhs),rhsMax =  -2.95588664656066E-10  4.04912343748719E-03
 cg2d: Sum(rhs),rhsMax =  -2.76607403648654E-10  4.32749672155733E-03
 cg2d: Sum(rhs),rhsMax =  -2.60026999931995E-10  4.60393315980304E-03
 cg2d: Sum(rhs),rhsMax =  -2.45425346712125E-10  4.87830936140908E-03
 cg2d: Sum(rhs),rhsMax =  -2.32478147843551E-10  5.15050293139107E-03
 cg2d: Sum(rhs),rhsMax =  -2.21024420987703E-10  5.42039253238629E-03
 cg2d: Sum(rhs),rhsMax =  -2.10724659943651E-10  5.68785794621542E-03
 cg2d: Sum(rhs),rhsMax =  -2.01440086833315E-10  5.95278013205793E-03
 cg2d: Sum(rhs),rhsMax =  -1.93036364670718E-10  6.21504129118387E-03
 cg2d: Sum(rhs),rhsMax =  -1.85395254703735E-10  6.47452492828843E-03
 cg2d: Sum(rhs),rhsMax =  -1.78395409555776E-10  6.73111591136637E-03
 cg2d: Sum(rhs),rhsMax =  -1.71990754971318E-10  6.98470052350775E-03
 cg2d: Sum(rhs),rhsMax =  -1.66130997847347E-10  7.23516651294825E-03
 cg2d: Sum(rhs),rhsMax =  -1.60705670992911E-10  7.48240314144659E-03
 cg2d: Sum(rhs),rhsMax =  -1.55700563553296E-10  7.72630123028679E-03
 cg2d: Sum(rhs),rhsMax =  -1.51082812926973E-10  7.96675320540206E-03
 cg2d: Sum(rhs),rhsMax =  -1.46738177164707E-10  8.20365313969705E-03
 cg2d: Sum(rhs),rhsMax =  -1.42762357491222E-10  8.43689679349599E-03
 cg2d: Sum(rhs),rhsMax =  -1.39031008927759E-10  8.66638165428794E-03
 cg2d: Sum(rhs),rhsMax =  -1.35583433369391E-10  8.89200697676473E-03
 cg2d: Sum(rhs),rhsMax =  -1.32403976671469E-10  9.11367382372477E-03
 cg2d: Sum(rhs),rhsMax =  -1.29468991083570E-10  9.33128510789282E-03
 cg2d: Sum(rhs),rhsMax =  -1.26656907184497E-10  9.54474563468634E-03
 cg2d: Sum(rhs),rhsMax =  -1.24068089135676E-10  9.75396214551436E-03
 cg2d: Sum(rhs),rhsMax =  -1.21623711102359E-10  9.95884336075752E-03
 cg2d: Sum(rhs),rhsMax =  -1.19330545444996E-10  1.01593000229460E-02
 cg2d: Sum(rhs),rhsMax =  -1.17117537890010E-10  1.03552449391652E-02
 cg2d: Sum(rhs),rhsMax =  -1.15149334511955E-10  1.05465930220532E-02
 cg2d: Sum(rhs),rhsMax =  -1.13213105557008E-10  1.07332613292439E-02
 cg2d: Sum(rhs),rhsMax =  -1.11390452417481E-10  1.09151691014076E-02
 cg2d: Sum(rhs),rhsMax =  -1.09698361505650E-10  1.10922377990468E-02
 cg2d: Sum(rhs),rhsMax =  -1.08096087636511E-10  1.12643911380760E-02
 cg2d: Sum(rhs),rhsMax =  -1.06588515791373E-10  1.14315551241266E-02
 cg2d: Sum(rhs),rhsMax =  -1.05173758591093E-10  1.15936580855143E-02
 cg2d: Sum(rhs),rhsMax =  -1.03825059660778E-10  1.17506307048278E-02
 cg2d: Sum(rhs),rhsMax =  -1.02595043571796E-10  1.19024060491047E-02
 cg2d: Sum(rhs),rhsMax =  -1.01406771868540E-10  1.20489195985917E-02
 cg2d: Sum(rhs),rhsMax =  -1.00280228565452E-10  1.21901092741173E-02
 cg2d: Sum(rhs),rhsMax =  -9.92133042387877E-11  1.23259154631440E-02
 cg2d: Sum(rhs),rhsMax =  -9.82581793707027E-11  1.24562810479633E-02
 cg2d: Sum(rhs),rhsMax =  -9.73572333862194E-11  1.25811514266156E-02
 cg2d: Sum(rhs),rhsMax =  -9.65807434027965E-11  1.27004745329930E-02
 cg2d: Sum(rhs),rhsMax =  -9.57980361704358E-11  1.28142008566738E-02
 cg2d: Sum(rhs),rhsMax =  -9.50662881749054E-11  1.29222834617914E-02
 cg2d: Sum(rhs),rhsMax =  -9.44153644155676E-11  1.30246780056582E-02
 cg2d: Sum(rhs),rhsMax =  -9.37742106188466E-11  1.31213427550089E-02
 cg2d: Sum(rhs),rhsMax =  -9.32376398310453E-11  1.32122386002946E-02
 cg2d: Sum(rhs),rhsMax =  -9.27198318123601E-11  1.32973290682052E-02
 cg2d: Sum(rhs),rhsMax =  -9.22165677152975E-11  1.33765803329268E-02
 cg2d: Sum(rhs),rhsMax =  -9.17698139701884E-11  1.34499612225085E-02
 cg2d: Sum(rhs),rhsMax =  -9.13521480683244E-11  1.35174432263541E-02
 cg2d: Sum(rhs),rhsMax =  -9.09966546558394E-11  1.35790005129309E-02
 cg2d: Sum(rhs),rhsMax =  -9.06894559449256E-11  1.36346099419970E-02
 cg2d: Sum(rhs),rhsMax =  -9.04254449096697E-11  1.36842510724390E-02
 cg2d: Sum(rhs),rhsMax =  -9.02503627386864E-11  1.37279061671987E-02
 cg2d: Sum(rhs),rhsMax =  -9.00676200288331E-11  1.37655602006219E-02
 cg2d: Sum(rhs),rhsMax =  -8.99487151428957E-11  1.37972008672091E-02
 cg2d: Sum(rhs),rhsMax =  -8.98089380640954E-11  1.38228185715906E-02
 cg2d: Sum(rhs),rhsMax =  -8.97600882510119E-11  1.38424064237259E-02
 cg2d: Sum(rhs),rhsMax =  -8.97226737350820E-11  1.38559602373460E-02
 cg2d: Sum(rhs),rhsMax =  -8.97762975071714E-11  1.38634785292449E-02
 cg2d: Sum(rhs),rhsMax =  -8.97226737350820E-11  1.38649625173736E-02
 cg2d: Sum(rhs),rhsMax =  -8.97142360400949E-11  1.38604161167713E-02
 cg2d: Sum(rhs),rhsMax =  -8.96652752047089E-11  1.38498459330406E-02
 cg2d: Sum(rhs),rhsMax =  -8.97530938459568E-11  1.38332612568450E-02
 cg2d: Sum(rhs),rhsMax =  -8.98321417253101E-11  1.38106740557554E-02
 cg2d: Sum(rhs),rhsMax =  -8.99429419831677E-11  1.37820989614550E-02
 cg2d: Sum(rhs),rhsMax =  -9.01283492282801E-11  1.37475532556180E-02
 cg2d: Sum(rhs),rhsMax =  -9.03215280345648E-11  1.37070568578808E-02
 cg2d: Sum(rhs),rhsMax =  -9.05960861885546E-11  1.36606323143226E-02
 cg2d: Sum(rhs),rhsMax =  -9.08677577626804E-11  1.36083047849513E-02
 cg2d: Sum(rhs),rhsMax =  -9.12120379226167E-11  1.35501020293341E-02
 cg2d: Sum(rhs),rhsMax =  -9.15790776545578E-11  1.34860543902463E-02
 cg2d: Sum(rhs),rhsMax =  -9.20178377938896E-11  1.34161947733026E-02
 cg2d: Sum(rhs),rhsMax =  -9.24826881743002E-11  1.33405586201313E-02
 cg2d: Sum(rhs),rhsMax =  -9.29755161749313E-11  1.32591838999503E-02
 cg2d: Sum(rhs),rhsMax =  -9.35049815353750E-11  1.31721110937411E-02
 cg2d: Sum(rhs),rhsMax =  -9.40943989391485E-11  1.30793831732920E-02
 cg2d: Sum(rhs),rhsMax =  -9.47224521041790E-11  1.29810455778007E-02
 cg2d: Sum(rhs),rhsMax =  -9.53618295440606E-11  1.28771461903081E-02
 cg2d: Sum(rhs),rhsMax =  -9.60871382460482E-11  1.27677353149870E-02
 cg2d: Sum(rhs),rhsMax =  -9.68913838050867E-11  1.26528656551878E-02
 cg2d: Sum(rhs),rhsMax =  -9.76850822453912E-11  1.25325922915141E-02
 cg2d: Sum(rhs),rhsMax =  -9.85699299960174E-11  1.24069726594003E-02
 cg2d: Sum(rhs),rhsMax =  -9.95632465361496E-11  1.22760665256785E-02
 cg2d: Sum(rhs),rhsMax =  -1.00619068632568E-10  1.21399359623924E-02
 cg2d: Sum(rhs),rhsMax =  -1.01766484128518E-10  1.19986453129383E-02
 cg2d: Sum(rhs),rhsMax =  -1.02940544977059E-10  1.18522611596933E-02
 cg2d: Sum(rhs),rhsMax =  -1.04234176845353E-10  1.17008522810755E-02
 cg2d: Sum(rhs),rhsMax =  -1.05573549902260E-10  1.15444896269264E-02
 cg2d: Sum(rhs),rhsMax =  -1.07006403737842E-10  1.13832462873582E-02
 cg2d: Sum(rhs),rhsMax =  -1.08542730359318E-10  1.12171974551692E-02
 cg2d: Sum(rhs),rhsMax =  -1.10107145623317E-10  1.10464203845844E-02
 cg2d: Sum(rhs),rhsMax =  -1.11799347557451E-10  1.08709943496585E-02
 cg2d: Sum(rhs),rhsMax =  -1.13624332165330E-10  1.06910006043219E-02
 cg2d: Sum(rhs),rhsMax =  -1.15503273612205E-10  1.05065223445877E-02
 cg2d: Sum(rhs),rhsMax =  -1.17541198996207E-10  1.03176446718429E-02
 cg2d: Sum(rhs),rhsMax =  -1.19660836794822E-10  1.01244545563314E-02
 cg2d: Sum(rhs),rhsMax =  -1.21941234887402E-10  9.92704080416318E-03
 cg2d: Sum(rhs),rhsMax =  -1.24373067400541E-10  9.72549403353239E-03
 cg2d: Sum(rhs),rhsMax =  -1.26931576360789E-10  9.51990662492663E-03
 cg2d: Sum(rhs),rhsMax =  -1.29656618774732E-10  9.31037267131386E-03
 cg2d: Sum(rhs),rhsMax =  -1.32577171463311E-10  9.09698793320102E-03
 cg2d: Sum(rhs),rhsMax =  -1.35700894965396E-10  8.87984979547518E-03
 cg2d: Sum(rhs),rhsMax =  -1.39020350786723E-10  8.65905722284726E-03
 cg2d: Sum(rhs),rhsMax =  -1.42690415039226E-10  8.43471071197373E-03
 cg2d: Sum(rhs),rhsMax =  -1.46607392892406E-10  8.20691223986480E-03
 cg2d: Sum(rhs),rhsMax =  -1.50795265163595E-10  7.97576520928755E-03
 cg2d: Sum(rhs),rhsMax =  -1.55308987892511E-10  7.74137439240905E-03
 cg2d: Sum(rhs),rhsMax =  -1.60121249592748E-10  7.50384587406518E-03
 cg2d: Sum(rhs),rhsMax =  -1.65392921580576E-10  7.26328699599251E-03
 cg2d: Sum(rhs),rhsMax =  -1.71032521478764E-10  7.01980630322915E-03
 cg2d: Sum(rhs),rhsMax =  -1.77202807982724E-10  6.77351349368126E-03
 cg2d: Sum(rhs),rhsMax =  -1.83917214791052E-10  6.52451937154320E-03
 cg2d: Sum(rhs),rhsMax =  -1.91196058985099E-10  6.27293580482834E-03
 cg2d: Sum(rhs),rhsMax =  -1.99222971453139E-10  6.01887568675599E-03
 cg2d: Sum(rhs),rhsMax =  -2.08011718960677E-10  5.76245290021163E-03
 cg2d: Sum(rhs),rhsMax =  -2.17720619311024E-10  5.50378228404311E-03
 cg2d: Sum(rhs),rhsMax =  -2.28436380922403E-10  5.24297960002570E-03
 cg2d: Sum(rhs),rhsMax =  -2.40414022023572E-10  4.98016149785038E-03
 cg2d: Sum(rhs),rhsMax =  -2.53815635176124E-10  4.71544547680453E-03
 cg2d: Sum(rhs),rhsMax =  -2.68951305670839E-10  4.44894984319180E-03
 cg2d: Sum(rhs),rhsMax =  -2.86130008575469E-10  4.18079366268839E-03
 cg2d: Sum(rhs),rhsMax =  -3.05839020775522E-10  3.91109669764023E-03
 cg2d: Sum(rhs),rhsMax =  -3.28551408301792E-10  3.63997935568280E-03
 cg2d: Sum(rhs),rhsMax =  -3.55057427903205E-10  3.36756263299098E-03
 cg2d: Sum(rhs),rhsMax =  -3.70310893060832E-10  3.22864616524787E-03
 cg2d: Sum(rhs),rhsMax =  -3.50295070727924E-10  3.41243940258749E-03
 cg2d: Sum(rhs),rhsMax =  -3.32301464123219E-10  3.59663430316846E-03
 cg2d: Sum(rhs),rhsMax =  -3.16051129711781E-10  3.78114955990198E-03
 cg2d: Sum(rhs),rhsMax =  -3.01248581635605E-10  3.96590365920415E-03
 cg2d: Sum(rhs),rhsMax =  -2.87797924380939E-10  4.15081516395516E-03
 cg2d: Sum(rhs),rhsMax =  -2.75467870736179E-10  4.33580276690289E-03
 cg2d: Sum(rhs),rhsMax =  -2.64118088511012E-10  4.52078515182511E-03
 cg2d: Sum(rhs),rhsMax =  -2.53663706359375E-10  4.70568090214879E-03
 cg2d: Sum(rhs),rhsMax =  -2.44023141970917E-10  4.89040857229089E-03
 cg2d: Sum(rhs),rhsMax =  -2.35119021474439E-10  5.07488684676822E-03
 cg2d: Sum(rhs),rhsMax =  -2.26780788592507E-10  5.25903467797399E-03
 cg2d: Sum(rhs),rhsMax =  -2.19007645352320E-10  5.44277132849290E-03
 cg2d: Sum(rhs),rhsMax =  -2.11772516189868E-10  5.62601593656492E-03
 cg2d: Sum(rhs),rhsMax =  -2.05038763745335E-10  5.80868778674997E-03
 cg2d: Sum(rhs),rhsMax =  -1.98687233332606E-10  5.99070662690236E-03
 cg2d: Sum(rhs),rhsMax =  -1.92783344843406E-10  6.17199267241742E-03
 cg2d: Sum(rhs),rhsMax =  -1.87220738911975E-10  6.35246652299301E-03
 cg2d: Sum(rhs),rhsMax =  -1.81957393596832E-10  6.53204912436330E-03
 cg2d: Sum(rhs),rhsMax =  -1.77025949454901E-10  6.71066179142708E-03
 cg2d: Sum(rhs),rhsMax =  -1.72380887342172E-10  6.88822625962186E-03
 cg2d: Sum(rhs),rhsMax =  -1.68001113021177E-10  7.06466236549537E-03
 cg2d: Sum(rhs),rhsMax =  -1.63856539447949E-10  7.23989070946537E-03
 cg2d: Sum(rhs),rhsMax =  -1.59952551204157E-10  7.41383377357730E-03
 cg2d: Sum(rhs),rhsMax =  -1.56274271301271E-10  7.58641553951564E-03
 cg2d: Sum(rhs),rhsMax =  -1.52772239303545E-10  7.75755775669834E-03
 cg2d: Sum(rhs),rhsMax =  -1.49471990340544E-10  7.92718204712766E-03
 cg2d: Sum(rhs),rhsMax =  -1.46278877899420E-10  8.09521249591009E-03
 cg2d: Sum(rhs),rhsMax =  -1.43289713427919E-10  8.26157552867738E-03
 cg2d: Sum(rhs),rhsMax =  -1.40445655105736E-10  8.42619891651191E-03
 cg2d: Sum(rhs),rhsMax =  -1.37674760480877E-10  8.58900832998801E-03
 cg2d: Sum(rhs),rhsMax =  -1.35088384922710E-10  8.74993041830704E-03
 cg2d: Sum(rhs),rhsMax =  -1.32657107521084E-10  8.90889404840342E-03
 cg2d: Sum(rhs),rhsMax =  -1.30302435508156E-10  9.06582997920918E-03
 cg2d: Sum(rhs),rhsMax =  -1.28044352898371E-10  9.22067013951081E-03
 cg2d: Sum(rhs),rhsMax =  -1.25917276605492E-10  9.37334718720705E-03
 cg2d: Sum(rhs),rhsMax =  -1.23801968676673E-10  9.52379460326552E-03
 cg2d: Sum(rhs),rhsMax =  -1.21815557641014E-10  9.67194670496863E-03
 cg2d: Sum(rhs),rhsMax =  -1.19862786363001E-10  9.81773876022495E-03
 cg2d: Sum(rhs),rhsMax =  -1.18027476680993E-10  9.96110711202403E-03
 cg2d: Sum(rhs),rhsMax =  -1.16267329097752E-10  1.01019892431680E-02
 cg2d: Sum(rhs),rhsMax =  -1.14564580044885E-10  1.02403237861579E-02
 cg2d: Sum(rhs),rhsMax =  -1.12959641640487E-10  1.03760505108750E-02
 cg2d: Sum(rhs),rhsMax =  -1.11429865334856E-10  1.05091103201671E-02
 cg2d: Sum(rhs),rhsMax =  -1.09943609771790E-10  1.06394451695156E-02
 cg2d: Sum(rhs),rhsMax =  -1.08553388500354E-10  1.07669981898985E-02
 cg2d: Sum(rhs),rhsMax =  -1.07240438751433E-10  1.08917138724826E-02
 cg2d: Sum(rhs),rhsMax =  -1.05939923500387E-10  1.10135380901878E-02
 cg2d: Sum(rhs),rhsMax =  -1.04740216499977E-10  1.11324180033303E-02
 cg2d: Sum(rhs),rhsMax =  -1.03573594145701E-10  1.12483019816574E-02
 cg2d: Sum(rhs),rhsMax =  -1.02464037254890E-10  1.13611396024789E-02
 cg2d: Sum(rhs),rhsMax =  -1.01408104136169E-10  1.14708817097674E-02
 cg2d: Sum(rhs),rhsMax =  -1.00390695756403E-10  1.15774804850621E-02
 cg2d: Sum(rhs),rhsMax =  -9.94705429135934E-11  1.16808894997548E-02
 cg2d: Sum(rhs),rhsMax =  -9.85145298670886E-11  1.17810637483160E-02
 cg2d: Sum(rhs),rhsMax =  -9.76289049603452E-11  1.18779596722391E-02
 cg2d: Sum(rhs),rhsMax =  -9.67996793832526E-11  1.19715351814053E-02
 cg2d: Sum(rhs),rhsMax =  -9.59993196048003E-11  1.20617496684318E-02
 cg2d: Sum(rhs),rhsMax =  -9.52743439697201E-11  1.21485640199472E-02
 cg2d: Sum(rhs),rhsMax =  -9.45667988361265E-11  1.22319406290964E-02
 cg2d: Sum(rhs),rhsMax =  -9.39078814710115E-11  1.23118434127075E-02
 cg2d: Sum(rhs),rhsMax =  -9.32038890510967E-11  1.23910333092452E-02
 cg2d: Sum(rhs),rhsMax =  -9.24785803491091E-11  1.24752886832672E-02
 cg2d: Sum(rhs),rhsMax =  -9.17724785054475E-11  1.25559131557273E-02
 cg2d: Sum(rhs),rhsMax =  -9.11197783892703E-11  1.26328747433087E-02
 cg2d: Sum(rhs),rhsMax =  -9.04972763393630E-11  1.27061430783006E-02
 cg2d: Sum(rhs),rhsMax =  -8.99093022255215E-11  1.27756894231149E-02
 cg2d: Sum(rhs),rhsMax =  -8.94002649687309E-11  1.28414866848397E-02
 cg2d: Sum(rhs),rhsMax =  -8.88819018385334E-11  1.29035094282399E-02
 cg2d: Sum(rhs),rhsMax =  -8.83988438005190E-11  1.29617338893568E-02
 cg2d: Sum(rhs),rhsMax =  -8.79687434007792E-11  1.30161379838607E-02
 cg2d: Sum(rhs),rhsMax =  -8.75748362716422E-11  1.30667012803711E-02
 cg2d: Sum(rhs),rhsMax =  -8.72151240116636E-11  1.31134049568424E-02
 cg2d: Sum(rhs),rhsMax =  -8.68429772538093E-11  1.31562318788008E-02
 cg2d: Sum(rhs),rhsMax =  -8.65467697508393E-11  1.31951667443880E-02
 cg2d: Sum(rhs),rhsMax =  -8.62820925817687E-11  1.32301961502355E-02
 cg2d: Sum(rhs),rhsMax =  -8.59885496140578E-11  1.32613085268178E-02
 cg2d: Sum(rhs),rhsMax =  -8.57339754745112E-11  1.32884939961600E-02
 cg2d: Sum(rhs),rhsMax =  -8.55233661667398E-11  1.33117442156805E-02
 cg2d: Sum(rhs),rhsMax =  -8.53264126021713E-11  1.33310524205605E-02
 cg2d: Sum(rhs),rhsMax =  -8.51306802829299E-11  1.33464136142918E-02
 cg2d: Sum(rhs),rhsMax =  -8.50216563819117E-11  1.33578247071828E-02
 cg2d: Sum(rhs),rhsMax =  -8.48978665146660E-11  1.33652845242853E-02
 cg2d: Sum(rhs),rhsMax =  -8.48526804375638E-11  1.33687866558966E-02
 cg2d: Sum(rhs),rhsMax =  -8.47627523725691E-11  1.33683284331387E-02
 cg2d: Sum(rhs),rhsMax =  -8.48432435418545E-11  1.33639127380955E-02
 cg2d: Sum(rhs),rhsMax =  -8.49927905832715E-11  1.33555461626466E-02
 cg2d: Sum(rhs),rhsMax =  -8.51800852075257E-11  1.33432299363832E-02
 cg2d: Sum(rhs),rhsMax =  -8.53442871928678E-11  1.33269643530252E-02
 cg2d: Sum(rhs),rhsMax =  -8.55497894747259E-11  1.33067563892146E-02
 cg2d: Sum(rhs),rhsMax =  -8.57537374443496E-11  1.32826159671557E-02
 cg2d: Sum(rhs),rhsMax =  -8.60640447797323E-11  1.32545542123277E-02
 cg2d: Sum(rhs),rhsMax =  -8.63850102561514E-11  1.32225860495407E-02
 cg2d: Sum(rhs),rhsMax =  -8.66676730382210E-11  1.31867296158138E-02
 cg2d: Sum(rhs),rhsMax =  -8.69548877346915E-11  1.31470049674496E-02
 cg2d: Sum(rhs),rhsMax =  -8.73110472809913E-11  1.31034334352842E-02
 cg2d: Sum(rhs),rhsMax =  -8.76608785560506E-11  1.30560376762620E-02
 cg2d: Sum(rhs),rhsMax =  -8.80889805543461E-11  1.30048419647550E-02
 cg2d: Sum(rhs),rhsMax =  -8.85151951734997E-11  1.29498723832297E-02
 cg2d: Sum(rhs),rhsMax =  -8.89871509812679E-11  1.28911568387617E-02
 cg2d: Sum(rhs),rhsMax =  -8.95045149107432E-11  1.28287249660729E-02
 cg2d: Sum(rhs),rhsMax =  -9.00560737093770E-11  1.27626079944913E-02
 cg2d: Sum(rhs),rhsMax =  -9.06201780281890E-11  1.26928386502491E-02
 cg2d: Sum(rhs),rhsMax =  -9.12214748183260E-11  1.26194511596646E-02
 cg2d: Sum(rhs),rhsMax =  -9.18531917193377E-11  1.25424813579623E-02
 cg2d: Sum(rhs),rhsMax =  -9.25629572989806E-11  1.24619668261784E-02
 cg2d: Sum(rhs),rhsMax =  -9.33061405916646E-11  1.23779469498800E-02
 cg2d: Sum(rhs),rhsMax =  -9.40957312067781E-11  1.22904628462648E-02
 cg2d: Sum(rhs),rhsMax =  -9.48325862282218E-11  1.21995571942353E-02
 cg2d: Sum(rhs),rhsMax =  -9.56390522333095E-11  1.21052740556933E-02
 cg2d: Sum(rhs),rhsMax =  -9.64825996874197E-11  1.20076587675771E-02
 cg2d: Sum(rhs),rhsMax =  -9.73433555984116E-11  1.19067579290061E-02
 cg2d: Sum(rhs),rhsMax =  -9.82522951886722E-11  1.18026194641883E-02
 cg2d: Sum(rhs),rhsMax =  -9.92175230862813E-11  1.16952927245788E-02
 cg2d: Sum(rhs),rhsMax =  -1.00231267730067E-10  1.15848285212426E-02
 cg2d: Sum(rhs),rhsMax =  -1.01305630550996E-10  1.14712790629668E-02
 cg2d: Sum(rhs),rhsMax =  -1.02433395099411E-10  1.13546978603876E-02
 cg2d: Sum(rhs),rhsMax =  -1.03593689182446E-10  1.12351396517579E-02
 cg2d: Sum(rhs),rhsMax =  -1.04813824286509E-10  1.11126603906160E-02
 cg2d: Sum(rhs),rhsMax =  -1.06117004072814E-10  1.09873172877943E-02
 cg2d: Sum(rhs),rhsMax =  -1.07427067241872E-10  1.08591688489014E-02
 cg2d: Sum(rhs),rhsMax =  -1.08814623978049E-10  1.07282749004163E-02
 cg2d: Sum(rhs),rhsMax =  -1.10278453036017E-10  1.05946965784525E-02
 cg2d: Sum(rhs),rhsMax =  -1.11808562408555E-10  1.04584962656045E-02
 cg2d: Sum(rhs),rhsMax =  -1.13416609437422E-10  1.03197376060058E-02
 cg2d: Sum(rhs),rhsMax =  -1.15102705144920E-10  1.01784854130151E-02
 cg2d: Sum(rhs),rhsMax =  -1.16888609902333E-10  1.00348053857019E-02
 cg2d: Sum(rhs),rhsMax =  -1.18715259844748E-10  9.88876404395523E-03
 cg2d: Sum(rhs),rhsMax =  -1.20611409748506E-10  9.74042881881022E-03
 cg2d: Sum(rhs),rhsMax =  -1.22638121879959E-10  9.58986813990832E-03
 cg2d: Sum(rhs),rhsMax =  -1.24717569605082E-10  9.43715146529070E-03
 cg2d: Sum(rhs),rhsMax =  -1.26942678591035E-10  9.28234927647828E-03
 cg2d: Sum(rhs),rhsMax =  -1.29269817072952E-10  9.12553302450062E-03
 cg2d: Sum(rhs),rhsMax =  -1.31617716725430E-10  8.96677511269118E-03
 cg2d: Sum(rhs),rhsMax =  -1.34040667454371E-10  8.80614908264456E-03
 cg2d: Sum(rhs),rhsMax =  -1.36623268254255E-10  8.64372917748529E-03
 cg2d: Sum(rhs),rhsMax =  -1.39323108605538E-10  8.47959002631052E-03
 cg2d: Sum(rhs),rhsMax =  -1.42157063898196E-10  8.31380667413719E-03
 cg2d: Sum(rhs),rhsMax =  -1.45150669261795E-10  8.14645481658884E-03
 cg2d: Sum(rhs),rhsMax =  -1.48275947076115E-10  7.97761098201147E-03
 cg2d: Sum(rhs),rhsMax =  -1.51595180852837E-10  7.80735253242830E-03
 cg2d: Sum(rhs),rhsMax =  -1.55114920907806E-10  7.63575752676814E-03
 cg2d: Sum(rhs),rhsMax =  -1.58749458023522E-10  7.46290456133190E-03
 cg2d: Sum(rhs),rhsMax =  -1.62639013367993E-10  7.28887266508821E-03
 cg2d: Sum(rhs),rhsMax =  -1.66709923643538E-10  7.11374130574778E-03
 cg2d: Sum(rhs),rhsMax =  -1.71032021878403E-10  6.93759049660544E-03
 cg2d: Sum(rhs),rhsMax =  -1.75583547701308E-10  6.76050068986517E-03
(PID.TID 0000.0001)      cg2d_init_res =   2.02607108044188E-01
(PID.TID 0000.0001)      cg2d_iters(min,last) =      -1      39
(PID.TID 0000.0001)      cg2d_last_res =   6.98829296217383E-14
(PID.TID 0000.0001) // =======================================================
(PID.TID 0000.0001) // Begin MONITOR dynamic field statistics
(PID.TID 0000.0001) // =======================================================
(PID.TID 0000.0001) %MON time_tsnumber                =                  6240
(PID.TID 0000.0001) %MON time_secondsf                =   9.3600000000000E+04
(PID.TID 0000.0001) %MON dynstat_eta_max              =   6.1007312820487E-04
(PID.TID 0000.0001) %MON dynstat_eta_min              =  -1.4422876067341E-03
(PID.TID 0000.0001) %MON dynstat_eta_mean             =   2.6187165399053E-15
(PID.TID 0000.0001) %MON dynstat_eta_sd               =   4.7933597006027E-04
(PID.TID 0000.0001) %MON dynstat_eta_del2             =   3.1416376253548E-06
(PID.TID 0000.0001) %MON dynstat_uvel_max             =   2.1315280207495E-01
(PID.TID 0000.0001) %MON dynstat_uvel_min             =   5.1425709547525E-02
(PID.TID 0000.0001) %MON dynstat_uvel_mean            =   1.1297622572125E-01
(PID.TID 0000.0001) %MON dynstat_uvel_sd              =   6.5433174418248E-03
(PID.TID 0000.0001) %MON dynstat_uvel_del2            =   9.9830473674333E-05
(PID.TID 0000.0001) %MON dynstat_vvel_max             =   0.0000000000000E+00
(PID.TID 0000.0001) %MON dynstat_vvel_min             =   0.0000000000000E+00
(PID.TID 0000.0001) %MON dynstat_vvel_mean            =   0.0000000000000E+00
(PID.TID 0000.0001) %MON dynstat_vvel_sd              =   0.0000000000000E+00
(PID.TID 0000.0001) %MON dynstat_vvel_del2            =   0.0000000000000E+00
(PID.TID 0000.0001) %MON dynstat_wvel_max             =   2.7389105669541E-03
(PID.TID 0000.0001) %MON dynstat_wvel_min             =  -2.4852121596666E-03
(PID.TID 0000.0001) %MON dynstat_wvel_mean            =   4.2230980947213E-21
(PID.TID 0000.0001) %MON dynstat_wvel_sd              =   2.4205879400297E-04
(PID.TID 0000.0001) %MON dynstat_wvel_del2            =   7.0760772672179E-06
(PID.TID 0000.0001) %MON dynstat_theta_max            =   1.5000000000011E+01
(PID.TID 0000.0001) %MON dynstat_theta_min            =   9.9999999999908E+00
(PID.TID 0000.0001) %MON dynstat_theta_mean           =   1.1003776325025E+01
(PID.TID 0000.0001) %MON dynstat_theta_sd             =   1.9375706027782E+00
(PID.TID 0000.0001) %MON dynstat_theta_del2           =   4.1871307167454E-05
(PID.TID 0000.0001) %MON dynstat_salt_max             =   3.5000000000000E+01
(PID.TID 0000.0001) %MON dynstat_salt_min             =   3.5000000000000E+01
(PID.TID 0000.0001) %MON dynstat_salt_mean            =   3.5000000000000E+01
(PID.TID 0000.0001) %MON dynstat_salt_sd              =   4.0500935938326E-13
(PID.TID 0000.0001) %MON dynstat_salt_del2            =   0.0000000000000E+00
(PID.TID 0000.0001) %MON dynstat_sst_max              =   1.5000000000011E+01
(PID.TID 0000.0001) %MON dynstat_sst_min              =   1.5000000000000E+01
(PID.TID 0000.0001) %MON dynstat_sst_mean             =   1.5000000000009E+01
(PID.TID 0000.0001) %MON dynstat_sst_sd               =   4.3486936232424E-12
(PID.TID 0000.0001) %MON dynstat_sst_del2             =   2.6104491299872E-14
(PID.TID 0000.0001) %MON dynstat_sss_max              =   3.5000000000000E+01
(PID.TID 0000.0001) %MON dynstat_sss_min              =   3.5000000000000E+01
(PID.TID 0000.0001) %MON dynstat_sss_mean             =   3.5000000000000E+01
(PID.TID 0000.0001) %MON dynstat_sss_sd               =   4.2632564145606E-14
(PID.TID 0000.0001) %MON dynstat_sss_del2             =   0.0000000000000E+00
(PID.TID 0000.0001) %MON forcing_qnet_max             =   0.0000000000000E+00
(PID.TID 0000.0001) %MON forcing_qnet_min             =   0.0000000000000E+00
(PID.TID 0000.0001) %MON forcing_qnet_mean            =   0.0000000000000E+00
(PID.TID 0000.0001) %MON forcing_qnet_sd              =   0.0000000000000E+00
(PID.TID 0000.0001) %MON forcing_qnet_del2            =   0.0000000000000E+00
(PID.TID 0000.0001) %MON forcing_qsw_max              =   0.0000000000000E+00
(PID.TID 0000.0001) %MON forcing_qsw_min              =   0.0000000000000E+00
(PID.TID 0000.0001) %MON forcing_qsw_mean             =   0.0000000000000E+00
(PID.TID 0000.0001) %MON forcing_qsw_sd               =   0.0000000000000E+00
(PID.TID 0000.0001) %MON forcing_qsw_del2             =   0.0000000000000E+00
(PID.TID 0000.0001) %MON forcing_empmr_max            =   0.0000000000000E+00
(PID.TID 0000.0001) %MON forcing_empmr_min            =   0.0000000000000E+00
(PID.TID 0000.0001) %MON forcing_empmr_mean           =   0.0000000000000E+00
(PID.TID 0000.0001) %MON forcing_empmr_sd             =   0.0000000000000E+00
(PID.TID 0000.0001) %MON forcing_empmr_del2           =   0.0000000000000E+00
(PID.TID 0000.0001) %MON forcing_fu_max               =   0.0000000000000E+00
(PID.TID 0000.0001) %MON forcing_fu_min               =   0.0000000000000E+00
(PID.TID 0000.0001) %MON forcing_fu_mean              =   0.0000000000000E+00
(PID.TID 0000.0001) %MON forcing_fu_sd                =   0.0000000000000E+00
(PID.TID 0000.0001) %MON forcing_fu_del2              =   0.0000000000000E+00
(PID.TID 0000.0001) %MON forcing_fv_max               =   0.0000000000000E+00
(PID.TID 0000.0001) %MON forcing_fv_min               =   0.0000000000000E+00
(PID.TID 0000.0001) %MON forcing_fv_mean              =   0.0000000000000E+00
(PID.TID 0000.0001) %MON forcing_fv_sd                =   0.0000000000000E+00
(PID.TID 0000.0001) %MON forcing_fv_del2              =   0.0000000000000E+00
(PID.TID 0000.0001) %MON advcfl_uvel_max              =   1.2775161903298E-02
(PID.TID 0000.0001) %MON advcfl_vvel_max              =   0.0000000000000E+00
(PID.TID 0000.0001) %MON advcfl_wvel_max              =   3.8045095945783E-02
(PID.TID 0000.0001) %MON advcfl_W_hf_max              =   3.8459003921888E-02
(PID.TID 0000.0001) %MON pe_b_mean                    =   5.6946062652069E-09
(PID.TID 0000.0001) %MON ke_max                       =   1.3863394623836E-02
(PID.TID 0000.0001) %MON ke_mean                      =   6.4026858223816E-03
(PID.TID 0000.0001) %MON ke_vol                       =   9.6656886657870E+10
(PID.TID 0000.0001) %MON vort_r_min                   =   0.0000000000000E+00
(PID.TID 0000.0001) %MON vort_r_max                   =   0.0000000000000E+00
(PID.TID 0000.0001) %MON vort_a_mean                  =   0.0000000000000E+00
(PID.TID 0000.0001) %MON vort_a_sd                    =   0.0000000000000E+00
(PID.TID 0000.0001) %MON vort_p_mean                  =   0.0000000000000E+00
(PID.TID 0000.0001) %MON vort_p_sd                    =   0.0000000000000E+00
(PID.TID 0000.0001) %MON surfExpan_theta_mean         =  -2.1348782135581E-18
(PID.TID 0000.0001) %MON surfExpan_salt_mean          =   1.5432854555842E-19
(PID.TID 0000.0001) // =======================================================
(PID.TID 0000.0001) // End MONITOR dynamic field statistics
(PID.TID 0000.0001) // =======================================================
(PID.TID 0000.0001) // =======================================================
(PID.TID 0000.0001) // Begin OBCS MONITOR field statistics
(PID.TID 0000.0001) // =======================================================
(PID.TID 0000.0001) %MON obc_E_uVel_max               =   1.1205712828732E-01
(PID.TID 0000.0001) %MON obc_E_uVel_min               =   1.1205712828732E-01
(PID.TID 0000.0001) %MON obc_E_uVel_mean              =   1.1205712828732E-01
(PID.TID 0000.0001) %MON obc_E_uVel_sd                =  -1.2143064331838E-17
(PID.TID 0000.0001) %MON obc_E_uVel_Int               =   1.1205712828732E+05
(PID.TID 0000.0001) %MON obc_W_uVel_max               =   1.1205712828732E-01
(PID.TID 0000.0001) %MON obc_W_uVel_min               =   1.1205712828732E-01
(PID.TID 0000.0001) %MON obc_W_uVel_mean              =   1.1205712828732E-01
(PID.TID 0000.0001) %MON obc_W_uVel_sd                =  -1.2143064331838E-17
(PID.TID 0000.0001) %MON obc_W_uVel_Int               =   1.1205712828732E+05
(PID.TID 0000.0001) // =======================================================
(PID.TID 0000.0001) // End OBCS MONITOR field statistics
(PID.TID 0000.0001) // =======================================================
 cg2d: Sum(rhs),rhsMax =  -1.80403803007323E-10  6.58255224059407E-03
 cg2d: Sum(rhs),rhsMax =  -1.85541249031473E-10  6.40382572975521E-03
 cg2d: Sum(rhs),rhsMax =  -1.90940430133679E-10  6.22440219757137E-03
 cg2d: Sum(rhs),rhsMax =  -1.96702487631484E-10  6.04436319332531E-03
 cg2d: Sum(rhs),rhsMax =  -2.02885208633319E-10  5.86379058878665E-03
 cg2d: Sum(rhs),rhsMax =  -2.09425532471386E-10  5.68276633634129E-03
 cg2d: Sum(rhs),rhsMax =  -2.16417939125080E-10  5.50137236577488E-03
 cg2d: Sum(rhs),rhsMax =  -2.23947138611180E-10  5.31969064061834E-03
 cg2d: Sum(rhs),rhsMax =  -2.31997560051767E-10  5.13780326030959E-03
 cg2d: Sum(rhs),rhsMax =  -2.40637648696307E-10  4.95579249483322E-03
 cg2d: Sum(rhs),rhsMax =  -2.49902626370258E-10  4.77374071497236E-03
 cg2d: Sum(rhs),rhsMax =  -2.59816133885149E-10  4.59173028074265E-03
 cg2d: Sum(rhs),rhsMax =  -2.70580870209702E-10  4.40984344097288E-03
 cg2d: Sum(rhs),rhsMax =  -2.82240439353210E-10  4.22816226963875E-03
 cg2d: Sum(rhs),rhsMax =  -2.94919103027702E-10  4.04676863493494E-03
 cg2d: Sum(rhs),rhsMax =  -3.08774922297417E-10  3.86574418335145E-03
 cg2d: Sum(rhs),rhsMax =  -3.23948035063637E-10  3.68517032300307E-03
 cg2d: Sum(rhs),rhsMax =  -3.40650230246098E-10  3.50512819901231E-03
 cg2d: Sum(rhs),rhsMax =  -3.59082097389773E-10  3.32569866093512E-03
 cg2d: Sum(rhs),rhsMax =  -3.79541398309868E-10  3.14696222530913E-03
 cg2d: Sum(rhs),rhsMax =  -3.86995102630294E-10  3.08638471985193E-03
 cg2d: Sum(rhs),rhsMax =  -3.69750341455699E-10  3.23076167387001E-03
 cg2d: Sum(rhs),rhsMax =  -3.54100415655978E-10  3.37408711070262E-03
 cg2d: Sum(rhs),rhsMax =  -3.39792860515331E-10  3.51629588190405E-03
 cg2d: Sum(rhs),rhsMax =  -3.26792926053088E-10  3.65732329120186E-03
 cg2d: Sum(rhs),rhsMax =  -3.11728753921159E-10  3.83395180861155E-03
 cg2d: Sum(rhs),rhsMax =  -2.92338930840685E-10  4.08940731517786E-03
 cg2d: Sum(rhs),rhsMax =  -2.75303890795442E-10  4.34304140376451E-03
 cg2d: Sum(rhs),rhsMax =  -2.60252042139086E-10  4.59474129005581E-03
 cg2d: Sum(rhs),rhsMax =  -2.46930031977399E-10  4.84439512325618E-03
 cg2d: Sum(rhs),rhsMax =  -2.35061636821854E-10  5.09189203271899E-03
 cg2d: Sum(rhs),rhsMax =  -2.24329776976617E-10  5.33712217542103E-03
 cg2d: Sum(rhs),rhsMax =  -2.14631867834214E-10  5.57997678378801E-03
 cg2d: Sum(rhs),rhsMax =  -2.05855998913762E-10  5.82034821275484E-03
 cg2d: Sum(rhs),rhsMax =  -1.97874605589732E-10  6.05812999339763E-03
 cg2d: Sum(rhs),rhsMax =  -1.90583548942413E-10  6.29321688525277E-03
 cg2d: Sum(rhs),rhsMax =  -1.83858817059956E-10  6.52550492737949E-03
 cg2d: Sum(rhs),rhsMax =  -1.77685643976133E-10  6.75489148797292E-03
 cg2d: Sum(rhs),rhsMax =  -1.71952896366179E-10  6.98127531589730E-03
 cg2d: Sum(rhs),rhsMax =  -1.66726077388546E-10  7.20455658758379E-03
 cg2d: Sum(rhs),rhsMax =  -1.61843427548547E-10  7.42463695429314E-03
 cg2d: Sum(rhs),rhsMax =  -1.57317603388663E-10  7.64141958906383E-03
 cg2d: Sum(rhs),rhsMax =  -1.53057011509361E-10  7.85480923254505E-03
 cg2d: Sum(rhs),rhsMax =  -1.49142032057625E-10  8.06471223702053E-03
 cg2d: Sum(rhs),rhsMax =  -1.45487955016677E-10  8.27103660819766E-03
 cg2d: Sum(rhs),rhsMax =  -1.42100664568545E-10  8.47369204489090E-03
 cg2d: Sum(rhs),rhsMax =  -1.38975497776528E-10  8.67258997713857E-03
 cg2d: Sum(rhs),rhsMax =  -1.35995437133829E-10  8.86764360343974E-03
 cg2d: Sum(rhs),rhsMax =  -1.33245747768740E-10  9.05876792770784E-03
 cg2d: Sum(rhs),rhsMax =  -1.30685129384744E-10  9.24587979627616E-03
 cg2d: Sum(rhs),rhsMax =  -1.28241750552149E-10  9.42889793491222E-03
 cg2d: Sum(rhs),rhsMax =  -1.25995658351030E-10  9.60774298537910E-03
 cg2d: Sum(rhs),rhsMax =  -1.23822951891839E-10  9.78233754049502E-03
 cg2d: Sum(rhs),rhsMax =  -1.21768706229375E-10  9.95260617736057E-03
 cg2d: Sum(rhs),rhsMax =  -1.19900755990443E-10  1.01184754877045E-02
 cg2d: Sum(rhs),rhsMax =  -1.18056453501936E-10  1.02798741045702E-02
 cg2d: Sum(rhs),rhsMax =  -1.16380349801659E-10  1.04367327255361E-02
 cg2d: Sum(rhs),rhsMax =  -1.14773524018119E-10  1.05889841333280E-02
 cg2d: Sum(rhs),rhsMax =  -1.13286602321239E-10  1.07365632151250E-02
 cg2d: Sum(rhs),rhsMax =  -1.11846532035997E-10  1.08794069819687E-02
 cg2d: Sum(rhs),rhsMax =  -1.10525921748206E-10  1.10174545894996E-02
 cg2d: Sum(rhs),rhsMax =  -1.09232178857610E-10  1.11506473608825E-02
 cg2d: Sum(rhs),rhsMax =  -1.08071107618457E-10  1.12789288134794E-02
 cg2d: Sum(rhs),rhsMax =  -1.06936237642685E-10  1.14022446885989E-02
 cg2d: Sum(rhs),rhsMax =  -1.05975894726384E-10  1.15205429794070E-02
 cg2d: Sum(rhs),rhsMax =  -1.05023101326651E-10  1.16337739623632E-02
 cg2d: Sum(rhs),rhsMax =  -1.04148800694759E-10  1.17418902309835E-02
 cg2d: Sum(rhs),rhsMax =  -1.03359432124250E-10  1.18448467304633E-02
 cg2d: Sum(rhs),rhsMax =  -1.02594044371074E-10  1.19426007915005E-02
 cg2d: Sum(rhs),rhsMax =  -1.01893826709443E-10  1.20351121620711E-02
 cg2d: Sum(rhs),rhsMax =  -1.01259112206264E-10  1.21223430373772E-02
 cg2d: Sum(rhs),rhsMax =  -1.00671582181633E-10  1.22042580854202E-02
 cg2d: Sum(rhs),rhsMax =  -1.00086716692260E-10  1.22808244634479E-02
 cg2d: Sum(rhs),rhsMax =  -9.95661331160136E-11  1.23520118315762E-02
 cg2d: Sum(rhs),rhsMax =  -9.90837412118140E-11  1.24177923696595E-02
 cg2d: Sum(rhs),rhsMax =  -9.86706272243509E-11  1.24781407839528E-02
 cg2d: Sum(rhs),rhsMax =  -9.82750547606770E-11  1.25330343049024E-02
 cg2d: Sum(rhs),rhsMax =  -9.79838432613178E-11  1.25824526783204E-02
 cg2d: Sum(rhs),rhsMax =  -9.77056213713468E-11  1.26263781596244E-02
 cg2d: Sum(rhs),rhsMax =  -9.75153291449260E-11  1.26647954970180E-02
 cg2d: Sum(rhs),rhsMax =  -9.73063851716915E-11  1.26976919066211E-02
 cg2d: Sum(rhs),rhsMax =  -9.71793756576744E-11  1.27250570532538E-02
 cg2d: Sum(rhs),rhsMax =  -9.70999947114137E-11  1.27468830361612E-02
 cg2d: Sum(rhs),rhsMax =  -9.70326041738190E-11  1.27631643785096E-02
 cg2d: Sum(rhs),rhsMax =  -9.70343805306584E-11  1.27738980197425E-02
 cg2d: Sum(rhs),rhsMax =  -9.70585833925952E-11  1.27790833104957E-02
 cg2d: Sum(rhs),rhsMax =  -9.70009628176172E-11  1.27787220101097E-02
 cg2d: Sum(rhs),rhsMax =  -9.69746505319335E-11  1.27728182865543E-02
 cg2d: Sum(rhs),rhsMax =  -9.69352376145594E-11  1.27613787193459E-02
 cg2d: Sum(rhs),rhsMax =  -9.70334923522387E-11  1.27444123043648E-02
 cg2d: Sum(rhs),rhsMax =  -9.71688285389405E-11  1.27219304576849E-02
 cg2d: Sum(rhs),rhsMax =  -9.73247038515979E-11  1.26939470167065E-02
 cg2d: Sum(rhs),rhsMax =  -9.74937908182483E-11  1.26604782390954E-02
 cg2d: Sum(rhs),rhsMax =  -9.77385949951781E-11  1.26215428008807E-02
 cg2d: Sum(rhs),rhsMax =  -9.80110437254211E-11  1.25771617922342E-02
 cg2d: Sum(rhs),rhsMax =  -9.83807479926213E-11  1.25273587100700E-02
 cg2d: Sum(rhs),rhsMax =  -9.87527837281732E-11  1.24721594385162E-02
 cg2d: Sum(rhs),rhsMax =  -9.91688953178027E-11  1.24115922416860E-02
 cg2d: Sum(rhs),rhsMax =  -9.96307480960468E-11  1.23456877537004E-02
 cg2d: Sum(rhs),rhsMax =  -1.00184194273822E-10  1.22744789614232E-02
 cg2d: Sum(rhs),rhsMax =  -1.00726760265957E-10  1.21980011830628E-02
 cg2d: Sum(rhs),rhsMax =  -1.01281649733664E-10  1.21162920454416E-02
 cg2d: Sum(rhs),rhsMax =  -1.01954777953495E-10  1.20293914617934E-02
 cg2d: Sum(rhs),rhsMax =  -1.02635122622985E-10  1.19373416108846E-02
 cg2d: Sum(rhs),rhsMax =  -1.03413499985550E-10  1.18401869174790E-02
 cg2d: Sum(rhs),rhsMax =  -1.04218411678403E-10  1.17379740340840E-02
 cg2d: Sum(rhs),rhsMax =  -1.05085717905240E-10  1.16307518244310E-02
 cg2d: Sum(rhs),rhsMax =  -1.05967901120607E-10  1.15185713427031E-02
 cg2d: Sum(rhs),rhsMax =  -1.07024278328538E-10  1.14014858099989E-02
 cg2d: Sum(rhs),rhsMax =  -1.08127728992713E-10  1.12795505916797E-02
 cg2d: Sum(rhs),rhsMax =  -1.09297126904551E-10  1.11528231732448E-02
 cg2d: Sum(rhs),rhsMax =  -1.10505604666855E-10  1.10213631327990E-02
 cg2d: Sum(rhs),rhsMax =  -1.11848641459744E-10  1.08852321096854E-02
 cg2d: Sum(rhs),rhsMax =  -1.13216103159175E-10  1.07444937687198E-02
 cg2d: Sum(rhs),rhsMax =  -1.14697140674025E-10  1.05992137575586E-02
 cg2d: Sum(rhs),rhsMax =  -1.16292642182714E-10  1.04494596647338E-02
 cg2d: Sum(rhs),rhsMax =  -1.17969078949898E-10  1.02953009865448E-02
 cg2d: Sum(rhs),rhsMax =  -1.19716569990658E-10  1.01368090899378E-02
 cg2d: Sum(rhs),rhsMax =  -1.21598620062002E-10  9.97405717182911E-03
 cg2d: Sum(rhs),rhsMax =  -1.23570043086829E-10  9.80712022191256E-03
 cg2d: Sum(rhs),rhsMax =  -1.25671473227840E-10  9.63607498781268E-03
 cg2d: Sum(rhs),rhsMax =  -1.27902133328917E-10  9.46099994300128E-03
 cg2d: Sum(rhs),rhsMax =  -1.30267685527485E-10  9.28197525867726E-03
 cg2d: Sum(rhs),rhsMax =  -1.32779787165305E-10  9.09908277935054E-03
 cg2d: Sum(rhs),rhsMax =  -1.35448985361108E-10  8.91240600095611E-03
 cg2d: Sum(rhs),rhsMax =  -1.38332123533758E-10  8.72203005212486E-03
 cg2d: Sum(rhs),rhsMax =  -1.41365252837033E-10  8.52804168140443E-03
 cg2d: Sum(rhs),rhsMax =  -1.44594336504156E-10  8.33052921990469E-03
 cg2d: Sum(rhs),rhsMax =  -1.47989065446552E-10  8.12958254651079E-03
 cg2d: Sum(rhs),rhsMax =  -1.51677004289752E-10  7.92529305320869E-03
 cg2d: Sum(rhs),rhsMax =  -1.55683244074112E-10  7.71775360721573E-03
 cg2d: Sum(rhs),rhsMax =  -1.60005786398187E-10  7.50705850740949E-03
 cg2d: Sum(rhs),rhsMax =  -1.64678271019625E-10  7.29330343415436E-03
 cg2d: Sum(rhs),rhsMax =  -1.69657510262766E-10  7.07658539323587E-03
 cg2d: Sum(rhs),rhsMax =  -1.75041647842988E-10  6.85700265564699E-03
 cg2d: Sum(rhs),rhsMax =  -1.80873316324437E-10  6.63465469532061E-03
 cg2d: Sum(rhs),rhsMax =  -1.87141302454563E-10  6.40964212671971E-03
 cg2d: Sum(rhs),rhsMax =  -1.93976612550273E-10  6.18206664374986E-03
 cg2d: Sum(rhs),rhsMax =  -2.01392902354769E-10  5.95203096093738E-03
 cg2d: Sum(rhs),rhsMax =  -2.09524064764821E-10  5.71963875734898E-03
 cg2d: Sum(rhs),rhsMax =  -2.18387974371126E-10  5.48499462336573E-03
 cg2d: Sum(rhs),rhsMax =  -2.28195018436850E-10  5.24820401017906E-03
 cg2d: Sum(rhs),rhsMax =  -2.38956521236844E-10  5.00937318175526E-03
 cg2d: Sum(rhs),rhsMax =  -2.50942600033000E-10  4.76860916914437E-03
 cg2d: Sum(rhs),rhsMax =  -2.64288035900506E-10  4.52601972668836E-03
 cg2d: Sum(rhs),rhsMax =  -2.79284484427933E-10  4.28171328942818E-03
 cg2d: Sum(rhs),rhsMax =  -2.96307423042208E-10  4.03579893180758E-03
 cg2d: Sum(rhs),rhsMax =  -3.15573012166226E-10  3.78838632753803E-03
 cg2d: Sum(rhs),rhsMax =  -3.37626371305078E-10  3.53958571008994E-03
 cg2d: Sum(rhs),rhsMax =  -3.63305163730843E-10  3.28950783299586E-03
 cg2d: Sum(rhs),rhsMax =  -3.63972629813247E-10  3.28341947796347E-03
 cg2d: Sum(rhs),rhsMax =  -3.44805461960362E-10  3.46557393086247E-03
 cg2d: Sum(rhs),rhsMax =  -3.27492977181265E-10  3.64818810097461E-03
 cg2d: Sum(rhs),rhsMax =  -3.11781100936770E-10  3.83118155355670E-03
 cg2d: Sum(rhs),rhsMax =  -2.97516067337966E-10  4.01447354954996E-03
 cg2d: Sum(rhs),rhsMax =  -2.84516549209357E-10  4.19798309574500E-03
 cg2d: Sum(rhs),rhsMax =  -2.72545930268819E-10  4.38162909917663E-03
 cg2d: Sum(rhs),rhsMax =  -2.61535224033160E-10  4.56533051176037E-03
 cg2d: Sum(rhs),rhsMax =  -2.51393392214361E-10  4.74900639628227E-03
 cg2d: Sum(rhs),rhsMax =  -2.41954796476040E-10  4.93257592546039E-03
 cg2d: Sum(rhs),rhsMax =  -2.33173279295951E-10  5.11595836567830E-03
 cg2d: Sum(rhs),rhsMax =  -2.25040930335041E-10  5.29907308582257E-03
 cg2d: Sum(rhs),rhsMax =  -2.17426604498527E-10  5.48183962827782E-03
 cg2d: Sum(rhs),rhsMax =  -2.10328782168645E-10  5.66417745693494E-03
 cg2d: Sum(rhs),rhsMax =  -2.03702471557321E-10  5.84600637734687E-03
 cg2d: Sum(rhs),rhsMax =  -1.97496352605242E-10  6.02724666641531E-03
 cg2d: Sum(rhs),rhsMax =  -1.91664017989979E-10  6.20781855660657E-03
 cg2d: Sum(rhs),rhsMax =  -1.86206994268190E-10  6.38764274864939E-03
 cg2d: Sum(rhs),rhsMax =  -1.81050618941470E-10  6.56664057183182E-03
 cg2d: Sum(rhs),rhsMax =  -1.76192116452256E-10  6.74473392530494E-03
 cg2d: Sum(rhs),rhsMax =  -1.71605285537169E-10  6.92184518802543E-03
 cg2d: Sum(rhs),rhsMax =  -1.67266978046143E-10  7.09789718527512E-03
 cg2d: Sum(rhs),rhsMax =  -1.63155766674805E-10  7.27281321028276E-03
 cg2d: Sum(rhs),rhsMax =  -1.59276702937916E-10  7.44651706814250E-03
 cg2d: Sum(rhs),rhsMax =  -1.55618407049474E-10  7.61893313518832E-03
 cg2d: Sum(rhs),rhsMax =  -1.52131029995672E-10  7.78998637510211E-03
 cg2d: Sum(rhs),rhsMax =  -1.48812906441975E-10  7.95960017335762E-03
 cg2d: Sum(rhs),rhsMax =  -1.45671974483008E-10  8.12769874810171E-03
 cg2d: Sum(rhs),rhsMax =  -1.42689526860806E-10  8.29420823228721E-03
 cg2d: Sum(rhs),rhsMax =  -1.39858680192617E-10  8.45905632571321E-03
 cg2d: Sum(rhs),rhsMax =  -1.37126199284410E-10  8.62217161489226E-03
 cg2d: Sum(rhs),rhsMax =  -1.34605326884696E-10  8.78348321565172E-03
 cg2d: Sum(rhs),rhsMax =  -1.32128530339060E-10  8.94291906321070E-03
 cg2d: Sum(rhs),rhsMax =  -1.29710908680636E-10  9.10040592794586E-03
 cg2d: Sum(rhs),rhsMax =  -1.27431176721871E-10  9.25587288947454E-03
 cg2d: Sum(rhs),rhsMax =  -1.25221388813657E-10  9.40925184686650E-03
 cg2d: Sum(rhs),rhsMax =  -1.23117183115085E-10  9.56047661088460E-03
 cg2d: Sum(rhs),rhsMax =  -1.21157528454319E-10  9.70948199995354E-03
 cg2d: Sum(rhs),rhsMax =  -1.19216969629576E-10  9.85620346717561E-03
 cg2d: Sum(rhs),rhsMax =  -1.17362453089243E-10  1.00005771474314E-02
 cg2d: Sum(rhs),rhsMax =  -1.15612963647038E-10  1.01425400479706E-02
 cg2d: Sum(rhs),rhsMax =  -1.13952958180619E-10  1.02820302065429E-02
 cg2d: Sum(rhs),rhsMax =  -1.12357567694232E-10  1.04189867761547E-02
 cg2d: Sum(rhs),rhsMax =  -1.10842224287921E-10  1.05533489130391E-02
 cg2d: Sum(rhs),rhsMax =  -1.09362296996096E-10  1.06850556405657E-02
 cg2d: Sum(rhs),rhsMax =  -1.07945319349767E-10  1.08140481019728E-02
 cg2d: Sum(rhs),rhsMax =  -1.06608610828118E-10  1.09402698919773E-02
 cg2d: Sum(rhs),rhsMax =  -1.05365383085143E-10  1.10636664807189E-02
 cg2d: Sum(rhs),rhsMax =  -1.04140029932864E-10  1.11841846444946E-02
 cg2d: Sum(rhs),rhsMax =  -1.03007491425444E-10  1.13017721074100E-02
 cg2d: Sum(rhs),rhsMax =  -1.01887387415900E-10  1.14163777484189E-02
 cg2d: Sum(rhs),rhsMax =  -1.00843666750450E-10  1.15279518448970E-02
 cg2d: Sum(rhs),rhsMax =  -9.98400251361886E-11  1.16364461237536E-02
 cg2d: Sum(rhs),rhsMax =  -9.88473747298713E-11  1.17418136911033E-02
 cg2d: Sum(rhs),rhsMax =  -9.79530900835357E-11  1.18440089754746E-02
 cg2d: Sum(rhs),rhsMax =  -9.70487024076760E-11  1.19429877392424E-02
 cg2d: Sum(rhs),rhsMax =  -9.62144808269727E-11  1.20387071343381E-02
 cg2d: Sum(rhs),rhsMax =  -9.54399892449942E-11  1.21311257595296E-02
 cg2d: Sum(rhs),rhsMax =  -9.46742684249102E-11  1.22202036978108E-02
 cg2d: Sum(rhs),rhsMax =  -9.39734956517668E-11  1.23059025361534E-02
 cg2d: Sum(rhs),rhsMax =  -9.31916765978258E-11  1.23881853781278E-02
 cg2d: Sum(rhs),rhsMax =  -9.25201026902300E-11  1.24670168559360E-02
 cg2d: Sum(rhs),rhsMax =  -9.18528586524303E-11  1.25423631421305E-02
 cg2d: Sum(rhs),rhsMax =  -9.12330211377821E-11  1.26141919588965E-02
 cg2d: Sum(rhs),rhsMax =  -9.06700270419947E-11  1.26824725881577E-02
 cg2d: Sum(rhs),rhsMax =  -9.01397845254337E-11  1.27471758813759E-02
 cg2d: Sum(rhs),rhsMax =  -8.95985508009289E-11  1.28082742663763E-02
 cg2d: Sum(rhs),rhsMax =  -8.91334783759135E-11  1.28657417430542E-02
 cg2d: Sum(rhs),rhsMax =  -8.86855033854772E-11  1.29195538984255E-02
 cg2d: Sum(rhs),rhsMax =  -8.82854900297048E-11  1.29696879217242E-02
 cg2d: Sum(rhs),rhsMax =  -8.79033512646288E-11  1.30161226111900E-02
 cg2d: Sum(rhs),rhsMax =  -8.74842420728328E-11  1.30688766944538E-02
 cg2d: Sum(rhs),rhsMax =  -8.70941097019795E-11  1.31180042944777E-02
 cg2d: Sum(rhs),rhsMax =  -8.67215188549153E-11  1.31633152505445E-02
 cg2d: Sum(rhs),rhsMax =  -8.64058824490144E-11  1.32047934536053E-02
 cg2d: Sum(rhs),rhsMax =  -8.61167803734020E-11  1.32424246761104E-02
 cg2d: Sum(rhs),rhsMax =  -8.57949267185631E-11  1.32761963654665E-02
 cg2d: Sum(rhs),rhsMax =  -8.55160386947773E-11  1.33060975411762E-02
 cg2d: Sum(rhs),rhsMax =  -8.52868886624947E-11  1.33321187584314E-02
 cg2d: Sum(rhs),rhsMax =  -8.50719494849272E-11  1.33542522030098E-02
 cg2d: Sum(rhs),rhsMax =  -8.49161851945723E-11  1.33724918978210E-02
 cg2d: Sum(rhs),rhsMax =  -8.47493186739712E-11  1.33868338924771E-02
 cg2d: Sum(rhs),rhsMax =  -8.46032133239305E-11  1.33972726686526E-02
 cg2d: Sum(rhs),rhsMax =  -8.44838643487833E-11  1.34038029010427E-02
 cg2d: Sum(rhs),rhsMax =  -8.44685432710435E-11  1.34064235975207E-02
 cg2d: Sum(rhs),rhsMax =  -8.45837844209996E-11  1.34051379069668E-02
 cg2d: Sum(rhs),rhsMax =  -8.47604209042174E-11  1.33999515097695E-02
 cg2d: Sum(rhs),rhsMax =  -8.49288417370531E-11  1.33908715294423E-02
 cg2d: Sum(rhs),rhsMax =  -8.50531867158111E-11  1.33779063164154E-02
 cg2d: Sum(rhs),rhsMax =  -8.51905213039572E-11  1.33610655889308E-02
 cg2d: Sum(rhs),rhsMax =  -8.54012416340311E-11  1.33403605879678E-02
 cg2d: Sum(rhs),rhsMax =  -8.56413828742575E-11  1.33158041959115E-02
 cg2d: Sum(rhs),rhsMax =  -8.58847437612553E-11  1.32874110217307E-02
 cg2d: Sum(rhs),rhsMax =  -8.62050431038597E-11  1.32551974294238E-02
 cg2d: Sum(rhs),rhsMax =  -8.64791571686396E-11  1.32191814948808E-02
 cg2d: Sum(rhs),rhsMax =  -8.67814708982451E-11  1.31793829385060E-02
 cg2d: Sum(rhs),rhsMax =  -8.71100969135341E-11  1.31358196820407E-02
 cg2d: Sum(rhs),rhsMax =  -8.75028938196465E-11  1.30885064799033E-02
 cg2d: Sum(rhs),rhsMax =  -8.78965789041786E-11  1.30374634746796E-02
 cg2d: Sum(rhs),rhsMax =  -8.83376705118621E-11  1.29827171495204E-02
 cg2d: Sum(rhs),rhsMax =  -8.88019657807604E-11  1.29242978187249E-02
 cg2d: Sum(rhs),rhsMax =  -8.92929064022496E-11  1.28622373319915E-02
 cg2d: Sum(rhs),rhsMax =  -8.98507934721238E-11  1.27965682166325E-02
 cg2d: Sum(rhs),rhsMax =  -9.04236685528303E-11  1.27273238408076E-02
 cg2d: Sum(rhs),rhsMax =  -9.09921027414384E-11  1.26545388450871E-02
 cg2d: Sum(rhs),rhsMax =  -9.16480225043870E-11  1.25782494221533E-02
 cg2d: Sum(rhs),rhsMax =  -9.23258136609206E-11  1.24984933785278E-02
 cg2d: Sum(rhs),rhsMax =  -9.30442389801556E-11  1.24153100583759E-02
 cg2d: Sum(rhs),rhsMax =  -9.38275013240286E-11  1.23287402159215E-02
 cg2d: Sum(rhs),rhsMax =  -9.46321909722769E-11  1.22388258947350E-02
 cg2d: Sum(rhs),rhsMax =  -9.53817025362014E-11  1.21456103509138E-02
 cg2d: Sum(rhs),rhsMax =  -9.61852819614251E-11  1.20491380379114E-02
 cg2d: Sum(rhs),rhsMax =  -9.70664659760700E-11  1.19494539149695E-02
 cg2d: Sum(rhs),rhsMax =  -9.79674119605534E-11  1.18465993712660E-02
 cg2d: Sum(rhs),rhsMax =  -9.89115456206946E-11  1.17406189645541E-02
 cg2d: Sum(rhs),rhsMax =  -9.98996441126110E-11  1.16315617884553E-02
 cg2d: Sum(rhs),rhsMax =  -1.00941477398919E-10  1.15194799889391E-02
 cg2d: Sum(rhs),rhsMax =  -1.02019059866620E-10  1.14044271499661E-02
 cg2d: Sum(rhs),rhsMax =  -1.03159480957515E-10  1.12864577643841E-02
 cg2d: Sum(rhs),rhsMax =  -1.04343089724068E-10  1.11656273550195E-02
 cg2d: Sum(rhs),rhsMax =  -1.05588870980000E-10  1.10419926710554E-02
 cg2d: Sum(rhs),rhsMax =  -1.06908482067070E-10  1.09156116435256E-02
 cg2d: Sum(rhs),rhsMax =  -1.08229869510978E-10  1.07865434593903E-02
 cg2d: Sum(rhs),rhsMax =  -1.09644515688956E-10  1.06548486287854E-02
 cg2d: Sum(rhs),rhsMax =  -1.11151976511792E-10  1.05205890042043E-02
 cg2d: Sum(rhs),rhsMax =  -1.12712728039810E-10  1.03838277575263E-02
 cg2d: Sum(rhs),rhsMax =  -1.14345199975219E-10  1.02446293229097E-02
 cg2d: Sum(rhs),rhsMax =  -1.16024856389174E-10  1.01030592961700E-02
 cg2d: Sum(rhs),rhsMax =  -1.17810317057376E-10  9.95918433241247E-03
 cg2d: Sum(rhs),rhsMax =  -1.19670939824346E-10  9.81307209337822E-03
 cg2d: Sum(rhs),rhsMax =  -1.21617493853421E-10  9.66479118570336E-03
 cg2d: Sum(rhs),rhsMax =  -1.23668075779904E-10  9.51441106376817E-03
 cg2d: Sum(rhs),rhsMax =  -1.25790933225289E-10  9.36200194464014E-03
 cg2d: Sum(rhs),rhsMax =  -1.28022592527088E-10  9.20763495604100E-03
 cg2d: Sum(rhs),rhsMax =  -1.30327082459303E-10  9.05138199982227E-03
 cg2d: Sum(rhs),rhsMax =  -1.32757915771720E-10  8.89331556450940E-03
 cg2d: Sum(rhs),rhsMax =  -1.35313427129802E-10  8.73350874067372E-03
 cg2d: Sum(rhs),rhsMax =  -1.37908462427561E-10  8.57203536238891E-03
 cg2d: Sum(rhs),rhsMax =  -1.40633615863806E-10  8.40897009950406E-03
 cg2d: Sum(rhs),rhsMax =  -1.43462464130550E-10  8.24438841589372E-03
 cg2d: Sum(rhs),rhsMax =  -1.46473944084846E-10  8.07836643308423E-03
 cg2d: Sum(rhs),rhsMax =  -1.49666556925609E-10  7.91098103053421E-03
 cg2d: Sum(rhs),rhsMax =  -1.52980572654116E-10  7.74230952406746E-03
 cg2d: Sum(rhs),rhsMax =  -1.56458290767603E-10  7.57242948581379E-03
 cg2d: Sum(rhs),rhsMax =  -1.60142177296763E-10  7.40141880672679E-03
 cg2d: Sum(rhs),rhsMax =  -1.64025959481506E-10  7.22935577262444E-03
 cg2d: Sum(rhs),rhsMax =  -1.68125180444179E-10  7.05631911928785E-03
 cg2d: Sum(rhs),rhsMax =  -1.72435621337286E-10  6.88238804248868E-03
 cg2d: Sum(rhs),rhsMax =  -1.76994141565245E-10  6.70764220582574E-03
 cg2d: Sum(rhs),rhsMax =  -1.81823445188911E-10  6.53216158431098E-03
 cg2d: Sum(rhs),rhsMax =  -1.86916537803228E-10  6.35602621050823E-03
 cg2d: Sum(rhs),rhsMax =  -1.92361349071746E-10  6.17931607384480E-03
 cg2d: Sum(rhs),rhsMax =  -1.98131566708781E-10  6.00211127607547E-03
 cg2d: Sum(rhs),rhsMax =  -2.04258304714600E-10  5.82449212571855E-03
 cg2d: Sum(rhs),rhsMax =  -2.10832296065888E-10  5.64653906087106E-03
 cg2d: Sum(rhs),rhsMax =  -2.17799528412499E-10  5.46833253484709E-03
 cg2d: Sum(rhs),rhsMax =  -2.25257451580418E-10  5.28995299740288E-03
 cg2d: Sum(rhs),rhsMax =  -2.33216057576868E-10  5.11148088177899E-03
 cg2d: Sum(rhs),rhsMax =  -2.41742612039353E-10  4.93299649591296E-03
 cg2d: Sum(rhs),rhsMax =  -2.50930970446817E-10  4.75458035980506E-03
 cg2d: Sum(rhs),rhsMax =  -2.60829308672272E-10  4.57631320340994E-03
 cg2d: Sum(rhs),rhsMax =  -2.71491530645651E-10  4.39827578779784E-03
 cg2d: Sum(rhs),rhsMax =  -2.82925363692677E-10  4.22054872850423E-03
 cg2d: Sum(rhs),rhsMax =  -2.95377416970055E-10  4.04321239800587E-03
 cg2d: Sum(rhs),rhsMax =  -3.08912145863260E-10  3.86634689520181E-03
 cg2d: Sum(rhs),rhsMax =  -3.23731152995776E-10  3.69003134205472E-03
 cg2d: Sum(rhs),rhsMax =  -3.39968997398188E-10  3.51434351355066E-03
 cg2d: Sum(rhs),rhsMax =  -3.57830820529870E-10  3.33936144730685E-03
 cg2d: Sum(rhs),rhsMax =  -3.71982222802103E-10  3.21239369106320E-03
 cg2d: Sum(rhs),rhsMax =  -3.56367935161472E-10  3.35418250954374E-03
 cg2d: Sum(rhs),rhsMax =  -3.42012196341557E-10  3.49490150565560E-03
 cg2d: Sum(rhs),rhsMax =  -3.28905347402042E-10  3.63448539267769E-03
 cg2d: Sum(rhs),rhsMax =  -3.16806803013492E-10  3.77286999150288E-03
 cg2d: Sum(rhs),rhsMax =  -3.05707348324802E-10  3.90999197445355E-03
 cg2d: Sum(rhs),rhsMax =  -2.95500623970213E-10  4.04578844922013E-03
 cg2d: Sum(rhs),rhsMax =  -2.86047630027042E-10  4.18019694173054E-03
 cg2d: Sum(rhs),rhsMax =  -2.77336598131228E-10  4.31315558242595E-03
 cg2d: Sum(rhs),rhsMax =  -2.63691846136282E-10  4.53851157605395E-03
 cg2d: Sum(rhs),rhsMax =  -2.51183629451646E-10  4.76546636418290E-03
 cg2d: Sum(rhs),rhsMax =  -2.40011344132540E-10  4.99030161298426E-03
 cg2d: Sum(rhs),rhsMax =  -2.29823715613975E-10  5.21291774375415E-03
 cg2d: Sum(rhs),rhsMax =  -2.20625628877258E-10  5.43321622887335E-03
 cg2d: Sum(rhs),rhsMax =  -2.12131645582758E-10  5.65109963537074E-03
 cg2d: Sum(rhs),rhsMax =  -2.04453454166753E-10  5.86647167318156E-03
 cg2d: Sum(rhs),rhsMax =  -1.97369232068922E-10  6.07923724180883E-03
 cg2d: Sum(rhs),rhsMax =  -1.90810145461739E-10  6.28930247460614E-03
 cg2d: Sum(rhs),rhsMax =  -1.84781301371117E-10  6.49657478085515E-03
 cg2d: Sum(rhs),rhsMax =  -1.79209203032826E-10  6.70096288661228E-03
 cg2d: Sum(rhs),rhsMax =  -1.74064207492108E-10  6.90237687508604E-03
 cg2d: Sum(rhs),rhsMax =  -1.69231406665915E-10  7.10072822855875E-03
 cg2d: Sum(rhs),rhsMax =  -1.64768088062317E-10  7.29592986677814E-03
 cg2d: Sum(rhs),rhsMax =  -1.60601976162411E-10  7.48789618648647E-03
 cg2d: Sum(rhs),rhsMax =  -1.56790358474268E-10  7.67654310182787E-03
 cg2d: Sum(rhs),rhsMax =  -1.53252743828602E-10  7.86178808487007E-03
 cg2d: Sum(rhs),rhsMax =  -1.49902534829494E-10  8.04355020559514E-03
 cg2d: Sum(rhs),rhsMax =  -1.46753054153237E-10  8.22175017105531E-03
 cg2d: Sum(rhs),rhsMax =  -1.43812073361005E-10  8.39631036371332E-03
 cg2d: Sum(rhs),rhsMax =  -1.41041955892263E-10  8.56715487909787E-03
 cg2d: Sum(rhs),rhsMax =  -1.38428934981505E-10  8.73420956256424E-03
 cg2d: Sum(rhs),rhsMax =  -1.35986000238120E-10  8.89740204619351E-03
 cg2d: Sum(rhs),rhsMax =  -1.33714594952039E-10  9.05666178506097E-03
 cg2d: Sum(rhs),rhsMax =  -1.31538446801471E-10  9.21192009171610E-03
 cg2d: Sum(rhs),rhsMax =  -1.29462662812330E-10  9.36311016774213E-03
 cg2d: Sum(rhs),rhsMax =  -1.27568067220807E-10  9.51016713156427E-03
 cg2d: Sum(rhs),rhsMax =  -1.25727872557491E-10  9.65302804213181E-03
 cg2d: Sum(rhs),rhsMax =  -1.24027454972975E-10  9.79163191861546E-03
 cg2d: Sum(rhs),rhsMax =  -1.22431287330471E-10  9.92591975677401E-03
 cg2d: Sum(rhs),rhsMax =  -1.20914944723438E-10  1.00558345430517E-02
 cg2d: Sum(rhs),rhsMax =  -1.19485754623838E-10  1.01813212677075E-02
 cg2d: Sum(rhs),rhsMax =  -1.18135612403591E-10  1.03023269410893E-02
 cg2d: Sum(rhs),rhsMax =  -1.16897047597320E-10  1.04188006062901E-02
 cg2d: Sum(rhs),rhsMax =  -1.15690790281064E-10  1.05306933543882E-02
 cg2d: Sum(rhs),rhsMax =  -1.14657616734348E-10  1.06379583433741E-02
 cg2d: Sum(rhs),rhsMax =  -1.13642650845236E-10  1.07405508194907E-02
 cg2d: Sum(rhs),rhsMax =  -1.12738263169376E-10  1.08384281401849E-02
 cg2d: Sum(rhs),rhsMax =  -1.11893494469939E-10  1.09315497978397E-02
 cg2d: Sum(rhs),rhsMax =  -1.11092468557672E-10  1.10198774434610E-02
 cg2d: Sum(rhs),rhsMax =  -1.10314424262015E-10  1.11033749094492E-02
 cg2d: Sum(rhs),rhsMax =  -1.09602882325532E-10  1.11820082243912E-02
 cg2d: Sum(rhs),rhsMax =  -1.08934639087011E-10  1.12557456349271E-02
 cg2d: Sum(rhs),rhsMax =  -1.08344777594027E-10  1.13245576268094E-02
 cg2d: Sum(rhs),rhsMax =  -1.07797215598282E-10  1.13884169380800E-02
 cg2d: Sum(rhs),rhsMax =  -1.07296393991874E-10  1.14472985656338E-02
 cg2d: Sum(rhs),rhsMax =  -1.06871955729559E-10  1.15011797682196E-02
 cg2d: Sum(rhs),rhsMax =  -1.06472053396089E-10  1.15500400754485E-02
 cg2d: Sum(rhs),rhsMax =  -1.06102238106587E-10  1.15938612765118E-02
 cg2d: Sum(rhs),rhsMax =  -1.05868980249113E-10  1.16326274153670E-02
 cg2d: Sum(rhs),rhsMax =  -1.05636388525454E-10  1.16663247920976E-02
 cg2d: Sum(rhs),rhsMax =  -1.05408348716196E-10  1.16949419688632E-02
 cg2d: Sum(rhs),rhsMax =  -1.05249253756767E-10  1.17184697780251E-02
 cg2d: Sum(rhs),rhsMax =  -1.05095487867857E-10  1.17369013301503E-02
 cg2d: Sum(rhs),rhsMax =  -1.05065733890797E-10  1.17502320200027E-02
 cg2d: Sum(rhs),rhsMax =  -1.05075836920321E-10  1.17584595297541E-02
 cg2d: Sum(rhs),rhsMax =  -1.05134789762928E-10  1.17615838288969E-02
 cg2d: Sum(rhs),rhsMax =  -1.05047415210890E-10  1.17596071713729E-02
 cg2d: Sum(rhs),rhsMax =  -1.05022768259744E-10  1.17525340906783E-02
 cg2d: Sum(rhs),rhsMax =  -1.05001785044578E-10  1.17403713904060E-02
 cg2d: Sum(rhs),rhsMax =  -1.05108255432640E-10  1.17231281351494E-02
 cg2d: Sum(rhs),rhsMax =  -1.05236930281194E-10  1.17008156418591E-02
 cg2d: Sum(rhs),rhsMax =  -1.05420339124862E-10  1.16734474731923E-02
 cg2d: Sum(rhs),rhsMax =  -1.05631947633356E-10  1.16410394264453E-02
 cg2d: Sum(rhs),rhsMax =  -1.05862651977873E-10  1.16036095133351E-02
 cg2d: Sum(rhs),rhsMax =  -1.06190167770137E-10  1.15611779494864E-02
 cg2d: Sum(rhs),rhsMax =  -1.06605058114440E-10  1.15137671459361E-02
 cg2d: Sum(rhs),rhsMax =  -1.07031161711291E-10  1.14614016946506E-02
 cg2d: Sum(rhs),rhsMax =  -1.07542197369526E-10  1.14041083491998E-02
 cg2d: Sum(rhs),rhsMax =  -1.08053566094668E-10  1.13419160025668E-02
 cg2d: Sum(rhs),rhsMax =  -1.08617559391178E-10  1.12748556639499E-02
 cg2d: Sum(rhs),rhsMax =  -1.09220188448944E-10  1.12029604355564E-02
 cg2d: Sum(rhs),rhsMax =  -1.09938280701272E-10  1.11262654897842E-02
 cg2d: Sum(rhs),rhsMax =  -1.10645825834865E-10  1.10448080477386E-02
 cg2d: Sum(rhs),rhsMax =  -1.11444742323386E-10  1.09586273595933E-02
 cg2d: Sum(rhs),rhsMax =  -1.12285958309144E-10  1.08677646814933E-02
 cg2d: Sum(rhs),rhsMax =  -1.13165365966950E-10  1.07722632574963E-02
 cg2d: Sum(rhs),rhsMax =  -1.14156684105637E-10  1.06721683054393E-02
 cg2d: Sum(rhs),rhsMax =  -1.15157106073127E-10  1.05675270050188E-02
 cg2d: Sum(rhs),rhsMax =  -1.16314513576299E-10  1.04583884864242E-02
 cg2d: Sum(rhs),rhsMax =  -1.17566512081169E-10  1.03448038181387E-02
 cg2d: Sum(rhs),rhsMax =  -1.18845489005537E-10  1.02268259926288E-02
 cg2d: Sum(rhs),rhsMax =  -1.20228160760405E-10  1.01045099086326E-02
 cg2d: Sum(rhs),rhsMax =  -1.21670673536300E-10  9.97791234890074E-03
 cg2d: Sum(rhs),rhsMax =  -1.23193899526086E-10  9.84709195276927E-03
 cg2d: Sum(rhs),rhsMax =  -1.24857124639277E-10  9.71210918270505E-03
 cg2d: Sum(rhs),rhsMax =  -1.26588739490785E-10  9.57302628942328E-03
 cg2d: Sum(rhs),rhsMax =  -1.28412169786429E-10  9.42990727047131E-03
 cg2d: Sum(rhs),rhsMax =  -1.30375377160874E-10  9.28281783699601E-03
 cg2d: Sum(rhs),rhsMax =  -1.32486466242199E-10  9.13182538684290E-03
 cg2d: Sum(rhs),rhsMax =  -1.34680044894253E-10  8.97699897811234E-03
 cg2d: Sum(rhs),rhsMax =  -1.37005073952423E-10  8.81840930485676E-03
 cg2d: Sum(rhs),rhsMax =  -1.39503963936249E-10  8.65612867571591E-03
 cg2d: Sum(rhs),rhsMax =  -1.42123202095945E-10  8.49023099479665E-03
 cg2d: Sum(rhs),rhsMax =  -1.44903089527304E-10  8.32079174300456E-03
 cg2d: Sum(rhs),rhsMax =  -1.47883483236910E-10  8.14788795780723E-03
 cg2d: Sum(rhs),rhsMax =  -1.51028411998766E-10  7.97159820981890E-03
 cg2d: Sum(rhs),rhsMax =  -1.54391943674170E-10  7.79200257638138E-03
 cg2d: Sum(rhs),rhsMax =  -1.57980739601271E-10  7.60918260881761E-03
 cg2d: Sum(rhs),rhsMax =  -1.61797686359932E-10  7.42322130360460E-03
 cg2d: Sum(rhs),rhsMax =  -1.65901514748157E-10  7.23420305206348E-03
 cg2d: Sum(rhs),rhsMax =  -1.70388370079877E-10  7.04221358926186E-03
 cg2d: Sum(rhs),rhsMax =  -1.75180980832579E-10  6.84733994413685E-03
 cg2d: Sum(rhs),rhsMax =  -1.80339077004987E-10  6.64967038978866E-03
 cg2d: Sum(rhs),rhsMax =  -1.85869208912948E-10  6.44929439336286E-03
 cg2d: Sum(rhs),rhsMax =  -1.91839322205567E-10  6.24630256584025E-03
 cg2d: Sum(rhs),rhsMax =  -1.98282057439769E-10  6.04078661267142E-03
 cg2d: Sum(rhs),rhsMax =  -2.05307992828807E-10  5.83283928622583E-03
 cg2d: Sum(rhs),rhsMax =  -2.12904249785595E-10  5.62255434059078E-03
 cg2d: Sum(rhs),rhsMax =  -2.21157314683751E-10  5.41002648861018E-03
 cg2d: Sum(rhs),rhsMax =  -2.30200969397742E-10  5.19535136063195E-03
 cg2d: Sum(rhs),rhsMax =  -2.40147346453057E-10  4.97862546363324E-03
 cg2d: Sum(rhs),rhsMax =  -2.51081933022590E-10  4.75994613984511E-03
 cg2d: Sum(rhs),rhsMax =  -2.63206123563009E-10  4.53941152427998E-03
 cg2d: Sum(rhs),rhsMax =  -2.76626499484678E-10  4.31712050096409E-03
 cg2d: Sum(rhs),rhsMax =  -2.91627721971111E-10  4.09317265808293E-03
 cg2d: Sum(rhs),rhsMax =  -3.08560954564996E-10  3.86766824253146E-03
 cg2d: Sum(rhs),rhsMax =  -3.21575432948862E-10  3.71047493266938E-03
 cg2d: Sum(rhs),rhsMax =  -3.35707239784711E-10  3.55407566605025E-03
 cg2d: Sum(rhs),rhsMax =  -3.51201290271774E-10  3.39677677400865E-03
 cg2d: Sum(rhs),rhsMax =  -3.47429418567913E-10  3.43285075333335E-03
 cg2d: Sum(rhs),rhsMax =  -3.30064531262053E-10  3.61311432648605E-03
 cg2d: Sum(rhs),rhsMax =  -3.14327897044109E-10  3.79388644805502E-03
 cg2d: Sum(rhs),rhsMax =  -2.99951730120540E-10  3.97508760065433E-03
 cg2d: Sum(rhs),rhsMax =  -2.86829060502924E-10  4.15663796050413E-03
 cg2d: Sum(rhs),rhsMax =  -2.74768791053148E-10  4.33845764613724E-03
 cg2d: Sum(rhs),rhsMax =  -2.63583099791020E-10  4.52046695604735E-03
 cg2d: Sum(rhs),rhsMax =  -2.53264673122366E-10  4.70258635088258E-03
 cg2d: Sum(rhs),rhsMax =  -2.43717296344315E-10  4.88473621638116E-03
 cg2d: Sum(rhs),rhsMax =  -2.34847821745099E-10  5.06683681783750E-03
 cg2d: Sum(rhs),rhsMax =  -2.26601296754447E-10  5.24880833470443E-03
 cg2d: Sum(rhs),rhsMax =  -2.18895880588210E-10  5.43057087521243E-03
 cg2d: Sum(rhs),rhsMax =  -2.11715492359765E-10  5.61204452215359E-03
 cg2d: Sum(rhs),rhsMax =  -2.04992536834148E-10  5.79314946898047E-03
 cg2d: Sum(rhs),rhsMax =  -1.98716570976032E-10  5.97380620756590E-03
 cg2d: Sum(rhs),rhsMax =  -1.92837273926827E-10  6.15393567180769E-03
 cg2d: Sum(rhs),rhsMax =  -1.87298870857333E-10  6.33345927719209E-03
 cg2d: Sum(rhs),rhsMax =  -1.82053705444218E-10  6.51229887234735E-03
 cg2d: Sum(rhs),rhsMax =  -1.77107384313757E-10  6.69037666479917E-03
 cg2d: Sum(rhs),rhsMax =  -1.72474368120845E-10  6.86761517758102E-03
 cg2d: Sum(rhs),rhsMax =  -1.68100477981881E-10  7.04393724958477E-03
 cg2d: Sum(rhs),rhsMax =  -1.63917268647396E-10  7.21926609166962E-03
 cg2d: Sum(rhs),rhsMax =  -1.60022994855069E-10  7.39352535679658E-03
 cg2d: Sum(rhs),rhsMax =  -1.56295199005285E-10  7.56663918132300E-03
 cg2d: Sum(rhs),rhsMax =  -1.52789558782729E-10  7.73853220444070E-03
 cg2d: Sum(rhs),rhsMax =  -1.49434964402673E-10  7.90912959005185E-03
 cg2d: Sum(rhs),rhsMax =  -1.46245460186378E-10  8.07835706880695E-03
 cg2d: Sum(rhs),rhsMax =  -1.43213385594976E-10  8.24614099851345E-03
 cg2d: Sum(rhs),rhsMax =  -1.40340461474153E-10  8.41240842585264E-03
 cg2d: Sum(rhs),rhsMax =  -1.37593714200079E-10  8.57708713256323E-03
 cg2d: Sum(rhs),rhsMax =  -1.34892541581166E-10  8.74010598646163E-03
 cg2d: Sum(rhs),rhsMax =  -1.32347688364121E-10  8.90139549573831E-03
 cg2d: Sum(rhs),rhsMax =  -1.29904087486921E-10  9.06088661570663E-03
(PID.TID 0000.0001)      cg2d_init_res =   1.20968211670681E-01
(PID.TID 0000.0001)      cg2d_iters(min,last) =      -1      38
(PID.TID 0000.0001)      cg2d_last_res =   9.02427993681968E-14
(PID.TID 0000.0001) // =======================================================
(PID.TID 0000.0001) // Begin MONITOR dynamic field statistics
(PID.TID 0000.0001) // =======================================================
(PID.TID 0000.0001) %MON time_tsnumber                =                  6720
(PID.TID 0000.0001) %MON time_secondsf                =   1.0080000000000E+05
(PID.TID 0000.0001) %MON dynstat_eta_max              =   9.2017280005519E-04
(PID.TID 0000.0001) %MON dynstat_eta_min              =  -1.8489061113906E-03
(PID.TID 0000.0001) %MON dynstat_eta_mean             =   2.5932351949982E-15
(PID.TID 0000.0001) %MON dynstat_eta_sd               =   7.1715719334100E-04
(PID.TID 0000.0001) %MON dynstat_eta_del2             =   3.7147430538662E-06
(PID.TID 0000.0001) %MON dynstat_uvel_max             =   2.1763560342966E-01
(PID.TID 0000.0001) %MON dynstat_uvel_min             =   5.1433320942051E-02
(PID.TID 0000.0001) %MON dynstat_uvel_mean            =   1.1352045258784E-01
(PID.TID 0000.0001) %MON dynstat_uvel_sd              =   6.6162839086798E-03
(PID.TID 0000.0001) %MON dynstat_uvel_del2            =   1.0207608365636E-04
(PID.TID 0000.0001) %MON dynstat_vvel_max             =   0.0000000000000E+00
(PID.TID 0000.0001) %MON dynstat_vvel_min             =   0.0000000000000E+00
(PID.TID 0000.0001) %MON dynstat_vvel_mean            =   0.0000000000000E+00
(PID.TID 0000.0001) %MON dynstat_vvel_sd              =   0.0000000000000E+00
(PID.TID 0000.0001) %MON dynstat_vvel_del2            =   0.0000000000000E+00
(PID.TID 0000.0001) %MON dynstat_wvel_max             =   2.6987594304930E-03
(PID.TID 0000.0001) %MON dynstat_wvel_min             =  -2.4856082109795E-03
(PID.TID 0000.0001) %MON dynstat_wvel_mean            =   5.0348321575486E-21
(PID.TID 0000.0001) %MON dynstat_wvel_sd              =   2.4428981842397E-04
(PID.TID 0000.0001) %MON dynstat_wvel_del2            =   7.1057596952426E-06
(PID.TID 0000.0001) %MON dynstat_theta_max            =   1.5000000000012E+01
(PID.TID 0000.0001) %MON dynstat_theta_min            =   9.9999999999903E+00
(PID.TID 0000.0001) %MON dynstat_theta_mean           =   1.1004018215478E+01
(PID.TID 0000.0001) %MON dynstat_theta_sd             =   1.9374853014538E+00
(PID.TID 0000.0001) %MON dynstat_theta_del2           =   4.5107293424158E-05
(PID.TID 0000.0001) %MON dynstat_salt_max             =   3.5000000000000E+01
(PID.TID 0000.0001) %MON dynstat_salt_min             =   3.5000000000000E+01
(PID.TID 0000.0001) %MON dynstat_salt_mean            =   3.5000000000000E+01
(PID.TID 0000.0001) %MON dynstat_salt_sd              =   4.0500935938326E-13
(PID.TID 0000.0001) %MON dynstat_salt_del2            =   0.0000000000000E+00
(PID.TID 0000.0001) %MON dynstat_sst_max              =   1.5000000000012E+01
(PID.TID 0000.0001) %MON dynstat_sst_min              =   1.5000000000000E+01
(PID.TID 0000.0001) %MON dynstat_sst_mean             =   1.5000000000009E+01
(PID.TID 0000.0001) %MON dynstat_sst_sd               =   4.6992602241340E-12
(PID.TID 0000.0001) %MON dynstat_sst_del2             =   2.8738752191499E-14
(PID.TID 0000.0001) %MON dynstat_sss_max              =   3.5000000000000E+01
(PID.TID 0000.0001) %MON dynstat_sss_min              =   3.5000000000000E+01
(PID.TID 0000.0001) %MON dynstat_sss_mean             =   3.5000000000000E+01
(PID.TID 0000.0001) %MON dynstat_sss_sd               =   4.2632564145606E-14
(PID.TID 0000.0001) %MON dynstat_sss_del2             =   0.0000000000000E+00
(PID.TID 0000.0001) %MON forcing_qnet_max             =   0.0000000000000E+00
(PID.TID 0000.0001) %MON forcing_qnet_min             =   0.0000000000000E+00
(PID.TID 0000.0001) %MON forcing_qnet_mean            =   0.0000000000000E+00
(PID.TID 0000.0001) %MON forcing_qnet_sd              =   0.0000000000000E+00
(PID.TID 0000.0001) %MON forcing_qnet_del2            =   0.0000000000000E+00
(PID.TID 0000.0001) %MON forcing_qsw_max              =   0.0000000000000E+00
(PID.TID 0000.0001) %MON forcing_qsw_min              =   0.0000000000000E+00
(PID.TID 0000.0001) %MON forcing_qsw_mean             =   0.0000000000000E+00
(PID.TID 0000.0001) %MON forcing_qsw_sd               =   0.0000000000000E+00
(PID.TID 0000.0001) %MON forcing_qsw_del2             =   0.0000000000000E+00
(PID.TID 0000.0001) %MON forcing_empmr_max            =   0.0000000000000E+00
(PID.TID 0000.0001) %MON forcing_empmr_min            =   0.0000000000000E+00
(PID.TID 0000.0001) %MON forcing_empmr_mean           =   0.0000000000000E+00
(PID.TID 0000.0001) %MON forcing_empmr_sd             =   0.0000000000000E+00
(PID.TID 0000.0001) %MON forcing_empmr_del2           =   0.0000000000000E+00
(PID.TID 0000.0001) %MON forcing_fu_max               =   0.0000000000000E+00
(PID.TID 0000.0001) %MON forcing_fu_min               =   0.0000000000000E+00
(PID.TID 0000.0001) %MON forcing_fu_mean              =   0.0000000000000E+00
(PID.TID 0000.0001) %MON forcing_fu_sd                =   0.0000000000000E+00
(PID.TID 0000.0001) %MON forcing_fu_del2              =   0.0000000000000E+00
(PID.TID 0000.0001) %MON forcing_fv_max               =   0.0000000000000E+00
(PID.TID 0000.0001) %MON forcing_fv_min               =   0.0000000000000E+00
(PID.TID 0000.0001) %MON forcing_fv_mean              =   0.0000000000000E+00
(PID.TID 0000.0001) %MON forcing_fv_sd                =   0.0000000000000E+00
(PID.TID 0000.0001) %MON forcing_fv_del2              =   0.0000000000000E+00
(PID.TID 0000.0001) %MON advcfl_uvel_max              =   1.3283822277147E-02
(PID.TID 0000.0001) %MON advcfl_vvel_max              =   0.0000000000000E+00
(PID.TID 0000.0001) %MON advcfl_wvel_max              =   3.5597977898396E-02
(PID.TID 0000.0001) %MON advcfl_W_hf_max              =   3.5985262688172E-02
(PID.TID 0000.0001) %MON pe_b_mean                    =   1.2747128939552E-08
(PID.TID 0000.0001) %MON ke_max                       =   1.4236613286314E-02
(PID.TID 0000.0001) %MON ke_mean                      =   6.4655168317890E-03
(PID.TID 0000.0001) %MON ke_vol                       =   9.6656886657870E+10
(PID.TID 0000.0001) %MON vort_r_min                   =   0.0000000000000E+00
(PID.TID 0000.0001) %MON vort_r_max                   =   0.0000000000000E+00
(PID.TID 0000.0001) %MON vort_a_mean                  =   0.0000000000000E+00
(PID.TID 0000.0001) %MON vort_a_sd                    =   0.0000000000000E+00
(PID.TID 0000.0001) %MON vort_p_mean                  =   0.0000000000000E+00
(PID.TID 0000.0001) %MON vort_p_sd                    =   0.0000000000000E+00
(PID.TID 0000.0001) %MON surfExpan_theta_mean         =   2.0786053238315E-18
(PID.TID 0000.0001) %MON surfExpan_salt_mean          =   2.0146509227875E-19
(PID.TID 0000.0001) // =======================================================
(PID.TID 0000.0001) // End MONITOR dynamic field statistics
(PID.TID 0000.0001) // =======================================================
(PID.TID 0000.0001) // =======================================================
(PID.TID 0000.0001) // Begin OBCS MONITOR field statistics
(PID.TID 0000.0001) // =======================================================
(PID.TID 0000.0001) %MON obc_E_uVel_max               =   1.1205712828732E-01
(PID.TID 0000.0001) %MON obc_E_uVel_min               =   1.1205712828732E-01
(PID.TID 0000.0001) %MON obc_E_uVel_mean              =   1.1205712828732E-01
(PID.TID 0000.0001) %MON obc_E_uVel_sd                =  -1.2143064331838E-17
(PID.TID 0000.0001) %MON obc_E_uVel_Int               =   1.1205712828732E+05
(PID.TID 0000.0001) %MON obc_W_uVel_max               =   1.1205712828732E-01
(PID.TID 0000.0001) %MON obc_W_uVel_min               =   1.1205712828732E-01
(PID.TID 0000.0001) %MON obc_W_uVel_mean              =   1.1205712828732E-01
(PID.TID 0000.0001) %MON obc_W_uVel_sd                =  -1.2143064331838E-17
(PID.TID 0000.0001) %MON obc_W_uVel_Int               =   1.1205712828732E+05
(PID.TID 0000.0001) // =======================================================
(PID.TID 0000.0001) // End OBCS MONITOR field statistics
(PID.TID 0000.0001) // =======================================================
 cg2d: Sum(rhs),rhsMax =  -1.27567845176202E-10  9.21851046474383E-03
 cg2d: Sum(rhs),rhsMax =  -1.25343846413273E-10  9.37419856887597E-03
 cg2d: Sum(rhs),rhsMax =  -1.23173360400131E-10  9.52788320539925E-03
 cg2d: Sum(rhs),rhsMax =  -1.21140653064344E-10  9.67949762545434E-03
 cg2d: Sum(rhs),rhsMax =  -1.19198539927368E-10  9.82897605087203E-03
 cg2d: Sum(rhs),rhsMax =  -1.17376441899353E-10  9.97625359869398E-03
 cg2d: Sum(rhs),rhsMax =  -1.15607190487310E-10  1.01212662304637E-02
 cg2d: Sum(rhs),rhsMax =  -1.13914544463967E-10  1.02639508147845E-02
 cg2d: Sum(rhs),rhsMax =  -1.12253428774522E-10  1.04042452433596E-02
 cg2d: Sum(rhs),rhsMax =  -1.10710773881806E-10  1.05420885100083E-02
 cg2d: Sum(rhs),rhsMax =  -1.09220077426642E-10  1.06774207548064E-02
 cg2d: Sum(rhs),rhsMax =  -1.07803321824917E-10  1.08101832650427E-02
 cg2d: Sum(rhs),rhsMax =  -1.06345932060492E-10  1.09470319956424E-02
 cg2d: Sum(rhs),rhsMax =  -1.04927955213441E-10  1.10855346928692E-02
 cg2d: Sum(rhs),rhsMax =  -1.03588027045021E-10  1.12212754671535E-02
 cg2d: Sum(rhs),rhsMax =  -1.02284847258716E-10  1.13541980418567E-02
 cg2d: Sum(rhs),rhsMax =  -1.01059050017227E-10  1.14842473739683E-02
 cg2d: Sum(rhs),rhsMax =  -9.98954252651174E-11  1.16113696896333E-02
 cg2d: Sum(rhs),rhsMax =  -9.87773196570174E-11  1.17355125376375E-02
 cg2d: Sum(rhs),rhsMax =  -9.76989600331990E-11  1.18566248513558E-02
 cg2d: Sum(rhs),rhsMax =  -9.66461355389470E-11  1.19746570614534E-02
 cg2d: Sum(rhs),rhsMax =  -9.56984491651269E-11  1.20895610958568E-02
 cg2d: Sum(rhs),rhsMax =  -9.47407707840853E-11  1.22012903734126E-02
 cg2d: Sum(rhs),rhsMax =  -9.38673583306127E-11  1.23097998637768E-02
 cg2d: Sum(rhs),rhsMax =  -9.30018284606149E-11  1.24150461444496E-02
 cg2d: Sum(rhs),rhsMax =  -9.21522858021717E-11  1.25169874211795E-02
 cg2d: Sum(rhs),rhsMax =  -9.12826481069828E-11  1.26155835165737E-02
 cg2d: Sum(rhs),rhsMax =  -9.05249208926762E-11  1.27107958448529E-02
 cg2d: Sum(rhs),rhsMax =  -8.97620866524562E-11  1.28025873846115E-02
 cg2d: Sum(rhs),rhsMax =  -8.90618689908251E-11  1.28909226519830E-02
 cg2d: Sum(rhs),rhsMax =  -8.83854101019210E-11  1.29757676722445E-02
 cg2d: Sum(rhs),rhsMax =  -8.77939942967032E-11  1.30570899508822E-02
 cg2d: Sum(rhs),rhsMax =  -8.71733796259377E-11  1.31348584489875E-02
 cg2d: Sum(rhs),rhsMax =  -8.65933991178736E-11  1.32090435684084E-02
 cg2d: Sum(rhs),rhsMax =  -8.60478355235728E-11  1.32796171500655E-02
 cg2d: Sum(rhs),rhsMax =  -8.55359116869181E-11  1.33465524864946E-02
 cg2d: Sum(rhs),rhsMax =  -8.50869374957597E-11  1.34098243380994E-02
 cg2d: Sum(rhs),rhsMax =  -8.46409609067678E-11  1.34694089472113E-02
 cg2d: Sum(rhs),rhsMax =  -8.42399483502732E-11  1.35252840951076E-02
 cg2d: Sum(rhs),rhsMax =  -8.38751290643813E-11  1.35774291942507E-02
 cg2d: Sum(rhs),rhsMax =  -8.35330693504943E-11  1.36258253643239E-02
 cg2d: Sum(rhs),rhsMax =  -8.32069968481619E-11  1.36704554552854E-02
 cg2d: Sum(rhs),rhsMax =  -8.29356583409435E-11  1.37113040235457E-02
 cg2d: Sum(rhs),rhsMax =  -8.26128054853825E-11  1.37483572935333E-02
 cg2d: Sum(rhs),rhsMax =  -8.23334733723868E-11  1.37816031324031E-02
 cg2d: Sum(rhs),rhsMax =  -8.20957746228146E-11  1.38110310456183E-02
 cg2d: Sum(rhs),rhsMax =  -8.18934919877279E-11  1.38366289781794E-02
 cg2d: Sum(rhs),rhsMax =  -8.17064194080785E-11  1.38583852474633E-02
 cg2d: Sum(rhs),rhsMax =  -8.15425504896439E-11  1.38762921301776E-02
 cg2d: Sum(rhs),rhsMax =  -8.13860090431717E-11  1.38903458557377E-02
 cg2d: Sum(rhs),rhsMax =  -8.12440115183222E-11  1.39005452117116E-02
 cg2d: Sum(rhs),rhsMax =  -8.11569700331916E-11  1.39068904710007E-02
 cg2d: Sum(rhs),rhsMax =  -8.10808087337023E-11  1.39093830997534E-02
 cg2d: Sum(rhs),rhsMax =  -8.11012368373554E-11  1.39080259573344E-02
 cg2d: Sum(rhs),rhsMax =  -8.11890554786032E-11  1.39028235933240E-02
 cg2d: Sum(rhs),rhsMax =  -8.13478173711246E-11  1.38937824654684E-02
 cg2d: Sum(rhs),rhsMax =  -8.14548428706985E-11  1.38809110716938E-02
 cg2d: Sum(rhs),rhsMax =  -8.15871814552338E-11  1.38642199922735E-02
 cg2d: Sum(rhs),rhsMax =  -8.17591550017482E-11  1.38437218112499E-02
 cg2d: Sum(rhs),rhsMax =  -8.19491141612616E-11  1.38194309393758E-02
 cg2d: Sum(rhs),rhsMax =  -8.21883672230683E-11  1.37913634282094E-02
 cg2d: Sum(rhs),rhsMax =  -8.24523782583242E-11  1.37595368630004E-02
 cg2d: Sum(rhs),rhsMax =  -8.27673485304103E-11  1.37239702843051E-02
 cg2d: Sum(rhs),rhsMax =  -8.30596702527941E-11  1.36846842260138E-02
 cg2d: Sum(rhs),rhsMax =  -8.33847435544044E-11  1.36417008684677E-02
 cg2d: Sum(rhs),rhsMax =  -8.36937186221576E-11  1.35950441752769E-02
 cg2d: Sum(rhs),rhsMax =  -8.40720826289498E-11  1.35447398816796E-02
 cg2d: Sum(rhs),rhsMax =  -8.44884162631843E-11  1.34908152939169E-02
 cg2d: Sum(rhs),rhsMax =  -8.48797698793646E-11  1.34332991212531E-02
 cg2d: Sum(rhs),rhsMax =  -8.53429549252382E-11  1.33722214483554E-02
 cg2d: Sum(rhs),rhsMax =  -8.58296766992339E-11  1.33076137916116E-02
 cg2d: Sum(rhs),rhsMax =  -8.63252802574266E-11  1.32395091818907E-02
 cg2d: Sum(rhs),rhsMax =  -8.69102567691016E-11  1.31679422173385E-02
 cg2d: Sum(rhs),rhsMax =  -8.74876837642091E-11  1.30929490698476E-02
 cg2d: Sum(rhs),rhsMax =  -8.80849837514575E-11  1.30145674658420E-02
 cg2d: Sum(rhs),rhsMax =  -8.87614426403616E-11  1.29328366550527E-02
 cg2d: Sum(rhs),rhsMax =  -8.94325724587475E-11  1.28477973614989E-02
 cg2d: Sum(rhs),rhsMax =  -9.01516639117972E-11  1.27594917126986E-02
 cg2d: Sum(rhs),rhsMax =  -9.08814135058833E-11  1.26679632021648E-02
 cg2d: Sum(rhs),rhsMax =  -9.16848819088045E-11  1.25732566220610E-02
 cg2d: Sum(rhs),rhsMax =  -9.25127752182675E-11  1.24754180239201E-02
 cg2d: Sum(rhs),rhsMax =  -9.33254584722931E-11  1.23744947667902E-02
 cg2d: Sum(rhs),rhsMax =  -9.41929867437352E-11  1.22705355651588E-02
 cg2d: Sum(rhs),rhsMax =  -9.50786116504787E-11  1.21635904812148E-02
 cg2d: Sum(rhs),rhsMax =  -9.60023172069668E-11  1.20537108692416E-02
 cg2d: Sum(rhs),rhsMax =  -9.69507807369041E-11  1.19409493179676E-02
 cg2d: Sum(rhs),rhsMax =  -9.79881731311139E-11  1.18253562488423E-02
 cg2d: Sum(rhs),rhsMax =  -9.90421078483905E-11  1.17069788969575E-02
 cg2d: Sum(rhs),rhsMax =  -1.00146668735590E-10  1.15858689782416E-02
 cg2d: Sum(rhs),rhsMax =  -1.01307962019348E-10  1.14620836580403E-02
 cg2d: Sum(rhs),rhsMax =  -1.02522546008288E-10  1.13356833250800E-02
 cg2d: Sum(rhs),rhsMax =  -1.03789310479385E-10  1.12067294730247E-02
 cg2d: Sum(rhs),rhsMax =  -1.05100039782258E-10  1.10752839716377E-02
 cg2d: Sum(rhs),rhsMax =  -1.06470499083855E-10  1.09414091482703E-02
 cg2d: Sum(rhs),rhsMax =  -1.07886477529462E-10  1.08051681576085E-02
 cg2d: Sum(rhs),rhsMax =  -1.09397491065977E-10  1.06666252144116E-02
 cg2d: Sum(rhs),rhsMax =  -1.10943254583162E-10  1.05258456133694E-02
 cg2d: Sum(rhs),rhsMax =  -1.12573950161732E-10  1.03828956577934E-02
 cg2d: Sum(rhs),rhsMax =  -1.14251386129638E-10  1.02378426111219E-02
 cg2d: Sum(rhs),rhsMax =  -1.16023080032335E-10  1.00907546937322E-02
 cg2d: Sum(rhs),rhsMax =  -1.17846843394886E-10  9.94170108440872E-03
 cg2d: Sum(rhs),rhsMax =  -1.19754539618100E-10  9.79075188339295E-03
 cg2d: Sum(rhs),rhsMax =  -1.21766319249872E-10  9.63797802967271E-03
 cg2d: Sum(rhs),rhsMax =  -1.23848653554859E-10  9.48345119927468E-03
 cg2d: Sum(rhs),rhsMax =  -1.26039068071293E-10  9.32724371986398E-03
 cg2d: Sum(rhs),rhsMax =  -1.28309252112047E-10  9.16942852509273E-03
 cg2d: Sum(rhs),rhsMax =  -1.30703392553499E-10  9.01007914666631E-03
 cg2d: Sum(rhs),rhsMax =  -1.33204780539131E-10  8.84926972790054E-03
 cg2d: Sum(rhs),rhsMax =  -1.35817135316074E-10  8.68707503984994E-03
 cg2d: Sum(rhs),rhsMax =  -1.38557720852361E-10  8.52357048729538E-03
 cg2d: Sum(rhs),rhsMax =  -1.41406220066642E-10  8.35882729852126E-03
 cg2d: Sum(rhs),rhsMax =  -1.44322886974635E-10  8.19291807624170E-03
 cg2d: Sum(rhs),rhsMax =  -1.47378331760706E-10  8.02591883546567E-03
 cg2d: Sum(rhs),rhsMax =  -1.50599643866656E-10  7.85790808204385E-03
 cg2d: Sum(rhs),rhsMax =  -1.53951074111092E-10  7.68896525886867E-03
 cg2d: Sum(rhs),rhsMax =  -1.57473811768227E-10  7.51916982242999E-03
 cg2d: Sum(rhs),rhsMax =  -1.61181568092417E-10  7.34860108304757E-03
 cg2d: Sum(rhs),rhsMax =  -1.65086555536931E-10  7.17733843171638E-03
 cg2d: Sum(rhs),rhsMax =  -1.69216696210839E-10  7.00546158337311E-03
 cg2d: Sum(rhs),rhsMax =  -1.73541625514417E-10  6.83305131185703E-03
 cg2d: Sum(rhs),rhsMax =  -1.78089765157097E-10  6.66018929189753E-03
 cg2d: Sum(rhs),rhsMax =  -1.82898390876929E-10  6.48695699848238E-03
 cg2d: Sum(rhs),rhsMax =  -1.87994425582261E-10  6.31343549261940E-03
 cg2d: Sum(rhs),rhsMax =  -1.93365490286368E-10  6.13970528213595E-03
 cg2d: Sum(rhs),rhsMax =  -1.99064459360798E-10  5.96584644176784E-03
 cg2d: Sum(rhs),rhsMax =  -2.05102462791373E-10  5.79193860206082E-03
 cg2d: Sum(rhs),rhsMax =  -2.11506520630955E-10  5.61806082970363E-03
 cg2d: Sum(rhs),rhsMax =  -2.18334659379815E-10  5.44429164162550E-03
 cg2d: Sum(rhs),rhsMax =  -2.25616428317643E-10  5.27070911705359E-03
 cg2d: Sum(rhs),rhsMax =  -2.33382313474806E-10  5.09739095602508E-03
 cg2d: Sum(rhs),rhsMax =  -2.41644329546098E-10  4.92441451405335E-03
 cg2d: Sum(rhs),rhsMax =  -2.50519327504861E-10  4.75185681152109E-03
 cg2d: Sum(rhs),rhsMax =  -2.60053256706527E-10  4.57979442026400E-03
 cg2d: Sum(rhs),rhsMax =  -2.70335032137581E-10  4.40830331745436E-03
 cg2d: Sum(rhs),rhsMax =  -2.81300094329140E-10  4.23745899177313E-03
 cg2d: Sum(rhs),rhsMax =  -2.93139290619138E-10  4.06733665232907E-03
 cg2d: Sum(rhs),rhsMax =  -3.05956537882679E-10  3.89801133971385E-03
 cg2d: Sum(rhs),rhsMax =  -3.19825277372843E-10  3.72955794542415E-03
 cg2d: Sum(rhs),rhsMax =  -3.30820482119520E-10  3.60596628076897E-03
 cg2d: Sum(rhs),rhsMax =  -3.18508330821032E-10  3.74543548905471E-03
 cg2d: Sum(rhs),rhsMax =  -3.07255443310339E-10  3.88366891349986E-03
 cg2d: Sum(rhs),rhsMax =  -2.96877966654563E-10  4.02060255327829E-03
 cg2d: Sum(rhs),rhsMax =  -2.87303292267893E-10  4.15617226278690E-03
 cg2d: Sum(rhs),rhsMax =  -2.78387868313246E-10  4.29031444392748E-03
 cg2d: Sum(rhs),rhsMax =  -2.70108491129406E-10  4.42296661535889E-03
 cg2d: Sum(rhs),rhsMax =  -2.62418087260130E-10  4.55406739139196E-03
 cg2d: Sum(rhs),rhsMax =  -2.55261700665699E-10  4.68355625407334E-03
 cg2d: Sum(rhs),rhsMax =  -2.48579157258177E-10  4.81137325002036E-03
 cg2d: Sum(rhs),rhsMax =  -2.42318498600014E-10  4.93745911541163E-03
 cg2d: Sum(rhs),rhsMax =  -2.36432318168056E-10  5.06175540840513E-03
 cg2d: Sum(rhs),rhsMax =  -2.28133067992076E-10  5.24762446280396E-03
 cg2d: Sum(rhs),rhsMax =  -2.19950280211378E-10  5.44460556159531E-03
 cg2d: Sum(rhs),rhsMax =  -2.12417639033902E-10  5.63916672694120E-03
 cg2d: Sum(rhs),rhsMax =  -2.05518824181183E-10  5.83122544528130E-03
 cg2d: Sum(rhs),rhsMax =  -1.99072758277907E-10  6.02069999995589E-03
 cg2d: Sum(rhs),rhsMax =  -1.93179361396290E-10  6.20750942627727E-03
 cg2d: Sum(rhs),rhsMax =  -1.87655113670360E-10  6.39157349424228E-03
 cg2d: Sum(rhs),rhsMax =  -1.82553194782997E-10  6.57281272148272E-03
 cg2d: Sum(rhs),rhsMax =  -1.77777792487177E-10  6.75114841558145E-03
 cg2d: Sum(rhs),rhsMax =  -1.73355108046280E-10  6.92650274222606E-03
 cg2d: Sum(rhs),rhsMax =  -1.69276703765320E-10  7.09879881495809E-03
 cg2d: Sum(rhs),rhsMax =  -1.65417346487118E-10  7.26796079695839E-03
 cg2d: Sum(rhs),rhsMax =  -1.61874624815539E-10  7.43391401079638E-03
 cg2d: Sum(rhs),rhsMax =  -1.58492108326413E-10  7.59658505096961E-03
 cg2d: Sum(rhs),rhsMax =  -1.55355728281847E-10  7.75590189370567E-03
 cg2d: Sum(rhs),rhsMax =  -1.52414414422708E-10  7.91179399963780E-03
 cg2d: Sum(rhs),rhsMax =  -1.49632750634510E-10  8.06419240627486E-03
 cg2d: Sum(rhs),rhsMax =  -1.46990419835902E-10  8.21302980837068E-03
 cg2d: Sum(rhs),rhsMax =  -1.44526501877351E-10  8.35824062524569E-03
 cg2d: Sum(rhs),rhsMax =  -1.42207912112724E-10  8.49976105486568E-03
 cg2d: Sum(rhs),rhsMax =  -1.39973366231061E-10  8.63752911516715E-03
 cg2d: Sum(rhs),rhsMax =  -1.37982625325606E-10  8.77148467381097E-03
 cg2d: Sum(rhs),rhsMax =  -1.36038180720277E-10  8.90156946825035E-03
 cg2d: Sum(rhs),rhsMax =  -1.34225741632577E-10  9.02772711859880E-03
 cg2d: Sum(rhs),rhsMax =  -1.32474031744323E-10  9.14990313614499E-03
 cg2d: Sum(rhs),rhsMax =  -1.30864763470129E-10  9.26804493196090E-03
 cg2d: Sum(rhs),rhsMax =  -1.29314448038542E-10  9.38210182451154E-03
 cg2d: Sum(rhs),rhsMax =  -1.27858834630956E-10  9.49202504778722E-03
 cg2d: Sum(rhs),rhsMax =  -1.26504917652426E-10  9.59776776354962E-03
 cg2d: Sum(rhs),rhsMax =  -1.25265908756944E-10  9.69928507683653E-03
 cg2d: Sum(rhs),rhsMax =  -1.24109722499099E-10  9.79653405311182E-03
 cg2d: Sum(rhs),rhsMax =  -1.23030918786071E-10  9.88947373528539E-03
 cg2d: Sum(rhs),rhsMax =  -1.22055032747426E-10  9.97806515919414E-03
 cg2d: Sum(rhs),rhsMax =  -1.21135768083036E-10  1.00622713659432E-02
 cg2d: Sum(rhs),rhsMax =  -1.20269239012316E-10  1.01420574064082E-02
 cg2d: Sum(rhs),rhsMax =  -1.19476428750431E-10  1.02173903572046E-02
 cg2d: Sum(rhs),rhsMax =  -1.18757670364289E-10  1.02882393313731E-02
 cg2d: Sum(rhs),rhsMax =  -1.18063558929293E-10  1.03545754861084E-02
 cg2d: Sum(rhs),rhsMax =  -1.17412080058443E-10  1.04163720295048E-02
 cg2d: Sum(rhs),rhsMax =  -1.16845089159767E-10  1.04736042362070E-02
 cg2d: Sum(rhs),rhsMax =  -1.16297083074812E-10  1.05262494476326E-02
 cg2d: Sum(rhs),rhsMax =  -1.15829124069933E-10  1.05742870749081E-02
 cg2d: Sum(rhs),rhsMax =  -1.15393028465860E-10  1.06176986061058E-02
 cg2d: Sum(rhs),rhsMax =  -1.15057519067818E-10  1.06564676155728E-02
 cg2d: Sum(rhs),rhsMax =  -1.14798393013871E-10  1.06905797731073E-02
 cg2d: Sum(rhs),rhsMax =  -1.14543263762812E-10  1.07200228515418E-02
 cg2d: Sum(rhs),rhsMax =  -1.14363074565915E-10  1.07447867322037E-02
 cg2d: Sum(rhs),rhsMax =  -1.14184772748160E-10  1.07648634083125E-02
 cg2d: Sum(rhs),rhsMax =  -1.14122711281084E-10  1.07802469865587E-02
 cg2d: Sum(rhs),rhsMax =  -1.14089404590345E-10  1.07909336870311E-02
 cg2d: Sum(rhs),rhsMax =  -1.14056986078026E-10  1.07969218425928E-02
 cg2d: Sum(rhs),rhsMax =  -1.13991260874968E-10  1.07982118947888E-02
 cg2d: Sum(rhs),rhsMax =  -1.13906217791282E-10  1.07948063871649E-02
 cg2d: Sum(rhs),rhsMax =  -1.13925535671910E-10  1.07867099578413E-02
 cg2d: Sum(rhs),rhsMax =  -1.14009357510270E-10  1.07739293316221E-02
 cg2d: Sum(rhs),rhsMax =  -1.14145581875391E-10  1.07564733106541E-02
 cg2d: Sum(rhs),rhsMax =  -1.14315557020461E-10  1.07343527561454E-02
 cg2d: Sum(rhs),rhsMax =  -1.14512621607332E-10  1.07075805847209E-02
 cg2d: Sum(rhs),rhsMax =  -1.14749321156182E-10  1.06761717633675E-02
 cg2d: Sum(rhs),rhsMax =  -1.15047971149806E-10  1.06401432983894E-02
 cg2d: Sum(rhs),rhsMax =  -1.15440990100524E-10  1.05995142206630E-02
 cg2d: Sum(rhs),rhsMax =  -1.15909060127706E-10  1.05543055717872E-02
 cg2d: Sum(rhs),rhsMax =  -1.16377352199493E-10  1.05045403914546E-02
 cg2d: Sum(rhs),rhsMax =  -1.16911702541245E-10  1.04502437055730E-02
 cg2d: Sum(rhs),rhsMax =  -1.17509335595400E-10  1.03914425145053E-02
 cg2d: Sum(rhs),rhsMax =  -1.18163812068417E-10  1.03281657837057E-02
 cg2d: Sum(rhs),rhsMax =  -1.18916321234508E-10  1.02604444278143E-02
 cg2d: Sum(rhs),rhsMax =  -1.19687926236622E-10  1.01883112970878E-02
 cg2d: Sum(rhs),rhsMax =  -1.20514376256153E-10  1.01118011648654E-02
 cg2d: Sum(rhs),rhsMax =  -1.21380794304571E-10  1.00309507140275E-02
 cg2d: Sum(rhs),rhsMax =  -1.22334031793514E-10  9.94579852054371E-03
 cg2d: Sum(rhs),rhsMax =  -1.23328902645881E-10  9.85638503297969E-03
 cg2d: Sum(rhs),rhsMax =  -1.24422472325136E-10  9.76275254786283E-03
 cg2d: Sum(rhs),rhsMax =  -1.25543686557705E-10  9.66494518188953E-03
 cg2d: Sum(rhs),rhsMax =  -1.26799681865464E-10  9.56300884292643E-03
 cg2d: Sum(rhs),rhsMax =  -1.28212773731207E-10  9.45699120234205E-03
 cg2d: Sum(rhs),rhsMax =  -1.29647403923627E-10  9.34694167081936E-03
 cg2d: Sum(rhs),rhsMax =  -1.31186728147270E-10  9.23291137929598E-03
 cg2d: Sum(rhs),rhsMax =  -1.32851951661905E-10  9.11495316787801E-03
 cg2d: Sum(rhs),rhsMax =  -1.34538935547823E-10  8.99312157814085E-03
 cg2d: Sum(rhs),rhsMax =  -1.36406108630638E-10  8.86747284667404E-03
 cg2d: Sum(rhs),rhsMax =  -1.38327238552449E-10  8.73806489737483E-03
 cg2d: Sum(rhs),rhsMax =  -1.40396916314955E-10  8.60495733022932E-03
 cg2d: Sum(rhs),rhsMax =  -1.42601042085744E-10  8.46821140497516E-03
 cg2d: Sum(rhs),rhsMax =  -1.44882772445953E-10  8.32789001342574E-03
 cg2d: Sum(rhs),rhsMax =  -1.47354461965676E-10  8.18405765380745E-03
 cg2d: Sum(rhs),rhsMax =  -1.49962264828218E-10  8.03678040077530E-03
 cg2d: Sum(rhs),rhsMax =  -1.52783119489186E-10  7.88612586594192E-03
 cg2d: Sum(rhs),rhsMax =  -1.55689461323050E-10  7.73216315067052E-03
 cg2d: Sum(rhs),rhsMax =  -1.58837609731677E-10  7.57496279261257E-03
 cg2d: Sum(rhs),rhsMax =  -1.62136637449350E-10  7.41459670910688E-03
 cg2d: Sum(rhs),rhsMax =  -1.65690794418083E-10  7.25113814133109E-03
 cg2d: Sum(rhs),rhsMax =  -1.69471880973049E-10  7.08466160313754E-03
 cg2d: Sum(rhs),rhsMax =  -1.73477343601292E-10  6.91524283804129E-03
 cg2d: Sum(rhs),rhsMax =  -1.77815429047712E-10  6.74295878743503E-03
 cg2d: Sum(rhs),rhsMax =  -1.82468817833126E-10  6.56788756486783E-03
 cg2d: Sum(rhs),rhsMax =  -1.87522664063522E-10  6.39010844545997E-03
 cg2d: Sum(rhs),rhsMax =  -1.92880378335758E-10  6.20970185415095E-03
 cg2d: Sum(rhs),rhsMax =  -1.98708272058923E-10  6.02674934921979E-03
 cg2d: Sum(rhs),rhsMax =  -2.04903538580936E-10  5.84133360686256E-03
 cg2d: Sum(rhs),rhsMax =  -2.11644479719553E-10  5.65353840264966E-03
 cg2d: Sum(rhs),rhsMax =  -2.18949969266191E-10  5.46344858705108E-03
 cg2d: Sum(rhs),rhsMax =  -2.26837659766943E-10  5.27115005380406E-03
 cg2d: Sum(rhs),rhsMax =  -2.35472974452478E-10  5.07672970122145E-03
 cg2d: Sum(rhs),rhsMax =  -2.44862130571732E-10  4.88027538720994E-03
 cg2d: Sum(rhs),rhsMax =  -2.55143572935879E-10  4.68187587892989E-03
 cg2d: Sum(rhs),rhsMax =  -2.64425703555560E-10  4.51599837812151E-03
 cg2d: Sum(rhs),rhsMax =  -2.73141509410380E-10  4.37137323211446E-03
 cg2d: Sum(rhs),rhsMax =  -2.82477485846755E-10  4.22545268266433E-03
 cg2d: Sum(rhs),rhsMax =  -2.92579072080912E-10  4.07830281287560E-03
 cg2d: Sum(rhs),rhsMax =  -3.03518765676358E-10  3.92998970871796E-03
 cg2d: Sum(rhs),rhsMax =  -3.15386938787299E-10  3.78057975644568E-03
 cg2d: Sum(rhs),rhsMax =  -3.20857451718837E-10  3.71474379711416E-03
 cg2d: Sum(rhs),rhsMax =  -3.07341485594748E-10  3.87760261570769E-03
 cg2d: Sum(rhs),rhsMax =  -2.94811952628038E-10  4.04113893153463E-03
 cg2d: Sum(rhs),rhsMax =  -2.83196854855561E-10  4.20527506725378E-03
 cg2d: Sum(rhs),rhsMax =  -2.72426636804823E-10  4.36993586363175E-03
 cg2d: Sum(rhs),rhsMax =  -2.62388666349977E-10  4.53504754144406E-03
 cg2d: Sum(rhs),rhsMax =  -2.53087190094092E-10  4.70053644658343E-03
 cg2d: Sum(rhs),rhsMax =  -2.44389980474935E-10  4.86632846202583E-03
 cg2d: Sum(rhs),rhsMax =  -2.36249547702627E-10  5.03234902679049E-03
 cg2d: Sum(rhs),rhsMax =  -2.28639301935729E-10  5.19852340535906E-03
 cg2d: Sum(rhs),rhsMax =  -2.21486259888160E-10  5.36477693449520E-03
 cg2d: Sum(rhs),rhsMax =  -2.14775530693601E-10  5.53103515576582E-03
 cg2d: Sum(rhs),rhsMax =  -2.08447079041996E-10  5.69722385765785E-03
 cg2d: Sum(rhs),rhsMax =  -2.02438694280049E-10  5.86326911122672E-03
 cg2d: Sum(rhs),rhsMax =  -1.96809728236769E-10  6.02909736888447E-03
 cg2d: Sum(rhs),rhsMax =  -1.91474350264009E-10  6.19463525170616E-03
 cg2d: Sum(rhs),rhsMax =  -1.86438170457492E-10  6.35980936192301E-03
 cg2d: Sum(rhs),rhsMax =  -1.81649778552284E-10  6.52454627281222E-03
 cg2d: Sum(rhs),rhsMax =  -1.77110576204953E-10  6.68877260703636E-03
 cg2d: Sum(rhs),rhsMax =  -1.72782677054784E-10  6.85241506538654E-03
 cg2d: Sum(rhs),rhsMax =  -1.68710406756034E-10  7.01540035527783E-03
 cg2d: Sum(rhs),rhsMax =  -1.64800062485426E-10  7.17765506171264E-03
 cg2d: Sum(rhs),rhsMax =  -1.61149787958337E-10  7.33910553679097E-03
 cg2d: Sum(rhs),rhsMax =  -1.57635404729461E-10  7.49967785398956E-03
 cg2d: Sum(rhs),rhsMax =  -1.54300017207731E-10  7.65929770400436E-03
 cg2d: Sum(rhs),rhsMax =  -1.51090973066204E-10  7.81789060176344E-03
 cg2d: Sum(rhs),rhsMax =  -1.48064061011866E-10  7.97538277683342E-03
 cg2d: Sum(rhs),rhsMax =  -1.45169876120121E-10  8.13170119381721E-03
 cg2d: Sum(rhs),rhsMax =  -1.42326039842544E-10  8.28677218428056E-03
 cg2d: Sum(rhs),rhsMax =  -1.39588618441877E-10  8.44052187265332E-03
 cg2d: Sum(rhs),rhsMax =  -1.36984146248409E-10  8.59287728452252E-03
 cg2d: Sum(rhs),rhsMax =  -1.34510735882998E-10  8.74376683844493E-03
 cg2d: Sum(rhs),rhsMax =  -1.32141686481901E-10  8.89312006529847E-03
 cg2d: Sum(rhs),rhsMax =  -1.29861621456229E-10  9.04086759768850E-03
 cg2d: Sum(rhs),rhsMax =  -1.27697741270083E-10  9.18694077201917E-03
 cg2d: Sum(rhs),rhsMax =  -1.25631283154348E-10  9.33127164011864E-03
 cg2d: Sum(rhs),rhsMax =  -1.23629939619008E-10  9.47379339455911E-03
 cg2d: Sum(rhs),rhsMax =  -1.21732457447621E-10  9.61444149389237E-03
 cg2d: Sum(rhs),rhsMax =  -1.19913634577529E-10  9.75315358758619E-03
 cg2d: Sum(rhs),rhsMax =  -1.18147935879165E-10  9.88986792135416E-03
 cg2d: Sum(rhs),rhsMax =  -1.16462395283179E-10  1.00245231999921E-02
 cg2d: Sum(rhs),rhsMax =  -1.14813436535854E-10  1.01570590439228E-02
 cg2d: Sum(rhs),rhsMax =  -1.13291875880606E-10  1.02874163161391E-02
 cg2d: Sum(rhs),rhsMax =  -1.11813447389864E-10  1.04155371299160E-02
 cg2d: Sum(rhs),rhsMax =  -1.10398357122676E-10  1.05413646840753E-02
 cg2d: Sum(rhs),rhsMax =  -1.09035114270739E-10  1.06648431089355E-02
 cg2d: Sum(rhs),rhsMax =  -1.07748143740594E-10  1.07859174171565E-02
 cg2d: Sum(rhs),rhsMax =  -1.06498254659471E-10  1.09045334787652E-02
 cg2d: Sum(rhs),rhsMax =  -1.05294550856172E-10  1.10206380383011E-02
 cg2d: Sum(rhs),rhsMax =  -1.04137032330698E-10  1.11341787843507E-02
 cg2d: Sum(rhs),rhsMax =  -1.03064778933515E-10  1.12451043980067E-02
 cg2d: Sum(rhs),rhsMax =  -1.02003849811183E-10  1.13533645776603E-02
 cg2d: Sum(rhs),rhsMax =  -1.01010200204144E-10  1.14589100470653E-02
 cg2d: Sum(rhs),rhsMax =  -1.00062402808021E-10  1.15616925530029E-02
 cg2d: Sum(rhs),rhsMax =  -9.91219328838611E-11  1.16616648735917E-02
 cg2d: Sum(rhs),rhsMax =  -9.82429693152653E-11  1.17587808482441E-02
 cg2d: Sum(rhs),rhsMax =  -9.74078595561423E-11  1.18529954089287E-02
 cg2d: Sum(rhs),rhsMax =  -9.66018376402644E-11  1.19442646098077E-02
 cg2d: Sum(rhs),rhsMax =  -9.58431112252356E-11  1.20325456542533E-02
 cg2d: Sum(rhs),rhsMax =  -9.50405310007341E-11  1.21177969216768E-02
 cg2d: Sum(rhs),rhsMax =  -9.43217726145917E-11  1.21999779987768E-02
 cg2d: Sum(rhs),rhsMax =  -9.36227761982877E-11  1.22790497189453E-02
 cg2d: Sum(rhs),rhsMax =  -9.29377685920940E-11  1.23549742106208E-02
 cg2d: Sum(rhs),rhsMax =  -9.23144893860695E-11  1.24277150443982E-02
 cg2d: Sum(rhs),rhsMax =  -9.16750009238854E-11  1.24972373302486E-02
 cg2d: Sum(rhs),rhsMax =  -9.10970188172655E-11  1.25635075190342E-02
 cg2d: Sum(rhs),rhsMax =  -9.05471253531687E-11  1.26264933209703E-02
 cg2d: Sum(rhs),rhsMax =  -9.00590713115434E-11  1.26861638456335E-02
 cg2d: Sum(rhs),rhsMax =  -8.96186458376746E-11  1.27424897938757E-02
 cg2d: Sum(rhs),rhsMax =  -8.91557938587084E-11  1.27954435603611E-02
 cg2d: Sum(rhs),rhsMax =  -8.87274698158080E-11  1.28449992256375E-02
 cg2d: Sum(rhs),rhsMax =  -8.83533246565094E-11  1.28911324983722E-02
 cg2d: Sum(rhs),rhsMax =  -8.79960548871850E-11  1.29338206723887E-02
 cg2d: Sum(rhs),rhsMax =  -8.76859695964072E-11  1.29730426222087E-02
 cg2d: Sum(rhs),rhsMax =  -8.73890959596224E-11  1.30087788231056E-02
 cg2d: Sum(rhs),rhsMax =  -8.71506200539329E-11  1.30410113705901E-02
 cg2d: Sum(rhs),rhsMax =  -8.69079253007499E-11  1.30697239847501E-02
 cg2d: Sum(rhs),rhsMax =  -8.66853255843125E-11  1.30949020005745E-02
 cg2d: Sum(rhs),rhsMax =  -8.64304183778586E-11  1.31165323539627E-02
 cg2d: Sum(rhs),rhsMax =  -8.62451221550486E-11  1.31346035721286E-02
 cg2d: Sum(rhs),rhsMax =  -8.61081206338099E-11  1.31491057712963E-02
 cg2d: Sum(rhs),rhsMax =  -8.59520232765476E-11  1.31600306594254E-02
 cg2d: Sum(rhs),rhsMax =  -8.58541016057757E-11  1.31673715333942E-02
 cg2d: Sum(rhs),rhsMax =  -8.57653947861081E-11  1.31711232081319E-02
 cg2d: Sum(rhs),rhsMax =  -8.56863469067548E-11  1.31712820322892E-02
 cg2d: Sum(rhs),rhsMax =  -8.56470450116831E-11  1.31678460042923E-02
 cg2d: Sum(rhs),rhsMax =  -8.55870929683533E-11  1.31608147772842E-02
 cg2d: Sum(rhs),rhsMax =  -8.56724691189470E-11  1.31501896137096E-02
 cg2d: Sum(rhs),rhsMax =  -8.57901527595573E-11  1.31359733435567E-02
 cg2d: Sum(rhs),rhsMax =  -8.59937676622735E-11  1.31181703456410E-02
 cg2d: Sum(rhs),rhsMax =  -8.62262483636300E-11  1.30967865432156E-02
 cg2d: Sum(rhs),rhsMax =  -8.64670557376712E-11  1.30718294038028E-02
 cg2d: Sum(rhs),rhsMax =  -8.67290683714828E-11  1.30433079367453E-02
 cg2d: Sum(rhs),rhsMax =  -8.69914140722017E-11  1.30112326872267E-02
 cg2d: Sum(rhs),rhsMax =  -8.72885097535914E-11  1.29756157285847E-02
 cg2d: Sum(rhs),rhsMax =  -8.76517747272487E-11  1.29364706548363E-02
 cg2d: Sum(rhs),rhsMax =  -8.79897266159446E-11  1.28938125746006E-02
 cg2d: Sum(rhs),rhsMax =  -8.83990658451239E-11  1.28476578941826E-02
 cg2d: Sum(rhs),rhsMax =  -8.87727669152127E-11  1.27980245045836E-02
 cg2d: Sum(rhs),rhsMax =  -8.91756668508492E-11  1.27449319975076E-02
 cg2d: Sum(rhs),rhsMax =  -8.96313023801554E-11  1.26884015989780E-02
 cg2d: Sum(rhs),rhsMax =  -9.01092533922565E-11  1.26284560256521E-02
 cg2d: Sum(rhs),rhsMax =  -9.06112962439920E-11  1.25651193998089E-02
 cg2d: Sum(rhs),rhsMax =  -9.11135611403324E-11  1.24984172427986E-02
 cg2d: Sum(rhs),rhsMax =  -9.17205200678950E-11  1.24283765067299E-02
 cg2d: Sum(rhs),rhsMax =  -9.23140452968596E-11  1.23550255961948E-02
 cg2d: Sum(rhs),rhsMax =  -9.29641919000801E-11  1.22783942541150E-02
 cg2d: Sum(rhs),rhsMax =  -9.36377642091202E-11  1.21985137162024E-02
 cg2d: Sum(rhs),rhsMax =  -9.43675138032063E-11  1.21154167977784E-02
 cg2d: Sum(rhs),rhsMax =  -9.51012602001811E-11  1.20291376142861E-02
 cg2d: Sum(rhs),rhsMax =  -9.58949586404856E-11  1.19397114710169E-02
 cg2d: Sum(rhs),rhsMax =  -9.67549373953602E-11  1.18471747917545E-02
 cg2d: Sum(rhs),rhsMax =  -9.76436709265727E-11  1.17515651357087E-02
 cg2d: Sum(rhs),rhsMax =  -9.85789228025169E-11  1.16529223695627E-02
 cg2d: Sum(rhs),rhsMax =  -9.95338256259970E-11  1.15512882140337E-02
 cg2d: Sum(rhs),rhsMax =  -1.00452313134269E-10  1.14564781549432E-02
 cg2d: Sum(rhs),rhsMax =  -1.01393782259152E-10  1.13589247686483E-02
 cg2d: Sum(rhs),rhsMax =  -1.02352570863218E-10  1.12584508424461E-02
 cg2d: Sum(rhs),rhsMax =  -1.03325126232789E-10  1.11551031439805E-02
 cg2d: Sum(rhs),rhsMax =  -1.04409814127848E-10  1.10489196643808E-02
 cg2d: Sum(rhs),rhsMax =  -1.05530362226602E-10  1.09399377520402E-02
 cg2d: Sum(rhs),rhsMax =  -1.06675668298806E-10  1.08282028447857E-02
 cg2d: Sum(rhs),rhsMax =  -1.07887920819394E-10  1.07137678388341E-02
 cg2d: Sum(rhs),rhsMax =  -1.09130371406252E-10  1.05966890525927E-02
 cg2d: Sum(rhs),rhsMax =  -1.10455977697654E-10  1.04770231467171E-02
 cg2d: Sum(rhs),rhsMax =  -1.11819664638801E-10  1.03548262139455E-02
 cg2d: Sum(rhs),rhsMax =  -1.13288267655776E-10  1.02301543085836E-02
 cg2d: Sum(rhs),rhsMax =  -1.14766973702274E-10  1.01030643245210E-02
 cg2d: Sum(rhs),rhsMax =  -1.16346376977106E-10  9.97361455110353E-03
 cg2d: Sum(rhs),rhsMax =  -1.18008269822667E-10  9.84186420594173E-03
 cg2d: Sum(rhs),rhsMax =  -1.19736109915891E-10  9.70787399496688E-03
 cg2d: Sum(rhs),rhsMax =  -1.21545329356820E-10  9.57170606503381E-03
 cg2d: Sum(rhs),rhsMax =  -1.23421051156924E-10  9.43342363539045E-03
 cg2d: Sum(rhs),rhsMax =  -1.25376153903289E-10  9.29309063296722E-03
 cg2d: Sum(rhs),rhsMax =  -1.27380217485040E-10  9.15077150308530E-03
 cg2d: Sum(rhs),rhsMax =  -1.29513177959950E-10  9.00653122820138E-03
 cg2d: Sum(rhs),rhsMax =  -1.31753274956736E-10  8.86043548522571E-03
 cg2d: Sum(rhs),rhsMax =  -1.34127708939502E-10  8.71254378896234E-03
 cg2d: Sum(rhs),rhsMax =  -1.36544053841448E-10  8.56291469484302E-03
 cg2d: Sum(rhs),rhsMax =  -1.39127820375506E-10  8.41161218782851E-03
 cg2d: Sum(rhs),rhsMax =  -1.41814615606251E-10  8.25870510422673E-03
 cg2d: Sum(rhs),rhsMax =  -1.44618872433000E-10  8.10426452833185E-03
 cg2d: Sum(rhs),rhsMax =  -1.47599876765270E-10  7.94836185699027E-03
 cg2d: Sum(rhs),rhsMax =  -1.50686463307181E-10  7.79106817242421E-03
 cg2d: Sum(rhs),rhsMax =  -1.53950741044184E-10  7.63245444512586E-03
 cg2d: Sum(rhs),rhsMax =  -1.57282464829933E-10  7.47259178691043E-03
 cg2d: Sum(rhs),rhsMax =  -1.60786606251406E-10  7.31155167209415E-03
 cg2d: Sum(rhs),rhsMax =  -1.64505076227783E-10  7.14940636571055E-03
 cg2d: Sum(rhs),rhsMax =  -1.68404179490267E-10  6.98622905333862E-03
 cg2d: Sum(rhs),rhsMax =  -1.72514502683185E-10  6.82209358233318E-03
 cg2d: Sum(rhs),rhsMax =  -1.76851699951186E-10  6.65707405618278E-03
 cg2d: Sum(rhs),rhsMax =  -1.81442583180313E-10  6.49124457668038E-03
 cg2d: Sum(rhs),rhsMax =  -1.86286652770207E-10  6.32467926829375E-03
 cg2d: Sum(rhs),rhsMax =  -1.91415105987858E-10  6.15745232111301E-03
 cg2d: Sum(rhs),rhsMax =  -1.96847593780802E-10  5.98963845582827E-03
 cg2d: Sum(rhs),rhsMax =  -2.02611122324114E-10  5.82131302502574E-03
 cg2d: Sum(rhs),rhsMax =  -2.08709494131654E-10  5.65255179002756E-03
 cg2d: Sum(rhs),rhsMax =  -2.15232220934780E-10  5.48343069547680E-03
 cg2d: Sum(rhs),rhsMax =  -2.22162871432730E-10  5.31402576954894E-03
 cg2d: Sum(rhs),rhsMax =  -2.29555180419894E-10  5.14441312563574E-03
 cg2d: Sum(rhs),rhsMax =  -2.37479938491880E-10  4.97466900335769E-03
 cg2d: Sum(rhs),rhsMax =  -2.45954867583720E-10  4.80486981218463E-03
 cg2d: Sum(rhs),rhsMax =  -2.55058665160623E-10  4.63509216966041E-03
 cg2d: Sum(rhs),rhsMax =  -2.64868953159247E-10  4.46541293568550E-03
 cg2d: Sum(rhs),rhsMax =  -2.75383819914321E-10  4.29590924069878E-03
 cg2d: Sum(rhs),rhsMax =  -2.86761364653998E-10  4.12665850082153E-03
 cg2d: Sum(rhs),rhsMax =  -2.99091057476275E-10  3.95773841209269E-03
 cg2d: Sum(rhs),rhsMax =  -3.12481096553796E-10  3.78922692843376E-03
 cg2d: Sum(rhs),rhsMax =  -3.27133153898984E-10  3.62120218584219E-03
 cg2d: Sum(rhs),rhsMax =  -3.42981587575508E-10  3.45374238713134E-03
 cg2d: Sum(rhs),rhsMax =  -3.60453333847488E-10  3.28692565651223E-03
 cg2d: Sum(rhs),rhsMax =  -3.75651676431943E-10  3.15374773293495E-03
 cg2d: Sum(rhs),rhsMax =  -3.59222429580086E-10  3.29838449077279E-03
 cg2d: Sum(rhs),rhsMax =  -3.44288153542038E-10  3.44193206097853E-03
 cg2d: Sum(rhs),rhsMax =  -3.30667049297517E-10  3.58432877930359E-03
 cg2d: Sum(rhs),rhsMax =  -3.18172932445293E-10  3.72551540264210E-03
 cg2d: Sum(rhs),rhsMax =  -3.06734526667185E-10  3.86543474386030E-03
 cg2d: Sum(rhs),rhsMax =  -2.96230040497392E-10  4.00403135651627E-03
 cg2d: Sum(rhs),rhsMax =  -2.86478285538294E-10  4.14125129111830E-03
 cg2d: Sum(rhs),rhsMax =  -2.77541767346179E-10  4.27704181531332E-03
 cg2d: Sum(rhs),rhsMax =  -2.69167910182944E-10  4.41134675468552E-03
 cg2d: Sum(rhs),rhsMax =  -2.61361265962989E-10  4.54411029985330E-03
 cg2d: Sum(rhs),rhsMax =  -2.54103960095620E-10  4.67527907668043E-03
 cg2d: Sum(rhs),rhsMax =  -2.47343590054072E-10  4.80480136042841E-03
 cg2d: Sum(rhs),rhsMax =  -2.40974240561798E-10  4.93262549379915E-03
 cg2d: Sum(rhs),rhsMax =  -2.35070851672958E-10  5.05869883602653E-03
 cg2d: Sum(rhs),rhsMax =  -2.29506857962747E-10  5.18296750347066E-03
 cg2d: Sum(rhs),rhsMax =  -2.24290030992336E-10  5.30537636269643E-03
 cg2d: Sum(rhs),rhsMax =  -2.19353979424852E-10  5.42586749180702E-03
 cg2d: Sum(rhs),rhsMax =  -2.14722573055326E-10  5.54438355597669E-03
 cg2d: Sum(rhs),rhsMax =  -2.10341855044760E-10  5.66086925055280E-03
 cg2d: Sum(rhs),rhsMax =  -2.06240580169492E-10  5.77527004680369E-03
 cg2d: Sum(rhs),rhsMax =  -2.01648364672735E-10  5.90897998933351E-03
 cg2d: Sum(rhs),rhsMax =  -1.96233473914731E-10  6.07431828371400E-03
 cg2d: Sum(rhs),rhsMax =  -1.91169080565601E-10  6.23688471379498E-03
 cg2d: Sum(rhs),rhsMax =  -1.86454296446925E-10  6.39661545403277E-03
 cg2d: Sum(rhs),rhsMax =  -1.82127646297658E-10  6.55344962447651E-03
 cg2d: Sum(rhs),rhsMax =  -1.78049130994395E-10  6.70732901466907E-03
 cg2d: Sum(rhs),rhsMax =  -1.74285030851706E-10  6.85819773406169E-03
 cg2d: Sum(rhs),rhsMax =  -1.70666147880638E-10  7.00600181104610E-03
 cg2d: Sum(rhs),rhsMax =  -1.67342362189515E-10  7.15068876812139E-03
 cg2d: Sum(rhs),rhsMax =  -1.64194102758586E-10  7.29220720366554E-03
 cg2d: Sum(rhs),rhsMax =  -1.61248014940440E-10  7.43050640688398E-03
 cg2d: Sum(rhs),rhsMax =  -1.58464907862310E-10  7.56553602834855E-03
 cg2d: Sum(rhs),rhsMax =  -1.55820356617653E-10  7.69724582289770E-03
 cg2d: Sum(rhs),rhsMax =  -1.53368873156978E-10  7.82558547524085E-03
 cg2d: Sum(rhs),rhsMax =  -1.51043177964993E-10  7.95050451199404E-03
 cg2d: Sum(rhs),rhsMax =  -1.48841605707162E-10  8.07195229758555E-03
 cg2d: Sum(rhs),rhsMax =  -1.46792134003704E-10  8.18987810594101E-03
 cg2d: Sum(rhs),rhsMax =  -1.44823597558741E-10  8.30423125697038E-03
 cg2d: Sum(rhs),rhsMax =  -1.42999612151584E-10  8.41496129902808E-03
 cg2d: Sum(rhs),rhsMax =  -1.41252898266941E-10  8.52201822046947E-03
 cg2d: Sum(rhs),rhsMax =  -1.39614542149502E-10  8.62535267573558E-03
 cg2d: Sum(rhs),rhsMax =  -1.38143163574966E-10  8.72491620939313E-03
 cg2d: Sum(rhs),rhsMax =  -1.36705757824984E-10  8.82066146358822E-03
 cg2d: Sum(rhs),rhsMax =  -1.35364164322027E-10  8.91254235752262E-03
 cg2d: Sum(rhs),rhsMax =  -1.34127153827990E-10  9.00051423175602E-03
 cg2d: Sum(rhs),rhsMax =  -1.32968303034886E-10  9.08453394860162E-03
(PID.TID 0000.0001)      cg2d_init_res =   4.54955793566244E-02
(PID.TID 0000.0001)      cg2d_iters(min,last) =      -1      37
(PID.TID 0000.0001)      cg2d_last_res =   8.45232560121786E-14
(PID.TID 0000.0001) // =======================================================
(PID.TID 0000.0001) // Begin MONITOR dynamic field statistics
(PID.TID 0000.0001) // =======================================================
(PID.TID 0000.0001) %MON time_tsnumber                =                  7200
(PID.TID 0000.0001) %MON time_secondsf                =   1.0800000000000E+05
(PID.TID 0000.0001) %MON dynstat_eta_max              =   1.5827512217662E-03
(PID.TID 0000.0001) %MON dynstat_eta_min              =  -1.5411306773136E-03
(PID.TID 0000.0001) %MON dynstat_eta_mean             =   2.6661943686596E-15
(PID.TID 0000.0001) %MON dynstat_eta_sd               =   1.0885052502954E-03
(PID.TID 0000.0001) %MON dynstat_eta_del2             =   4.2755610083532E-06
(PID.TID 0000.0001) %MON dynstat_uvel_max             =   2.1433724821136E-01
(PID.TID 0000.0001) %MON dynstat_uvel_min             =   5.1484223063375E-02
(PID.TID 0000.0001) %MON dynstat_uvel_mean            =   1.1318792965058E-01
(PID.TID 0000.0001) %MON dynstat_uvel_sd              =   6.4897880587191E-03
(PID.TID 0000.0001) %MON dynstat_uvel_del2            =   1.0584944200357E-04
(PID.TID 0000.0001) %MON dynstat_vvel_max             =   0.0000000000000E+00
(PID.TID 0000.0001) %MON dynstat_vvel_min             =   0.0000000000000E+00
(PID.TID 0000.0001) %MON dynstat_vvel_mean            =   0.0000000000000E+00
(PID.TID 0000.0001) %MON dynstat_vvel_sd              =   0.0000000000000E+00
(PID.TID 0000.0001) %MON dynstat_vvel_del2            =   0.0000000000000E+00
(PID.TID 0000.0001) %MON dynstat_wvel_max             =   2.8675251511379E-03
(PID.TID 0000.0001) %MON dynstat_wvel_min             =  -2.4136309660393E-03
(PID.TID 0000.0001) %MON dynstat_wvel_mean            =   6.9124232165902E-21
(PID.TID 0000.0001) %MON dynstat_wvel_sd              =   2.4558708319737E-04
(PID.TID 0000.0001) %MON dynstat_wvel_del2            =   7.1568396303363E-06
(PID.TID 0000.0001) %MON dynstat_theta_max            =   1.5000000000013E+01
(PID.TID 0000.0001) %MON dynstat_theta_min            =   9.9999999999896E+00
(PID.TID 0000.0001) %MON dynstat_theta_mean           =   1.1004635864439E+01
(PID.TID 0000.0001) %MON dynstat_theta_sd             =   1.9376624688756E+00
(PID.TID 0000.0001) %MON dynstat_theta_del2           =   5.0894248927522E-05
(PID.TID 0000.0001) %MON dynstat_salt_max             =   3.5000000000000E+01
(PID.TID 0000.0001) %MON dynstat_salt_min             =   3.5000000000000E+01
(PID.TID 0000.0001) %MON dynstat_salt_mean            =   3.5000000000000E+01
(PID.TID 0000.0001) %MON dynstat_salt_sd              =   4.0500935938326E-13
(PID.TID 0000.0001) %MON dynstat_salt_del2            =   0.0000000000000E+00
(PID.TID 0000.0001) %MON dynstat_sst_max              =   1.5000000000013E+01
(PID.TID 0000.0001) %MON dynstat_sst_min              =   1.5000000000000E+01
(PID.TID 0000.0001) %MON dynstat_sst_mean             =   1.5000000000010E+01
(PID.TID 0000.0001) %MON dynstat_sst_sd               =   5.0472581766252E-12
(PID.TID 0000.0001) %MON dynstat_sst_del2             =   2.9800543926575E-14
(PID.TID 0000.0001) %MON dynstat_sss_max              =   3.5000000000000E+01
(PID.TID 0000.0001) %MON dynstat_sss_min              =   3.5000000000000E+01
(PID.TID 0000.0001) %MON dynstat_sss_mean             =   3.5000000000000E+01
(PID.TID 0000.0001) %MON dynstat_sss_sd               =   4.2632564145606E-14
(PID.TID 0000.0001) %MON dynstat_sss_del2             =   0.0000000000000E+00
(PID.TID 0000.0001) %MON forcing_qnet_max             =   0.0000000000000E+00
(PID.TID 0000.0001) %MON forcing_qnet_min             =   0.0000000000000E+00
(PID.TID 0000.0001) %MON forcing_qnet_mean            =   0.0000000000000E+00
(PID.TID 0000.0001) %MON forcing_qnet_sd              =   0.0000000000000E+00
(PID.TID 0000.0001) %MON forcing_qnet_del2            =   0.0000000000000E+00
(PID.TID 0000.0001) %MON forcing_qsw_max              =   0.0000000000000E+00
(PID.TID 0000.0001) %MON forcing_qsw_min              =   0.0000000000000E+00
(PID.TID 0000.0001) %MON forcing_qsw_mean             =   0.0000000000000E+00
(PID.TID 0000.0001) %MON forcing_qsw_sd               =   0.0000000000000E+00
(PID.TID 0000.0001) %MON forcing_qsw_del2             =   0.0000000000000E+00
(PID.TID 0000.0001) %MON forcing_empmr_max            =   0.0000000000000E+00
(PID.TID 0000.0001) %MON forcing_empmr_min            =   0.0000000000000E+00
(PID.TID 0000.0001) %MON forcing_empmr_mean           =   0.0000000000000E+00
(PID.TID 0000.0001) %MON forcing_empmr_sd             =   0.0000000000000E+00
(PID.TID 0000.0001) %MON forcing_empmr_del2           =   0.0000000000000E+00
(PID.TID 0000.0001) %MON forcing_fu_max               =   0.0000000000000E+00
(PID.TID 0000.0001) %MON forcing_fu_min               =   0.0000000000000E+00
(PID.TID 0000.0001) %MON forcing_fu_mean              =   0.0000000000000E+00
(PID.TID 0000.0001) %MON forcing_fu_sd                =   0.0000000000000E+00
(PID.TID 0000.0001) %MON forcing_fu_del2              =   0.0000000000000E+00
(PID.TID 0000.0001) %MON forcing_fv_max               =   0.0000000000000E+00
(PID.TID 0000.0001) %MON forcing_fv_min               =   0.0000000000000E+00
(PID.TID 0000.0001) %MON forcing_fv_mean              =   0.0000000000000E+00
(PID.TID 0000.0001) %MON forcing_fv_sd                =   0.0000000000000E+00
(PID.TID 0000.0001) %MON forcing_fv_del2              =   0.0000000000000E+00
(PID.TID 0000.0001) %MON advcfl_uvel_max              =   1.3057817952038E-02
(PID.TID 0000.0001) %MON advcfl_vvel_max              =   0.0000000000000E+00
(PID.TID 0000.0001) %MON advcfl_wvel_max              =   4.3018968150546E-02
(PID.TID 0000.0001) %MON advcfl_W_hf_max              =   4.3025060759280E-02
(PID.TID 0000.0001) %MON pe_b_mean                    =   2.9365994783879E-08
(PID.TID 0000.0001) %MON ke_max                       =   1.4188318321198E-02
(PID.TID 0000.0001) %MON ke_mean                      =   6.4265496630334E-03
(PID.TID 0000.0001) %MON ke_vol                       =   9.6656886657870E+10
(PID.TID 0000.0001) %MON vort_r_min                   =   0.0000000000000E+00
(PID.TID 0000.0001) %MON vort_r_max                   =   0.0000000000000E+00
(PID.TID 0000.0001) %MON vort_a_mean                  =   0.0000000000000E+00
(PID.TID 0000.0001) %MON vort_a_sd                    =   0.0000000000000E+00
(PID.TID 0000.0001) %MON vort_p_mean                  =   0.0000000000000E+00
(PID.TID 0000.0001) %MON vort_p_sd                    =   0.0000000000000E+00
(PID.TID 0000.0001) %MON surfExpan_theta_mean         =  -7.3887991815808E-19
(PID.TID 0000.0001) %MON surfExpan_salt_mean          =   3.0586381427415E-19
(PID.TID 0000.0001) // =======================================================
(PID.TID 0000.0001) // End MONITOR dynamic field statistics
(PID.TID 0000.0001) // =======================================================
(PID.TID 0000.0001) // =======================================================
(PID.TID 0000.0001) // Begin OBCS MONITOR field statistics
(PID.TID 0000.0001) // =======================================================
(PID.TID 0000.0001) %MON obc_E_uVel_max               =   1.1205712828732E-01
(PID.TID 0000.0001) %MON obc_E_uVel_min               =   1.1205712828732E-01
(PID.TID 0000.0001) %MON obc_E_uVel_mean              =   1.1205712828732E-01
(PID.TID 0000.0001) %MON obc_E_uVel_sd                =  -1.2143064331838E-17
(PID.TID 0000.0001) %MON obc_E_uVel_Int               =   1.1205712828732E+05
(PID.TID 0000.0001) %MON obc_W_uVel_max               =   1.1205712828732E-01
(PID.TID 0000.0001) %MON obc_W_uVel_min               =   1.1205712828732E-01
(PID.TID 0000.0001) %MON obc_W_uVel_mean              =   1.1205712828732E-01
(PID.TID 0000.0001) %MON obc_W_uVel_sd                =  -1.2143064331838E-17
(PID.TID 0000.0001) %MON obc_W_uVel_Int               =   1.1205712828732E+05
(PID.TID 0000.0001) // =======================================================
(PID.TID 0000.0001) // End OBCS MONITOR field statistics
(PID.TID 0000.0001) // =======================================================
(PID.TID 0000.0001) %CHECKPOINT      7200 0000007200
(PID.TID 0000.0001)   Seconds in section "ALL                    [THE_MODEL_MAIN]":
(PID.TID 0000.0001)           User time:   322.34000000000003
(PID.TID 0000.0001)         System time:  0.35999999999999999
(PID.TID 0000.0001)     Wall clock time:   322.79163289070129
(PID.TID 0000.0001)          No. starts:           1
(PID.TID 0000.0001)           No. stops:           1
(PID.TID 0000.0001)   Seconds in section "INITIALISE_FIXED       [THE_MODEL_MAIN]":
(PID.TID 0000.0001)           User time:   4.0000000000000001E-002
(PID.TID 0000.0001)         System time:   0.0000000000000000
(PID.TID 0000.0001)     Wall clock time:   3.9966821670532227E-002
(PID.TID 0000.0001)          No. starts:           1
(PID.TID 0000.0001)           No. stops:           1
(PID.TID 0000.0001)   Seconds in section "THE_MAIN_LOOP          [THE_MODEL_MAIN]":
(PID.TID 0000.0001)           User time:   322.30000000000001
(PID.TID 0000.0001)         System time:  0.35999999999999999
(PID.TID 0000.0001)     Wall clock time:   322.75163602828979
(PID.TID 0000.0001)          No. starts:           1
(PID.TID 0000.0001)           No. stops:           1
(PID.TID 0000.0001)   Seconds in section "INITIALISE_VARIA    [THE_MAIN_LOOP]":
(PID.TID 0000.0001)           User time:   1.0000000000000002E-002
(PID.TID 0000.0001)         System time:   0.0000000000000000
(PID.TID 0000.0001)     Wall clock time:   1.8741130828857422E-002
(PID.TID 0000.0001)          No. starts:           1
(PID.TID 0000.0001)           No. stops:           1
(PID.TID 0000.0001)   Seconds in section "MAIN LOOP           [THE_MAIN_LOOP]":
(PID.TID 0000.0001)           User time:   322.29000000000002
(PID.TID 0000.0001)         System time:  0.35999999999999999
(PID.TID 0000.0001)     Wall clock time:   322.73286390304565
(PID.TID 0000.0001)          No. starts:           1
(PID.TID 0000.0001)           No. stops:           1
(PID.TID 0000.0001)   Seconds in section "MAIN_DO_LOOP        [THE_MAIN_LOOP]":
(PID.TID 0000.0001)           User time:   322.25000000001552
(PID.TID 0000.0001)         System time:  0.36000000000000043
(PID.TID 0000.0001)     Wall clock time:   322.66704559326172
(PID.TID 0000.0001)          No. starts:        7200
(PID.TID 0000.0001)           No. stops:        7200
(PID.TID 0000.0001)   Seconds in section "FORWARD_STEP        [MAIN_DO_LOOP]":
(PID.TID 0000.0001)           User time:   322.10000000001543
(PID.TID 0000.0001)         System time:  0.36000000000000043
(PID.TID 0000.0001)     Wall clock time:   322.53274297714233
(PID.TID 0000.0001)          No. starts:        7200
(PID.TID 0000.0001)           No. stops:        7200
(PID.TID 0000.0001)   Seconds in section "LOAD_FIELDS_DRIVER  [FORWARD_STEP]":
(PID.TID 0000.0001)           User time:  0.23000000000001819
(PID.TID 0000.0001)         System time:   0.0000000000000000
(PID.TID 0000.0001)     Wall clock time:  0.20177006721496582
(PID.TID 0000.0001)          No. starts:        7200
(PID.TID 0000.0001)           No. stops:        7200
(PID.TID 0000.0001)   Seconds in section "EXTERNAL_FLDS_LOAD [LOAD_FLDS_DRIVER]":
(PID.TID 0000.0001)           User time:   9.9999999999965894E-002
(PID.TID 0000.0001)         System time:   0.0000000000000000
(PID.TID 0000.0001)     Wall clock time:   6.7567586898803711E-002
(PID.TID 0000.0001)          No. starts:        7200
(PID.TID 0000.0001)           No. stops:        7200
(PID.TID 0000.0001)   Seconds in section "DO_ATMOSPHERIC_PHYS [FORWARD_STEP]":
(PID.TID 0000.0001)           User time:   5.9999999999945430E-002
(PID.TID 0000.0001)         System time:   0.0000000000000000
(PID.TID 0000.0001)     Wall clock time:   6.7133665084838867E-002
(PID.TID 0000.0001)          No. starts:        7200
(PID.TID 0000.0001)           No. stops:        7200
(PID.TID 0000.0001)   Seconds in section "DO_OCEANIC_PHYS     [FORWARD_STEP]":
(PID.TID 0000.0001)           User time:   135.50999999999954
(PID.TID 0000.0001)         System time:  0.18000000000000005
(PID.TID 0000.0001)     Wall clock time:   135.69167637825012
(PID.TID 0000.0001)          No. starts:        7200
(PID.TID 0000.0001)           No. stops:        7200
(PID.TID 0000.0001)   Seconds in section "DYNAMICS            [FORWARD_STEP]":
(PID.TID 0000.0001)           User time:   89.430000000003133
(PID.TID 0000.0001)         System time:   4.0000000000000036E-002
(PID.TID 0000.0001)     Wall clock time:   89.554856300354004
(PID.TID 0000.0001)          No. starts:        7200
(PID.TID 0000.0001)           No. stops:        7200
(PID.TID 0000.0001)   Seconds in section "SOLVE_FOR_PRESSURE  [FORWARD_STEP]":
(PID.TID 0000.0001)           User time:   2.8300000000002683
(PID.TID 0000.0001)         System time:   0.0000000000000000
(PID.TID 0000.0001)     Wall clock time:   3.3108122348785400
(PID.TID 0000.0001)          No. starts:        7200
(PID.TID 0000.0001)           No. stops:        7200
(PID.TID 0000.0001)   Seconds in section "MOM_CORRECTION_STEP [FORWARD_STEP]":
(PID.TID 0000.0001)           User time:   3.4700000000001410
(PID.TID 0000.0001)         System time:   0.0000000000000000
(PID.TID 0000.0001)     Wall clock time:   3.1813340187072754
(PID.TID 0000.0001)          No. starts:        7200
(PID.TID 0000.0001)           No. stops:        7200
(PID.TID 0000.0001)   Seconds in section "INTEGR_CONTINUITY   [FORWARD_STEP]":
(PID.TID 0000.0001)           User time:   1.5500000000003524
(PID.TID 0000.0001)         System time:   0.0000000000000000
(PID.TID 0000.0001)     Wall clock time:   1.5857267379760742
(PID.TID 0000.0001)          No. starts:        7200
(PID.TID 0000.0001)           No. stops:        7200
(PID.TID 0000.0001)   Seconds in section "BLOCKING_EXCHANGES  [FORWARD_STEP]":
(PID.TID 0000.0001)           User time:   8.4299999999951751
(PID.TID 0000.0001)         System time:   2.0000000000000018E-002
(PID.TID 0000.0001)     Wall clock time:   8.3886747360229492
(PID.TID 0000.0001)          No. starts:       14400
(PID.TID 0000.0001)           No. stops:       14400
(PID.TID 0000.0001)   Seconds in section "THERMODYNAMICS      [FORWARD_STEP]":
(PID.TID 0000.0001)           User time:   79.030000000002531
(PID.TID 0000.0001)         System time:   8.0000000000000016E-002
(PID.TID 0000.0001)     Wall clock time:   79.032220840454102
(PID.TID 0000.0001)          No. starts:        7200
(PID.TID 0000.0001)           No. stops:        7200
(PID.TID 0000.0001)   Seconds in section "TRC_CORRECTION_STEP [FORWARD_STEP]":
(PID.TID 0000.0001)           User time:  0.11000000000007049
(PID.TID 0000.0001)         System time:   0.0000000000000000
(PID.TID 0000.0001)     Wall clock time:   6.8634271621704102E-002
(PID.TID 0000.0001)          No. starts:        7200
(PID.TID 0000.0001)           No. stops:        7200
(PID.TID 0000.0001)   Seconds in section "MONITOR             [FORWARD_STEP]":
(PID.TID 0000.0001)           User time:  0.12999999999999545
(PID.TID 0000.0001)         System time:   0.0000000000000000
(PID.TID 0000.0001)     Wall clock time:  0.11760020256042480
(PID.TID 0000.0001)          No. starts:        7200
(PID.TID 0000.0001)           No. stops:        7200
(PID.TID 0000.0001)   Seconds in section "DO_THE_MODEL_IO     [FORWARD_STEP]":
(PID.TID 0000.0001)           User time:  0.14999999999997726
(PID.TID 0000.0001)         System time:   3.0000000000000027E-002
(PID.TID 0000.0001)     Wall clock time:  0.21101045608520508
(PID.TID 0000.0001)          No. starts:        7200
(PID.TID 0000.0001)           No. stops:        7200
(PID.TID 0000.0001)   Seconds in section "DO_WRITE_PICKUP     [FORWARD_STEP]":
(PID.TID 0000.0001)           User time:   5.0000000000011369E-002
(PID.TID 0000.0001)         System time:   1.0000000000000009E-002
(PID.TID 0000.0001)     Wall clock time:   9.8533153533935547E-002
(PID.TID 0000.0001)          No. starts:        7200
(PID.TID 0000.0001)           No. stops:        7200
(PID.TID 0000.0001) // ======================================================
(PID.TID 0000.0001) // Tile <-> Tile communication statistics
(PID.TID 0000.0001) // ======================================================
(PID.TID 0000.0001) // o Tile number: 000001
(PID.TID 0000.0001) //         No. X exchanges =              0
(PID.TID 0000.0001) //            Max. X spins =              0
(PID.TID 0000.0001) //            Min. X spins =     1000000000
(PID.TID 0000.0001) //          Total. X spins =              0
(PID.TID 0000.0001) //            Avg. X spins =       0.00E+00
(PID.TID 0000.0001) //         No. Y exchanges =              0
(PID.TID 0000.0001) //            Max. Y spins =              0
(PID.TID 0000.0001) //            Min. Y spins =     1000000000
(PID.TID 0000.0001) //          Total. Y spins =              0
(PID.TID 0000.0001) //            Avg. Y spins =       0.00E+00
(PID.TID 0000.0001) // o Thread number: 000001
(PID.TID 0000.0001) //            No. barriers =        1729278
(PID.TID 0000.0001) //      Max. barrier spins =              1
(PID.TID 0000.0001) //      Min. barrier spins =              1
(PID.TID 0000.0001) //     Total barrier spins =        1729278
(PID.TID 0000.0001) //      Avg. barrier spins =       1.00E+00
PROGRAM MAIN: Execution ended Normally
