(PID.TID 0000.0001) 
(PID.TID 0000.0001) // ======================================================
(PID.TID 0000.0001) //                      MITgcm UV
(PID.TID 0000.0001) //                      =========
(PID.TID 0000.0001) // ======================================================
(PID.TID 0000.0001) // execution environment starting up...
(PID.TID 0000.0001) 
(PID.TID 0000.0001) // MITgcmUV version:  checkpoint65d
(PID.TID 0000.0001) // Build user:        hugke729
(PID.TID 0000.0001) // Build host:        hugke729
(PID.TID 0000.0001) // Build date:        Mon Apr 10 14:21:54 PDT 2017
(PID.TID 0000.0001) 
(PID.TID 0000.0001) // =======================================================
(PID.TID 0000.0001) // Execution Environment parameter file "eedata"
(PID.TID 0000.0001) // =======================================================
(PID.TID 0000.0001) ># Example "eedata" file
(PID.TID 0000.0001) ># Lines beginning "#" are comments
(PID.TID 0000.0001) ># nTx - No. threads per process in X
(PID.TID 0000.0001) ># nTy - No. threads per process in Y
(PID.TID 0000.0001) > &EEPARMS
(PID.TID 0000.0001) > /
(PID.TID 0000.0001) ># Note: Some systems use & as the
(PID.TID 0000.0001) ># namelist terminator. Other systems
(PID.TID 0000.0001) ># use a / character (as shown here).
(PID.TID 0000.0001) 
(PID.TID 0000.0001) // =======================================================
(PID.TID 0000.0001) // Computational Grid Specification ( see files "SIZE.h" )
(PID.TID 0000.0001) //                                  ( and "eedata"       )
(PID.TID 0000.0001) // =======================================================
(PID.TID 0000.0001)      nPx =    1 ; /* No. processes in X */
(PID.TID 0000.0001)      nPy =    1 ; /* No. processes in Y */
(PID.TID 0000.0001)      nSx =    1 ; /* No. tiles in X per process */
(PID.TID 0000.0001)      nSy =    1 ; /* No. tiles in Y per process */
(PID.TID 0000.0001)      sNx =  200 ; /* Tile size in X */
(PID.TID 0000.0001)      sNy =    1 ; /* Tile size in Y */
(PID.TID 0000.0001)      OLx =    2 ; /* Tile overlap distance in X */
(PID.TID 0000.0001)      OLy =    2 ; /* Tile overlap distance in Y */
(PID.TID 0000.0001)      nTx =    1 ; /* No. threads in X per process */
(PID.TID 0000.0001)      nTy =    1 ; /* No. threads in Y per process */
(PID.TID 0000.0001)       Nr =  100 ; /* No. levels in the vertical   */
(PID.TID 0000.0001)       Nx =  200 ; /* Total domain size in X ( = nPx*nSx*sNx ) */
(PID.TID 0000.0001)       Ny =    1 ; /* Total domain size in Y ( = nPy*nSy*sNy ) */
(PID.TID 0000.0001)   nTiles =    1 ; /* Total no. tiles per process ( = nSx*nSy ) */
(PID.TID 0000.0001)   nProcs =    1 ; /* Total no. processes ( = nPx*nPy ) */
(PID.TID 0000.0001) nThreads =    1 ; /* Total no. threads per process ( = nTx*nTy ) */
(PID.TID 0000.0001) usingMPI =    F ; /* Flag used to control whether MPI is in use */
(PID.TID 0000.0001)                   /*  note: To execute a program with MPI calls */
(PID.TID 0000.0001)                   /*  it must be launched appropriately e.g     */
(PID.TID 0000.0001)                   /*  "mpirun -np 64 ......"                    */
(PID.TID 0000.0001) useCoupler=    F ;/* Flag used to control communications with   */
(PID.TID 0000.0001)                   /*  other model components, through a coupler */
(PID.TID 0000.0001) debugMode =    F ; /* print debug msg. (sequence of S/R calls)  */
(PID.TID 0000.0001) printMapIncludesZeros=    F ; /* print zeros in Std.Output maps */
(PID.TID 0000.0001) maxLengthPrt1D=   65 /* maxLength of 1D array printed to StdOut */
(PID.TID 0000.0001) 
(PID.TID 0000.0001) // ======================================================
(PID.TID 0000.0001) // Mapping of tiles to threads
(PID.TID 0000.0001) // ======================================================
(PID.TID 0000.0001) // -o- Thread   1, tiles (   1:   1,   1:   1)
(PID.TID 0000.0001) 
(PID.TID 0000.0001) // ======================================================
(PID.TID 0000.0001) // Tile <-> Tile connectvity table
(PID.TID 0000.0001) // ======================================================
(PID.TID 0000.0001) // Tile number: 000001 (process no. = 000000)
(PID.TID 0000.0001) //        WEST: Tile = 000001, Process = 000000, Comm = put
(PID.TID 0000.0001) //                bi = 000001, bj = 000001
(PID.TID 0000.0001) //        EAST: Tile = 000001, Process = 000000, Comm = put
(PID.TID 0000.0001) //                bi = 000001, bj = 000001
(PID.TID 0000.0001) //       SOUTH: Tile = 000001, Process = 000000, Comm = put
(PID.TID 0000.0001) //                bi = 000001, bj = 000001
(PID.TID 0000.0001) //       NORTH: Tile = 000001, Process = 000000, Comm = put
(PID.TID 0000.0001) //                bi = 000001, bj = 000001
(PID.TID 0000.0001) 
(PID.TID 0000.0001)  INI_PARMS: opening model parameter file "data"
(PID.TID 0000.0001)  OPEN_COPY_DATA_FILE: opening file data
(PID.TID 0000.0001) // =======================================================
(PID.TID 0000.0001) // Parameter file "data"
(PID.TID 0000.0001) // =======================================================
(PID.TID 0000.0001) ># ====================
(PID.TID 0000.0001) ># | Model parameters |
(PID.TID 0000.0001) ># ====================
(PID.TID 0000.0001) >#
(PID.TID 0000.0001) ># See src/ini_parms.F for possible parameters.
(PID.TID 0000.0001) >#
(PID.TID 0000.0001) ># Continuous equation parameters
(PID.TID 0000.0001) > &PARM01
(PID.TID 0000.0001) > tRefFile='Tref.bin'
(PID.TID 0000.0001) > sRef= 25*35.,
(PID.TID 0000.0001) > viscAz=1.E-5,
(PID.TID 0000.0001) > viscAh=1.E-4,
(PID.TID 0000.0001) > no_slip_sides=.FALSE.,
(PID.TID 0000.0001) > no_slip_bottom=.FALSE.,
(PID.TID 0000.0001) > viscA4=0.E12,
(PID.TID 0000.0001) > diffKhT=1.E-4,
(PID.TID 0000.0001) > diffKzT=1.E-5,
(PID.TID 0000.0001) > diffKhS=1.E3,
(PID.TID 0000.0001) > diffKzS=1.E-5,
(PID.TID 0000.0001) > f0=0.E-4,
(PID.TID 0000.0001) > beta=0.0E-11,
(PID.TID 0000.0001) > tAlpha=2.E-4,
(PID.TID 0000.0001) > sBeta =0.E-4,
(PID.TID 0000.0001) > gravity=9.81,
(PID.TID 0000.0001) > gBaro=9.81,
(PID.TID 0000.0001) > rigidLid=.FALSE.,
(PID.TID 0000.0001) > implicitFreeSurface=.TRUE.,
(PID.TID 0000.0001) > eosType='LINEAR',
(PID.TID 0000.0001) > nonHydrostatic=.FALSE.,
(PID.TID 0000.0001) > readBinaryPrec=64,
(PID.TID 0000.0001) > useSingleCpuIO=.TRUE.
(PID.TID 0000.0001) > writeBinaryPrec=64,
(PID.TID 0000.0001) > writeStatePrec=64,
(PID.TID 0000.0001) > saltStepping=.FALSE.,
(PID.TID 0000.0001) ># minimum cell fraction.  This reduces steppiness..
(PID.TID 0000.0001) >  hFacMin=0.1,
(PID.TID 0000.0001) >  exactConserv=.FALSE.,
(PID.TID 0000.0001) >  implicitDiffusion=.TRUE.
(PID.TID 0000.0001) >  implicitViscosity=.TRUE.
(PID.TID 0000.0001) ># Superbee on:
(PID.TID 0000.0001) > tempAdvScheme=77,
(PID.TID 0000.0001) > staggerTimeStep=.TRUE.,
(PID.TID 0000.0001) >/
(PID.TID 0000.0001) >
(PID.TID 0000.0001) ># Elliptic solver parameters
(PID.TID 0000.0001) > &PARM02
(PID.TID 0000.0001) > cg2dMaxIters=1000,
(PID.TID 0000.0001) > cg2dTargetResidual=1.E-13,
(PID.TID 0000.0001) > cg3dMaxIters=400,
(PID.TID 0000.0001) > cg3dTargetResidual=1.E-13,
(PID.TID 0000.0001) >/
(PID.TID 0000.0001) >
(PID.TID 0000.0001) ># Time stepping parameters
(PID.TID 0000.0001) > &PARM03
(PID.TID 0000.0001) > niter0=0,
(PID.TID 0000.0001) ># times are in s
(PID.TID 0000.0001) > startTime=0,
(PID.TID 0000.0001) > endTime=108000,
(PID.TID 0000.0001) > deltaT=15,
(PID.TID 0000.0001) > abEps=0.1,
(PID.TID 0000.0001) ># once per tide checkpoint...
(PID.TID 0000.0001) > pChkptFreq=21600,
(PID.TID 0000.0001) > chkptFreq=0.0,
(PID.TID 0000.0001) > dumpFreq=7200,
(PID.TID 0000.0001) > monitorFreq=7200,
(PID.TID 0000.0001) ># Forcing for boundary condition files
(PID.TID 0000.0001) > periodicExternalForcing=.FALSE.,
(PID.TID 0000.0001) >/
(PID.TID 0000.0001) >
(PID.TID 0000.0001) ># Gridding parameters
(PID.TID 0000.0001) > &PARM04
(PID.TID 0000.0001) > usingCartesianGrid=.TRUE.,
(PID.TID 0000.0001) > usingSphericalPolarGrid=.FALSE.,
(PID.TID 0000.0001) > delXfile='delXvar.bin',
(PID.TID 0000.0001) > delY=5.e3,
(PID.TID 0000.0001) > delRfile = 'delZvar.bin',
(PID.TID 0000.0001) >/
(PID.TID 0000.0001) >
(PID.TID 0000.0001) ># Input datasets
(PID.TID 0000.0001) > &PARM05
(PID.TID 0000.0001) > bathyFile='topo.bin',
(PID.TID 0000.0001) > hydrogThetaFile='T0.bin',
(PID.TID 0000.0001) > checkIniTemp=.FALSE.,
(PID.TID 0000.0001) > uVelInitFile='U0.bin',
(PID.TID 0000.0001) > /
(PID.TID 0000.0001) 
(PID.TID 0000.0001)  INI_PARMS ; starts to read PARM01
(PID.TID 0000.0001)  INI_PARMS ; read PARM01 : OK
(PID.TID 0000.0001)  INI_PARMS ; starts to read PARM02
(PID.TID 0000.0001)  INI_PARMS ; read PARM02 : OK
(PID.TID 0000.0001)  INI_PARMS ; starts to read PARM03
(PID.TID 0000.0001)  INI_PARMS ; read PARM03 : OK
(PID.TID 0000.0001)  INI_PARMS ; starts to read PARM04
(PID.TID 0000.0001)  INI_PARMS ; read PARM04 : OK
(PID.TID 0000.0001)  INI_PARMS ; starts to read PARM05
(PID.TID 0000.0001)  INI_PARMS ; read PARM05 : OK
(PID.TID 0000.0001)  INI_PARMS: finished reading file "data"
(PID.TID 0000.0001)  PACKAGES_BOOT: opening data.pkg
(PID.TID 0000.0001)  OPEN_COPY_DATA_FILE: opening file data.pkg
(PID.TID 0000.0001) // =======================================================
(PID.TID 0000.0001) // Parameter file "data.pkg"
(PID.TID 0000.0001) // =======================================================
(PID.TID 0000.0001) ># Packages
(PID.TID 0000.0001) > &PACKAGES
(PID.TID 0000.0001) > useOBCS=.TRUE.,
(PID.TID 0000.0001) > useKL10=.TRUE.,
(PID.TID 0000.0001) > useDIAGNOSTICS=.FALSE.,
(PID.TID 0000.0001) > useMNC=.FALSE.,
(PID.TID 0000.0001) > /
(PID.TID 0000.0001) 
(PID.TID 0000.0001)  PACKAGES_BOOT: finished reading data.pkg
(PID.TID 0000.0001)  PACKAGES_BOOT: On/Off package Summary
 --------  pkgs with a standard "usePKG" On/Off switch in "data.pkg":  --------
 pkg/obcs                 compiled   and   used ( useOBCS                  = T )
 pkg/kl10                 compiled   and   used ( useKL10                  = T )
 -------- pkgs without standard "usePKG" On/Off switch in "data.pkg":  --------
 pkg/generic_advdiff      compiled   and   used ( useGAD                   = T )
 pkg/mom_common           compiled   and   used ( momStepping              = T )
 pkg/mom_vecinv           compiled but not used ( +vectorInvariantMomentum = F )
 pkg/mom_fluxform         compiled   and   used ( & not vectorInvariantMom = T )
 pkg/monitor              compiled   and   used ( monitorFreq > 0.         = T )
 pkg/debug                compiled but not used ( debugMode                = F )
 pkg/rw                   compiled   and   used
 pkg/mdsio                compiled   and   used
(PID.TID 0000.0001)  PACKAGES_BOOT: End of package Summary
(PID.TID 0000.0001) 
(PID.TID 0000.0001)  OBCS_READPARMS: opening data.obcs
(PID.TID 0000.0001)  OPEN_COPY_DATA_FILE: opening file data.obcs
(PID.TID 0000.0001) // =======================================================
(PID.TID 0000.0001) // Parameter file "data.obcs"
(PID.TID 0000.0001) // =======================================================
(PID.TID 0000.0001) ># Open-boundaries
(PID.TID 0000.0001) > &OBCS_PARM01
(PID.TID 0000.0001) > OB_Iwest=1*1,
(PID.TID 0000.0001) > OB_Ieast=1*-1,
(PID.TID 0000.0001) > OB_Jnorth=100*0,
(PID.TID 0000.0001) > OB_Jsouth=100*0,
(PID.TID 0000.0001) > useOBCSsponge=.TRUE.,
(PID.TID 0000.0001) > OBEuFile='U_in.bin',
(PID.TID 0000.0001) > OBWuFile='U_in.bin',
(PID.TID 0000.0001) > OBEtFile='TE.bin',
(PID.TID 0000.0001) > OBWtFile='TW.bin',
(PID.TID 0000.0001) > useOBCSprescribe=.TRUE.,
(PID.TID 0000.0001) > /
(PID.TID 0000.0001) >
(PID.TID 0000.0001) ># Orlanski parameters
(PID.TID 0000.0001) > &OBCS_PARM02
(PID.TID 0000.0001) >/
(PID.TID 0000.0001) >
(PID.TID 0000.0001) ># Sponge layer parameters
(PID.TID 0000.0001) > &OBCS_PARM03
(PID.TID 0000.0001) > Urelaxobcsinner=1000.,
(PID.TID 0000.0001) > Urelaxobcsbound=100.,
(PID.TID 0000.0001) > Vrelaxobcsinner=1000.0,
(PID.TID 0000.0001) > Vrelaxobcsbound=100.0,
(PID.TID 0000.0001) > spongeThickness=10,
(PID.TID 0000.0001) > /
(PID.TID 0000.0001) 
(PID.TID 0000.0001)  OBCS_READPARMS: finished reading data.obcs
(PID.TID 0000.0001)  OB_indexUnset = /* unset OB index value (i.e. no OB) */
(PID.TID 0000.0001)                       0
(PID.TID 0000.0001)     ;
(PID.TID 0000.0001)  Northern OB global indices : OB_Jnorth =
(PID.TID 0000.0001)   200 @        0                            /* I =  1:200 */
(PID.TID 0000.0001)  Southern OB global indices : OB_Jsouth =
(PID.TID 0000.0001)   200 @        0                            /* I =  1:200 */
(PID.TID 0000.0001)  Eastern  OB global indices : OB_Ieast =
(PID.TID 0000.0001)                     200                     /* J =  1 */
(PID.TID 0000.0001)  Western  OB global indices : OB_Iwest =
(PID.TID 0000.0001)                       1                     /* J =  1 */
(PID.TID 0000.0001) 
(PID.TID 0000.0001)  KL10_READPARMS: opening data.kl10
(PID.TID 0000.0001)  OPEN_COPY_DATA_FILE: opening file data.kl10
(PID.TID 0000.0001) // =======================================================
(PID.TID 0000.0001) // Parameter file "data.kl10"
(PID.TID 0000.0001) // =======================================================
(PID.TID 0000.0001) ># =====================================================================
(PID.TID 0000.0001) ># | Parameters for Klymak and Legg (2010) vertical mixing scheme      |
(PID.TID 0000.0001) ># =====================================================================
(PID.TID 0000.0001) > &KL10_PARM01
(PID.TID 0000.0001) > KLwriteState=.TRUE.,
(PID.TID 0000.0001) >/
(PID.TID 0000.0001) 
(PID.TID 0000.0001)  KL10_READPARMS: finished reading data.kl10
(PID.TID 0000.0001) SET_PARMS: done
(PID.TID 0000.0001)  MDS_READVEC_LOC: open file: delXvar.bin
(PID.TID 0000.0001) S/R LOAD_GRID_SPACING: delX loaded from file: delXvar.bin
(PID.TID 0000.0001)  MDS_READVEC_LOC: open file: delZvar.bin
(PID.TID 0000.0001) S/R LOAD_GRID_SPACING: delR loaded from file: delZvar.bin
(PID.TID 0000.0001) Enter INI_VERTICAL_GRID: setInterFDr=    T ; setCenterDr=    F
(PID.TID 0000.0001) %MON XC_max                       =   9.9471849328752E+04
(PID.TID 0000.0001) %MON XC_min                       =   6.3164731900833E+02
(PID.TID 0000.0001) %MON XC_mean                      =   5.2906107272275E+04
(PID.TID 0000.0001) %MON XC_sd                        =   2.2139310392762E+04
(PID.TID 0000.0001) %MON XG_max                       =   9.8943698657505E+04
(PID.TID 0000.0001) %MON XG_min                       =   0.0000000000000E+00
(PID.TID 0000.0001) %MON XG_mean                      =   5.2656107272275E+04
(PID.TID 0000.0001) %MON XG_sd                        =   2.2172561685063E+04
(PID.TID 0000.0001) %MON DXC_max                      =   1.2503953509116E+03
(PID.TID 0000.0001) %MON DXC_min                      =   2.0000000000000E+02
(PID.TID 0000.0001) %MON DXC_mean                     =   5.0000000000000E+02
(PID.TID 0000.0001) %MON DXC_sd                       =   2.8531736750525E+02
(PID.TID 0000.0001) %MON DXF_max                      =   1.2632946380167E+03
(PID.TID 0000.0001) %MON DXF_min                      =   2.0000000000000E+02
(PID.TID 0000.0001) %MON DXF_mean                     =   5.0000000000000E+02
(PID.TID 0000.0001) %MON DXF_sd                       =   2.8547066202794E+02
(PID.TID 0000.0001) %MON DXG_max                      =   1.2632946380167E+03
(PID.TID 0000.0001) %MON DXG_min                      =   2.0000000000000E+02
(PID.TID 0000.0001) %MON DXG_mean                     =   5.0000000000000E+02
(PID.TID 0000.0001) %MON DXG_sd                       =   2.8547066202794E+02
(PID.TID 0000.0001) %MON DXV_max                      =   1.2503953509116E+03
(PID.TID 0000.0001) %MON DXV_min                      =   2.0000000000000E+02
(PID.TID 0000.0001) %MON DXV_mean                     =   5.0000000000000E+02
(PID.TID 0000.0001) %MON DXV_sd                       =   2.8531736750525E+02
(PID.TID 0000.0001) %MON YC_max                       =   2.5000000000000E+03
(PID.TID 0000.0001) %MON YC_min                       =   2.5000000000000E+03
(PID.TID 0000.0001) %MON YC_mean                      =   2.5000000000000E+03
(PID.TID 0000.0001) %MON YC_sd                        =   0.0000000000000E+00
(PID.TID 0000.0001) %MON YG_max                       =   0.0000000000000E+00
(PID.TID 0000.0001) %MON YG_min                       =   0.0000000000000E+00
(PID.TID 0000.0001) %MON YG_mean                      =   0.0000000000000E+00
(PID.TID 0000.0001) %MON YG_sd                        =   0.0000000000000E+00
(PID.TID 0000.0001) %MON DYC_max                      =   5.0000000000000E+03
(PID.TID 0000.0001) %MON DYC_min                      =   5.0000000000000E+03
(PID.TID 0000.0001) %MON DYC_mean                     =   5.0000000000000E+03
(PID.TID 0000.0001) %MON DYC_sd                       =   0.0000000000000E+00
(PID.TID 0000.0001) %MON DYF_max                      =   5.0000000000000E+03
(PID.TID 0000.0001) %MON DYF_min                      =   5.0000000000000E+03
(PID.TID 0000.0001) %MON DYF_mean                     =   5.0000000000000E+03
(PID.TID 0000.0001) %MON DYF_sd                       =   0.0000000000000E+00
(PID.TID 0000.0001) %MON DYG_max                      =   5.0000000000000E+03
(PID.TID 0000.0001) %MON DYG_min                      =   5.0000000000000E+03
(PID.TID 0000.0001) %MON DYG_mean                     =   5.0000000000000E+03
(PID.TID 0000.0001) %MON DYG_sd                       =   0.0000000000000E+00
(PID.TID 0000.0001) %MON DYU_max                      =   5.0000000000000E+03
(PID.TID 0000.0001) %MON DYU_min                      =   5.0000000000000E+03
(PID.TID 0000.0001) %MON DYU_mean                     =   5.0000000000000E+03
(PID.TID 0000.0001) %MON DYU_sd                       =   0.0000000000000E+00
(PID.TID 0000.0001) %MON RA_max                       =   6.3164731900833E+06
(PID.TID 0000.0001) %MON RA_min                       =   1.0000000000000E+06
(PID.TID 0000.0001) %MON RA_mean                      =   2.5000000000000E+06
(PID.TID 0000.0001) %MON RA_sd                        =   1.4273533101397E+06
(PID.TID 0000.0001) %MON RAW_max                      =   6.2519767545581E+06
(PID.TID 0000.0001) %MON RAW_min                      =   1.0000000000000E+06
(PID.TID 0000.0001) %MON RAW_mean                     =   2.5000000000000E+06
(PID.TID 0000.0001) %MON RAW_sd                       =   1.4265868375263E+06
(PID.TID 0000.0001) %MON RAS_max                      =   6.3164731900833E+06
(PID.TID 0000.0001) %MON RAS_min                      =   1.0000000000000E+06
(PID.TID 0000.0001) %MON RAS_mean                     =   2.5000000000000E+06
(PID.TID 0000.0001) %MON RAS_sd                       =   1.4273533101397E+06
(PID.TID 0000.0001) %MON RAZ_max                      =   6.2519767545581E+06
(PID.TID 0000.0001) %MON RAZ_min                      =   1.0000000000000E+06
(PID.TID 0000.0001) %MON RAZ_mean                     =   2.5000000000000E+06
(PID.TID 0000.0001) %MON RAZ_sd                       =   1.4265868375263E+06
(PID.TID 0000.0001) %MON AngleCS_max                  =   1.0000000000000E+00
(PID.TID 0000.0001) %MON AngleCS_min                  =   1.0000000000000E+00
(PID.TID 0000.0001) %MON AngleCS_mean                 =   1.0000000000000E+00
(PID.TID 0000.0001) %MON AngleCS_sd                   =   0.0000000000000E+00
(PID.TID 0000.0001) %MON AngleSN_max                  =   0.0000000000000E+00
(PID.TID 0000.0001) %MON AngleSN_min                  =   0.0000000000000E+00
(PID.TID 0000.0001) %MON AngleSN_mean                 =   0.0000000000000E+00
(PID.TID 0000.0001) %MON AngleSN_sd                   =   0.0000000000000E+00
(PID.TID 0000.0001)  MDS_READVEC_LOC: open file: Tref.bin
(PID.TID 0000.0001) S/R LOAD_REF_FILES: tRef loaded from file: Tref.bin
(PID.TID 0000.0001)  MDS_READ_FIELD: opening global file: topo.bin
(PID.TID 0000.0001) // =======================================================
(PID.TID 0000.0001) // Field Model R_low (ini_masks_etc)
(PID.TID 0000.0001) // CMIN =         -1.995096555355118E+02
(PID.TID 0000.0001) // CMAX =         -8.001666550931286E+01
(PID.TID 0000.0001) // CINT =          4.425666297266626E+00
(PID.TID 0000.0001) // SYMBOLS (CMIN->CMAX): -abcdefghijklmnopqrstuvwxyz+
(PID.TID 0000.0001) //                  0.0: .
(PID.TID 0000.0001) // RANGE I (Lo:Hi:Step):(    -1:   202:     1)
(PID.TID 0000.0001) // RANGE J (Lo:Hi:Step):(     3:    -1:    -1)
(PID.TID 0000.0001) // RANGE K (Lo:Hi:Step):(   1:   1:   1)
(PID.TID 0000.0001) // =======================================================
(PID.TID 0000.0001) K =   1
(PID.TID 0000.0001) //                I=8       I=18      I=28      I=38      I=48      I=58      I=68      I=78      I=88      I=98      I=108     I=118     I=128     I=138     I=148     I=158     I=168     I=178     I=188     I=198
(PID.TID 0000.0001) // |--J--|101234567|901234567|901234567|901234567|901234567|901234567|901234567|901234567|901234567|901234567|901234567|901234567|901234567|901234567|901234567|901234567|901234567|901234567|901234567|901234567|9012
(PID.TID 0000.0001) //      3 -------------------aaaaaaaaaaaabbbbbbcccccddddeeefffgghhhiijjkkllmmnnoppqqrrssttuuvvwwxxxyyyzzzz++++++++++++zzzzyyyxxxwwvvuuttssrrqqpponnmmllkkjjiihhhggfffeeeddddcccccbbbbbbaaaaaaaaaaaa-------------------
(PID.TID 0000.0001) //      2 -------------------aaaaaaaaaaaabbbbbbcccccddddeeefffgghhhiijjkkllmmnnoppqqrrssttuuvvwwxxxyyyzzzz++++++++++++zzzzyyyxxxwwvvuuttssrrqqpponnmmllkkjjiihhhggfffeeeddddcccccbbbbbbaaaaaaaaaaaa-------------------
(PID.TID 0000.0001) //      1 -------------------aaaaaaaaaaaabbbbbbcccccddddeeefffgghhhiijjkkllmmnnoppqqrrssttuuvvwwxxxyyyzzzz++++++++++++zzzzyyyxxxwwvvuuttssrrqqpponnmmllkkjjiihhhggfffeeeddddcccccbbbbbbaaaaaaaaaaaa-------------------
(PID.TID 0000.0001) //      0 -------------------aaaaaaaaaaaabbbbbbcccccddddeeefffgghhhiijjkkllmmnnoppqqrrssttuuvvwwxxxyyyzzzz++++++++++++zzzzyyyxxxwwvvuuttssrrqqpponnmmllkkjjiihhhggfffeeeddddcccccbbbbbbaaaaaaaaaaaa-------------------
(PID.TID 0000.0001) //     -1 -------------------aaaaaaaaaaaabbbbbbcccccddddeeefffgghhhiijjkkllmmnnoppqqrrssttuuvvwwxxxyyyzzzz++++++++++++zzzzyyyxxxwwvvuuttssrrqqpponnmmllkkjjiihhhggfffeeeddddcccccbbbbbbaaaaaaaaaaaa-------------------
(PID.TID 0000.0001) // =======================================================
(PID.TID 0000.0001) // END OF FIELD                                          =
(PID.TID 0000.0001) // =======================================================
(PID.TID 0000.0001) 
(PID.TID 0000.0001) // =======================================================
(PID.TID 0000.0001) // Field Model Ro_surf (ini_masks_etc)
(PID.TID 0000.0001) // CMIN =         -2.753353101070388E-14
(PID.TID 0000.0001) // CMAX =          8.615330671091215E-14
(PID.TID 0000.0001) // CINT =          4.210623619319112E-15
(PID.TID 0000.0001) // SYMBOLS (CMIN->CMAX): -abcdefghijklmnopqrstuvwxyz+
(PID.TID 0000.0001) //                  0.0: .
(PID.TID 0000.0001) // RANGE I (Lo:Hi:Step):(    -1:   202:     1)
(PID.TID 0000.0001) // RANGE J (Lo:Hi:Step):(     3:    -1:    -1)
(PID.TID 0000.0001) // RANGE K (Lo:Hi:Step):(   1:   1:   1)
(PID.TID 0000.0001) // =======================================================
(PID.TID 0000.0001) K =   1
(PID.TID 0000.0001) //                I=8       I=18      I=28      I=38      I=48      I=58      I=68      I=78      I=88      I=98      I=108     I=118     I=128     I=138     I=148     I=158     I=168     I=178     I=188     I=198
(PID.TID 0000.0001) // |--J--|101234567|901234567|901234567|901234567|901234567|901234567|901234567|901234567|901234567|901234567|901234567|901234567|901234567|901234567|901234567|901234567|901234567|901234567|901234567|901234567|9012
(PID.TID 0000.0001) //      3 nggngnnggngggnng---g---ggnnggngnnnnngnnngnn+tnntnnntng------gggtntttt+tnnnnnnnqjjqqnqjjjjggcccccccc-cccc-ccccccccggjjjjqnqqjjqnnnnnnnt+ttttntggg------gntnnntnnt+nngnnngnnnnngnggnngg---g---gnngggnggnngnggn
(PID.TID 0000.0001) //      2 nggngnnggngggnng---g---ggnnggngnnnnngnnngnn+tnntnnntng------gggtntttt+tnnnnnnnqjjqqnqjjjjggcccccccc-cccc-ccccccccggjjjjqnqqjjqnnnnnnnt+ttttntggg------gntnnntnnt+nngnnngnnnnngnggnngg---g---gnngggnggnngnggn
(PID.TID 0000.0001) //      1 nggngnnggngggnng---g---ggnnggngnnnnngnnngnn+tnntnnntng------gggtntttt+tnnnnnnnqjjqqnqjjjjggcccccccc-cccc-ccccccccggjjjjqnqqjjqnnnnnnnt+ttttntggg------gntnnntnnt+nngnnngnnnnngnggnngg---g---gnngggnggnngnggn
(PID.TID 0000.0001) //      0 nggngnnggngggnng---g---ggnnggngnnnnngnnngnn+tnntnnntng------gggtntttt+tnnnnnnnqjjqqnqjjjjggcccccccc-cccc-ccccccccggjjjjqnqqjjqnnnnnnnt+ttttntggg------gntnnntnnt+nngnnngnnnnngnggnngg---g---gnngggnggnngnggn
(PID.TID 0000.0001) //     -1 nggngnnggngggnng---g---ggnnggngnnnnngnnngnn+tnntnnntng------gggtntttt+tnnnnnnnqjjqqnqjjjjggcccccccc-cccc-ccccccccggjjjjqnqqjjqnnnnnnnt+ttttntggg------gntnnntnnt+nngnnngnnnnngnggnngg---g---gnngggnggnngnggn
(PID.TID 0000.0001) // =======================================================
(PID.TID 0000.0001) // END OF FIELD                                          =
(PID.TID 0000.0001) // =======================================================
(PID.TID 0000.0001) 
(PID.TID 0000.0001) // =======================================================
(PID.TID 0000.0001) // Field hFacC at iteration          0
(PID.TID 0000.0001) // CMIN =          1.000000000000000E+00
(PID.TID 0000.0001) // CMAX =          1.000000000000000E+00
(PID.TID 0000.0001) // CINT =          0.000000000000000E+00
(PID.TID 0000.0001) // SYMBOLS (CMIN->CMAX): -abcdefghijklmnopqrstuvwxyz+
(PID.TID 0000.0001) //                  0.0: .
(PID.TID 0000.0001) // RANGE I (Lo:Hi:Step):(    -1:   202:     1)
(PID.TID 0000.0001) // RANGE J (Lo:Hi:Step):(     3:    -1:    -1)
(PID.TID 0000.0001) // RANGE K (Lo:Hi:Step):(   1:   1:   1)
(PID.TID 0000.0001) // =======================================================
(PID.TID 0000.0001) // =======================================================
(PID.TID 0000.0001) // END OF FIELD                                          =
(PID.TID 0000.0001) // =======================================================
(PID.TID 0000.0001) 
(PID.TID 0000.0001) // =======================================================
(PID.TID 0000.0001) // Field hFacW at iteration          0
(PID.TID 0000.0001) // CMIN =          1.000000000000000E+00
(PID.TID 0000.0001) // CMAX =          1.000000000000000E+00
(PID.TID 0000.0001) // CINT =          0.000000000000000E+00
(PID.TID 0000.0001) // SYMBOLS (CMIN->CMAX): -abcdefghijklmnopqrstuvwxyz+
(PID.TID 0000.0001) //                  0.0: .
(PID.TID 0000.0001) // RANGE I (Lo:Hi:Step):(    -1:   202:     1)
(PID.TID 0000.0001) // RANGE J (Lo:Hi:Step):(     3:    -1:    -1)
(PID.TID 0000.0001) // RANGE K (Lo:Hi:Step):(   1:   1:   1)
(PID.TID 0000.0001) // =======================================================
(PID.TID 0000.0001) // =======================================================
(PID.TID 0000.0001) // END OF FIELD                                          =
(PID.TID 0000.0001) // =======================================================
(PID.TID 0000.0001) 
(PID.TID 0000.0001) // =======================================================
(PID.TID 0000.0001) // Field hFacS at iteration          0
(PID.TID 0000.0001) // CMIN =          1.000000000000000E+00
(PID.TID 0000.0001) // CMAX =          1.000000000000000E+00
(PID.TID 0000.0001) // CINT =          0.000000000000000E+00
(PID.TID 0000.0001) // SYMBOLS (CMIN->CMAX): -abcdefghijklmnopqrstuvwxyz+
(PID.TID 0000.0001) //                  0.0: .
(PID.TID 0000.0001) // RANGE I (Lo:Hi:Step):(    -1:   202:     1)
(PID.TID 0000.0001) // RANGE J (Lo:Hi:Step):(     3:    -1:    -1)
(PID.TID 0000.0001) // RANGE K (Lo:Hi:Step):(   1:   1:   1)
(PID.TID 0000.0001) // =======================================================
(PID.TID 0000.0001) // =======================================================
(PID.TID 0000.0001) // END OF FIELD                                          =
(PID.TID 0000.0001) // =======================================================
(PID.TID 0000.0001) 
(PID.TID 0000.0001) GAD_INIT_FIXED: GAD_OlMinSize=  2  0  1
(PID.TID 0000.0001) 
(PID.TID 0000.0001) // ===================================
(PID.TID 0000.0001) // GAD parameters :
(PID.TID 0000.0001) // ===================================
(PID.TID 0000.0001) tempAdvScheme =   /* Temp. Horiz.Advection scheme selector */
(PID.TID 0000.0001)                      77
(PID.TID 0000.0001)     ;
(PID.TID 0000.0001) tempVertAdvScheme =   /* Temp. Vert. Advection scheme selector */
(PID.TID 0000.0001)                      77
(PID.TID 0000.0001)     ;
(PID.TID 0000.0001) tempMultiDimAdvec =   /* use Muti-Dim Advec method for Temp */
(PID.TID 0000.0001)                   T
(PID.TID 0000.0001)     ;
(PID.TID 0000.0001) tempSOM_Advection = /* use 2nd Order Moment Advection for Temp */
(PID.TID 0000.0001)                   F
(PID.TID 0000.0001)     ;
(PID.TID 0000.0001) AdamsBashforthGt = /* apply Adams-Bashforth extrapolation on Gt */
(PID.TID 0000.0001)                   F
(PID.TID 0000.0001)     ;
(PID.TID 0000.0001) AdamsBashforth_T = /* apply Adams-Bashforth extrapolation on Temp */
(PID.TID 0000.0001)                   F
(PID.TID 0000.0001)     ;
(PID.TID 0000.0001) saltAdvScheme =   /* Salt. Horiz.advection scheme selector */
(PID.TID 0000.0001)                       2
(PID.TID 0000.0001)     ;
(PID.TID 0000.0001) saltVertAdvScheme =   /* Salt. Vert. Advection scheme selector */
(PID.TID 0000.0001)                       2
(PID.TID 0000.0001)     ;
(PID.TID 0000.0001) saltMultiDimAdvec =   /* use Muti-Dim Advec method for Salt */
(PID.TID 0000.0001)                   F
(PID.TID 0000.0001)     ;
(PID.TID 0000.0001) saltSOM_Advection = /* use 2nd Order Moment Advection for Salt */
(PID.TID 0000.0001)                   F
(PID.TID 0000.0001)     ;
(PID.TID 0000.0001) AdamsBashforthGs = /* apply Adams-Bashforth extrapolation on Gs */
(PID.TID 0000.0001)                   F
(PID.TID 0000.0001)     ;
(PID.TID 0000.0001) AdamsBashforth_S = /* apply Adams-Bashforth extrapolation on Salt */
(PID.TID 0000.0001)                   F
(PID.TID 0000.0001)     ;
(PID.TID 0000.0001) // ===================================
(PID.TID 0000.0001) %MON fCori_max                    =   0.0000000000000E+00
(PID.TID 0000.0001) %MON fCori_min                    =   0.0000000000000E+00
(PID.TID 0000.0001) %MON fCori_mean                   =   0.0000000000000E+00
(PID.TID 0000.0001) %MON fCori_sd                     =   0.0000000000000E+00
(PID.TID 0000.0001) %MON fCoriG_max                   =   0.0000000000000E+00
(PID.TID 0000.0001) %MON fCoriG_min                   =   0.0000000000000E+00
(PID.TID 0000.0001) %MON fCoriG_mean                  =   0.0000000000000E+00
(PID.TID 0000.0001) %MON fCoriG_sd                    =   0.0000000000000E+00
(PID.TID 0000.0001) %MON fCoriCos_max                 =   0.0000000000000E+00
(PID.TID 0000.0001) %MON fCoriCos_min                 =   0.0000000000000E+00
(PID.TID 0000.0001) %MON fCoriCos_mean                =   0.0000000000000E+00
(PID.TID 0000.0001) %MON fCoriCos_sd                  =   0.0000000000000E+00
(PID.TID 0000.0001) INI_CG2D: CG2D normalisation factor =  3.9827749718816336E-04
(PID.TID 0000.0001) 
(PID.TID 0000.0001) // =======================================================
(PID.TID 0000.0001) // Model configuration
(PID.TID 0000.0001) // =======================================================
(PID.TID 0000.0001) //
(PID.TID 0000.0001) // "Physical" paramters ( PARM01 in namelist )
(PID.TID 0000.0001) //
(PID.TID 0000.0001) buoyancyRelation = /* Type of relation to get Buoyancy */
(PID.TID 0000.0001)               'OCEANIC'
(PID.TID 0000.0001)     ;
(PID.TID 0000.0001) fluidIsAir   =  /* fluid major constituent is Air */
(PID.TID 0000.0001)                   F
(PID.TID 0000.0001)     ;
(PID.TID 0000.0001) fluidIsWater =  /* fluid major constituent is Water */
(PID.TID 0000.0001)                   T
(PID.TID 0000.0001)     ;
(PID.TID 0000.0001) usingPCoords =  /* use p (or p*) vertical coordinate */
(PID.TID 0000.0001)                   F
(PID.TID 0000.0001)     ;
(PID.TID 0000.0001) usingZCoords =  /* use z (or z*) vertical coordinate */
(PID.TID 0000.0001)                   T
(PID.TID 0000.0001)     ;
(PID.TID 0000.0001) tRef =   /* Reference temperature profile ( oC or K ) */
(PID.TID 0000.0001)     6 @  1.500000000000000E+01,             /* K =  1:  6 */
(PID.TID 0000.0001)                 1.499933084687693E+01,      /* K =  7 */
(PID.TID 0000.0001)                 1.497717153877677E+01,      /* K =  8 */
(PID.TID 0000.0001)                 1.470721590167325E+01,      /* K =  9 */
(PID.TID 0000.0001)                 1.349735867339025E+01,      /* K = 10 */
(PID.TID 0000.0001)                 1.150264132660976E+01,      /* K = 11 */
(PID.TID 0000.0001)                 1.029278409832675E+01,      /* K = 12 */
(PID.TID 0000.0001)                 1.002282846122323E+01,      /* K = 13 */
(PID.TID 0000.0001)                 1.000066915312308E+01,      /* K = 14 */
(PID.TID 0000.0001)    86 @  1.000000000000000E+01              /* K = 15:100 */
(PID.TID 0000.0001)     ;
(PID.TID 0000.0001) sRef =   /* Reference salinity profile ( psu ) */
(PID.TID 0000.0001)   100 @  3.500000000000000E+01              /* K =  1:100 */
(PID.TID 0000.0001)     ;
(PID.TID 0000.0001) useStrainTensionVisc= /* Use StrainTension Form of Viscous Operator */
(PID.TID 0000.0001)                   F
(PID.TID 0000.0001)     ;
(PID.TID 0000.0001) useVariableVisc = /* Use variable horizontal viscosity */
(PID.TID 0000.0001)                   F
(PID.TID 0000.0001)     ;
(PID.TID 0000.0001) useHarmonicVisc = /* Use harmonic horizontal viscosity */
(PID.TID 0000.0001)                   T
(PID.TID 0000.0001)     ;
(PID.TID 0000.0001) useBiharmonicVisc= /* Use biharmonic horiz.  viscosity */
(PID.TID 0000.0001)                   F
(PID.TID 0000.0001)     ;
(PID.TID 0000.0001) useSmag3D = /* Use isotropic 3-D Smagorinsky viscosity */
(PID.TID 0000.0001)                   F
(PID.TID 0000.0001)     ;
(PID.TID 0000.0001) viscAh  =   /* Lateral harmonic viscosity ( m^2/s ) */
(PID.TID 0000.0001)                 1.000000000000000E-04
(PID.TID 0000.0001)     ;
(PID.TID 0000.0001) viscA4  =   /* Lateral biharmonic viscosity ( m^4/s ) */
(PID.TID 0000.0001)                 0.000000000000000E+00
(PID.TID 0000.0001)     ;
(PID.TID 0000.0001) no_slip_sides =  /* Viscous BCs: No-slip sides */
(PID.TID 0000.0001)                   F
(PID.TID 0000.0001)     ;
(PID.TID 0000.0001) sideDragFactor = /* side-drag scaling factor (non-dim) */
(PID.TID 0000.0001)                 2.000000000000000E+00
(PID.TID 0000.0001)     ;
(PID.TID 0000.0001) viscArNr = /* vertical profile of vertical viscosity ( m^2/s )*/
(PID.TID 0000.0001)   100 @  1.000000000000000E-05              /* K =  1:100 */
(PID.TID 0000.0001)     ;
(PID.TID 0000.0001) no_slip_bottom =  /* Viscous BCs: No-slip bottom */
(PID.TID 0000.0001)                   F
(PID.TID 0000.0001)     ;
(PID.TID 0000.0001) bottomDragLinear = /* linear bottom-drag coefficient ( m/s ) */
(PID.TID 0000.0001)                 0.000000000000000E+00
(PID.TID 0000.0001)     ;
(PID.TID 0000.0001) bottomDragQuadratic = /* quadratic bottom-drag coefficient (-) */
(PID.TID 0000.0001)                 0.000000000000000E+00
(PID.TID 0000.0001)     ;
(PID.TID 0000.0001) diffKhT =   /* Laplacian diffusion of heat laterally ( m^2/s ) */
(PID.TID 0000.0001)                 1.000000000000000E-04
(PID.TID 0000.0001)     ;
(PID.TID 0000.0001) diffK4T =   /* Biharmonic diffusion of heat laterally ( m^4/s ) */
(PID.TID 0000.0001)                 0.000000000000000E+00
(PID.TID 0000.0001)     ;
(PID.TID 0000.0001) diffKhS =   /* Laplacian diffusion of salt laterally ( m^2/s ) */
(PID.TID 0000.0001)                 1.000000000000000E+03
(PID.TID 0000.0001)     ;
(PID.TID 0000.0001) diffK4S =   /* Biharmonic diffusion of salt laterally ( m^4/s ) */
(PID.TID 0000.0001)                 0.000000000000000E+00
(PID.TID 0000.0001)     ;
(PID.TID 0000.0001) diffKrNrT = /* vertical profile of vertical diffusion of Temp ( m^2/s )*/
(PID.TID 0000.0001)   100 @  1.000000000000000E-05              /* K =  1:100 */
(PID.TID 0000.0001)     ;
(PID.TID 0000.0001) diffKrNrS = /* vertical profile of vertical diffusion of Salt ( m^2/s )*/
(PID.TID 0000.0001)   100 @  1.000000000000000E-05              /* K =  1:100 */
(PID.TID 0000.0001)     ;
(PID.TID 0000.0001) diffKrBL79surf = /* Surface diffusion for Bryan and Lewis 79 ( m^2/s ) */
(PID.TID 0000.0001)                 0.000000000000000E+00
(PID.TID 0000.0001)     ;
(PID.TID 0000.0001) diffKrBL79deep = /* Deep diffusion for Bryan and Lewis 1979 ( m^2/s ) */
(PID.TID 0000.0001)                 0.000000000000000E+00
(PID.TID 0000.0001)     ;
(PID.TID 0000.0001) diffKrBL79scl = /* Depth scale for Bryan and Lewis 1979 ( m ) */
(PID.TID 0000.0001)                 2.000000000000000E+02
(PID.TID 0000.0001)     ;
(PID.TID 0000.0001) diffKrBL79Ho = /* Turning depth for Bryan and Lewis 1979 ( m ) */
(PID.TID 0000.0001)                -2.000000000000000E+03
(PID.TID 0000.0001)     ;
(PID.TID 0000.0001) ivdc_kappa = /* Implicit Vertical Diffusivity for Convection ( m^2/s) */
(PID.TID 0000.0001)                 0.000000000000000E+00
(PID.TID 0000.0001)     ;
(PID.TID 0000.0001) hMixCriteria=  /* Criteria for mixed-layer diagnostic */
(PID.TID 0000.0001)                -8.000000000000000E-01
(PID.TID 0000.0001)     ;
(PID.TID 0000.0001) dRhoSmall =  /* Parameter for mixed-layer diagnostic */
(PID.TID 0000.0001)                 1.000000000000000E-06
(PID.TID 0000.0001)     ;
(PID.TID 0000.0001) hMixSmooth=  /* Smoothing parameter for mixed-layer diagnostic */
(PID.TID 0000.0001)                 0.000000000000000E+00
(PID.TID 0000.0001)     ;
(PID.TID 0000.0001) eosType =  /* Type of Equation of State */
(PID.TID 0000.0001)               'LINEAR'
(PID.TID 0000.0001)     ;
(PID.TID 0000.0001) tAlpha = /* Linear EOS thermal expansion coefficient ( 1/oC ) */
(PID.TID 0000.0001)                 2.000000000000000E-04
(PID.TID 0000.0001)     ;
(PID.TID 0000.0001) sBeta  = /* Linear EOS haline contraction coefficient ( 1/psu ) */
(PID.TID 0000.0001)                 0.000000000000000E+00
(PID.TID 0000.0001)     ;
(PID.TID 0000.0001) rhoNil    = /* Reference density for Linear EOS ( kg/m^3 ) */
(PID.TID 0000.0001)                 9.998000000000000E+02
(PID.TID 0000.0001)     ;
(PID.TID 0000.0001) HeatCapacity_Cp =  /* Specific heat capacity ( J/kg/K ) */
(PID.TID 0000.0001)                 3.994000000000000E+03
(PID.TID 0000.0001)     ;
(PID.TID 0000.0001) celsius2K = /* 0 degree Celsius converted to Kelvin ( K ) */
(PID.TID 0000.0001)                 2.731500000000000E+02
(PID.TID 0000.0001)     ;
(PID.TID 0000.0001) rhoConst  = /* Reference density (Boussinesq)  ( kg/m^3 ) */
(PID.TID 0000.0001)                 9.998000000000000E+02
(PID.TID 0000.0001)     ;
(PID.TID 0000.0001) rhoFacC = /* normalized Reference density @ cell-Center (-) */
(PID.TID 0000.0001)   100 @  1.000000000000000E+00              /* K =  1:100 */
(PID.TID 0000.0001)     ;
(PID.TID 0000.0001) rhoFacF = /* normalized Reference density @ W-Interface (-) */
(PID.TID 0000.0001)   101 @  1.000000000000000E+00              /* K =  1:101 */
(PID.TID 0000.0001)     ;
(PID.TID 0000.0001) rhoConstFresh = /* Fresh-water reference density ( kg/m^3 ) */
(PID.TID 0000.0001)                 9.998000000000000E+02
(PID.TID 0000.0001)     ;
(PID.TID 0000.0001) gravity =   /* Gravitational acceleration ( m/s^2 ) */
(PID.TID 0000.0001)                 9.810000000000000E+00
(PID.TID 0000.0001)     ;
(PID.TID 0000.0001) gBaro =   /* Barotropic gravity ( m/s^2 ) */
(PID.TID 0000.0001)                 9.810000000000000E+00
(PID.TID 0000.0001)     ;
(PID.TID 0000.0001) rotationPeriod =   /* Rotation Period ( s ) */
(PID.TID 0000.0001)                 8.616400000000000E+04
(PID.TID 0000.0001)     ;
(PID.TID 0000.0001) omega =   /* Angular velocity ( rad/s ) */
(PID.TID 0000.0001)                 7.292123516990375E-05
(PID.TID 0000.0001)     ;
(PID.TID 0000.0001) f0 =   /* Reference coriolis parameter ( 1/s ) */
(PID.TID 0000.0001)                 0.000000000000000E+00
(PID.TID 0000.0001)     ;
(PID.TID 0000.0001) beta =   /* Beta ( 1/(m.s) ) */
(PID.TID 0000.0001)                 0.000000000000000E+00
(PID.TID 0000.0001)     ;
(PID.TID 0000.0001) fPrime =   /* Second coriolis parameter ( 1/s ) */
(PID.TID 0000.0001)                 0.000000000000000E+00
(PID.TID 0000.0001)     ;
(PID.TID 0000.0001) rigidLid =   /* Rigid lid on/off flag */
(PID.TID 0000.0001)                   F
(PID.TID 0000.0001)     ;
(PID.TID 0000.0001) implicitFreeSurface =   /* Implicit free surface on/off flag */
(PID.TID 0000.0001)                   T
(PID.TID 0000.0001)     ;
(PID.TID 0000.0001) freeSurfFac =   /* Implicit free surface factor */
(PID.TID 0000.0001)                 1.000000000000000E+00
(PID.TID 0000.0001)     ;
(PID.TID 0000.0001) implicSurfPress =  /* Surface Pressure implicit factor (0-1)*/
(PID.TID 0000.0001)                 1.000000000000000E+00
(PID.TID 0000.0001)     ;
(PID.TID 0000.0001) implicDiv2Dflow =  /* Barot. Flow Div. implicit factor (0-1)*/
(PID.TID 0000.0001)                 1.000000000000000E+00
(PID.TID 0000.0001)     ;
(PID.TID 0000.0001) uniformLin_PhiSurf = /* use uniform Bo_surf on/off flag*/
(PID.TID 0000.0001)                   T
(PID.TID 0000.0001)     ;
(PID.TID 0000.0001) uniformFreeSurfLev = /* free-surface level-index is uniform */
(PID.TID 0000.0001)                   T
(PID.TID 0000.0001)     ;
(PID.TID 0000.0001) hFacMin =   /* minimum partial cell factor (hFac) */
(PID.TID 0000.0001)                 1.000000000000000E-01
(PID.TID 0000.0001)     ;
(PID.TID 0000.0001) hFacMinDr = /* minimum partial cell thickness ( m) */
(PID.TID 0000.0001)                 0.000000000000000E+00
(PID.TID 0000.0001)     ;
(PID.TID 0000.0001) exactConserv =  /* Exact Volume Conservation on/off flag*/
(PID.TID 0000.0001)                   F
(PID.TID 0000.0001)     ;
(PID.TID 0000.0001) linFSConserveTr = /* Tracer correction for Lin Free Surface on/off flag*/
(PID.TID 0000.0001)                   F
(PID.TID 0000.0001)     ;
(PID.TID 0000.0001) nonlinFreeSurf = /* Non-linear Free Surf. options (-1,0,1,2,3)*/
(PID.TID 0000.0001)                       0
(PID.TID 0000.0001)      -1,0= Off ; 1,2,3= On, 2=+rescale gU,gV, 3=+update cg2d solv.
(PID.TID 0000.0001)     ;
(PID.TID 0000.0001) hFacInf =   /* lower threshold for hFac (nonlinFreeSurf only)*/
(PID.TID 0000.0001)                 2.000000000000000E-01
(PID.TID 0000.0001)     ;
(PID.TID 0000.0001) hFacSup =   /* upper threshold for hFac (nonlinFreeSurf only)*/
(PID.TID 0000.0001)                 2.000000000000000E+00
(PID.TID 0000.0001)     ;
(PID.TID 0000.0001) select_rStar = /* r* Vertical coord. options (=0 r coord.; >0 uses r*)*/
(PID.TID 0000.0001)                       0
(PID.TID 0000.0001)     ;
(PID.TID 0000.0001) useRealFreshWaterFlux = /* Real Fresh Water Flux on/off flag*/
(PID.TID 0000.0001)                   F
(PID.TID 0000.0001)     ;
(PID.TID 0000.0001) temp_EvPrRn = /* Temp. of Evap/Prec/R (UNSET=use local T)(oC)*/
(PID.TID 0000.0001)                 1.234567000000000E+05
(PID.TID 0000.0001)     ;
(PID.TID 0000.0001) salt_EvPrRn = /* Salin. of Evap/Prec/R (UNSET=use local S)(psu)*/
(PID.TID 0000.0001)                 0.000000000000000E+00
(PID.TID 0000.0001)     ;
(PID.TID 0000.0001) selectAddFluid = /* option for mass source/sink of fluid (=0: off) */
(PID.TID 0000.0001)                       0
(PID.TID 0000.0001)     ;
(PID.TID 0000.0001) temp_addMass = /* Temp. of addMass array (UNSET=use local T)(oC)*/
(PID.TID 0000.0001)                 1.234567000000000E+05
(PID.TID 0000.0001)     ;
(PID.TID 0000.0001) salt_addMass = /* Salin. of addMass array (UNSET=use local S)(psu)*/
(PID.TID 0000.0001)                 0.000000000000000E+00
(PID.TID 0000.0001)     ;
(PID.TID 0000.0001) convertFW2Salt = /* convert F.W. Flux to Salt Flux (-1=use local S)(psu)*/
(PID.TID 0000.0001)                 3.500000000000000E+01
(PID.TID 0000.0001)     ;
(PID.TID 0000.0001) use3Dsolver = /* use 3-D pressure solver on/off flag */
(PID.TID 0000.0001)                   F
(PID.TID 0000.0001)     ;
(PID.TID 0000.0001) nonHydrostatic =  /* Non-Hydrostatic on/off flag */
(PID.TID 0000.0001)                   F
(PID.TID 0000.0001)     ;
(PID.TID 0000.0001) nh_Am2 = /* Non-Hydrostatic terms scaling factor */
(PID.TID 0000.0001)                 1.000000000000000E+00
(PID.TID 0000.0001)     ;
(PID.TID 0000.0001) implicitNHPress = /* Non-Hyd Pressure implicit factor (0-1)*/
(PID.TID 0000.0001)                 1.000000000000000E+00
(PID.TID 0000.0001)     ;
(PID.TID 0000.0001) selectNHfreeSurf = /* Non-Hyd (free-)Surface option */
(PID.TID 0000.0001)                       0
(PID.TID 0000.0001)     ;
(PID.TID 0000.0001) quasiHydrostatic = /* Quasi-Hydrostatic on/off flag */
(PID.TID 0000.0001)                   F
(PID.TID 0000.0001)     ;
(PID.TID 0000.0001) calc_wVelocity = /* vertical velocity calculation on/off flag */
(PID.TID 0000.0001)                   T
(PID.TID 0000.0001)     ;
(PID.TID 0000.0001) momStepping =  /* Momentum equation on/off flag */
(PID.TID 0000.0001)                   T
(PID.TID 0000.0001)     ;
(PID.TID 0000.0001) vectorInvariantMomentum= /* Vector-Invariant Momentum on/off */
(PID.TID 0000.0001)                   F
(PID.TID 0000.0001)     ;
(PID.TID 0000.0001) momAdvection =  /* Momentum advection on/off flag */
(PID.TID 0000.0001)                   T
(PID.TID 0000.0001)     ;
(PID.TID 0000.0001) momViscosity =  /* Momentum viscosity on/off flag */
(PID.TID 0000.0001)                   T
(PID.TID 0000.0001)     ;
(PID.TID 0000.0001) momImplVertAdv= /* Momentum implicit vert. advection on/off*/
(PID.TID 0000.0001)                   F
(PID.TID 0000.0001)     ;
(PID.TID 0000.0001) implicitViscosity = /* Implicit viscosity on/off flag */
(PID.TID 0000.0001)                   T
(PID.TID 0000.0001)     ;
(PID.TID 0000.0001) metricTerms =  /* metric-Terms on/off flag */
(PID.TID 0000.0001)                   F
(PID.TID 0000.0001)     ;
(PID.TID 0000.0001) useNHMTerms = /* Non-Hydrostatic Metric-Terms on/off */
(PID.TID 0000.0001)                   F
(PID.TID 0000.0001)     ;
(PID.TID 0000.0001) selectCoriMap = /* Coriolis Map options (0,1,2,3)*/
(PID.TID 0000.0001)                       1
(PID.TID 0000.0001)     0= f-Plane ; 1= Beta-Plane ; 2= Spherical ; 3= read from file
(PID.TID 0000.0001)     ;
(PID.TID 0000.0001) use3dCoriolis = /* 3-D Coriolis on/off flag */
(PID.TID 0000.0001)                   F
(PID.TID 0000.0001)     ;
(PID.TID 0000.0001) useCoriolis =  /* Coriolis on/off flag */
(PID.TID 0000.0001)                   T
(PID.TID 0000.0001)     ;
(PID.TID 0000.0001) useCDscheme =  /* CD scheme on/off flag */
(PID.TID 0000.0001)                   F
(PID.TID 0000.0001)     ;
(PID.TID 0000.0001) useEnergyConservingCoriolis= /* Flx-Form Coriolis scheme flag */
(PID.TID 0000.0001)                   F
(PID.TID 0000.0001)     ;
(PID.TID 0000.0001) useJamartWetPoints= /* Coriolis WetPoints method flag */
(PID.TID 0000.0001)                   F
(PID.TID 0000.0001)     ;
(PID.TID 0000.0001) useJamartMomAdv= /* V.I Non-linear terms Jamart flag */
(PID.TID 0000.0001)                   F
(PID.TID 0000.0001)     ;
(PID.TID 0000.0001) useAbsVorticity= /* V.I Works with f+zeta in Coriolis */
(PID.TID 0000.0001)                   F
(PID.TID 0000.0001)     ;
(PID.TID 0000.0001) selectVortScheme= /* V.I Scheme selector for Vorticity-Term */
(PID.TID 0000.0001)               123456789
(PID.TID 0000.0001)    = 0 : enstrophy (Shallow-Water Eq.) conserving scheme by Sadourny, JAS 75
(PID.TID 0000.0001)    = 1 : same as 0 with modified hFac
(PID.TID 0000.0001)    = 2 : energy conserving scheme (used by Sadourny in JAS 75 paper)
(PID.TID 0000.0001)    = 3 : energy (general) and enstrophy (2D, nonDiv.) conserving scheme
(PID.TID 0000.0001)          from Sadourny (Burridge & Haseler, ECMWF Rep.4, 1977)
(PID.TID 0000.0001)     ;
(PID.TID 0000.0001) upwindVorticity= /* V.I Upwind bias vorticity flag */
(PID.TID 0000.0001)                   F
(PID.TID 0000.0001)     ;
(PID.TID 0000.0001) highOrderVorticity= /* V.I High order vort. advect. flag */
(PID.TID 0000.0001)                   F
(PID.TID 0000.0001)     ;
(PID.TID 0000.0001) upwindShear= /* V.I Upwind vertical Shear advection flag */
(PID.TID 0000.0001)                   F
(PID.TID 0000.0001)     ;
(PID.TID 0000.0001) selectKEscheme= /* V.I Kinetic Energy scheme selector */
(PID.TID 0000.0001)                       0
(PID.TID 0000.0001)     ;
(PID.TID 0000.0001) momForcing =  /* Momentum forcing on/off flag */
(PID.TID 0000.0001)                   T
(PID.TID 0000.0001)     ;
(PID.TID 0000.0001) momPressureForcing =  /* Momentum pressure term on/off flag */
(PID.TID 0000.0001)                   T
(PID.TID 0000.0001)     ;
(PID.TID 0000.0001) implicitIntGravWave= /* Implicit Internal Gravity Wave flag */
(PID.TID 0000.0001)                   F
(PID.TID 0000.0001)     ;
(PID.TID 0000.0001) staggerTimeStep =    /* Stagger time stepping on/off flag */
(PID.TID 0000.0001)                   T
(PID.TID 0000.0001)     ;
(PID.TID 0000.0001) doResetHFactors = /* reset thickness factors @ each time-step */
(PID.TID 0000.0001)                   F
(PID.TID 0000.0001)     ;
(PID.TID 0000.0001) multiDimAdvection =  /* enable/disable Multi-Dim Advection */
(PID.TID 0000.0001)                   T
(PID.TID 0000.0001)     ;
(PID.TID 0000.0001) useMultiDimAdvec =   /* Multi-Dim Advection is/is-not used */
(PID.TID 0000.0001)                   T
(PID.TID 0000.0001)     ;
(PID.TID 0000.0001) implicitDiffusion = /* Implicit Diffusion on/off flag */
(PID.TID 0000.0001)                   T
(PID.TID 0000.0001)     ;
(PID.TID 0000.0001) tempStepping =  /* Temperature equation on/off flag */
(PID.TID 0000.0001)                   T
(PID.TID 0000.0001)     ;
(PID.TID 0000.0001) tempAdvection = /* Temperature advection on/off flag */
(PID.TID 0000.0001)                   T
(PID.TID 0000.0001)     ;
(PID.TID 0000.0001) tempImplVertAdv = /* Temp. implicit vert. advection on/off */
(PID.TID 0000.0001)                   F
(PID.TID 0000.0001)     ;
(PID.TID 0000.0001) tempForcing  =  /* Temperature forcing on/off flag */
(PID.TID 0000.0001)                   T
(PID.TID 0000.0001)     ;
(PID.TID 0000.0001) doThetaClimRelax = /* apply SST relaxation on/off flag */
(PID.TID 0000.0001)                   F
(PID.TID 0000.0001)     ;
(PID.TID 0000.0001) tempIsActiveTr = /* Temp. is a dynamically Active Tracer */
(PID.TID 0000.0001)                   T
(PID.TID 0000.0001)     ;
(PID.TID 0000.0001) saltStepping =  /* Salinity equation on/off flag */
(PID.TID 0000.0001)                   F
(PID.TID 0000.0001)     ;
(PID.TID 0000.0001) saltAdvection = /* Salinity advection on/off flag */
(PID.TID 0000.0001)                   F
(PID.TID 0000.0001)     ;
(PID.TID 0000.0001) saltImplVertAdv = /* Sali. implicit vert. advection on/off */
(PID.TID 0000.0001)                   F
(PID.TID 0000.0001)     ;
(PID.TID 0000.0001) saltForcing  =  /* Salinity forcing on/off flag */
(PID.TID 0000.0001)                   F
(PID.TID 0000.0001)     ;
(PID.TID 0000.0001) doSaltClimRelax = /* apply SSS relaxation on/off flag */
(PID.TID 0000.0001)                   F
(PID.TID 0000.0001)     ;
(PID.TID 0000.0001) saltIsActiveTr = /* Salt  is a dynamically Active Tracer */
(PID.TID 0000.0001)                   F
(PID.TID 0000.0001)     ;
(PID.TID 0000.0001)  readBinaryPrec = /* Precision used for reading binary files */
(PID.TID 0000.0001)                      64
(PID.TID 0000.0001)     ;
(PID.TID 0000.0001) writeBinaryPrec = /* Precision used for writing binary files */
(PID.TID 0000.0001)                      64
(PID.TID 0000.0001)     ;
(PID.TID 0000.0001)  globalFiles = /* write "global" (=not per tile) files */
(PID.TID 0000.0001)                   F
(PID.TID 0000.0001)     ;
(PID.TID 0000.0001)  useSingleCpuIO = /* only master MPI process does I/O */
(PID.TID 0000.0001)                   T
(PID.TID 0000.0001)     ;
(PID.TID 0000.0001)  useSingleCpuInput = /* only master process reads input */
(PID.TID 0000.0001)                   T
(PID.TID 0000.0001)     ;
(PID.TID 0000.0001) /* debLev[*]  : level of debug & auxiliary message printing */
(PID.TID 0000.0001) debLevZero =  0 ; /* level of disabled aux. msg printing */
(PID.TID 0000.0001)    debLevA =  1 ; /* level of minimum  aux. msg printing */
(PID.TID 0000.0001)    debLevB =  2 ; /* level of low aux. print (report read-file opening)*/
(PID.TID 0000.0001)    debLevC =  3 ; /* level of moderate debug prt (most pkgs debug msg) */
(PID.TID 0000.0001)    debLevD =  4 ; /* level of enhanced debug prt (add DEBUG_STATS prt) */
(PID.TID 0000.0001)    debLevE =  5 ; /* level of extensive debug printing */
(PID.TID 0000.0001) debugLevel =  /* select debug printing level */
(PID.TID 0000.0001)                       2
(PID.TID 0000.0001)     ;
(PID.TID 0000.0001) //
(PID.TID 0000.0001) // Elliptic solver(s) paramters ( PARM02 in namelist )
(PID.TID 0000.0001) //
(PID.TID 0000.0001) cg2dMaxIters =   /* Upper limit on 2d con. grad iterations  */
(PID.TID 0000.0001)                    1000
(PID.TID 0000.0001)     ;
(PID.TID 0000.0001) cg2dChkResFreq =   /* 2d con. grad convergence test frequency */
(PID.TID 0000.0001)                       1
(PID.TID 0000.0001)     ;
(PID.TID 0000.0001) cg2dUseMinResSol= /* use cg2d last-iter(=0) / min-resid.(=1) solution */
(PID.TID 0000.0001)                       0
(PID.TID 0000.0001)     ;
(PID.TID 0000.0001) cg2dTargetResidual =   /* 2d con. grad target residual  */
(PID.TID 0000.0001)                 1.000000000000000E-13
(PID.TID 0000.0001)     ;
(PID.TID 0000.0001) cg2dTargetResWunit =   /* CG2d target residual [W units] */
(PID.TID 0000.0001)                -1.000000000000000E+00
(PID.TID 0000.0001)     ;
(PID.TID 0000.0001) cg2dPreCondFreq =   /* Freq. for updating cg2d preconditioner */
(PID.TID 0000.0001)                       1
(PID.TID 0000.0001)     ;
(PID.TID 0000.0001) useSRCGSolver =  /* use single reduction CG solver(s) */
(PID.TID 0000.0001)                   F
(PID.TID 0000.0001)     ;
(PID.TID 0000.0001) printResidualFreq = /* Freq. for printing CG residual */
(PID.TID 0000.0001)                       0
(PID.TID 0000.0001)     ;
(PID.TID 0000.0001) //
(PID.TID 0000.0001) // Time stepping paramters ( PARM03 in namelist )
(PID.TID 0000.0001) //
(PID.TID 0000.0001) deltaTMom =   /* Momentum equation timestep ( s ) */
(PID.TID 0000.0001)                 1.500000000000000E+01
(PID.TID 0000.0001)     ;
(PID.TID 0000.0001) deltaTFreeSurf = /* FreeSurface equation timestep ( s ) */
(PID.TID 0000.0001)                 1.500000000000000E+01
(PID.TID 0000.0001)     ;
(PID.TID 0000.0001) dTtracerLev =  /* Tracer equation timestep ( s ) */
(PID.TID 0000.0001)   100 @  1.500000000000000E+01              /* K =  1:100 */
(PID.TID 0000.0001)     ;
(PID.TID 0000.0001) deltaTClock  =   /* Model clock timestep ( s ) */
(PID.TID 0000.0001)                 1.500000000000000E+01
(PID.TID 0000.0001)     ;
(PID.TID 0000.0001) cAdjFreq =   /* Convective adjustment interval ( s ) */
(PID.TID 0000.0001)                 0.000000000000000E+00
(PID.TID 0000.0001)     ;
(PID.TID 0000.0001) momForcingOutAB = /* =1: take Momentum Forcing out of Adams-Bash. stepping */
(PID.TID 0000.0001)                       0
(PID.TID 0000.0001)     ;
(PID.TID 0000.0001) tracForcingOutAB = /* =1: take T,S,pTr Forcing out of Adams-Bash. stepping */
(PID.TID 0000.0001)                       0
(PID.TID 0000.0001)     ;
(PID.TID 0000.0001) momDissip_In_AB = /* put Dissipation Tendency in Adams-Bash. stepping */
(PID.TID 0000.0001)                   T
(PID.TID 0000.0001)     ;
(PID.TID 0000.0001) doAB_onGtGs = /* apply AB on Tendencies (rather than on T,S)*/
(PID.TID 0000.0001)                   T
(PID.TID 0000.0001)     ;
(PID.TID 0000.0001) abEps =   /* Adams-Bashforth-2 stabilizing weight */
(PID.TID 0000.0001)                 1.000000000000000E-01
(PID.TID 0000.0001)     ;
(PID.TID 0000.0001) pickupStrictlyMatch= /* stop if pickup do not strictly match */
(PID.TID 0000.0001)                   T
(PID.TID 0000.0001)     ;
(PID.TID 0000.0001) nIter0   =   /* Run starting timestep number */
(PID.TID 0000.0001)                       0
(PID.TID 0000.0001)     ;
(PID.TID 0000.0001) nTimeSteps = /* Number of timesteps */
(PID.TID 0000.0001)                    7200
(PID.TID 0000.0001)     ;
(PID.TID 0000.0001) nEndIter =   /* Run ending timestep number */
(PID.TID 0000.0001)                    7200
(PID.TID 0000.0001)     ;
(PID.TID 0000.0001) baseTime =   /* Model base time ( s ) */
(PID.TID 0000.0001)                 0.000000000000000E+00
(PID.TID 0000.0001)     ;
(PID.TID 0000.0001) startTime =  /* Run start time ( s ) */
(PID.TID 0000.0001)                 0.000000000000000E+00
(PID.TID 0000.0001)     ;
(PID.TID 0000.0001) endTime  =   /* Integration ending time ( s ) */
(PID.TID 0000.0001)                 1.080000000000000E+05
(PID.TID 0000.0001)     ;
(PID.TID 0000.0001) pChkPtFreq = /* Permanent restart/pickup file interval ( s ) */
(PID.TID 0000.0001)                 2.160000000000000E+04
(PID.TID 0000.0001)     ;
(PID.TID 0000.0001) chkPtFreq  = /* Rolling restart/pickup file interval ( s ) */
(PID.TID 0000.0001)                 0.000000000000000E+00
(PID.TID 0000.0001)     ;
(PID.TID 0000.0001) pickup_write_mdsio =   /* Model IO flag. */
(PID.TID 0000.0001)                   T
(PID.TID 0000.0001)     ;
(PID.TID 0000.0001) pickup_read_mdsio =   /* Model IO flag. */
(PID.TID 0000.0001)                   T
(PID.TID 0000.0001)     ;
(PID.TID 0000.0001) pickup_write_immed =   /* Model IO flag. */
(PID.TID 0000.0001)                   F
(PID.TID 0000.0001)     ;
(PID.TID 0000.0001) writePickupAtEnd =   /* Model IO flag. */
(PID.TID 0000.0001)                   T
(PID.TID 0000.0001)     ;
(PID.TID 0000.0001) dumpFreq =   /* Model state write out interval ( s ). */
(PID.TID 0000.0001)                 7.200000000000000E+03
(PID.TID 0000.0001)     ;
(PID.TID 0000.0001) dumpInitAndLast= /* write out Initial & Last iter. model state */
(PID.TID 0000.0001)                   T
(PID.TID 0000.0001)     ;
(PID.TID 0000.0001) snapshot_mdsio =   /* Model IO flag. */
(PID.TID 0000.0001)                   T
(PID.TID 0000.0001)     ;
(PID.TID 0000.0001) monitorFreq =   /* Monitor output interval ( s ). */
(PID.TID 0000.0001)                 7.200000000000000E+03
(PID.TID 0000.0001)     ;
(PID.TID 0000.0001) monitorSelect = /* select group of variables to monitor */
(PID.TID 0000.0001)                       3
(PID.TID 0000.0001)     ;
(PID.TID 0000.0001) monitor_stdio =   /* Model IO flag. */
(PID.TID 0000.0001)                   T
(PID.TID 0000.0001)     ;
(PID.TID 0000.0001) externForcingPeriod =   /* forcing period (s) */
(PID.TID 0000.0001)                 0.000000000000000E+00
(PID.TID 0000.0001)     ;
(PID.TID 0000.0001) externForcingCycle =   /* period of the cyle (s). */
(PID.TID 0000.0001)                 0.000000000000000E+00
(PID.TID 0000.0001)     ;
(PID.TID 0000.0001) tauThetaClimRelax =   /* relaxation time scale (s) */
(PID.TID 0000.0001)                 0.000000000000000E+00
(PID.TID 0000.0001)     ;
(PID.TID 0000.0001) tauSaltClimRelax =   /* relaxation time scale (s) */
(PID.TID 0000.0001)                 0.000000000000000E+00
(PID.TID 0000.0001)     ;
(PID.TID 0000.0001) latBandClimRelax =   /* max. Lat. where relaxation */
(PID.TID 0000.0001)                 1.500000000000000E+04
(PID.TID 0000.0001)     ;
(PID.TID 0000.0001) //
(PID.TID 0000.0001) // Gridding paramters ( PARM04 in namelist )
(PID.TID 0000.0001) //
(PID.TID 0000.0001) usingCartesianGrid = /* Cartesian coordinates flag ( True/False ) */
(PID.TID 0000.0001)                   T
(PID.TID 0000.0001)     ;
(PID.TID 0000.0001) usingCylindricalGrid = /* Cylindrical coordinates flag ( True/False ) */
(PID.TID 0000.0001)                   F
(PID.TID 0000.0001)     ;
(PID.TID 0000.0001) usingSphericalPolarGrid = /* Spherical coordinates flag ( True/False ) */
(PID.TID 0000.0001)                   F
(PID.TID 0000.0001)     ;
(PID.TID 0000.0001) usingCurvilinearGrid = /* Curvilinear coordinates flag ( True/False ) */
(PID.TID 0000.0001)                   F
(PID.TID 0000.0001)     ;
(PID.TID 0000.0001) selectSigmaCoord = /* Hybrid-Sigma Vert. Coordinate option */
(PID.TID 0000.0001)                       0
(PID.TID 0000.0001)     ;
(PID.TID 0000.0001) Ro_SeaLevel = /* r(1) ( units of r ==  m ) */
(PID.TID 0000.0001)                 0.000000000000000E+00
(PID.TID 0000.0001)     ;
(PID.TID 0000.0001) rSigmaBnd = /* r/sigma transition ( units of r ==  m ) */
(PID.TID 0000.0001)                 1.234567000000000E+05
(PID.TID 0000.0001)     ;
(PID.TID 0000.0001) rkSign =   /* index orientation relative to vertical coordinate */
(PID.TID 0000.0001)                -1.000000000000000E+00
(PID.TID 0000.0001)     ;
(PID.TID 0000.0001) gravitySign = /* gravity orientation relative to vertical coordinate */
(PID.TID 0000.0001)                -1.000000000000000E+00
(PID.TID 0000.0001)     ;
(PID.TID 0000.0001) mass2rUnit = /* convert mass per unit area [kg/m2] to r-units [m] */
(PID.TID 0000.0001)                 1.000200040008002E-03
(PID.TID 0000.0001)     ;
(PID.TID 0000.0001) rUnit2mass = /* convert r-units [m] to mass per unit area [kg/m2] */
(PID.TID 0000.0001)                 9.998000000000000E+02
(PID.TID 0000.0001)     ;
(PID.TID 0000.0001) drC =   /* C spacing ( units of r ) */
(PID.TID 0000.0001)                 2.188755257190683E+00,      /* K =  1 */
(PID.TID 0000.0001)                 4.330899997470791E+00,      /* K =  2 */
(PID.TID 0000.0001)                 4.238671555342814E+00,      /* K =  3 */
(PID.TID 0000.0001)                 4.148407158919499E+00,      /* K =  4 */
(PID.TID 0000.0001)                 4.060064982973822E+00,      /* K =  5 */
(PID.TID 0000.0001)                 3.973604092965578E+00,      /* K =  6 */
(PID.TID 0000.0001)                 3.888984426073804E+00,      /* K =  7 */
(PID.TID 0000.0001)                 3.806166772633129E+00,      /* K =  8 */
(PID.TID 0000.0001)                 3.725112757965456E+00,      /* K =  9 */
(PID.TID 0000.0001)                 3.645784824598524E+00,      /* K = 10 */
(PID.TID 0000.0001)                 3.568146214863156E+00,      /* K = 11 */
(PID.TID 0000.0001)                 3.492160953861090E+00,      /* K = 12 */
(PID.TID 0000.0001)                 3.417793832795526E+00,      /* K = 13 */
(PID.TID 0000.0001)                 3.345010392656658E+00,      /* K = 14 */
(PID.TID 0000.0001)                 3.273776908254621E+00,      /* K = 15 */
(PID.TID 0000.0001)                 3.204060372592473E+00,      /* K = 16 */
(PID.TID 0000.0001)                 3.135828481571955E+00,      /* K = 17 */
(PID.TID 0000.0001)                 3.069049619024951E+00,      /* K = 18 */
(PID.TID 0000.0001)                 3.003692842063711E+00,      /* K = 19 */
(PID.TID 0000.0001)                 2.939727866743045E+00,      /* K = 20 */
(PID.TID 0000.0001)                 2.877125054027847E+00,      /* K = 21 */
(PID.TID 0000.0001)                 2.815855396059452E+00,      /* K = 22 */
(PID.TID 0000.0001)                 2.755890502714447E+00,      /* K = 23 */
(PID.TID 0000.0001)                 2.697202588449727E+00,      /* K = 24 */
(PID.TID 0000.0001)                 2.639764459427690E+00,      /* K = 25 */
(PID.TID 0000.0001)                 2.583549500915603E+00,      /* K = 26 */
(PID.TID 0000.0001)                 2.528531664953307E+00,      /* K = 27 */
(PID.TID 0000.0001)                 2.474685458283540E+00,      /* K = 28 */
(PID.TID 0000.0001)                 2.421985930539298E+00,      /* K = 29 */
(PID.TID 0000.0001)                 2.370408662682740E+00,      /* K = 30 */
(PID.TID 0000.0001)                 2.319929755690298E+00,      /* K = 31 */
(PID.TID 0000.0001)                 2.270525819478747E+00,      /* K = 32 */
(PID.TID 0000.0001)                 2.222173962067086E+00,      /* K = 33 */
(PID.TID 0000.0001)                 2.174851778969233E+00,      /* K = 34 */
(PID.TID 0000.0001)                 2.128537342812607E+00,      /* K = 35 */
(PID.TID 0000.0001)                 2.083209193177780E+00,      /* K = 36 */
(PID.TID 0000.0001)                 2.038846326654500E+00,      /* K = 37 */
(PID.TID 0000.0001)                 1.995428187109485E+00,      /* K = 38 */
(PID.TID 0000.0001)                 1.952934656161452E+00,      /* K = 39 */
(PID.TID 0000.0001)                 1.911346043858999E+00,      /* K = 40 */
(PID.TID 0000.0001)                 1.870643079556999E+00,      /* K = 41 */
(PID.TID 0000.0001)                 1.830806902987284E+00,      /* K = 42 */
(PID.TID 0000.0001)                 1.791819055519489E+00,      /* K = 43 */
(PID.TID 0000.0001)                 1.753661471607994E+00,      /* K = 44 */
(PID.TID 0000.0001)                 1.716316470421009E+00,      /* K = 45 */
(PID.TID 0000.0001)                 1.679766747647922E+00,      /* K = 46 */
(PID.TID 0000.0001)                 1.643995367481116E+00,      /* K = 47 */
(PID.TID 0000.0001)                 1.608985754768530E+00,      /* K = 48 */
(PID.TID 0000.0001)                 1.574721687333338E+00,      /* K = 49 */
(PID.TID 0000.0001)                 1.541187288457190E+00,      /* K = 50 */
(PID.TID 0000.0001)                 1.508367019523514E+00,      /* K = 51 */
(PID.TID 0000.0001)                 1.476245672817492E+00,      /* K = 52 */
(PID.TID 0000.0001)                 1.444808364479355E+00,      /* K = 53 */
(PID.TID 0000.0001)                 1.414040527607753E+00,      /* K = 54 */
(PID.TID 0000.0001)                 1.383927905509979E+00,      /* K = 55 */
(PID.TID 0000.0001)                 1.354456545095941E+00,      /* K = 56 */
(PID.TID 0000.0001)                 1.325612790412805E+00,      /* K = 57 */
(PID.TID 0000.0001)                 1.297383276317331E+00,      /* K = 58 */
(PID.TID 0000.0001)                 1.269754922282946E+00,      /* K = 59 */
(PID.TID 0000.0001)                 1.242714926338713E+00,      /* K = 60 */
(PID.TID 0000.0001)                 1.216250759137361E+00,      /* K = 61 */
(PID.TID 0000.0001)                 1.190350158149641E+00,      /* K = 62 */
(PID.TID 0000.0001)                 1.165001121982321E+00,      /* K = 63 */
(PID.TID 0000.0001)                 1.140191904817177E+00,      /* K = 64 */
(PID.TID 0000.0001)                 1.115911010968409E+00,      /* K = 65 */
(PID.TID 0000.0001)                 1.092147189555960E+00,      /* K = 66 */
(PID.TID 0000.0001)                 1.068889429292269E+00,      /* K = 67 */
(PID.TID 0000.0001)                 1.046126953380043E+00,      /* K = 68 */
(PID.TID 0000.0001)                 1.017434101955024E+00,      /* K = 69 */
(PID.TID 0000.0001)     3 @  1.000000000000000E+00,             /* K = 70: 72 */
(PID.TID 0000.0001)                 9.998584140034217E-01,      /* K = 73 */
(PID.TID 0000.0001)                 1.010593151450680E+00,      /* K = 74 */
(PID.TID 0000.0001)                 1.032582454175967E+00,      /* K = 75 */
(PID.TID 0000.0001)                 1.055050217925506E+00,      /* K = 76 */
(PID.TID 0000.0001)                 1.078006853441037E+00,      /* K = 77 */
(PID.TID 0000.0001)                 1.101462997989634E+00,      /* K = 78 */
(PID.TID 0000.0001)                 1.125429520292630E+00,      /* K = 79 */
(PID.TID 0000.0001)                 1.149917525561778E+00,      /* K = 80 */
(PID.TID 0000.0001)                 1.174938360645011E+00,      /* K = 81 */
(PID.TID 0000.0001)                 1.200503619284147E+00,      /* K = 82 */
(PID.TID 0000.0001)                 1.226625147487014E+00,      /* K = 83 */
(PID.TID 0000.0001)                 1.253315049016451E+00,      /* K = 84 */
(PID.TID 0000.0001)                 1.280585690998757E+00,      /* K = 85 */
(PID.TID 0000.0001)                 1.308449709654159E+00,      /* K = 86 */
(PID.TID 0000.0001)                 1.336920016151980E+00,      /* K = 87 */
(PID.TID 0000.0001)                 1.366009802593203E+00,      /* K = 88 */
(PID.TID 0000.0001)                 1.395732548123206E+00,      /* K = 89 */
(PID.TID 0000.0001)                 1.426102025177510E+00,      /* K = 90 */
(PID.TID 0000.0001)                 1.457132305863421E+00,      /* K = 91 */
(PID.TID 0000.0001)                 1.488837768480531E+00,      /* K = 92 */
(PID.TID 0000.0001)                 1.521233104183099E+00,      /* K = 93 */
(PID.TID 0000.0001)                 1.554333323787391E+00,      /* K = 94 */
(PID.TID 0000.0001)                 1.588153764727151E+00,      /* K = 95 */
(PID.TID 0000.0001)                 1.622710098160403E+00,      /* K = 96 */
(PID.TID 0000.0001)                 1.658018336230896E+00,      /* K = 97 */
(PID.TID 0000.0001)                 1.694094839487546E+00,      /* K = 98 */
(PID.TID 0000.0001)                 1.730956324465319E+00,      /* K = 99 */
(PID.TID 0000.0001)                 1.768619871431060E+00,      /* K =100 */
(PID.TID 0000.0001)                 8.938271592110918E-01       /* K =101 */
(PID.TID 0000.0001)     ;
(PID.TID 0000.0001) drF =   /* W spacing ( units of r ) */
(PID.TID 0000.0001)                 4.377510514381365E+00,      /* K =  1 */
(PID.TID 0000.0001)                 4.284289480560218E+00,      /* K =  2 */
(PID.TID 0000.0001)                 4.193053630125411E+00,      /* K =  3 */
(PID.TID 0000.0001)                 4.103760687713587E+00,      /* K =  4 */
(PID.TID 0000.0001)                 4.016369278234058E+00,      /* K =  5 */
(PID.TID 0000.0001)                 3.930838907697099E+00,      /* K =  6 */
(PID.TID 0000.0001)                 3.847129944450508E+00,      /* K =  7 */
(PID.TID 0000.0001)                 3.765203600815751E+00,      /* K =  8 */
(PID.TID 0000.0001)                 3.685021915115161E+00,      /* K =  9 */
(PID.TID 0000.0001)                 3.606547734081888E+00,      /* K = 10 */
(PID.TID 0000.0001)                 3.529744695644425E+00,      /* K = 11 */
(PID.TID 0000.0001)                 3.454577212077754E+00,      /* K = 12 */
(PID.TID 0000.0001)                 3.381010453513297E+00,      /* K = 13 */
(PID.TID 0000.0001)                 3.309010331800018E+00,      /* K = 14 */
(PID.TID 0000.0001)                 3.238543484709224E+00,      /* K = 15 */
(PID.TID 0000.0001)                 3.169577260475722E+00,      /* K = 16 */
(PID.TID 0000.0001)                 3.102079702668187E+00,      /* K = 17 */
(PID.TID 0000.0001)                 3.036019535381715E+00,      /* K = 18 */
(PID.TID 0000.0001)                 2.971366148745707E+00,      /* K = 19 */
(PID.TID 0000.0001)                 2.908089584740382E+00,      /* K = 20 */
(PID.TID 0000.0001)                 2.846160523315313E+00,      /* K = 21 */
(PID.TID 0000.0001)                 2.785550268803592E+00,      /* K = 22 */
(PID.TID 0000.0001)                 2.726230736625302E+00,      /* K = 23 */
(PID.TID 0000.0001)                 2.668174440274151E+00,      /* K = 24 */
(PID.TID 0000.0001)                 2.611354478581228E+00,      /* K = 25 */
(PID.TID 0000.0001)                 2.555744523249978E+00,      /* K = 26 */
(PID.TID 0000.0001)                 2.501318806656635E+00,      /* K = 27 */
(PID.TID 0000.0001)                 2.448052109910445E+00,      /* K = 28 */
(PID.TID 0000.0001)                 2.395919751168151E+00,      /* K = 29 */
(PID.TID 0000.0001)                 2.344897574197328E+00,      /* K = 30 */
(PID.TID 0000.0001)                 2.294961937183269E+00,      /* K = 31 */
(PID.TID 0000.0001)                 2.246089701774226E+00,      /* K = 32 */
(PID.TID 0000.0001)                 2.198258222359946E+00,      /* K = 33 */
(PID.TID 0000.0001)                 2.151445335578521E+00,      /* K = 34 */
(PID.TID 0000.0001)                 2.105629350046694E+00,      /* K = 35 */
(PID.TID 0000.0001)                 2.060789036308865E+00,      /* K = 36 */
(PID.TID 0000.0001)                 2.016903617000136E+00,      /* K = 37 */
(PID.TID 0000.0001)                 1.973952757218834E+00,      /* K = 38 */
(PID.TID 0000.0001)                 1.931916555104069E+00,      /* K = 39 */
(PID.TID 0000.0001)                 1.890775532613929E+00,      /* K = 40 */
(PID.TID 0000.0001)                 1.850510626500068E+00,      /* K = 41 */
(PID.TID 0000.0001)                 1.811103179474499E+00,      /* K = 42 */
(PID.TID 0000.0001)                 1.772534931564479E+00,      /* K = 43 */
(PID.TID 0000.0001)                 1.734788011651509E+00,      /* K = 44 */
(PID.TID 0000.0001)                 1.697844929190508E+00,      /* K = 45 */
(PID.TID 0000.0001)                 1.661688566105336E+00,      /* K = 46 */
(PID.TID 0000.0001)                 1.626302168856896E+00,      /* K = 47 */
(PID.TID 0000.0001)                 1.591669340680163E+00,      /* K = 48 */
(PID.TID 0000.0001)                 1.557774033986514E+00,      /* K = 49 */
(PID.TID 0000.0001)                 1.524600542927867E+00,      /* K = 50 */
(PID.TID 0000.0001)                 1.492133496119162E+00,      /* K = 51 */
(PID.TID 0000.0001)                 1.460357849515821E+00,      /* K = 52 */
(PID.TID 0000.0001)                 1.429258879442888E+00,      /* K = 53 */
(PID.TID 0000.0001)                 1.398822175772617E+00,      /* K = 54 */
(PID.TID 0000.0001)                 1.369033635247342E+00,      /* K = 55 */
(PID.TID 0000.0001)                 1.339879454944541E+00,      /* K = 56 */
(PID.TID 0000.0001)                 1.311346125881070E+00,      /* K = 57 */
(PID.TID 0000.0001)                 1.283420426753591E+00,      /* K = 58 */
(PID.TID 0000.0001)                 1.256089417812301E+00,      /* K = 59 */
(PID.TID 0000.0001)                 1.229340434865126E+00,      /* K = 60 */
(PID.TID 0000.0001)                 1.203161083409596E+00,      /* K = 61 */
(PID.TID 0000.0001)                 1.177539232889686E+00,      /* K = 62 */
(PID.TID 0000.0001)                 1.152463011074957E+00,      /* K = 63 */
(PID.TID 0000.0001)                 1.127920798559398E+00,      /* K = 64 */
(PID.TID 0000.0001)                 1.103901223377420E+00,      /* K = 65 */
(PID.TID 0000.0001)                 1.080393155734499E+00,      /* K = 66 */
(PID.TID 0000.0001)                 1.057385702850038E+00,      /* K = 67 */
(PID.TID 0000.0001)                 1.034868203910047E+00,      /* K = 68 */
(PID.TID 0000.0001)     4 @  1.000000000000000E+00,             /* K = 69: 72 */
(PID.TID 0000.0001)                 9.997168280068435E-01,      /* K = 73 */
(PID.TID 0000.0001)                 1.021469474894516E+00,      /* K = 74 */
(PID.TID 0000.0001)                 1.043695433457419E+00,      /* K = 75 */
(PID.TID 0000.0001)                 1.066405002393594E+00,      /* K = 76 */
(PID.TID 0000.0001)                 1.089608704488480E+00,      /* K = 77 */
(PID.TID 0000.0001)                 1.113317291490789E+00,      /* K = 78 */
(PID.TID 0000.0001)                 1.137541749094471E+00,      /* K = 79 */
(PID.TID 0000.0001)                 1.162293302029086E+00,      /* K = 80 */
(PID.TID 0000.0001)                 1.187583419260936E+00,      /* K = 81 */
(PID.TID 0000.0001)                 1.213423819307359E+00,      /* K = 82 */
(PID.TID 0000.0001)                 1.239826475666668E+00,      /* K = 83 */
(PID.TID 0000.0001)                 1.266803622366234E+00,      /* K = 84 */
(PID.TID 0000.0001)                 1.294367759631280E+00,      /* K = 85 */
(PID.TID 0000.0001)                 1.322531659677038E+00,      /* K = 86 */
(PID.TID 0000.0001)                 1.351308372626922E+00,      /* K = 87 */
(PID.TID 0000.0001)                 1.380711232559483E+00,      /* K = 88 */
(PID.TID 0000.0001)                 1.410753863686929E+00,      /* K = 89 */
(PID.TID 0000.0001)                 1.441450186668091E+00,      /* K = 90 */
(PID.TID 0000.0001)                 1.472814425058751E+00,      /* K = 91 */
(PID.TID 0000.0001)                 1.504861111902312E+00,      /* K = 92 */
(PID.TID 0000.0001)                 1.537605096463885E+00,      /* K = 93 */
(PID.TID 0000.0001)                 1.571061551110896E+00,      /* K = 94 */
(PID.TID 0000.0001)                 1.605245978343405E+00,      /* K = 95 */
(PID.TID 0000.0001)                 1.640174217977400E+00,      /* K = 96 */
(PID.TID 0000.0001)                 1.675862454484391E+00,      /* K = 97 */
(PID.TID 0000.0001)                 1.712327224490701E+00,      /* K = 98 */
(PID.TID 0000.0001)                 1.749585424439936E+00,      /* K = 99 */
(PID.TID 0000.0001)                 1.787654318422184E+00       /* K =100 */
(PID.TID 0000.0001)     ;
(PID.TID 0000.0001) delX = /* U spacing ( m - cartesian, degrees - spherical ) */
(PID.TID 0000.0001)                 1.263294638016668E+03,      /* I =  1 */
(PID.TID 0000.0001)                 1.237496063806571E+03,      /* I =  2 */
(PID.TID 0000.0001)                 1.212224339320398E+03,      /* I =  3 */
(PID.TID 0000.0001)      . . .
(PID.TID 0000.0001)                 4.790113490274632E+02,      /* I = 48 */
(PID.TID 0000.0001)                 4.692291418815790E+02,      /* I = 49 */
(PID.TID 0000.0001)                 4.596467036489769E+02,      /* I = 50 */
(PID.TID 0000.0001)                 4.502599547167311E+02,      /* I = 51 */
(PID.TID 0000.0001)                 4.410648987843862E+02,      /* I = 52 */
(PID.TID 0000.0001)                 4.320576211625778E+02,      /* I = 53 */
(PID.TID 0000.0001)      . . .
(PID.TID 0000.0001)                 2.000000000000000E+02,      /* I = 98 */
(PID.TID 0000.0001)                 2.000000000000000E+02,      /* I = 99 */
(PID.TID 0000.0001)                 2.000000000000000E+02,      /* I =100 */
(PID.TID 0000.0001)                 2.000000000000000E+02,      /* I =101 */
(PID.TID 0000.0001)                 2.000000000000000E+02,      /* I =102 */
(PID.TID 0000.0001)                 2.000000000000000E+02,      /* I =103 */
(PID.TID 0000.0001)      . . .
(PID.TID 0000.0001)                 3.612641354876311E+02,      /* I =148 */
(PID.TID 0000.0001)                 3.687955530665730E+02,      /* I =149 */
(PID.TID 0000.0001)                 3.764839811128614E+02,      /* I =150 */
(PID.TID 0000.0001)                 3.843326928863569E+02,      /* I =151 */
(PID.TID 0000.0001)                 3.923450298858749E+02,      /* I =152 */
(PID.TID 0000.0001)                 4.005244032717896E+02,      /* I =153 */
(PID.TID 0000.0001)      . . .
(PID.TID 0000.0001)                 1.013599012055986E+03,      /* I =198 */
(PID.TID 0000.0001)                 1.034729915092050E+03,      /* I =199 */
(PID.TID 0000.0001)                 1.056301342495056E+03       /* I =200 */
(PID.TID 0000.0001)     ;
(PID.TID 0000.0001) delY = /* V spacing ( m - cartesian, degrees - spherical ) */
(PID.TID 0000.0001)                 5.000000000000000E+03       /* J =  1 */
(PID.TID 0000.0001)     ;
(PID.TID 0000.0001) xgOrigin = /* X-axis origin of West  edge (cartesian: m, lat-lon: deg) */
(PID.TID 0000.0001)                 0.000000000000000E+00
(PID.TID 0000.0001)     ;
(PID.TID 0000.0001) ygOrigin = /* Y-axis origin of South edge (cartesian: m, lat-lon: deg) */
(PID.TID 0000.0001)                 0.000000000000000E+00
(PID.TID 0000.0001)     ;
(PID.TID 0000.0001) rSphere =  /* Radius ( ignored - cartesian, m - spherical ) */
(PID.TID 0000.0001)                 6.370000000000000E+06
(PID.TID 0000.0001)     ;
(PID.TID 0000.0001) deepAtmosphere = /* Deep/Shallow Atmosphere flag (True/False) */
(PID.TID 0000.0001)                   F
(PID.TID 0000.0001)     ;
(PID.TID 0000.0001) xC =  /* xC(:,1,:,1) : P-point X coord ( deg. or m if cartesian) */
(PID.TID 0000.0001)                 6.316473190083342E+02,      /* I =  1 */
(PID.TID 0000.0001)                 1.882042669919954E+03,      /* I =  2 */
(PID.TID 0000.0001)                 3.106902871483439E+03,      /* I =  3 */
(PID.TID 0000.0001)      . . .
(PID.TID 0000.0001)                 3.864398747251778E+04,      /* I = 48 */
(PID.TID 0000.0001)                 3.911810771797229E+04,      /* I = 49 */
(PID.TID 0000.0001)                 3.958254564073758E+04,      /* I = 50 */
(PID.TID 0000.0001)                 4.003749896992043E+04,      /* I = 51 */
(PID.TID 0000.0001)                 4.048316139667099E+04,      /* I = 52 */
(PID.TID 0000.0001)                 4.091972265664447E+04,      /* I = 53 */
(PID.TID 0000.0001)      . . .
(PID.TID 0000.0001)                 5.369999999999999E+04,      /* I = 98 */
(PID.TID 0000.0001)                 5.389999999999999E+04,      /* I = 99 */
(PID.TID 0000.0001)                 5.409999999999999E+04,      /* I =100 */
(PID.TID 0000.0001)                 5.429999999999999E+04,      /* I =101 */
(PID.TID 0000.0001)                 5.449999999999999E+04,      /* I =102 */
(PID.TID 0000.0001)                 5.469999999999999E+04,      /* I =103 */
(PID.TID 0000.0001)      . . .
(PID.TID 0000.0001)                 6.578505387737689E+04,      /* I =148 */
(PID.TID 0000.0001)                 6.615008372165399E+04,      /* I =149 */
(PID.TID 0000.0001)                 6.652272348874371E+04,      /* I =150 */
(PID.TID 0000.0001)                 6.690313182574332E+04,      /* I =151 */
(PID.TID 0000.0001)                 6.729147068712943E+04,      /* I =152 */
(PID.TID 0000.0001)                 6.768790540370827E+04,      /* I =153 */
(PID.TID 0000.0001)      . . .
(PID.TID 0000.0001)                 9.740216923638493E+04,      /* I =198 */
(PID.TID 0000.0001)                 9.842633369995895E+04,      /* I =199 */
(PID.TID 0000.0001)                 9.947184932875249E+04       /* I =200 */
(PID.TID 0000.0001)     ;
(PID.TID 0000.0001) yC =  /* yC(1,:,1,:) : P-point Y coord ( deg. or m if cartesian) */
(PID.TID 0000.0001)                 2.500000000000000E+03       /* J =  1 */
(PID.TID 0000.0001)     ;
(PID.TID 0000.0001) rcoord = /* P-point R coordinate (  units of r ) */
(PID.TID 0000.0001)                -2.188755257190683E+00,      /* K =  1 */
(PID.TID 0000.0001)                -6.519655254661473E+00,      /* K =  2 */
(PID.TID 0000.0001)                -1.075832681000429E+01,      /* K =  3 */
(PID.TID 0000.0001)                -1.490673396892379E+01,      /* K =  4 */
(PID.TID 0000.0001)                -1.896679895189761E+01,      /* K =  5 */
(PID.TID 0000.0001)                -2.294040304486319E+01,      /* K =  6 */
(PID.TID 0000.0001)                -2.682938747093699E+01,      /* K =  7 */
(PID.TID 0000.0001)                -3.063555424357012E+01,      /* K =  8 */
(PID.TID 0000.0001)                -3.436066700153558E+01,      /* K =  9 */
(PID.TID 0000.0001)                -3.800645182613410E+01,      /* K = 10 */
(PID.TID 0000.0001)                -4.157459804099726E+01,      /* K = 11 */
(PID.TID 0000.0001)                -4.506675899485835E+01,      /* K = 12 */
(PID.TID 0000.0001)                -4.848455282765387E+01,      /* K = 13 */
(PID.TID 0000.0001)                -5.182956322031053E+01,      /* K = 14 */
(PID.TID 0000.0001)                -5.510334012856515E+01,      /* K = 15 */
(PID.TID 0000.0001)                -5.830740050115762E+01,      /* K = 16 */
(PID.TID 0000.0001)                -6.144322898272958E+01,      /* K = 17 */
(PID.TID 0000.0001)                -6.451227860175453E+01,      /* K = 18 */
(PID.TID 0000.0001)                -6.751597144381824E+01,      /* K = 19 */
(PID.TID 0000.0001)                -7.045569931056129E+01,      /* K = 20 */
(PID.TID 0000.0001)                -7.333282436458913E+01,      /* K = 21 */
(PID.TID 0000.0001)                -7.614867976064858E+01,      /* K = 22 */
(PID.TID 0000.0001)                -7.890457026336303E+01,      /* K = 23 */
(PID.TID 0000.0001)                -8.160177285181275E+01,      /* K = 24 */
(PID.TID 0000.0001)                -8.424153731124045E+01,      /* K = 25 */
(PID.TID 0000.0001)                -8.682508681215606E+01,      /* K = 26 */
(PID.TID 0000.0001)                -8.935361847710936E+01,      /* K = 27 */
(PID.TID 0000.0001)                -9.182830393539291E+01,      /* K = 28 */
(PID.TID 0000.0001)                -9.425028986593220E+01,      /* K = 29 */
(PID.TID 0000.0001)                -9.662069852861494E+01,      /* K = 30 */
(PID.TID 0000.0001)                -9.894062828430523E+01,      /* K = 31 */
(PID.TID 0000.0001)                -1.012111541037840E+02,      /* K = 32 */
(PID.TID 0000.0001)                -1.034333280658511E+02,      /* K = 33 */
(PID.TID 0000.0001)                -1.056081798448203E+02,      /* K = 34 */
(PID.TID 0000.0001)                -1.077367171876329E+02,      /* K = 35 */
(PID.TID 0000.0001)                -1.098199263808107E+02,      /* K = 36 */
(PID.TID 0000.0001)                -1.118587727074652E+02,      /* K = 37 */
(PID.TID 0000.0001)                -1.138542008945747E+02,      /* K = 38 */
(PID.TID 0000.0001)                -1.158071355507361E+02,      /* K = 39 */
(PID.TID 0000.0001)                -1.177184815945951E+02,      /* K = 40 */
(PID.TID 0000.0001)                -1.195891246741521E+02,      /* K = 41 */
(PID.TID 0000.0001)                -1.214199315771394E+02,      /* K = 42 */
(PID.TID 0000.0001)                -1.232117506326589E+02,      /* K = 43 */
(PID.TID 0000.0001)                -1.249654121042669E+02,      /* K = 44 */
(PID.TID 0000.0001)                -1.266817285746879E+02,      /* K = 45 */
(PID.TID 0000.0001)                -1.283614953223358E+02,      /* K = 46 */
(PID.TID 0000.0001)                -1.300054906898169E+02,      /* K = 47 */
(PID.TID 0000.0001)                -1.316144764445854E+02,      /* K = 48 */
(PID.TID 0000.0001)                -1.331891981319188E+02,      /* K = 49 */
(PID.TID 0000.0001)                -1.347303854203760E+02,      /* K = 50 */
(PID.TID 0000.0001)                -1.362387524398995E+02,      /* K = 51 */
(PID.TID 0000.0001)                -1.377149981127170E+02,      /* K = 52 */
(PID.TID 0000.0001)                -1.391598064771964E+02,      /* K = 53 */
(PID.TID 0000.0001)                -1.405738470048041E+02,      /* K = 54 */
(PID.TID 0000.0001)                -1.419577749103141E+02,      /* K = 55 */
(PID.TID 0000.0001)                -1.433122314554100E+02,      /* K = 56 */
(PID.TID 0000.0001)                -1.446378442458228E+02,      /* K = 57 */
(PID.TID 0000.0001)                -1.459352275221402E+02,      /* K = 58 */
(PID.TID 0000.0001)                -1.472049824444231E+02,      /* K = 59 */
(PID.TID 0000.0001)                -1.484476973707618E+02,      /* K = 60 */
(PID.TID 0000.0001)                -1.496639481298992E+02,      /* K = 61 */
(PID.TID 0000.0001)                -1.508542982880488E+02,      /* K = 62 */
(PID.TID 0000.0001)                -1.520192994100312E+02,      /* K = 63 */
(PID.TID 0000.0001)                -1.531594913148483E+02,      /* K = 64 */
(PID.TID 0000.0001)                -1.542754023258167E+02,      /* K = 65 */
(PID.TID 0000.0001)                -1.553675495153727E+02,      /* K = 66 */
(PID.TID 0000.0001)                -1.564364389446650E+02,      /* K = 67 */
(PID.TID 0000.0001)                -1.574825658980450E+02,      /* K = 68 */
(PID.TID 0000.0001)                -1.585000000000000E+02,      /* K = 69 */
(PID.TID 0000.0001)                -1.595000000000000E+02,      /* K = 70 */
(PID.TID 0000.0001)                -1.605000000000000E+02,      /* K = 71 */
(PID.TID 0000.0001)                -1.615000000000000E+02,      /* K = 72 */
(PID.TID 0000.0001)                -1.624998584140035E+02,      /* K = 73 */
(PID.TID 0000.0001)                -1.635104515654541E+02,      /* K = 74 */
(PID.TID 0000.0001)                -1.645430340196301E+02,      /* K = 75 */
(PID.TID 0000.0001)                -1.655980842375556E+02,      /* K = 76 */
(PID.TID 0000.0001)                -1.666760910909966E+02,      /* K = 77 */
(PID.TID 0000.0001)                -1.677775540889863E+02,      /* K = 78 */
(PID.TID 0000.0001)                -1.689029836092789E+02,      /* K = 79 */
(PID.TID 0000.0001)                -1.700529011348407E+02,      /* K = 80 */
(PID.TID 0000.0001)                -1.712278394954857E+02,      /* K = 81 */
(PID.TID 0000.0001)                -1.724283431147699E+02,      /* K = 82 */
(PID.TID 0000.0001)                -1.736549682622569E+02,      /* K = 83 */
(PID.TID 0000.0001)                -1.749082833112734E+02,      /* K = 84 */
(PID.TID 0000.0001)                -1.761888690022721E+02,      /* K = 85 */
(PID.TID 0000.0001)                -1.774973187119263E+02,      /* K = 86 */
(PID.TID 0000.0001)                -1.788342387280782E+02,      /* K = 87 */
(PID.TID 0000.0001)                -1.802002485306714E+02,      /* K = 88 */
(PID.TID 0000.0001)                -1.815959810787946E+02,      /* K = 89 */
(PID.TID 0000.0001)                -1.830220831039721E+02,      /* K = 90 */
(PID.TID 0000.0001)                -1.844792154098355E+02,      /* K = 91 */
(PID.TID 0000.0001)                -1.859680531783161E+02,      /* K = 92 */
(PID.TID 0000.0001)                -1.874892862824992E+02,      /* K = 93 */
(PID.TID 0000.0001)                -1.890436196062866E+02,      /* K = 94 */
(PID.TID 0000.0001)                -1.906317733710137E+02,      /* K = 95 */
(PID.TID 0000.0001)                -1.922544834691741E+02,      /* K = 96 */
(PID.TID 0000.0001)                -1.939125018054050E+02,      /* K = 97 */
(PID.TID 0000.0001)                -1.956065966448926E+02,      /* K = 98 */
(PID.TID 0000.0001)                -1.973375529693579E+02,      /* K = 99 */
(PID.TID 0000.0001)                -1.991061728407890E+02       /* K =100 */
(PID.TID 0000.0001)     ;
(PID.TID 0000.0001) rF =   /* W-Interf. R coordinate (  units of r ) */
(PID.TID 0000.0001)                 0.000000000000000E+00,      /* K =  1 */
(PID.TID 0000.0001)                -4.377510514381365E+00,      /* K =  2 */
(PID.TID 0000.0001)                -8.661799994941582E+00,      /* K =  3 */
(PID.TID 0000.0001)                -1.285485362506699E+01,      /* K =  4 */
(PID.TID 0000.0001)                -1.695861431278058E+01,      /* K =  5 */
(PID.TID 0000.0001)                -2.097498359101464E+01,      /* K =  6 */
(PID.TID 0000.0001)                -2.490582249871174E+01,      /* K =  7 */
(PID.TID 0000.0001)                -2.875295244316225E+01,      /* K =  8 */
(PID.TID 0000.0001)                -3.251815604397800E+01,      /* K =  9 */
(PID.TID 0000.0001)                -3.620317795909315E+01,      /* K = 10 */
(PID.TID 0000.0001)                -3.980972569317504E+01,      /* K = 11 */
(PID.TID 0000.0001)                -4.333947038881946E+01,      /* K = 12 */
(PID.TID 0000.0001)                -4.679404760089722E+01,      /* K = 13 */
(PID.TID 0000.0001)                -5.017505805441051E+01,      /* K = 14 */
(PID.TID 0000.0001)                -5.348406838621053E+01,      /* K = 15 */
(PID.TID 0000.0001)                -5.672261187091976E+01,      /* K = 16 */
(PID.TID 0000.0001)                -5.989218913139548E+01,      /* K = 17 */
(PID.TID 0000.0001)                -6.299426883406366E+01,      /* K = 18 */
(PID.TID 0000.0001)                -6.603028836944537E+01,      /* K = 19 */
(PID.TID 0000.0001)                -6.900165451819107E+01,      /* K = 20 */
(PID.TID 0000.0001)                -7.190974410293146E+01,      /* K = 21 */
(PID.TID 0000.0001)                -7.475590462624677E+01,      /* K = 22 */
(PID.TID 0000.0001)                -7.754145489505036E+01,      /* K = 23 */
(PID.TID 0000.0001)                -8.026768563167566E+01,      /* K = 24 */
(PID.TID 0000.0001)                -8.293586007194982E+01,      /* K = 25 */
(PID.TID 0000.0001)                -8.554721455053105E+01,      /* K = 26 */
(PID.TID 0000.0001)                -8.810295907378104E+01,      /* K = 27 */
(PID.TID 0000.0001)                -9.060427788043768E+01,      /* K = 28 */
(PID.TID 0000.0001)                -9.305232999034813E+01,      /* K = 29 */
(PID.TID 0000.0001)                -9.544824974151628E+01,      /* K = 30 */
(PID.TID 0000.0001)                -9.779314731571361E+01,      /* K = 31 */
(PID.TID 0000.0001)                -1.000881092528969E+02,      /* K = 32 */
(PID.TID 0000.0001)                -1.023341989546711E+02,      /* K = 33 */
(PID.TID 0000.0001)                -1.045324571770310E+02,      /* K = 34 */
(PID.TID 0000.0001)                -1.066839025126096E+02,      /* K = 35 */
(PID.TID 0000.0001)                -1.087895318626563E+02,      /* K = 36 */
(PID.TID 0000.0001)                -1.108503208989651E+02,      /* K = 37 */
(PID.TID 0000.0001)                -1.128672245159653E+02,      /* K = 38 */
(PID.TID 0000.0001)                -1.148411772731841E+02,      /* K = 39 */
(PID.TID 0000.0001)                -1.167730938282882E+02,      /* K = 40 */
(PID.TID 0000.0001)                -1.186638693609021E+02,      /* K = 41 */
(PID.TID 0000.0001)                -1.205143799874022E+02,      /* K = 42 */
(PID.TID 0000.0001)                -1.223254831668767E+02,      /* K = 43 */
(PID.TID 0000.0001)                -1.240980180984411E+02,      /* K = 44 */
(PID.TID 0000.0001)                -1.258328061100926E+02,      /* K = 45 */
(PID.TID 0000.0001)                -1.275306510392832E+02,      /* K = 46 */
(PID.TID 0000.0001)                -1.291923396053885E+02,      /* K = 47 */
(PID.TID 0000.0001)                -1.308186417742454E+02,      /* K = 48 */
(PID.TID 0000.0001)                -1.324103111149256E+02,      /* K = 49 */
(PID.TID 0000.0001)                -1.339680851489121E+02,      /* K = 50 */
(PID.TID 0000.0001)                -1.354926856918399E+02,      /* K = 51 */
(PID.TID 0000.0001)                -1.369848191879591E+02,      /* K = 52 */
(PID.TID 0000.0001)                -1.384451770374749E+02,      /* K = 53 */
(PID.TID 0000.0001)                -1.398744359169178E+02,      /* K = 54 */
(PID.TID 0000.0001)                -1.412732580926904E+02,      /* K = 55 */
(PID.TID 0000.0001)                -1.426422917279378E+02,      /* K = 56 */
(PID.TID 0000.0001)                -1.439821711828823E+02,      /* K = 57 */
(PID.TID 0000.0001)                -1.452935173087634E+02,      /* K = 58 */
(PID.TID 0000.0001)                -1.465769377355170E+02,      /* K = 59 */
(PID.TID 0000.0001)                -1.478330271533293E+02,      /* K = 60 */
(PID.TID 0000.0001)                -1.490623675881944E+02,      /* K = 61 */
(PID.TID 0000.0001)                -1.502655286716040E+02,      /* K = 62 */
(PID.TID 0000.0001)                -1.514430679044937E+02,      /* K = 63 */
(PID.TID 0000.0001)                -1.525955309155686E+02,      /* K = 64 */
(PID.TID 0000.0001)                -1.537234517141280E+02,      /* K = 65 */
(PID.TID 0000.0001)                -1.548273529375054E+02,      /* K = 66 */
(PID.TID 0000.0001)                -1.559077460932399E+02,      /* K = 67 */
(PID.TID 0000.0001)                -1.569651317960900E+02,      /* K = 68 */
(PID.TID 0000.0001)                -1.580000000000000E+02,      /* K = 69 */
(PID.TID 0000.0001)                -1.590000000000000E+02,      /* K = 70 */
(PID.TID 0000.0001)                -1.600000000000000E+02,      /* K = 71 */
(PID.TID 0000.0001)                -1.610000000000000E+02,      /* K = 72 */
(PID.TID 0000.0001)                -1.620000000000000E+02,      /* K = 73 */
(PID.TID 0000.0001)                -1.629997168280069E+02,      /* K = 74 */
(PID.TID 0000.0001)                -1.640211863029014E+02,      /* K = 75 */
(PID.TID 0000.0001)                -1.650648817363588E+02,      /* K = 76 */
(PID.TID 0000.0001)                -1.661312867387524E+02,      /* K = 77 */
(PID.TID 0000.0001)                -1.672208954432409E+02,      /* K = 78 */
(PID.TID 0000.0001)                -1.683342127347317E+02,      /* K = 79 */
(PID.TID 0000.0001)                -1.694717544838261E+02,      /* K = 80 */
(PID.TID 0000.0001)                -1.706340477858552E+02,      /* K = 81 */
(PID.TID 0000.0001)                -1.718216312051162E+02,      /* K = 82 */
(PID.TID 0000.0001)                -1.730350550244235E+02,      /* K = 83 */
(PID.TID 0000.0001)                -1.742748815000902E+02,      /* K = 84 */
(PID.TID 0000.0001)                -1.755416851224564E+02,      /* K = 85 */
(PID.TID 0000.0001)                -1.768360528820877E+02,      /* K = 86 */
(PID.TID 0000.0001)                -1.781585845417648E+02,      /* K = 87 */
(PID.TID 0000.0001)                -1.795098929143917E+02,      /* K = 88 */
(PID.TID 0000.0001)                -1.808906041469512E+02,      /* K = 89 */
(PID.TID 0000.0001)                -1.823013580106381E+02,      /* K = 90 */
(PID.TID 0000.0001)                -1.837428081973062E+02,      /* K = 91 */
(PID.TID 0000.0001)                -1.852156226223649E+02,      /* K = 92 */
(PID.TID 0000.0001)                -1.867204837342672E+02,      /* K = 93 */
(PID.TID 0000.0001)                -1.882580888307311E+02,      /* K = 94 */
(PID.TID 0000.0001)                -1.898291503818420E+02,      /* K = 95 */
(PID.TID 0000.0001)                -1.914343963601854E+02,      /* K = 96 */
(PID.TID 0000.0001)                -1.930745705781628E+02,      /* K = 97 */
(PID.TID 0000.0001)                -1.947504330326472E+02,      /* K = 98 */
(PID.TID 0000.0001)                -1.964627602571379E+02,      /* K = 99 */
(PID.TID 0000.0001)                -1.982123456815779E+02,      /* K =100 */
(PID.TID 0000.0001)                -2.000000000000000E+02       /* K =101 */
(PID.TID 0000.0001)     ;
(PID.TID 0000.0001) deepFacC = /* deep-model grid factor @ cell-Center (-) */
(PID.TID 0000.0001)   100 @  1.000000000000000E+00              /* K =  1:100 */
(PID.TID 0000.0001)     ;
(PID.TID 0000.0001) deepFacF = /* deep-model grid factor @ W-Interface (-) */
(PID.TID 0000.0001)   101 @  1.000000000000000E+00              /* K =  1:101 */
(PID.TID 0000.0001)     ;
(PID.TID 0000.0001) rVel2wUnit = /* convert units: rVel -> wSpeed (=1 if z-coord)*/
(PID.TID 0000.0001)   101 @  1.000000000000000E+00              /* K =  1:101 */
(PID.TID 0000.0001)     ;
(PID.TID 0000.0001) wUnit2rVel = /* convert units: wSpeed -> rVel (=1 if z-coord)*/
(PID.TID 0000.0001)   101 @  1.000000000000000E+00              /* K =  1:101 */
(PID.TID 0000.0001)     ;
(PID.TID 0000.0001) dBdrRef = /* Vertical grad. of reference buoyancy [(m/s/r)^2] */
(PID.TID 0000.0001)     6 @  0.000000000000000E+00,             /* K =  1:  6 */
(PID.TID 0000.0001)                 3.375890164712781E-07,      /* K =  7 */
(PID.TID 0000.0001)                 1.142266355880870E-05,      /* K =  8 */
(PID.TID 0000.0001)                 1.421844100865257E-04,      /* K =  9 */
(PID.TID 0000.0001)                 6.510916019715049E-04,      /* K = 10 */
(PID.TID 0000.0001)                 1.096825970326279E-03,      /* K = 11 */
(PID.TID 0000.0001)                 6.797338133188683E-04,      /* K = 12 */
(PID.TID 0000.0001)                 1.549692538253217E-04,      /* K = 13 */
(PID.TID 0000.0001)                 1.299743719420112E-05,      /* K = 14 */
(PID.TID 0000.0001)                 4.010286785761222E-07,      /* K = 15 */
(PID.TID 0000.0001)    85 @  0.000000000000000E+00              /* K = 16:100 */
(PID.TID 0000.0001)     ;
(PID.TID 0000.0001) rotateGrid = /* use rotated grid ( True/False ) */
(PID.TID 0000.0001)                   F
(PID.TID 0000.0001)     ;
(PID.TID 0000.0001) phiEuler = /* Euler angle, rotation about original z-coordinate [rad] */
(PID.TID 0000.0001)                 0.000000000000000E+00
(PID.TID 0000.0001)     ;
(PID.TID 0000.0001) thetaEuler = /* Euler angle, rotation about new x-coordinate [rad] */
(PID.TID 0000.0001)                 0.000000000000000E+00
(PID.TID 0000.0001)     ;
(PID.TID 0000.0001) psiEuler = /* Euler angle, rotation about new z-coordinate [rad] */
(PID.TID 0000.0001)                 0.000000000000000E+00
(PID.TID 0000.0001)     ;
(PID.TID 0000.0001) dxF =  /* dxF(:,1,:,1) ( units: m ) */
(PID.TID 0000.0001)                 1.263294638016668E+03,      /* I =  1 */
(PID.TID 0000.0001)                 1.237496063806571E+03,      /* I =  2 */
(PID.TID 0000.0001)                 1.212224339320398E+03,      /* I =  3 */
(PID.TID 0000.0001)      . . .
(PID.TID 0000.0001)                 4.790113490274632E+02,      /* I = 48 */
(PID.TID 0000.0001)                 4.692291418815790E+02,      /* I = 49 */
(PID.TID 0000.0001)                 4.596467036489769E+02,      /* I = 50 */
(PID.TID 0000.0001)                 4.502599547167311E+02,      /* I = 51 */
(PID.TID 0000.0001)                 4.410648987843862E+02,      /* I = 52 */
(PID.TID 0000.0001)                 4.320576211625778E+02,      /* I = 53 */
(PID.TID 0000.0001)      . . .
(PID.TID 0000.0001)                 2.000000000000000E+02,      /* I = 98 */
(PID.TID 0000.0001)                 2.000000000000000E+02,      /* I = 99 */
(PID.TID 0000.0001)                 2.000000000000000E+02,      /* I =100 */
(PID.TID 0000.0001)                 2.000000000000000E+02,      /* I =101 */
(PID.TID 0000.0001)                 2.000000000000000E+02,      /* I =102 */
(PID.TID 0000.0001)                 2.000000000000000E+02,      /* I =103 */
(PID.TID 0000.0001)      . . .
(PID.TID 0000.0001)                 3.612641354876311E+02,      /* I =148 */
(PID.TID 0000.0001)                 3.687955530665730E+02,      /* I =149 */
(PID.TID 0000.0001)                 3.764839811128614E+02,      /* I =150 */
(PID.TID 0000.0001)                 3.843326928863569E+02,      /* I =151 */
(PID.TID 0000.0001)                 3.923450298858749E+02,      /* I =152 */
(PID.TID 0000.0001)                 4.005244032717896E+02,      /* I =153 */
(PID.TID 0000.0001)      . . .
(PID.TID 0000.0001)                 1.013599012055986E+03,      /* I =198 */
(PID.TID 0000.0001)                 1.034729915092050E+03,      /* I =199 */
(PID.TID 0000.0001)                 1.056301342495056E+03       /* I =200 */
(PID.TID 0000.0001)     ;
(PID.TID 0000.0001) dxF =  /* dxF(1,:,1,:) ( units: m ) */
(PID.TID 0000.0001)                 1.263294638016668E+03       /* J =  1 */
(PID.TID 0000.0001)     ;
(PID.TID 0000.0001) dyF =  /* dyF(:,1,:,1) ( units: m ) */
(PID.TID 0000.0001)   200 @  5.000000000000000E+03              /* I =  1:200 */
(PID.TID 0000.0001)     ;
(PID.TID 0000.0001) dyF =  /* dyF(1,:,1,:) ( units: m ) */
(PID.TID 0000.0001)                 5.000000000000000E+03       /* J =  1 */
(PID.TID 0000.0001)     ;
(PID.TID 0000.0001) dxG =  /* dxG(:,1,:,1) ( units: m ) */
(PID.TID 0000.0001)                 1.263294638016668E+03,      /* I =  1 */
(PID.TID 0000.0001)                 1.237496063806571E+03,      /* I =  2 */
(PID.TID 0000.0001)                 1.212224339320398E+03,      /* I =  3 */
(PID.TID 0000.0001)      . . .
(PID.TID 0000.0001)                 4.790113490274632E+02,      /* I = 48 */
(PID.TID 0000.0001)                 4.692291418815790E+02,      /* I = 49 */
(PID.TID 0000.0001)                 4.596467036489769E+02,      /* I = 50 */
(PID.TID 0000.0001)                 4.502599547167311E+02,      /* I = 51 */
(PID.TID 0000.0001)                 4.410648987843862E+02,      /* I = 52 */
(PID.TID 0000.0001)                 4.320576211625778E+02,      /* I = 53 */
(PID.TID 0000.0001)      . . .
(PID.TID 0000.0001)                 2.000000000000000E+02,      /* I = 98 */
(PID.TID 0000.0001)                 2.000000000000000E+02,      /* I = 99 */
(PID.TID 0000.0001)                 2.000000000000000E+02,      /* I =100 */
(PID.TID 0000.0001)                 2.000000000000000E+02,      /* I =101 */
(PID.TID 0000.0001)                 2.000000000000000E+02,      /* I =102 */
(PID.TID 0000.0001)                 2.000000000000000E+02,      /* I =103 */
(PID.TID 0000.0001)      . . .
(PID.TID 0000.0001)                 3.612641354876311E+02,      /* I =148 */
(PID.TID 0000.0001)                 3.687955530665730E+02,      /* I =149 */
(PID.TID 0000.0001)                 3.764839811128614E+02,      /* I =150 */
(PID.TID 0000.0001)                 3.843326928863569E+02,      /* I =151 */
(PID.TID 0000.0001)                 3.923450298858749E+02,      /* I =152 */
(PID.TID 0000.0001)                 4.005244032717896E+02,      /* I =153 */
(PID.TID 0000.0001)      . . .
(PID.TID 0000.0001)                 1.013599012055986E+03,      /* I =198 */
(PID.TID 0000.0001)                 1.034729915092050E+03,      /* I =199 */
(PID.TID 0000.0001)                 1.056301342495056E+03       /* I =200 */
(PID.TID 0000.0001)     ;
(PID.TID 0000.0001) dxG =  /* dxG(1,:,1,:) ( units: m ) */
(PID.TID 0000.0001)                 1.263294638016668E+03       /* J =  1 */
(PID.TID 0000.0001)     ;
(PID.TID 0000.0001) dyG =  /* dyG(:,1,:,1) ( units: m ) */
(PID.TID 0000.0001)   200 @  5.000000000000000E+03              /* I =  1:200 */
(PID.TID 0000.0001)     ;
(PID.TID 0000.0001) dyG =  /* dyG(1,:,1,:) ( units: m ) */
(PID.TID 0000.0001)                 5.000000000000000E+03       /* J =  1 */
(PID.TID 0000.0001)     ;
(PID.TID 0000.0001) dxC =  /* dxC(:,1,:,1) ( units: m ) */
(PID.TID 0000.0001)                 1.159797990255862E+03,      /* I =  1 */
(PID.TID 0000.0001)                 1.250395350911620E+03,      /* I =  2 */
(PID.TID 0000.0001)                 1.224860201563485E+03,      /* I =  3 */
(PID.TID 0000.0001)      . . .
(PID.TID 0000.0001)                 4.840044193881684E+02,      /* I = 48 */
(PID.TID 0000.0001)                 4.741202454545211E+02,      /* I = 49 */
(PID.TID 0000.0001)                 4.644379227652780E+02,      /* I = 50 */
(PID.TID 0000.0001)                 4.549533291828540E+02,      /* I = 51 */
(PID.TID 0000.0001)                 4.456624267505587E+02,      /* I = 52 */
(PID.TID 0000.0001)                 4.365612599734820E+02,      /* I = 53 */
(PID.TID 0000.0001)      . . .
(PID.TID 0000.0001)                 2.000000000000000E+02,      /* I = 98 */
(PID.TID 0000.0001)                 2.000000000000000E+02,      /* I = 99 */
(PID.TID 0000.0001)                 2.000000000000000E+02,      /* I =100 */
(PID.TID 0000.0001)                 2.000000000000000E+02,      /* I =101 */
(PID.TID 0000.0001)                 2.000000000000000E+02,      /* I =102 */
(PID.TID 0000.0001)                 2.000000000000000E+02,      /* I =103 */
(PID.TID 0000.0001)      . . .
(PID.TID 0000.0001)                 3.575753287246037E+02,      /* I =148 */
(PID.TID 0000.0001)                 3.650298442771020E+02,      /* I =149 */
(PID.TID 0000.0001)                 3.726397670897172E+02,      /* I =150 */
(PID.TID 0000.0001)                 3.804083369996092E+02,      /* I =151 */
(PID.TID 0000.0001)                 3.883388613861159E+02,      /* I =152 */
(PID.TID 0000.0001)                 3.964347165788323E+02,      /* I =153 */
(PID.TID 0000.0001)      . . .
(PID.TID 0000.0001)                 1.003249324601893E+03,      /* I =198 */
(PID.TID 0000.0001)                 1.024164463574018E+03,      /* I =199 */
(PID.TID 0000.0001)                 1.045515628793553E+03       /* I =200 */
(PID.TID 0000.0001)     ;
(PID.TID 0000.0001) dxC =  /* dxC(1,:,1,:) ( units: m ) */
(PID.TID 0000.0001)                 1.159797990255862E+03       /* J =  1 */
(PID.TID 0000.0001)     ;
(PID.TID 0000.0001) dyC =  /* dyC(:,1,:,1) ( units: m ) */
(PID.TID 0000.0001)   200 @  5.000000000000000E+03              /* I =  1:200 */
(PID.TID 0000.0001)     ;
(PID.TID 0000.0001) dyC =  /* dyC(1,:,1,:) ( units: m ) */
(PID.TID 0000.0001)                 5.000000000000000E+03       /* J =  1 */
(PID.TID 0000.0001)     ;
(PID.TID 0000.0001) dxV =  /* dxV(:,1,:,1) ( units: m ) */
(PID.TID 0000.0001)                 1.159797990255862E+03,      /* I =  1 */
(PID.TID 0000.0001)                 1.250395350911620E+03,      /* I =  2 */
(PID.TID 0000.0001)                 1.224860201563485E+03,      /* I =  3 */
(PID.TID 0000.0001)      . . .
(PID.TID 0000.0001)                 4.840044193881684E+02,      /* I = 48 */
(PID.TID 0000.0001)                 4.741202454545211E+02,      /* I = 49 */
(PID.TID 0000.0001)                 4.644379227652780E+02,      /* I = 50 */
(PID.TID 0000.0001)                 4.549533291828540E+02,      /* I = 51 */
(PID.TID 0000.0001)                 4.456624267505587E+02,      /* I = 52 */
(PID.TID 0000.0001)                 4.365612599734820E+02,      /* I = 53 */
(PID.TID 0000.0001)      . . .
(PID.TID 0000.0001)                 2.000000000000000E+02,      /* I = 98 */
(PID.TID 0000.0001)                 2.000000000000000E+02,      /* I = 99 */
(PID.TID 0000.0001)                 2.000000000000000E+02,      /* I =100 */
(PID.TID 0000.0001)                 2.000000000000000E+02,      /* I =101 */
(PID.TID 0000.0001)                 2.000000000000000E+02,      /* I =102 */
(PID.TID 0000.0001)                 2.000000000000000E+02,      /* I =103 */
(PID.TID 0000.0001)      . . .
(PID.TID 0000.0001)                 3.575753287246037E+02,      /* I =148 */
(PID.TID 0000.0001)                 3.650298442771020E+02,      /* I =149 */
(PID.TID 0000.0001)                 3.726397670897172E+02,      /* I =150 */
(PID.TID 0000.0001)                 3.804083369996092E+02,      /* I =151 */
(PID.TID 0000.0001)                 3.883388613861159E+02,      /* I =152 */
(PID.TID 0000.0001)                 3.964347165788323E+02,      /* I =153 */
(PID.TID 0000.0001)      . . .
(PID.TID 0000.0001)                 1.003249324601893E+03,      /* I =198 */
(PID.TID 0000.0001)                 1.024164463574018E+03,      /* I =199 */
(PID.TID 0000.0001)                 1.045515628793553E+03       /* I =200 */
(PID.TID 0000.0001)     ;
(PID.TID 0000.0001) dxV =  /* dxV(1,:,1,:) ( units: m ) */
(PID.TID 0000.0001)                 1.159797990255862E+03       /* J =  1 */
(PID.TID 0000.0001)     ;
(PID.TID 0000.0001) dyU =  /* dyU(:,1,:,1) ( units: m ) */
(PID.TID 0000.0001)   200 @  5.000000000000000E+03              /* I =  1:200 */
(PID.TID 0000.0001)     ;
(PID.TID 0000.0001) dyU =  /* dyU(1,:,1,:) ( units: m ) */
(PID.TID 0000.0001)                 5.000000000000000E+03       /* J =  1 */
(PID.TID 0000.0001)     ;
(PID.TID 0000.0001) rA  =  /* rA (:,1,:,1) ( units: m^2 ) */
(PID.TID 0000.0001)                 6.316473190083342E+06,      /* I =  1 */
(PID.TID 0000.0001)                 6.187480319032855E+06,      /* I =  2 */
(PID.TID 0000.0001)                 6.061121696601991E+06,      /* I =  3 */
(PID.TID 0000.0001)      . . .
(PID.TID 0000.0001)                 2.395056745137316E+06,      /* I = 48 */
(PID.TID 0000.0001)                 2.346145709407895E+06,      /* I = 49 */
(PID.TID 0000.0001)                 2.298233518244884E+06,      /* I = 50 */
(PID.TID 0000.0001)                 2.251299773583656E+06,      /* I = 51 */
(PID.TID 0000.0001)                 2.205324493921931E+06,      /* I = 52 */
(PID.TID 0000.0001)                 2.160288105812889E+06,      /* I = 53 */
(PID.TID 0000.0001)      . . .
(PID.TID 0000.0001)                 1.000000000000000E+06,      /* I = 98 */
(PID.TID 0000.0001)                 1.000000000000000E+06,      /* I = 99 */
(PID.TID 0000.0001)                 1.000000000000000E+06,      /* I =100 */
(PID.TID 0000.0001)                 1.000000000000000E+06,      /* I =101 */
(PID.TID 0000.0001)                 1.000000000000000E+06,      /* I =102 */
(PID.TID 0000.0001)                 1.000000000000000E+06,      /* I =103 */
(PID.TID 0000.0001)      . . .
(PID.TID 0000.0001)                 1.806320677438155E+06,      /* I =148 */
(PID.TID 0000.0001)                 1.843977765332865E+06,      /* I =149 */
(PID.TID 0000.0001)                 1.882419905564307E+06,      /* I =150 */
(PID.TID 0000.0001)                 1.921663464431785E+06,      /* I =151 */
(PID.TID 0000.0001)                 1.961725149429375E+06,      /* I =152 */
(PID.TID 0000.0001)                 2.002622016358948E+06,      /* I =153 */
(PID.TID 0000.0001)      . . .
(PID.TID 0000.0001)                 5.067995060279928E+06,      /* I =198 */
(PID.TID 0000.0001)                 5.173649575460250E+06,      /* I =199 */
(PID.TID 0000.0001)                 5.281506712475282E+06       /* I =200 */
(PID.TID 0000.0001)     ;
(PID.TID 0000.0001) rA  =  /* rA (1,:,1,:) ( units: m^2 ) */
(PID.TID 0000.0001)                 6.316473190083342E+06       /* J =  1 */
(PID.TID 0000.0001)     ;
(PID.TID 0000.0001) rAw =  /* rAw(:,1,:,1) ( units: m^2 ) */
(PID.TID 0000.0001)                 5.798989951279311E+06,      /* I =  1 */
(PID.TID 0000.0001)                 6.251976754558099E+06,      /* I =  2 */
(PID.TID 0000.0001)                 6.124301007817423E+06,      /* I =  3 */
(PID.TID 0000.0001)      . . .
(PID.TID 0000.0001)                 2.420022096940842E+06,      /* I = 48 */
(PID.TID 0000.0001)                 2.370601227272606E+06,      /* I = 49 */
(PID.TID 0000.0001)                 2.322189613826390E+06,      /* I = 50 */
(PID.TID 0000.0001)                 2.274766645914270E+06,      /* I = 51 */
(PID.TID 0000.0001)                 2.228312133752794E+06,      /* I = 52 */
(PID.TID 0000.0001)                 2.182806299867410E+06,      /* I = 53 */
(PID.TID 0000.0001)      . . .
(PID.TID 0000.0001)                 1.000000000000000E+06,      /* I = 98 */
(PID.TID 0000.0001)                 1.000000000000000E+06,      /* I = 99 */
(PID.TID 0000.0001)                 1.000000000000000E+06,      /* I =100 */
(PID.TID 0000.0001)                 1.000000000000000E+06,      /* I =101 */
(PID.TID 0000.0001)                 1.000000000000000E+06,      /* I =102 */
(PID.TID 0000.0001)                 1.000000000000000E+06,      /* I =103 */
(PID.TID 0000.0001)      . . .
(PID.TID 0000.0001)                 1.787876643623018E+06,      /* I =148 */
(PID.TID 0000.0001)                 1.825149221385510E+06,      /* I =149 */
(PID.TID 0000.0001)                 1.863198835448586E+06,      /* I =150 */
(PID.TID 0000.0001)                 1.902041684998046E+06,      /* I =151 */
(PID.TID 0000.0001)                 1.941694306930580E+06,      /* I =152 */
(PID.TID 0000.0001)                 1.982173582894161E+06,      /* I =153 */
(PID.TID 0000.0001)      . . .
(PID.TID 0000.0001)                 5.016246623009465E+06,      /* I =198 */
(PID.TID 0000.0001)                 5.120822317870088E+06,      /* I =199 */
(PID.TID 0000.0001)                 5.227578143967765E+06       /* I =200 */
(PID.TID 0000.0001)     ;
(PID.TID 0000.0001) rAw =  /* rAw(1,:,1,:) ( units: m^2 ) */
(PID.TID 0000.0001)                 5.798989951279311E+06       /* J =  1 */
(PID.TID 0000.0001)     ;
(PID.TID 0000.0001) rAs =  /* rAs(:,1,:,1) ( units: m^2 ) */
(PID.TID 0000.0001)                 6.316473190083342E+06,      /* I =  1 */
(PID.TID 0000.0001)                 6.187480319032855E+06,      /* I =  2 */
(PID.TID 0000.0001)                 6.061121696601991E+06,      /* I =  3 */
(PID.TID 0000.0001)      . . .
(PID.TID 0000.0001)                 2.395056745137316E+06,      /* I = 48 */
(PID.TID 0000.0001)                 2.346145709407895E+06,      /* I = 49 */
(PID.TID 0000.0001)                 2.298233518244884E+06,      /* I = 50 */
(PID.TID 0000.0001)                 2.251299773583656E+06,      /* I = 51 */
(PID.TID 0000.0001)                 2.205324493921931E+06,      /* I = 52 */
(PID.TID 0000.0001)                 2.160288105812889E+06,      /* I = 53 */
(PID.TID 0000.0001)      . . .
(PID.TID 0000.0001)                 1.000000000000000E+06,      /* I = 98 */
(PID.TID 0000.0001)                 1.000000000000000E+06,      /* I = 99 */
(PID.TID 0000.0001)                 1.000000000000000E+06,      /* I =100 */
(PID.TID 0000.0001)                 1.000000000000000E+06,      /* I =101 */
(PID.TID 0000.0001)                 1.000000000000000E+06,      /* I =102 */
(PID.TID 0000.0001)                 1.000000000000000E+06,      /* I =103 */
(PID.TID 0000.0001)      . . .
(PID.TID 0000.0001)                 1.806320677438155E+06,      /* I =148 */
(PID.TID 0000.0001)                 1.843977765332865E+06,      /* I =149 */
(PID.TID 0000.0001)                 1.882419905564307E+06,      /* I =150 */
(PID.TID 0000.0001)                 1.921663464431785E+06,      /* I =151 */
(PID.TID 0000.0001)                 1.961725149429375E+06,      /* I =152 */
(PID.TID 0000.0001)                 2.002622016358948E+06,      /* I =153 */
(PID.TID 0000.0001)      . . .
(PID.TID 0000.0001)                 5.067995060279928E+06,      /* I =198 */
(PID.TID 0000.0001)                 5.173649575460250E+06,      /* I =199 */
(PID.TID 0000.0001)                 5.281506712475282E+06       /* I =200 */
(PID.TID 0000.0001)     ;
(PID.TID 0000.0001) rAs =  /* rAs(1,:,1,:) ( units: m^2 ) */
(PID.TID 0000.0001)                 6.316473190083342E+06       /* J =  1 */
(PID.TID 0000.0001)     ;
(PID.TID 0000.0001) globalArea = /* Integrated horizontal Area (m^2) */
(PID.TID 0000.0001)                 4.884020200974414E+08
(PID.TID 0000.0001)     ;
(PID.TID 0000.0001) // =======================================================
(PID.TID 0000.0001) // End of Model config. summary
(PID.TID 0000.0001) // =======================================================
(PID.TID 0000.0001) 
(PID.TID 0000.0001) == Packages configuration : Check & print summary ==
(PID.TID 0000.0001) 
(PID.TID 0000.0001) OBCS_CHECK: #define ALLOW_OBCS
(PID.TID 0000.0001) OBCS_CHECK: start summary:
(PID.TID 0000.0001) useOBCSprescribe = /* prescribe OB values */
(PID.TID 0000.0001)                   T
(PID.TID 0000.0001)     ;
(PID.TID 0000.0001) useOBCSbalance = /* balance the flow through OB */
(PID.TID 0000.0001)                   F
(PID.TID 0000.0001)     ;
(PID.TID 0000.0001) OBCS_uvApplyFac = /* Factor to apply to U,V 2nd column/row */
(PID.TID 0000.0001)                 1.000000000000000E+00
(PID.TID 0000.0001)     ;
(PID.TID 0000.0001) OBCS_u1_adv_T = /* Temp uses upwind adv-scheme @ OB */
(PID.TID 0000.0001)                       0
(PID.TID 0000.0001)     ;
(PID.TID 0000.0001) OBCS_u1_adv_S = /* Salt uses upwind adv-scheme @ OB */
(PID.TID 0000.0001)                       0
(PID.TID 0000.0001)     ;
(PID.TID 0000.0001) OBCS_monitorFreq = /* monitor output frequency [s] */
(PID.TID 0000.0001)                 7.200000000000000E+03
(PID.TID 0000.0001)     ;
(PID.TID 0000.0001) OBCS_monSelect = /* select group of variables to monitor */
(PID.TID 0000.0001)                       0
(PID.TID 0000.0001)     ;
(PID.TID 0000.0001) useOBCStides = /* apply tidal forcing through OB */
(PID.TID 0000.0001)                   F
(PID.TID 0000.0001)     ;
(PID.TID 0000.0001) tidalPeriod = /* (s) */
(PID.TID 0000.0001)    10 @  0.000000000000000E+00              /* I =  1: 10 */
(PID.TID 0000.0001)     ;
(PID.TID 0000.0001) OB_indexNone = /* null value for OB index (i.e. no OB) */
(PID.TID 0000.0001)                     -99
(PID.TID 0000.0001)     ;
(PID.TID 0000.0001) ======== Tile bi=   1 , bj=   1 ========
(PID.TID 0000.0001)  OB_Jn = /* Northern OB local indices */
(PID.TID 0000.0001)   204 @      -99                            /* I = -1:202 */
(PID.TID 0000.0001)  OB_Js = /* Southern OB local indices */
(PID.TID 0000.0001)   204 @      -99                            /* I = -1:202 */
(PID.TID 0000.0001)  OB_Ie = /* Eastern OB local indices */
(PID.TID 0000.0001)     5 @      200                            /* J = -1:  3 */
(PID.TID 0000.0001)  OB_Iw = /* Western OB local indices */
(PID.TID 0000.0001)     5 @        1                            /* J = -1:  3 */
(PID.TID 0000.0001) OBCS_CHECK: end summary.
(PID.TID 0000.0001) OBCS_CHECK: set-up OK
(PID.TID 0000.0001) OBCS_CHECK: check Inside Mask and OB locations: OK
(PID.TID 0000.0001) KL10_CHECK: #define ALLOW_KL10
(PID.TID 0000.0001) GAD_CHECK: #define ALLOW_GENERIC_ADVDIFF
(PID.TID 0000.0001) // =======================================================
(PID.TID 0000.0001) // Check Model config. (CONFIG_CHECK):
(PID.TID 0000.0001) // CONFIG_CHECK : Normal End
(PID.TID 0000.0001) // =======================================================
(PID.TID 0000.0001) 
(PID.TID 0000.0001)  MDS_READ_FIELD: opening global file: U0.bin
(PID.TID 0000.0001)  MDS_READ_FIELD: opening global file: T0.bin
(PID.TID 0000.0001) Start initial hydrostatic pressure computation
(PID.TID 0000.0001) Pressure is predetermined for buoyancyRelation OCEANIC
(PID.TID 0000.0001) 
(PID.TID 0000.0001)  OBCS_FIELDS_LOAD: Reading initial data:         0  0.000000000000E+00
(PID.TID 0000.0001)  MDS_READ_SEC_YZ: opening global file: U_in.bin
(PID.TID 0000.0001)  MDS_READ_SEC_YZ: opening global file: TE.bin
(PID.TID 0000.0001)  MDS_READ_SEC_YZ: opening global file: U_in.bin
(PID.TID 0000.0001)  MDS_READ_SEC_YZ: opening global file: TW.bin
(PID.TID 0000.0001) // =======================================================
(PID.TID 0000.0001) // Model current state
(PID.TID 0000.0001) // =======================================================
(PID.TID 0000.0001) 
(PID.TID 0000.0001) // =======================================================
(PID.TID 0000.0001) // Begin MONITOR dynamic field statistics
(PID.TID 0000.0001) // =======================================================
(PID.TID 0000.0001) %MON time_tsnumber                =                     0
(PID.TID 0000.0001) %MON time_secondsf                =   0.0000000000000E+00
(PID.TID 0000.0001) %MON dynstat_eta_max              =   0.0000000000000E+00
(PID.TID 0000.0001) %MON dynstat_eta_min              =   0.0000000000000E+00
(PID.TID 0000.0001) %MON dynstat_eta_mean             =   0.0000000000000E+00
(PID.TID 0000.0001) %MON dynstat_eta_sd               =   0.0000000000000E+00
(PID.TID 0000.0001) %MON dynstat_eta_del2             =   0.0000000000000E+00
(PID.TID 0000.0001) %MON dynstat_uvel_max             =   0.0000000000000E+00
(PID.TID 0000.0001) %MON dynstat_uvel_min             =   0.0000000000000E+00
(PID.TID 0000.0001) %MON dynstat_uvel_mean            =   0.0000000000000E+00
(PID.TID 0000.0001) %MON dynstat_uvel_sd              =   0.0000000000000E+00
(PID.TID 0000.0001) %MON dynstat_uvel_del2            =   0.0000000000000E+00
(PID.TID 0000.0001) %MON dynstat_vvel_max             =   0.0000000000000E+00
(PID.TID 0000.0001) %MON dynstat_vvel_min             =   0.0000000000000E+00
(PID.TID 0000.0001) %MON dynstat_vvel_mean            =   0.0000000000000E+00
(PID.TID 0000.0001) %MON dynstat_vvel_sd              =   0.0000000000000E+00
(PID.TID 0000.0001) %MON dynstat_vvel_del2            =   0.0000000000000E+00
(PID.TID 0000.0001) %MON dynstat_wvel_max             =  -0.0000000000000E+00
(PID.TID 0000.0001) %MON dynstat_wvel_min             =  -0.0000000000000E+00
(PID.TID 0000.0001) %MON dynstat_wvel_mean            =   0.0000000000000E+00
(PID.TID 0000.0001) %MON dynstat_wvel_sd              =   0.0000000000000E+00
(PID.TID 0000.0001) %MON dynstat_wvel_del2            =   0.0000000000000E+00
(PID.TID 0000.0001) %MON dynstat_theta_max            =   1.5000000000000E+01
(PID.TID 0000.0001) %MON dynstat_theta_min            =   1.0000000000000E+01
(PID.TID 0000.0001) %MON dynstat_theta_mean           =   1.2728690240940E+01
(PID.TID 0000.0001) %MON dynstat_theta_sd             =   2.4522956640623E+00
(PID.TID 0000.0001) %MON dynstat_theta_del2           =   1.0525347628388E-04
(PID.TID 0000.0001) %MON dynstat_salt_max             =   3.5000000000000E+01
(PID.TID 0000.0001) %MON dynstat_salt_min             =   3.5000000000000E+01
(PID.TID 0000.0001) %MON dynstat_salt_mean            =   3.5000000000000E+01
(PID.TID 0000.0001) %MON dynstat_salt_sd              =   1.0658141036402E-13
(PID.TID 0000.0001) %MON dynstat_salt_del2            =   0.0000000000000E+00
(PID.TID 0000.0001) %MON dynstat_sst_max              =   1.5000000000000E+01
(PID.TID 0000.0001) %MON dynstat_sst_min              =   1.5000000000000E+01
(PID.TID 0000.0001) %MON dynstat_sst_mean             =   1.5000000000000E+01
(PID.TID 0000.0001) %MON dynstat_sst_sd               =   1.7763568394003E-15
(PID.TID 0000.0001) %MON dynstat_sst_del2             =   0.0000000000000E+00
(PID.TID 0000.0001) %MON dynstat_sss_max              =   3.5000000000000E+01
(PID.TID 0000.0001) %MON dynstat_sss_min              =   3.5000000000000E+01
(PID.TID 0000.0001) %MON dynstat_sss_mean             =   3.5000000000000E+01
(PID.TID 0000.0001) %MON dynstat_sss_sd               =   4.2632564145606E-14
(PID.TID 0000.0001) %MON dynstat_sss_del2             =   0.0000000000000E+00
(PID.TID 0000.0001) %MON forcing_qnet_max             =   0.0000000000000E+00
(PID.TID 0000.0001) %MON forcing_qnet_min             =   0.0000000000000E+00
(PID.TID 0000.0001) %MON forcing_qnet_mean            =   0.0000000000000E+00
(PID.TID 0000.0001) %MON forcing_qnet_sd              =   0.0000000000000E+00
(PID.TID 0000.0001) %MON forcing_qnet_del2            =   0.0000000000000E+00
(PID.TID 0000.0001) %MON forcing_qsw_max              =   0.0000000000000E+00
(PID.TID 0000.0001) %MON forcing_qsw_min              =   0.0000000000000E+00
(PID.TID 0000.0001) %MON forcing_qsw_mean             =   0.0000000000000E+00
(PID.TID 0000.0001) %MON forcing_qsw_sd               =   0.0000000000000E+00
(PID.TID 0000.0001) %MON forcing_qsw_del2             =   0.0000000000000E+00
(PID.TID 0000.0001) %MON forcing_empmr_max            =   0.0000000000000E+00
(PID.TID 0000.0001) %MON forcing_empmr_min            =   0.0000000000000E+00
(PID.TID 0000.0001) %MON forcing_empmr_mean           =   0.0000000000000E+00
(PID.TID 0000.0001) %MON forcing_empmr_sd             =   0.0000000000000E+00
(PID.TID 0000.0001) %MON forcing_empmr_del2           =   0.0000000000000E+00
(PID.TID 0000.0001) %MON forcing_fu_max               =   0.0000000000000E+00
(PID.TID 0000.0001) %MON forcing_fu_min               =   0.0000000000000E+00
(PID.TID 0000.0001) %MON forcing_fu_mean              =   0.0000000000000E+00
(PID.TID 0000.0001) %MON forcing_fu_sd                =   0.0000000000000E+00
(PID.TID 0000.0001) %MON forcing_fu_del2              =   0.0000000000000E+00
(PID.TID 0000.0001) %MON forcing_fv_max               =   0.0000000000000E+00
(PID.TID 0000.0001) %MON forcing_fv_min               =   0.0000000000000E+00
(PID.TID 0000.0001) %MON forcing_fv_mean              =   0.0000000000000E+00
(PID.TID 0000.0001) %MON forcing_fv_sd                =   0.0000000000000E+00
(PID.TID 0000.0001) %MON forcing_fv_del2              =   0.0000000000000E+00
(PID.TID 0000.0001) %MON advcfl_uvel_max              =   0.0000000000000E+00
(PID.TID 0000.0001) %MON advcfl_vvel_max              =   0.0000000000000E+00
(PID.TID 0000.0001) %MON advcfl_wvel_max              =   0.0000000000000E+00
(PID.TID 0000.0001) %MON advcfl_W_hf_max              =   0.0000000000000E+00
(PID.TID 0000.0001) %MON pe_b_mean                    =   0.0000000000000E+00
(PID.TID 0000.0001) %MON ke_max                       =   0.0000000000000E+00
(PID.TID 0000.0001) %MON ke_mean                      =   0.0000000000000E+00
(PID.TID 0000.0001) %MON ke_vol                       =   8.5338127039305E+10
(PID.TID 0000.0001) %MON vort_r_min                   =   0.0000000000000E+00
(PID.TID 0000.0001) %MON vort_r_max                   =   0.0000000000000E+00
(PID.TID 0000.0001) %MON vort_a_mean                  =   0.0000000000000E+00
(PID.TID 0000.0001) %MON vort_a_sd                    =   0.0000000000000E+00
(PID.TID 0000.0001) %MON vort_p_mean                  =   0.0000000000000E+00
(PID.TID 0000.0001) %MON vort_p_sd                    =   0.0000000000000E+00
(PID.TID 0000.0001) %MON surfExpan_theta_mean         =   0.0000000000000E+00
(PID.TID 0000.0001) %MON surfExpan_salt_mean          =   0.0000000000000E+00
(PID.TID 0000.0001) // =======================================================
(PID.TID 0000.0001) // End MONITOR dynamic field statistics
(PID.TID 0000.0001) // =======================================================
(PID.TID 0000.0001) // =======================================================
(PID.TID 0000.0001) // Begin OBCS MONITOR field statistics
(PID.TID 0000.0001) // =======================================================
(PID.TID 0000.0001) %MON obc_E_uVel_max               =   0.0000000000000E+00
(PID.TID 0000.0001) %MON obc_E_uVel_min               =   0.0000000000000E+00
(PID.TID 0000.0001) %MON obc_E_uVel_mean              =   0.0000000000000E+00
(PID.TID 0000.0001) %MON obc_E_uVel_sd                =   0.0000000000000E+00
(PID.TID 0000.0001) %MON obc_E_uVel_Int               =   0.0000000000000E+00
(PID.TID 0000.0001) %MON obc_W_uVel_max               =   0.0000000000000E+00
(PID.TID 0000.0001) %MON obc_W_uVel_min               =   0.0000000000000E+00
(PID.TID 0000.0001) %MON obc_W_uVel_mean              =   0.0000000000000E+00
(PID.TID 0000.0001) %MON obc_W_uVel_sd                =   0.0000000000000E+00
(PID.TID 0000.0001) %MON obc_W_uVel_Int               =   0.0000000000000E+00
(PID.TID 0000.0001) // =======================================================
(PID.TID 0000.0001) // End OBCS MONITOR field statistics
(PID.TID 0000.0001) // =======================================================
(PID.TID 0000.0001) SOLVE_FOR_PRESSURE: putPmEinXvector =    F
 cg2d: Sum(rhs),rhsMax =   6.59194920871187E-17  3.35150481822503E-03
 cg2d: Sum(rhs),rhsMax =  -2.22871250776833E-14  7.36590242120810E-03
 cg2d: Sum(rhs),rhsMax =  -5.18562007032645E-14  1.05940033091560E-02
 cg2d: Sum(rhs),rhsMax =  -6.36876417499030E-14  1.26622956427516E-02
 cg2d: Sum(rhs),rhsMax =  -4.47556878604586E-14  1.41885429212768E-02
 cg2d: Sum(rhs),rhsMax =  -1.91997953944546E-13  1.49657605655733E-02
 cg2d: Sum(rhs),rhsMax =  -2.11743027055242E-13  1.52921174122955E-02
 cg2d: Sum(rhs),rhsMax =  -1.98710658720471E-13  1.54914548742796E-02
 cg2d: Sum(rhs),rhsMax =  -2.20687371372954E-13  1.55510830807833E-02
 cg2d: Sum(rhs),rhsMax =  -1.87951507881266E-13  1.55436180231117E-02
 cg2d: Sum(rhs),rhsMax =  -1.71941174396939E-13  1.55158635324217E-02
 cg2d: Sum(rhs),rhsMax =  -2.19888405566866E-13  1.54862735821807E-02
 cg2d: Sum(rhs),rhsMax =  -3.63223735931213E-13  1.54602514521486E-02
 cg2d: Sum(rhs),rhsMax =  -4.50481805460054E-13  1.54383373022952E-02
 cg2d: Sum(rhs),rhsMax =  -5.25943676997495E-13  1.56977362675076E-02
 cg2d: Sum(rhs),rhsMax =  -4.00521892693910E-13  1.60736363652975E-02
 cg2d: Sum(rhs),rhsMax =  -4.02376509085560E-13  1.64540488926680E-02
 cg2d: Sum(rhs),rhsMax =  -3.77269190565914E-13  1.68568048490046E-02
 cg2d: Sum(rhs),rhsMax =  -3.51395207790581E-13  1.72570535772976E-02
 cg2d: Sum(rhs),rhsMax =  -2.81907468631775E-13  1.76811378276335E-02
 cg2d: Sum(rhs),rhsMax =  -1.29553108725661E-13  1.81083681814741E-02
 cg2d: Sum(rhs),rhsMax =   4.39392380025812E-14  1.85507543586520E-02
 cg2d: Sum(rhs),rhsMax =   1.60750970129245E-13  1.90030280123945E-02
 cg2d: Sum(rhs),rhsMax =   3.07783650167403E-13  1.94683785011241E-02
 cg2d: Sum(rhs),rhsMax =   3.81610417261969E-13  1.99423568679383E-02
 cg2d: Sum(rhs),rhsMax =   4.73957059252113E-13  2.04332756641442E-02
 cg2d: Sum(rhs),rhsMax =   5.77768723199166E-13  2.09231161161280E-02
 cg2d: Sum(rhs),rhsMax =   6.37707679245575E-13  2.14418153052430E-02
 cg2d: Sum(rhs),rhsMax =   6.59855402724618E-13  2.19577756753226E-02
 cg2d: Sum(rhs),rhsMax =   7.33023821718429E-13  2.24858472301771E-02
 cg2d: Sum(rhs),rhsMax =   7.78229072056635E-13  2.30318304542382E-02
 cg2d: Sum(rhs),rhsMax =   8.06267327977751E-13  2.35781629504586E-02
 cg2d: Sum(rhs),rhsMax =   9.11478412595454E-13  2.41280950254725E-02
 cg2d: Sum(rhs),rhsMax =   9.34402642511260E-13  2.47043974934493E-02
 cg2d: Sum(rhs),rhsMax =   9.36095600169036E-13  2.52827183182490E-02
 cg2d: Sum(rhs),rhsMax =   9.86131885971322E-13  2.58643230602690E-02
 cg2d: Sum(rhs),rhsMax =   9.79998134576746E-13  2.64501169401968E-02
 cg2d: Sum(rhs),rhsMax =   9.69623819034376E-13  2.70428688350013E-02
 cg2d: Sum(rhs),rhsMax =   1.02894232576530E-12  2.76551224752854E-02
 cg2d: Sum(rhs),rhsMax =   1.02613094887447E-12  2.82716201649762E-02
 cg2d: Sum(rhs),rhsMax =   1.17400216609852E-12  2.88928590703003E-02
 cg2d: Sum(rhs),rhsMax =   1.29395859261791E-12  2.95191645497599E-02
 cg2d: Sum(rhs),rhsMax =   1.41750394516867E-12  3.01508187864661E-02
 cg2d: Sum(rhs),rhsMax =   1.54779411943445E-12  3.07878660540673E-02
 cg2d: Sum(rhs),rhsMax =   1.57143905093332E-12  3.14303590394203E-02
 cg2d: Sum(rhs),rhsMax =   1.68036808426142E-12  3.20781398996113E-02
 cg2d: Sum(rhs),rhsMax =   1.79662101168487E-12  3.27309824269034E-02
 cg2d: Sum(rhs),rhsMax =   1.90966990484820E-12  3.33885911112258E-02
 cg2d: Sum(rhs),rhsMax =   1.96408340980003E-12  3.40503617974335E-02
 cg2d: Sum(rhs),rhsMax =   2.07888827680192E-12  3.47156568627912E-02
 cg2d: Sum(rhs),rhsMax =   2.15789539015354E-12  3.53835902214902E-02
 cg2d: Sum(rhs),rhsMax =   2.29847391119975E-12  3.60532522468429E-02
 cg2d: Sum(rhs),rhsMax =   2.39480830999117E-12  3.67234633273629E-02
 cg2d: Sum(rhs),rhsMax =   2.48350645604134E-12  3.74110449728399E-02
 cg2d: Sum(rhs),rhsMax =   2.57846521911631E-12  3.81055382412223E-02
 cg2d: Sum(rhs),rhsMax =   2.72291911240785E-12  3.88005553063527E-02
 cg2d: Sum(rhs),rhsMax =   2.72205175066986E-12  3.94943882225892E-02
 cg2d: Sum(rhs),rhsMax =   2.75092448820402E-12  4.01850865432116E-02
 cg2d: Sum(rhs),rhsMax =   2.80063472413161E-12  4.08703689893288E-02
 cg2d: Sum(rhs),rhsMax =   2.81431822291012E-12  4.15825372046587E-02
 cg2d: Sum(rhs),rhsMax =   2.85904633301470E-12  4.22982665452081E-02
 cg2d: Sum(rhs),rhsMax =   2.91058843693293E-12  4.30069926054744E-02
 cg2d: Sum(rhs),rhsMax =   2.97797897452767E-12  4.37056193521009E-02
 cg2d: Sum(rhs),rhsMax =   3.00515168305537E-12  4.44177885378646E-02
 cg2d: Sum(rhs),rhsMax =   3.03224112485623E-12  4.51490303232106E-02
 cg2d: Sum(rhs),rhsMax =   3.06538128214129E-12  4.58675117085161E-02
 cg2d: Sum(rhs),rhsMax =   3.12455616935381E-12  4.65691606915881E-02
 cg2d: Sum(rhs),rhsMax =   3.11761727544990E-12  4.73087616866667E-02
 cg2d: Sum(rhs),rhsMax =   3.14481773955322E-12  4.80449708759888E-02
 cg2d: Sum(rhs),rhsMax =   3.20821147425931E-12  4.87611440008366E-02
 cg2d: Sum(rhs),rhsMax =   3.22919468942473E-12  4.96703480762050E-02
 cg2d: Sum(rhs),rhsMax =   3.23241433619614E-12  5.14592296489278E-02
 cg2d: Sum(rhs),rhsMax =   3.16902060149005E-12  5.36987567198458E-02
 cg2d: Sum(rhs),rhsMax =   3.02757818815280E-12  5.67390704020886E-02
 cg2d: Sum(rhs),rhsMax =   2.87603274529147E-12  6.08890907537689E-02
 cg2d: Sum(rhs),rhsMax =   2.64410715544727E-12  6.61799665140346E-02
 cg2d: Sum(rhs),rhsMax =   2.48423503990125E-12  7.15541088246975E-02
 cg2d: Sum(rhs),rhsMax =   2.32569519198478E-12  7.67924443366514E-02
 cg2d: Sum(rhs),rhsMax =   2.12363460150300E-12  8.18424371851222E-02
 cg2d: Sum(rhs),rhsMax =   1.97575289462293E-12  8.66595578631302E-02
 cg2d: Sum(rhs),rhsMax =   1.88837834258493E-12  9.12083105248232E-02
 cg2d: Sum(rhs),rhsMax =   1.73994152419255E-12  9.54627377913517E-02
 cg2d: Sum(rhs),rhsMax =   1.58095758706622E-12  9.94064214074339E-02
 cg2d: Sum(rhs),rhsMax =   1.39399602971935E-12  1.03032031025728E-01
 cg2d: Sum(rhs),rhsMax =   1.27908794667064E-12  1.06340499272614E-01
 cg2d: Sum(rhs),rhsMax =   1.19682042054592E-12  1.09339917645339E-01
 cg2d: Sum(rhs),rhsMax =   1.10844666778576E-12  1.12044254438242E-01
 cg2d: Sum(rhs),rhsMax =   1.11644027356306E-12  1.14471993556911E-01
 cg2d: Sum(rhs),rhsMax =   1.11877174191477E-12  1.16644783308845E-01
 cg2d: Sum(rhs),rhsMax =   1.10578213252666E-12  1.18586169109996E-01
 cg2d: Sum(rhs),rhsMax =   1.14519504990085E-12  1.20320465759992E-01
 cg2d: Sum(rhs),rhsMax =   1.12843068222901E-12  1.21871805669319E-01
 cg2d: Sum(rhs),rhsMax =   1.13253850742012E-12  1.23263381020149E-01
 cg2d: Sum(rhs),rhsMax =   1.10689235555128E-12  1.24516881717278E-01
 cg2d: Sum(rhs),rhsMax =   1.15374376719046E-12  1.25652118042902E-01
 cg2d: Sum(rhs),rhsMax =   1.12221343329111E-12  1.26686807582697E-01
 cg2d: Sum(rhs),rhsMax =   1.10222941884786E-12  1.27636500226806E-01
 cg2d: Sum(rhs),rhsMax =   1.07780451230610E-12  1.28514612524474E-01
 cg2d: Sum(rhs),rhsMax =   1.01429975529754E-12  1.29332542823805E-01
 cg2d: Sum(rhs),rhsMax =   9.60564960905685E-13  1.30099840789400E-01
 cg2d: Sum(rhs),rhsMax =   8.71080985120898E-13  1.32715415594346E-01
 cg2d: Sum(rhs),rhsMax =   7.91366971952812E-13  1.35605156446565E-01
 cg2d: Sum(rhs),rhsMax =   7.10431713457638E-13  1.38236920533118E-01
 cg2d: Sum(rhs),rhsMax =   6.38600283764390E-13  1.40630783713068E-01
 cg2d: Sum(rhs),rhsMax =   5.69211344725318E-13  1.42807865313915E-01
 cg2d: Sum(rhs),rhsMax =   5.29021271233887E-13  1.44789524186049E-01
 cg2d: Sum(rhs),rhsMax =   5.20583576246736E-13  1.46596689286260E-01
 cg2d: Sum(rhs),rhsMax =   5.39679412270289E-13  1.48249332187348E-01
 cg2d: Sum(rhs),rhsMax =   5.39346345362901E-13  1.49766079533370E-01
 cg2d: Sum(rhs),rhsMax =   5.87530024631633E-13  1.51163956006321E-01
 cg2d: Sum(rhs),rhsMax =   6.16173778666962E-13  1.52458243007560E-01
 cg2d: Sum(rhs),rhsMax =   6.30828722592014E-13  1.53662434949258E-01
 cg2d: Sum(rhs),rhsMax =   6.86117829218347E-13  1.54788273601230E-01
 cg2d: Sum(rhs),rhsMax =   7.60613794170695E-13  1.55845841046006E-01
 cg2d: Sum(rhs),rhsMax =   7.76489983422834E-13  1.56843693099715E-01
 cg2d: Sum(rhs),rhsMax =   8.16902101519190E-13  1.57789017187441E-01
 cg2d: Sum(rhs),rhsMax =   8.63642490855909E-13  1.58687801271233E-01
 cg2d: Sum(rhs),rhsMax =   9.19819775901942E-13  1.59545003216702E-01
 cg2d: Sum(rhs),rhsMax =   9.70223901219924E-13  1.60364712711399E-01
 cg2d: Sum(rhs),rhsMax =   1.02651220856842E-12  1.61150300342439E-01
 cg2d: Sum(rhs),rhsMax =   1.08235642670707E-12  1.61904550592996E-01
 cg2d: Sum(rhs),rhsMax =   1.15829568159143E-12  1.62629777273938E-01
 cg2d: Sum(rhs),rhsMax =   1.17716947301005E-12  1.63327921259081E-01
 cg2d: Sum(rhs),rhsMax =   1.28352883876914E-12  1.64000631364484E-01
 cg2d: Sum(rhs),rhsMax =   1.31195054819955E-12  1.64649329849345E-01
 cg2d: Sum(rhs),rhsMax =   1.36290978502984E-12  1.65275264375189E-01
 cg2d: Sum(rhs),rhsMax =   1.44340095431517E-12  1.65879548401393E-01
 cg2d: Sum(rhs),rhsMax =   1.48525636234353E-12  1.66463191976401E-01
 cg2d: Sum(rhs),rhsMax =   1.53665968838368E-12  1.67027124756372E-01
 cg2d: Sum(rhs),rhsMax =   1.63002944475465E-12  1.67572212889480E-01
 cg2d: Sum(rhs),rhsMax =   1.78679293583173E-12  1.68099271178189E-01
 cg2d: Sum(rhs),rhsMax =   1.70430336510208E-12  1.68609071698859E-01
 cg2d: Sum(rhs),rhsMax =   1.73661085511867E-12  1.69102349834874E-01
 cg2d: Sum(rhs),rhsMax =   1.76458847533922E-12  1.69579808477069E-01
 cg2d: Sum(rhs),rhsMax =   1.78757009194896E-12  1.70042120969156E-01
 cg2d: Sum(rhs),rhsMax =   1.86584081518504E-12  1.70489933228053E-01
 cg2d: Sum(rhs),rhsMax =   1.87838633536330E-12  1.70923865348831E-01
 cg2d: Sum(rhs),rhsMax =   1.92135196641630E-12  1.71344512909169E-01
 cg2d: Sum(rhs),rhsMax =   1.93811633408814E-12  1.71752448115527E-01
 cg2d: Sum(rhs),rhsMax =   1.96631599891361E-12  1.72148220879397E-01
 cg2d: Sum(rhs),rhsMax =   1.97086791331458E-12  1.72532359873299E-01
 cg2d: Sum(rhs),rhsMax =   2.02204919474980E-12  1.72905373589744E-01
 cg2d: Sum(rhs),rhsMax =   2.01527683429958E-12  1.73267751409072E-01
 cg2d: Sum(rhs),rhsMax =   2.14306350443394E-12  1.73619964671860E-01
 cg2d: Sum(rhs),rhsMax =   2.18824958153618E-12  1.73962467746154E-01
 cg2d: Sum(rhs),rhsMax =   2.26108021195159E-12  1.74295699077913E-01
 cg2d: Sum(rhs),rhsMax =   2.33058017329313E-12  1.74620082213256E-01
 cg2d: Sum(rhs),rhsMax =   2.37398989355597E-12  1.74936026782696E-01
 cg2d: Sum(rhs),rhsMax =   2.50222065290018E-12  1.75243929439706E-01
 cg2d: Sum(rhs),rhsMax =   2.51565435149814E-12  1.75544174748301E-01
 cg2d: Sum(rhs),rhsMax =   2.53941312422512E-12  1.75837136016540E-01
 cg2d: Sum(rhs),rhsMax =   2.67075250803828E-12  1.76123176074698E-01
 cg2d: Sum(rhs),rhsMax =   2.68507438505594E-12  1.76402647998254E-01
 cg2d: Sum(rhs),rhsMax =   2.76834111190283E-12  1.76675895776782E-01
 cg2d: Sum(rhs),rhsMax =   2.78754797022884E-12  1.76943254930232E-01
 cg2d: Sum(rhs),rhsMax =   2.88502555179093E-12  1.77205053074054E-01
 cg2d: Sum(rhs),rhsMax =   2.94131385913943E-12  1.77461610434129E-01
 cg2d: Sum(rhs),rhsMax =   2.98183699953825E-12  1.77713240311572E-01
 cg2d: Sum(rhs),rhsMax =   3.02691205433803E-12  1.77960249496247E-01
 cg2d: Sum(rhs),rhsMax =   3.11217718262924E-12  1.78202938626221E-01
 cg2d: Sum(rhs),rhsMax =   3.19289039651949E-12  1.78441602488549E-01
 cg2d: Sum(rhs),rhsMax =   3.26882965140385E-12  1.78676530254528E-01
 cg2d: Sum(rhs),rhsMax =   3.24607007939903E-12  1.78908005640117E-01
 cg2d: Sum(rhs),rhsMax =   3.25717230964528E-12  1.79136306979393E-01
 cg2d: Sum(rhs),rhsMax =   3.18323145620525E-12  1.79361707195771E-01
 cg2d: Sum(rhs),rhsMax =   3.11162207111693E-12  1.79584473652214E-01
 cg2d: Sum(rhs),rhsMax =   3.04589686805912E-12  1.79804867857808E-01
 cg2d: Sum(rhs),rhsMax =   3.03657099465227E-12  1.80023145003736E-01
 cg2d: Sum(rhs),rhsMax =   3.00692803989477E-12  1.80239553297026E-01
 cg2d: Sum(rhs),rhsMax =   2.98971958301308E-12  1.80454333055279E-01
 cg2d: Sum(rhs),rhsMax =   2.92654789291191E-12  1.80667715520044E-01
 cg2d: Sum(rhs),rhsMax =   2.87136980858804E-12  1.80879921340639E-01
 cg2d: Sum(rhs),rhsMax =   2.85482748552113E-12  1.81091158673964E-01
 cg2d: Sum(rhs),rhsMax =   2.83861822936160E-12  1.81301620839587E-01
 cg2d: Sum(rhs),rhsMax =   2.86282109129843E-12  1.81511483463004E-01
 cg2d: Sum(rhs),rhsMax =   2.90067969643815E-12  1.81720901033908E-01
 cg2d: Sum(rhs),rhsMax =   2.91788815331984E-12  1.81930002800756E-01
 cg2d: Sum(rhs),rhsMax =   2.95596880306448E-12  1.82138887918256E-01
 cg2d: Sum(rhs),rhsMax =   2.99760216648792E-12  1.82347619761106E-01
 cg2d: Sum(rhs),rhsMax =   3.02868841117743E-12  1.82556219315790E-01
 cg2d: Sum(rhs),rhsMax =   3.07809333577325E-12  1.82764657563197E-01
 cg2d: Sum(rhs),rhsMax =   3.09763326100665E-12  1.82972846768757E-01
 cg2d: Sum(rhs),rhsMax =   3.12261327906072E-12  1.83180630604463E-01
 cg2d: Sum(rhs),rhsMax =   3.14837045323202E-12  1.83387773039236E-01
 cg2d: Sum(rhs),rhsMax =   3.18400861232249E-12  1.83593945951267E-01
 cg2d: Sum(rhs),rhsMax =   3.24396065565224E-12  1.83798715438939E-01
 cg2d: Sum(rhs),rhsMax =   3.21265236635782E-12  1.84001526836252E-01
 cg2d: Sum(rhs),rhsMax =   3.21787041457355E-12  1.84201688474811E-01
 cg2d: Sum(rhs),rhsMax =   3.22863957791242E-12  1.84398354277649E-01
 cg2d: Sum(rhs),rhsMax =   3.23885362973897E-12  1.84590505320533E-01
 cg2d: Sum(rhs),rhsMax =   3.23563398296756E-12  1.84776930553611E-01
 cg2d: Sum(rhs),rhsMax =   3.28970184426680E-12  1.84956206939734E-01
 cg2d: Sum(rhs),rhsMax =   3.22519788653608E-12  1.85126679334530E-01
 cg2d: Sum(rhs),rhsMax =   3.20854454116670E-12  1.85286440505750E-01
 cg2d: Sum(rhs),rhsMax =   3.25217630603447E-12  1.85433311763767E-01
 cg2d: Sum(rhs),rhsMax =   3.21809245917848E-12  1.85564824748806E-01
 cg2d: Sum(rhs),rhsMax =   3.24607007939903E-12  1.85678204990786E-01
 cg2d: Sum(rhs),rhsMax =   3.28104210467473E-12  1.85770357921193E-01
 cg2d: Sum(rhs),rhsMax =   3.38928884957568E-12  1.85837858069625E-01
 cg2d: Sum(rhs),rhsMax =   3.32245342349324E-12  1.85876942216746E-01
 cg2d: Sum(rhs),rhsMax =   3.19444470875396E-12  1.85883507296439E-01
 cg2d: Sum(rhs),rhsMax =   3.10873549125290E-12  1.85853113841460E-01
 cg2d: Sum(rhs),rhsMax =   3.02624592052325E-12  1.85780995730175E-01
 cg2d: Sum(rhs),rhsMax =   2.90345525399971E-12  1.85662076952389E-01
 cg2d: Sum(rhs),rhsMax =   2.88868928777219E-12  1.85490996020267E-01
 cg2d: Sum(rhs),rhsMax =   2.78066458747617E-12  1.85262138533153E-01
 cg2d: Sum(rhs),rhsMax =   2.71560551823313E-12  1.84969678256517E-01
 cg2d: Sum(rhs),rhsMax =   2.62156962804738E-12  1.84607626894733E-01
 cg2d: Sum(rhs),rhsMax =   2.56383803076687E-12  1.84169892528376E-01
 cg2d: Sum(rhs),rhsMax =   2.48290277227170E-12  1.83650346453211E-01
 cg2d: Sum(rhs),rhsMax =   2.36799468922300E-12  1.83042897905335E-01
 cg2d: Sum(rhs),rhsMax =   2.30959695812771E-12  1.82341575891953E-01
 cg2d: Sum(rhs),rhsMax =   2.21000995281884E-12  1.81540617077977E-01
 cg2d: Sum(rhs),rhsMax =   2.12785344899658E-12  1.80634558414237E-01
 cg2d: Sum(rhs),rhsMax =   2.05524486318609E-12  1.79618332943269E-01
 cg2d: Sum(rhs),rhsMax =   2.02882155520001E-12  1.78487366993713E-01
 cg2d: Sum(rhs),rhsMax =   2.07212025316039E-12  1.77237676784267E-01
 cg2d: Sum(rhs),rhsMax =   2.14550599508812E-12  1.75865962312706E-01
 cg2d: Sum(rhs),rhsMax =   2.17736939589486E-12  1.74560443349548E-01
 cg2d: Sum(rhs),rhsMax =   2.20667928374496E-12  1.74150320121857E-01
 cg2d: Sum(rhs),rhsMax =   2.17270645919143E-12  1.73647087187057E-01
 cg2d: Sum(rhs),rhsMax =   2.14273043752655E-12  1.73045920816086E-01
 cg2d: Sum(rhs),rhsMax =   2.12008188782420E-12  1.72342151536354E-01
 cg2d: Sum(rhs),rhsMax =   2.10453876547945E-12  1.71531320387494E-01
 cg2d: Sum(rhs),rhsMax =   2.04591898977924E-12  1.70609238588770E-01
 cg2d: Sum(rhs),rhsMax =   1.97908356369680E-12  1.69572049851952E-01
 cg2d: Sum(rhs),rhsMax =   1.95354843413043E-12  1.68416294417892E-01
 cg2d: Sum(rhs),rhsMax =   1.87727611233868E-12  1.67138973750931E-01
 cg2d: Sum(rhs),rhsMax =   1.80733206178729E-12  1.65737614698770E-01
 cg2d: Sum(rhs),rhsMax =   1.71651581837295E-12  1.64210331822578E-01
 cg2d: Sum(rhs),rhsMax =   1.66799907219684E-12  1.62555886528385E-01
 cg2d: Sum(rhs),rhsMax =   1.58806301442382E-12  1.60773741591131E-01
 cg2d: Sum(rhs),rhsMax =   1.54920520856194E-12  1.58864109661069E-01
 cg2d: Sum(rhs),rhsMax =   1.49313894581837E-12  1.56827994381311E-01
 cg2d: Sum(rhs),rhsMax =   1.47171164144311E-12  1.54667222826550E-01
 cg2d: Sum(rhs),rhsMax =   1.46183065652394E-12  1.52384468096408E-01
 cg2d: Sum(rhs),rhsMax =   1.47792889038101E-12  1.49983261060644E-01
 cg2d: Sum(rhs),rhsMax =   1.47926115801056E-12  1.47467990454642E-01
 cg2d: Sum(rhs),rhsMax =   1.51723078545274E-12  1.44843890757143E-01
 cg2d: Sum(rhs),rhsMax =   1.52144963294631E-12  1.42117017542280E-01
 cg2d: Sum(rhs),rhsMax =   1.56807899998057E-12  1.39294210277053E-01
 cg2d: Sum(rhs),rhsMax =   1.57651669496772E-12  1.36383042825392E-01
 cg2d: Sum(rhs),rhsMax =   1.66910929522146E-12  1.33391762211825E-01
 cg2d: Sum(rhs),rhsMax =   1.66799907219684E-12  1.30329216482527E-01
 cg2d: Sum(rhs),rhsMax =   1.72462044645272E-12  1.27204772769799E-01
 cg2d: Sum(rhs),rhsMax =   1.80488957113312E-12  1.24028226909301E-01
 cg2d: Sum(rhs),rhsMax =   1.80278014738633E-12  1.20809706169583E-01
 cg2d: Sum(rhs),rhsMax =   1.91491267287347E-12  1.17559566823730E-01
 cg2d: Sum(rhs),rhsMax =   1.96598293200623E-12  1.14288288417868E-01
 cg2d: Sum(rhs),rhsMax =   2.06190620133384E-12  1.11006366666765E-01
 cg2d: Sum(rhs),rhsMax =   2.08366657261649E-12  1.07724206930778E-01
 cg2d: Sum(rhs),rhsMax =   2.21378471110256E-12  1.04452020200344E-01
 cg2d: Sum(rhs),rhsMax =   2.29460894729527E-12  1.01199723435703E-01
 cg2d: Sum(rhs),rhsMax =   2.36655139929098E-12  9.79768459834870E-02
 cg2d: Sum(rhs),rhsMax =   2.46513920387770E-12  9.47924436230978E-02
 cg2d: Sum(rhs),rhsMax =   2.54951615374921E-12  9.16550215903718E-02
 cg2d: Sum(rhs),rhsMax =   2.65387711806397E-12  8.85724676910995E-02
 cg2d: Sum(rhs),rhsMax =   2.78777001483377E-12  8.55519963604987E-02
 cg2d: Sum(rhs),rhsMax =   2.91744406410999E-12  8.26001042551038E-02
 cg2d: Sum(rhs),rhsMax =   3.05622194218813E-12  7.97225376893022E-02
 cg2d: Sum(rhs),rhsMax =   3.18767234830375E-12  7.69242719582283E-02
 cg2d: Sum(rhs),rhsMax =   3.31690230837012E-12  7.42095023297556E-02
 cg2d: Sum(rhs),rhsMax =   3.40216743666133E-12  7.15816462479412E-02
 cg2d: Sum(rhs),rhsMax =   3.50375284341453E-12  6.90433560745272E-02
 cg2d: Sum(rhs),rhsMax =   3.54472007302320E-12  6.65965415088769E-02
 cg2d: Sum(rhs),rhsMax =   3.57014418028712E-12  6.49304664103796E-02
 cg2d: Sum(rhs),rhsMax =   3.50330875420468E-12  6.37133328897265E-02
 cg2d: Sum(rhs),rhsMax =   3.42792461083263E-12  6.25305364757315E-02
 cg2d: Sum(rhs),rhsMax =   3.36108918475020E-12  6.13782848698295E-02
 cg2d: Sum(rhs),rhsMax =   3.34188232642418E-12  6.02530284139742E-02
 cg2d: Sum(rhs),rhsMax =   3.18711723679144E-12  5.91514777366089E-02
 cg2d: Sum(rhs),rhsMax =   3.11428660637603E-12  5.83504677356633E-02
 cg2d: Sum(rhs),rhsMax =   2.90623081156127E-12  5.94270955073375E-02
 cg2d: Sum(rhs),rhsMax =   2.73792100102810E-12  6.04626333234087E-02
 cg2d: Sum(rhs),rhsMax =   2.54030130264482E-12  6.14508117685026E-02
 cg2d: Sum(rhs),rhsMax =   2.35622632516197E-12  6.23857092414854E-02
 cg2d: Sum(rhs),rhsMax =   2.21411777800995E-12  6.32618275629549E-02
 cg2d: Sum(rhs),rhsMax =   2.01794136955868E-12  6.40692123597847E-02
 cg2d: Sum(rhs),rhsMax =   1.90469862104692E-12  6.47991281803926E-02
 cg2d: Sum(rhs),rhsMax =   1.70152780754051E-12  6.54441978778201E-02
 cg2d: Sum(rhs),rhsMax =   1.61048951952125E-12  6.60043690297474E-02
 cg2d: Sum(rhs),rhsMax =   1.52655665885959E-12  6.64638412962027E-02
 cg2d: Sum(rhs),rhsMax =   1.44995127016045E-12  6.68168283051753E-02
 cg2d: Sum(rhs),rhsMax =   1.36690658791849E-12  6.70566140993475E-02
 cg2d: Sum(rhs),rhsMax =   1.32016619858177E-12  6.71763492885671E-02
 cg2d: Sum(rhs),rhsMax =   1.34681155117278E-12  6.71615307009691E-02
 cg2d: Sum(rhs),rhsMax =   1.37967415270168E-12  6.70235449094204E-02
 cg2d: Sum(rhs),rhsMax =   1.43240974637138E-12  6.67406816088412E-02
 cg2d: Sum(rhs),rhsMax =   1.47087897417464E-12  6.63061821119424E-02
 cg2d: Sum(rhs),rhsMax =   1.49963375051243E-12  6.57148249388016E-02
 cg2d: Sum(rhs),rhsMax =   1.42857947693642E-12  6.49608949689983E-02
 cg2d: Sum(rhs),rhsMax =   1.29546373628386E-12  6.40391720446034E-02
 cg2d: Sum(rhs),rhsMax =   1.10728093360990E-12  6.44795744817101E-02
 cg2d: Sum(rhs),rhsMax =   8.47377723545151E-13  6.73730218054327E-02
 cg2d: Sum(rhs),rhsMax =   5.91249271764127E-13  7.01398023278018E-02
 cg2d: Sum(rhs),rhsMax =   3.53272966435725E-13  7.27701832365733E-02
 cg2d: Sum(rhs),rhsMax =   2.88269408343922E-13  7.52526802824032E-02
 cg2d: Sum(rhs),rhsMax =   2.24820162486594E-13  7.75786287228484E-02
 cg2d: Sum(rhs),rhsMax =   1.62758695410048E-13  7.97537660872498E-02
 cg2d: Sum(rhs),rhsMax =   1.22846177674774E-13  8.17568811516869E-02
 cg2d: Sum(rhs),rhsMax =   6.73905375947470E-14  8.35965840650293E-02
 cg2d: Sum(rhs),rhsMax =   8.04911692853238E-15  8.52442783324540E-02
 cg2d: Sum(rhs),rhsMax =  -1.80189196896663E-13  8.66988559786066E-02
 cg2d: Sum(rhs),rhsMax =  -3.56881191265757E-13  8.79569634464804E-02
 cg2d: Sum(rhs),rhsMax =  -5.42232925226926E-13  8.90158906897484E-02
 cg2d: Sum(rhs),rhsMax =  -7.05463465422440E-13  8.98717699318068E-02
 cg2d: Sum(rhs),rhsMax =  -8.68888294647263E-13  9.05218657765220E-02
 cg2d: Sum(rhs),rhsMax =  -1.03408948071149E-12  9.09622388493182E-02
 cg2d: Sum(rhs),rhsMax =  -1.20084497901018E-12  9.11906093667833E-02
 cg2d: Sum(rhs),rhsMax =  -1.35025324254912E-12  9.12061840317143E-02
 cg2d: Sum(rhs),rhsMax =  -1.52169943312686E-12  9.10182221953187E-02
 cg2d: Sum(rhs),rhsMax =  -1.68065561467756E-12  9.06151659094439E-02
 cg2d: Sum(rhs),rhsMax =  -1.84149917537013E-12  9.00042547364269E-02
 cg2d: Sum(rhs),rhsMax =  -2.00583993859027E-12  8.91942847673137E-02
 cg2d: Sum(rhs),rhsMax =  -2.18394746731576E-12  8.81931098949105E-02
 cg2d: Sum(rhs),rhsMax =  -2.35417241256641E-12  8.69908934956662E-02
 cg2d: Sum(rhs),rhsMax =  -2.53838616792734E-12  8.55967051653244E-02
 cg2d: Sum(rhs),rhsMax =  -2.75113265502114E-12  8.40114996307879E-02
 cg2d: Sum(rhs),rhsMax =  -2.85563239721398E-12  8.22364579502328E-02
 cg2d: Sum(rhs),rhsMax =  -2.99596458752660E-12  8.03011050126414E-02
 cg2d: Sum(rhs),rhsMax =  -3.16049963977605E-12  7.81999842092593E-02
 cg2d: Sum(rhs),rhsMax =  -3.22591953150209E-12  7.85192445550597E-02
 cg2d: Sum(rhs),rhsMax =  -3.25720006522090E-12  7.92724012075842E-02
 cg2d: Sum(rhs),rhsMax =  -3.28995164444734E-12  7.99017134336113E-02
 cg2d: Sum(rhs),rhsMax =  -3.30432903261624E-12  8.03960486395001E-02
 cg2d: Sum(rhs),rhsMax =  -3.31906724326814E-12  8.07403818903567E-02
 cg2d: Sum(rhs),rhsMax =  -3.33591487766682E-12  8.09267603064109E-02
 cg2d: Sum(rhs),rhsMax =  -3.36505823206323E-12  8.09453995436506E-02
 cg2d: Sum(rhs),rhsMax =  -3.41410233417605E-12  8.07790019892646E-02
 cg2d: Sum(rhs),rhsMax =  -3.35290128994359E-12  8.26735811106688E-02
 cg2d: Sum(rhs),rhsMax =  -3.16863202343143E-12  8.72183183177313E-02
 cg2d: Sum(rhs),rhsMax =  -3.02506630855959E-12  9.15981342439107E-02
 cg2d: Sum(rhs),rhsMax =  -2.94073099205150E-12  9.58035772354142E-02
 cg2d: Sum(rhs),rhsMax =  -2.91466850654842E-12  9.98269747322229E-02
 cg2d: Sum(rhs),rhsMax =  -2.83498224895595E-12  1.03646863613540E-01
 cg2d: Sum(rhs),rhsMax =  -2.70335143159883E-12  1.07252572824691E-01
 cg2d: Sum(rhs),rhsMax =  -2.57129040281967E-12  1.10632866594589E-01
 cg2d: Sum(rhs),rhsMax =  -2.46404285864088E-12  1.13777443315624E-01
 cg2d: Sum(rhs),rhsMax =  -2.40256425865226E-12  1.16683679390126E-01
 cg2d: Sum(rhs),rhsMax =  -2.35488017974461E-12  1.19346527450459E-01
 cg2d: Sum(rhs),rhsMax =  -2.32953240031364E-12  1.21738567130463E-01
 cg2d: Sum(rhs),rhsMax =  -2.30888919094951E-12  1.23867028582345E-01
 cg2d: Sum(rhs),rhsMax =  -2.30356705932522E-12  1.25714712447894E-01
 cg2d: Sum(rhs),rhsMax =  -2.30914593002396E-12  1.27279274488810E-01
 cg2d: Sum(rhs),rhsMax =  -2.32359964602580E-12  1.28558676102491E-01
 cg2d: Sum(rhs),rhsMax =  -2.36134028996915E-12  1.29569485776402E-01
 cg2d: Sum(rhs),rhsMax =  -2.39498698650920E-12  1.30282311282412E-01
 cg2d: Sum(rhs),rhsMax =  -2.44455497511176E-12  1.30706595288359E-01
 cg2d: Sum(rhs),rhsMax =  -2.49649953487641E-12  1.30848944133304E-01
 cg2d: Sum(rhs),rhsMax =  -2.55552176642304E-12  1.30717330471733E-01
 cg2d: Sum(rhs),rhsMax =  -2.63525312682589E-12  1.30305922376952E-01
 cg2d: Sum(rhs),rhsMax =  -2.70588412787376E-12  1.29640662173548E-01
 cg2d: Sum(rhs),rhsMax =  -2.79289612270528E-12  1.28703957460888E-01
 cg2d: Sum(rhs),rhsMax =  -2.88801101089309E-12  1.27515544696975E-01
 cg2d: Sum(rhs),rhsMax =  -2.99132593695184E-12  1.26063034590230E-01
 cg2d: Sum(rhs),rhsMax =  -3.09883889382245E-12  1.24367646380873E-01
 cg2d: Sum(rhs),rhsMax =  -3.21271969531273E-12  1.22439334962650E-01
 cg2d: Sum(rhs),rhsMax =  -3.33603500726753E-12  1.20290997999479E-01
 cg2d: Sum(rhs),rhsMax =  -3.46829943237426E-12  1.17929532365902E-01
 cg2d: Sum(rhs),rhsMax =  -3.61335267262675E-12  1.15375803264635E-01
 cg2d: Sum(rhs),rhsMax =  -3.76102447796622E-12  1.12622482065124E-01
 cg2d: Sum(rhs),rhsMax =  -3.92819630989916E-12  1.09669148703147E-01
 cg2d: Sum(rhs),rhsMax =  -4.10573658404800E-12  1.06505866598661E-01
 cg2d: Sum(rhs),rhsMax =  -4.29647983857251E-12  1.03149526132734E-01
 cg2d: Sum(rhs),rhsMax =  -4.51596052220005E-12  9.96150717226986E-02
 cg2d: Sum(rhs),rhsMax =  -4.75022104984291E-12  9.59813809671914E-02
 cg2d: Sum(rhs),rhsMax =  -4.89308593643045E-12  9.43373600483040E-02
 cg2d: Sum(rhs),rhsMax =  -4.91795493218206E-12  9.48292407557400E-02
 cg2d: Sum(rhs),rhsMax =  -4.97000357535526E-12  9.51157732758547E-02
 cg2d: Sum(rhs),rhsMax =  -5.00979466244722E-12  9.51882338889835E-02
 cg2d: Sum(rhs),rhsMax =  -4.94258800554093E-12  9.73245638764911E-02
 cg2d: Sum(rhs),rhsMax =  -4.71501657162143E-12  1.02844768775109E-01
 cg2d: Sum(rhs),rhsMax =  -4.53778681297479E-12  1.08172531505203E-01
 cg2d: Sum(rhs),rhsMax =  -4.35702168788410E-12  1.13289953512670E-01
 cg2d: Sum(rhs),rhsMax =  -4.20383909974231E-12  1.18185619020907E-01
 cg2d: Sum(rhs),rhsMax =  -4.06821364790089E-12  1.22850156027758E-01
 cg2d: Sum(rhs),rhsMax =  -3.94703020267784E-12  1.27251062533766E-01
 cg2d: Sum(rhs),rhsMax =  -3.79352105284170E-12  1.31382486341960E-01
 cg2d: Sum(rhs),rhsMax =  -3.79197714894808E-12  1.35227100987184E-01
 cg2d: Sum(rhs),rhsMax =  -3.79849970921775E-12  1.38776884241484E-01
 cg2d: Sum(rhs),rhsMax =  -3.79234491032499E-12  1.42024783911896E-01
 cg2d: Sum(rhs),rhsMax =  -3.80319387094374E-12  1.44962482676163E-01
 cg2d: Sum(rhs),rhsMax =  -3.81197157173219E-12  1.47581448160610E-01
 cg2d: Sum(rhs),rhsMax =  -3.81703002538814E-12  1.49900303916383E-01
 cg2d: Sum(rhs),rhsMax =  -3.83216375299256E-12  1.51869584379953E-01
 cg2d: Sum(rhs),rhsMax =  -3.84604847969428E-12  1.53499297777333E-01
 cg2d: Sum(rhs),rhsMax =  -3.86342347002966E-12  1.54793616917850E-01
 cg2d: Sum(rhs),rhsMax =  -3.87553877878588E-12  1.55752993796102E-01
 cg2d: Sum(rhs),rhsMax =  -3.90722176835112E-12  1.56378334938486E-01
 cg2d: Sum(rhs),rhsMax =  -3.94019539218249E-12  1.56676683890829E-01
 cg2d: Sum(rhs),rhsMax =  -3.98592270300924E-12  1.56651722686947E-01
 cg2d: Sum(rhs),rhsMax =  -4.03788114056169E-12  1.56279458202425E-01
 cg2d: Sum(rhs),rhsMax =  -4.08914568872376E-12  1.55651073809993E-01
 cg2d: Sum(rhs),rhsMax =  -4.15051326640992E-12  1.54666472616012E-01
 cg2d: Sum(rhs),rhsMax =  -4.22945012346077E-12  1.53453763871607E-01
 cg2d: Sum(rhs),rhsMax =  -4.31596425265468E-12  1.51895270358861E-01
 cg2d: Sum(rhs),rhsMax =  -4.40833480830349E-12  1.50091667697449E-01
 cg2d: Sum(rhs),rhsMax =  -4.52254900196181E-12  1.48037671860520E-01
 cg2d: Sum(rhs),rhsMax =  -4.64642213593436E-12  1.45667689446744E-01
 cg2d: Sum(rhs),rhsMax =  -4.78012074367484E-12  1.43068378870770E-01
 cg2d: Sum(rhs),rhsMax =  -4.89877582943166E-12  1.40272388806506E-01
 cg2d: Sum(rhs),rhsMax =  -5.01731989288601E-12  1.37231870452595E-01
 cg2d: Sum(rhs),rhsMax =  -5.15976150694542E-12  1.33948935621263E-01
 cg2d: Sum(rhs),rhsMax =  -5.31541477499786E-12  1.30442715124260E-01
 cg2d: Sum(rhs),rhsMax =  -5.48733281036107E-12  1.26722862761205E-01
 cg2d: Sum(rhs),rhsMax =  -5.68256552924140E-12  1.22803841854555E-01
 cg2d: Sum(rhs),rhsMax =  -5.90955062662601E-12  1.18699095491919E-01
 cg2d: Sum(rhs),rhsMax =  -6.14042150459682E-12  1.14462074579695E-01
 cg2d: Sum(rhs),rhsMax =  -6.41986463989497E-12  1.10135541596140E-01
 cg2d: Sum(rhs),rhsMax =  -6.56930065900951E-12  1.07616136262687E-01
 cg2d: Sum(rhs),rhsMax =  -6.59039489647739E-12  1.07622661890900E-01
 cg2d: Sum(rhs),rhsMax =  -6.61493082532161E-12  1.07367693247825E-01
 cg2d: Sum(rhs),rhsMax =  -6.36191099800953E-12  1.12097471296874E-01
 cg2d: Sum(rhs),rhsMax =  -6.02162764096192E-12  1.18120627863862E-01
 cg2d: Sum(rhs),rhsMax =  -5.75833825067207E-12  1.23902698519444E-01
 cg2d: Sum(rhs),rhsMax =  -5.49255085857681E-12  1.29427434938363E-01
 cg2d: Sum(rhs),rhsMax =  -5.27589083532121E-12  1.34676316856865E-01
 cg2d: Sum(rhs),rhsMax =  -5.11379827372593E-12  1.39633706260436E-01
 cg2d: Sum(rhs),rhsMax =  -4.95276042400405E-12  1.44287015211843E-01
 cg2d: Sum(rhs),rhsMax =  -4.85178563991440E-12  1.48633770638757E-01
 cg2d: Sum(rhs),rhsMax =  -4.75114392273213E-12  1.52658902270816E-01
 cg2d: Sum(rhs),rhsMax =  -4.69818628445751E-12  1.56331873927819E-01
 cg2d: Sum(rhs),rhsMax =  -4.65177896202817E-12  1.59649247114563E-01
 cg2d: Sum(rhs),rhsMax =  -4.62296867453915E-12  1.62606753311219E-01
 cg2d: Sum(rhs),rhsMax =  -4.61092275472197E-12  1.65198681359689E-01
 cg2d: Sum(rhs),rhsMax =  -4.63784566306913E-12  1.67414278255059E-01
 cg2d: Sum(rhs),rhsMax =  -4.65799621096608E-12  1.69249488195209E-01
 cg2d: Sum(rhs),rhsMax =  -4.67959004879503E-12  1.70728485747881E-01
 cg2d: Sum(rhs),rhsMax =  -4.72477612589728E-12  1.71812592279260E-01
 cg2d: Sum(rhs),rhsMax =  -4.79677408904422E-12  1.72558151038199E-01
 cg2d: Sum(rhs),rhsMax =  -4.86949369715717E-12  1.72922154629829E-01
 cg2d: Sum(rhs),rhsMax =  -4.96747087908034E-12  1.72916433302926E-01
 cg2d: Sum(rhs),rhsMax =  -5.09048359020881E-12  1.72551527575195E-01
 cg2d: Sum(rhs),rhsMax =  -5.12379028094756E-12  1.71836546402878E-01
 cg2d: Sum(rhs),rhsMax =  -5.17652587461725E-12  1.70778454889957E-01
 cg2d: Sum(rhs),rhsMax =  -5.24891241582282E-12  1.69386209243916E-01
 cg2d: Sum(rhs),rhsMax =  -5.31463761888062E-12  1.67675415556539E-01
 cg2d: Sum(rhs),rhsMax =  -5.40789635294914E-12  1.65656537207382E-01
 cg2d: Sum(rhs),rhsMax =  -5.48494583085812E-12  1.63360141593264E-01
 cg2d: Sum(rhs),rhsMax =  -5.60884672040629E-12  1.60764787070258E-01
 cg2d: Sum(rhs),rhsMax =  -5.72264458043037E-12  1.57885024430916E-01
 cg2d: Sum(rhs),rhsMax =  -5.82900394618946E-12  1.54770844610405E-01
 cg2d: Sum(rhs),rhsMax =  -5.96700466815037E-12  1.51371125851451E-01
 cg2d: Sum(rhs),rhsMax =  -6.10189676564232E-12  1.47730492839616E-01
 cg2d: Sum(rhs),rhsMax =  -6.27875529346511E-12  1.43883433063841E-01
 cg2d: Sum(rhs),rhsMax =  -6.43451958382002E-12  1.39817160156346E-01
 cg2d: Sum(rhs),rhsMax =  -6.63258337141315E-12  1.35526294712261E-01
 cg2d: Sum(rhs),rhsMax =  -6.83730849715403E-12  1.30985291081012E-01
 cg2d: Sum(rhs),rhsMax =  -7.08821890071931E-12  1.26279254594643E-01
 cg2d: Sum(rhs),rhsMax =  -7.14306391813579E-12  1.24456159197231E-01
 cg2d: Sum(rhs),rhsMax =  -7.06723568555390E-12  1.25859485926435E-01
 cg2d: Sum(rhs),rhsMax =  -6.95010715645594E-12  1.27222052246328E-01
 cg2d: Sum(rhs),rhsMax =  -6.81898981724771E-12  1.28545559979721E-01
 cg2d: Sum(rhs),rhsMax =  -6.77236045021345E-12  1.29831711752712E-01
 cg2d: Sum(rhs),rhsMax =  -6.65423272039334E-12  1.31082202987305E-01
 cg2d: Sum(rhs),rhsMax =  -6.57807142090405E-12  1.32298714771213E-01
 cg2d: Sum(rhs),rhsMax =  -6.30095975395761E-12  1.37654270376602E-01
 cg2d: Sum(rhs),rhsMax =  -6.01430016899940E-12  1.42913128709606E-01
 cg2d: Sum(rhs),rhsMax =  -5.81090731088807E-12  1.47844620678059E-01
 cg2d: Sum(rhs),rhsMax =  -5.60584911823980E-12  1.52434146663118E-01
 cg2d: Sum(rhs),rhsMax =  -5.40190114861616E-12  1.56667023009191E-01
 cg2d: Sum(rhs),rhsMax =  -5.24291721148984E-12  1.60550237213057E-01
 cg2d: Sum(rhs),rhsMax =  -5.11501951905302E-12  1.64013460765092E-01
 cg2d: Sum(rhs),rhsMax =  -5.03042052457658E-12  1.67082623254789E-01
 cg2d: Sum(rhs),rhsMax =  -4.90085749760283E-12  1.69751844496862E-01
 cg2d: Sum(rhs),rhsMax =  -4.80759876353432E-12  1.72014244789421E-01
 cg2d: Sum(rhs),rhsMax =  -4.75330885763015E-12  1.73878806897522E-01
 cg2d: Sum(rhs),rhsMax =  -4.68869387759696E-12  1.75346427559604E-01
 cg2d: Sum(rhs),rhsMax =  -4.70778971362051E-12  1.76418620364424E-01
 cg2d: Sum(rhs),rhsMax =  -4.75219863460552E-12  1.77116144265073E-01
 cg2d: Sum(rhs),rhsMax =  -4.64839278180307E-12  1.77405602314943E-01
 cg2d: Sum(rhs),rhsMax =  -4.59154936294226E-12  1.77306641718377E-01
 cg2d: Sum(rhs),rhsMax =  -4.53093118579773E-12  1.76826465224883E-01
 cg2d: Sum(rhs),rhsMax =  -4.49262849144816E-12  1.75984388586072E-01
 cg2d: Sum(rhs),rhsMax =  -4.46220838057343E-12  1.74792351311634E-01
 cg2d: Sum(rhs),rhsMax =  -4.42978986825437E-12  1.73259502599779E-01
 cg2d: Sum(rhs),rhsMax =  -4.42967884595191E-12  1.71433552700417E-01
 cg2d: Sum(rhs),rhsMax =  -4.42801351141497E-12  1.69276450237050E-01
 cg2d: Sum(rhs),rhsMax =  -4.43167724739624E-12  1.66788301057248E-01
 cg2d: Sum(rhs),rhsMax =  -4.49285053605308E-12  1.64083863728274E-01
(PID.TID 0000.0001)      cg2d_init_res =   7.19023090219380E-02
(PID.TID 0000.0001)      cg2d_iters(min,last) =      -1      30
(PID.TID 0000.0001)      cg2d_last_res =   5.58309962004253E-14
(PID.TID 0000.0001) // =======================================================
(PID.TID 0000.0001) // Begin MONITOR dynamic field statistics
(PID.TID 0000.0001) // =======================================================
(PID.TID 0000.0001) %MON time_tsnumber                =                   480
(PID.TID 0000.0001) %MON time_secondsf                =   7.2000000000000E+03
(PID.TID 0000.0001) %MON dynstat_eta_max              =   1.5540744118350E-02
(PID.TID 0000.0001) %MON dynstat_eta_min              =  -1.4233885724881E-02
(PID.TID 0000.0001) %MON dynstat_eta_mean             =   8.5447159656319E-16
(PID.TID 0000.0001) %MON dynstat_eta_sd               =   1.3642350526125E-02
(PID.TID 0000.0001) %MON dynstat_eta_del2             =   1.0700322188481E-04
(PID.TID 0000.0001) %MON dynstat_uvel_max             =   8.6683021656097E-01
(PID.TID 0000.0001) %MON dynstat_uvel_min             =  -4.5443606467033E-01
(PID.TID 0000.0001) %MON dynstat_uvel_mean            =   9.3060257293325E-04
(PID.TID 0000.0001) %MON dynstat_uvel_sd              =   4.1572327520196E-02
(PID.TID 0000.0001) %MON dynstat_uvel_del2            =   1.5603480825098E-04
(PID.TID 0000.0001) %MON dynstat_vvel_max             =   0.0000000000000E+00
(PID.TID 0000.0001) %MON dynstat_vvel_min             =   0.0000000000000E+00
(PID.TID 0000.0001) %MON dynstat_vvel_mean            =   0.0000000000000E+00
(PID.TID 0000.0001) %MON dynstat_vvel_sd              =   0.0000000000000E+00
(PID.TID 0000.0001) %MON dynstat_vvel_del2            =   0.0000000000000E+00
(PID.TID 0000.0001) %MON dynstat_wvel_max             =   5.4537561004754E-02
(PID.TID 0000.0001) %MON dynstat_wvel_min             =  -1.8218910435154E-02
(PID.TID 0000.0001) %MON dynstat_wvel_mean            =   2.0629299828307E-21
(PID.TID 0000.0001) %MON dynstat_wvel_sd              =   1.4389127300593E-03
(PID.TID 0000.0001) %MON dynstat_wvel_del2            =   2.6830346475245E-05
(PID.TID 0000.0001) %MON dynstat_theta_max            =   1.5000000000177E+01
(PID.TID 0000.0001) %MON dynstat_theta_min            =   9.9999999999982E+00
(PID.TID 0000.0001) %MON dynstat_theta_mean           =   1.2728668546378E+01
(PID.TID 0000.0001) %MON dynstat_theta_sd             =   2.4510341321692E+00
(PID.TID 0000.0001) %MON dynstat_theta_del2           =   9.0115438811069E-04
(PID.TID 0000.0001) %MON dynstat_salt_max             =   3.5000000000000E+01
(PID.TID 0000.0001) %MON dynstat_salt_min             =   3.5000000000000E+01
(PID.TID 0000.0001) %MON dynstat_salt_mean            =   3.5000000000000E+01
(PID.TID 0000.0001) %MON dynstat_salt_sd              =   1.0658141036402E-13
(PID.TID 0000.0001) %MON dynstat_salt_del2            =   0.0000000000000E+00
(PID.TID 0000.0001) %MON dynstat_sst_max              =   1.5000000000001E+01
(PID.TID 0000.0001) %MON dynstat_sst_min              =   1.4999998721410E+01
(PID.TID 0000.0001) %MON dynstat_sst_mean             =   1.4999999989101E+01
(PID.TID 0000.0001) %MON dynstat_sst_sd               =   9.5983013826693E-08
(PID.TID 0000.0001) %MON dynstat_sst_del2             =   6.2397488240066E-09
(PID.TID 0000.0001) %MON dynstat_sss_max              =   3.5000000000000E+01
(PID.TID 0000.0001) %MON dynstat_sss_min              =   3.5000000000000E+01
(PID.TID 0000.0001) %MON dynstat_sss_mean             =   3.5000000000000E+01
(PID.TID 0000.0001) %MON dynstat_sss_sd               =   4.2632564145606E-14
(PID.TID 0000.0001) %MON dynstat_sss_del2             =   0.0000000000000E+00
(PID.TID 0000.0001) %MON forcing_qnet_max             =   0.0000000000000E+00
(PID.TID 0000.0001) %MON forcing_qnet_min             =   0.0000000000000E+00
(PID.TID 0000.0001) %MON forcing_qnet_mean            =   0.0000000000000E+00
(PID.TID 0000.0001) %MON forcing_qnet_sd              =   0.0000000000000E+00
(PID.TID 0000.0001) %MON forcing_qnet_del2            =   0.0000000000000E+00
(PID.TID 0000.0001) %MON forcing_qsw_max              =   0.0000000000000E+00
(PID.TID 0000.0001) %MON forcing_qsw_min              =   0.0000000000000E+00
(PID.TID 0000.0001) %MON forcing_qsw_mean             =   0.0000000000000E+00
(PID.TID 0000.0001) %MON forcing_qsw_sd               =   0.0000000000000E+00
(PID.TID 0000.0001) %MON forcing_qsw_del2             =   0.0000000000000E+00
(PID.TID 0000.0001) %MON forcing_empmr_max            =   0.0000000000000E+00
(PID.TID 0000.0001) %MON forcing_empmr_min            =   0.0000000000000E+00
(PID.TID 0000.0001) %MON forcing_empmr_mean           =   0.0000000000000E+00
(PID.TID 0000.0001) %MON forcing_empmr_sd             =   0.0000000000000E+00
(PID.TID 0000.0001) %MON forcing_empmr_del2           =   0.0000000000000E+00
(PID.TID 0000.0001) %MON forcing_fu_max               =   0.0000000000000E+00
(PID.TID 0000.0001) %MON forcing_fu_min               =   0.0000000000000E+00
(PID.TID 0000.0001) %MON forcing_fu_mean              =   0.0000000000000E+00
(PID.TID 0000.0001) %MON forcing_fu_sd                =   0.0000000000000E+00
(PID.TID 0000.0001) %MON forcing_fu_del2              =   0.0000000000000E+00
(PID.TID 0000.0001) %MON forcing_fv_max               =   0.0000000000000E+00
(PID.TID 0000.0001) %MON forcing_fv_min               =   0.0000000000000E+00
(PID.TID 0000.0001) %MON forcing_fv_mean              =   0.0000000000000E+00
(PID.TID 0000.0001) %MON forcing_fv_sd                =   0.0000000000000E+00
(PID.TID 0000.0001) %MON forcing_fv_del2              =   0.0000000000000E+00
(PID.TID 0000.0001) %MON advcfl_uvel_max              =   6.5012266242073E-02
(PID.TID 0000.0001) %MON advcfl_vvel_max              =   0.0000000000000E+00
(PID.TID 0000.0001) %MON advcfl_wvel_max              =   2.3508056239406E-01
(PID.TID 0000.0001) %MON advcfl_W_hf_max              =   2.3763809884871E-01
(PID.TID 0000.0001) %MON pe_b_mean                    =   5.2245845827881E-06
(PID.TID 0000.0001) %MON ke_max                       =   3.4828433688807E-01
(PID.TID 0000.0001) %MON ke_mean                      =   8.7413236491668E-04
(PID.TID 0000.0001) %MON ke_vol                       =   8.5338127039305E+10
(PID.TID 0000.0001) %MON vort_r_min                   =   0.0000000000000E+00
(PID.TID 0000.0001) %MON vort_r_max                   =   0.0000000000000E+00
(PID.TID 0000.0001) %MON vort_a_mean                  =   0.0000000000000E+00
(PID.TID 0000.0001) %MON vort_a_sd                    =   0.0000000000000E+00
(PID.TID 0000.0001) %MON vort_p_mean                  =   0.0000000000000E+00
(PID.TID 0000.0001) %MON vort_p_sd                    =   0.0000000000000E+00
(PID.TID 0000.0001) %MON surfExpan_theta_mean         =  -2.7788247076299E-14
(PID.TID 0000.0001) %MON surfExpan_salt_mean          =   4.0455959604907E-19
(PID.TID 0000.0001) // =======================================================
(PID.TID 0000.0001) // End MONITOR dynamic field statistics
(PID.TID 0000.0001) // =======================================================
(PID.TID 0000.0001) // =======================================================
(PID.TID 0000.0001) // Begin OBCS MONITOR field statistics
(PID.TID 0000.0001) // =======================================================
(PID.TID 0000.0001) %MON obc_E_uVel_max               =   0.0000000000000E+00
(PID.TID 0000.0001) %MON obc_E_uVel_min               =   0.0000000000000E+00
(PID.TID 0000.0001) %MON obc_E_uVel_mean              =   0.0000000000000E+00
(PID.TID 0000.0001) %MON obc_E_uVel_sd                =   0.0000000000000E+00
(PID.TID 0000.0001) %MON obc_E_uVel_Int               =   0.0000000000000E+00
(PID.TID 0000.0001) %MON obc_W_uVel_max               =   0.0000000000000E+00
(PID.TID 0000.0001) %MON obc_W_uVel_min               =   0.0000000000000E+00
(PID.TID 0000.0001) %MON obc_W_uVel_mean              =   0.0000000000000E+00
(PID.TID 0000.0001) %MON obc_W_uVel_sd                =   0.0000000000000E+00
(PID.TID 0000.0001) %MON obc_W_uVel_Int               =   0.0000000000000E+00
(PID.TID 0000.0001) // =======================================================
(PID.TID 0000.0001) // End OBCS MONITOR field statistics
(PID.TID 0000.0001) // =======================================================
 cg2d: Sum(rhs),rhsMax =  -4.56423787653648E-12  1.61012099771000E-01
 cg2d: Sum(rhs),rhsMax =  -4.63540317241495E-12  1.57754650782905E-01
 cg2d: Sum(rhs),rhsMax =  -4.63462601629772E-12  1.57477936012005E-01
 cg2d: Sum(rhs),rhsMax =  -4.59110527373241E-12  1.58276652242974E-01
 cg2d: Sum(rhs),rhsMax =  -4.56223947509216E-12  1.59073590641343E-01
 cg2d: Sum(rhs),rhsMax =  -4.53825865776025E-12  1.59869249628303E-01
 cg2d: Sum(rhs),rhsMax =  -4.53548310019869E-12  1.60664080689391E-01
 cg2d: Sum(rhs),rhsMax =  -4.55324666859269E-12  1.61458486137175E-01
 cg2d: Sum(rhs),rhsMax =  -4.57356374994333E-12  1.62252816667871E-01
 cg2d: Sum(rhs),rhsMax =  -4.56690241179558E-12  1.63047368743475E-01
 cg2d: Sum(rhs),rhsMax =  -4.51982895555147E-12  1.63842381836743E-01
 cg2d: Sum(rhs),rhsMax =  -4.58155735572063E-12  1.64638035580875E-01
 cg2d: Sum(rhs),rhsMax =  -4.59998705792941E-12  1.65434446869159E-01
 cg2d: Sum(rhs),rhsMax =  -4.52249349081058E-12  1.66231666951641E-01
 cg2d: Sum(rhs),rhsMax =  -4.55246951247545E-12  1.67029678576380E-01
 cg2d: Sum(rhs),rhsMax =  -4.53781456855040E-12  1.67828393221879E-01
 cg2d: Sum(rhs),rhsMax =  -4.47097914246797E-12  1.68627648465274E-01
 cg2d: Sum(rhs),rhsMax =  -4.39648317751562E-12  1.69427205528052E-01
 cg2d: Sum(rhs),rhsMax =  -4.32887059531595E-12  1.70226747037818E-01
 cg2d: Sum(rhs),rhsMax =  -4.27313739947977E-12  1.71025875041394E-01
 cg2d: Sum(rhs),rhsMax =  -4.29811741753383E-12  1.71824109301566E-01
 cg2d: Sum(rhs),rhsMax =  -4.32154312335342E-12  1.72620885907468E-01
 cg2d: Sum(rhs),rhsMax =  -4.38127312207826E-12  1.73415556226935E-01
 cg2d: Sum(rhs),rhsMax =  -4.33320046511199E-12  1.76399045018141E-01
 cg2d: Sum(rhs),rhsMax =  -4.22450963100118E-12  1.79097205829034E-01
 cg2d: Sum(rhs),rhsMax =  -4.12991862930312E-12  1.81397795830958E-01
 cg2d: Sum(rhs),rhsMax =  -4.09983158533578E-12  1.83192106004858E-01
 cg2d: Sum(rhs),rhsMax =  -4.03654887293214E-12  1.84615757736841E-01
 cg2d: Sum(rhs),rhsMax =  -4.03244104774103E-12  1.85614189886273E-01
 cg2d: Sum(rhs),rhsMax =  -4.08628686443535E-12  1.86180341433349E-01
 cg2d: Sum(rhs),rhsMax =  -4.07829325865805E-12  1.86340797132947E-01
 cg2d: Sum(rhs),rhsMax =  -4.07363032195462E-12  1.86079563344984E-01
 cg2d: Sum(rhs),rhsMax =  -4.10926848104509E-12  1.85415571680170E-01
 cg2d: Sum(rhs),rhsMax =  -4.17577084022014E-12  1.84353259755033E-01
 cg2d: Sum(rhs),rhsMax =  -4.19997370215697E-12  1.82928318073816E-01
 cg2d: Sum(rhs),rhsMax =  -4.21152002161307E-12  1.83106527694140E-01
 cg2d: Sum(rhs),rhsMax =  -4.20441459425547E-12  1.83757338617361E-01
 cg2d: Sum(rhs),rhsMax =  -4.22306634106917E-12  1.84386795836394E-01
 cg2d: Sum(rhs),rhsMax =  -4.20941059786628E-12  1.84993133652869E-01
 cg2d: Sum(rhs),rhsMax =  -4.24604795767891E-12  1.85574559789289E-01
 cg2d: Sum(rhs),rhsMax =  -4.25925961167195E-12  1.86129263810073E-01
 cg2d: Sum(rhs),rhsMax =  -4.27380353329454E-12  1.86655425969393E-01
 cg2d: Sum(rhs),rhsMax =  -4.26891855198619E-12  1.87151226430685E-01
 cg2d: Sum(rhs),rhsMax =  -4.29067892326884E-12  1.87614854797281E-01
 cg2d: Sum(rhs),rhsMax =  -4.36461977670888E-12  1.88044519888927E-01
 cg2d: Sum(rhs),rhsMax =  -4.35085301120353E-12  1.88438459694710E-01
 cg2d: Sum(rhs),rhsMax =  -4.26891855198619E-12  1.88794951429292E-01
 cg2d: Sum(rhs),rhsMax =  -4.24693613609861E-12  1.89112321616107E-01
 cg2d: Sum(rhs),rhsMax =  -4.20330437123084E-12  1.89388956118310E-01
 cg2d: Sum(rhs),rhsMax =  -4.15201206749316E-12  1.89623310035842E-01
 cg2d: Sum(rhs),rhsMax =  -4.08839628818214E-12  1.90147143756734E-01
 cg2d: Sum(rhs),rhsMax =  -4.00479649442786E-12  1.90639300226156E-01
 cg2d: Sum(rhs),rhsMax =  -3.98048261018857E-12  1.91079588049295E-01
 cg2d: Sum(rhs),rhsMax =  -3.93873822446267E-12  1.91465792351693E-01
 cg2d: Sum(rhs),rhsMax =  -3.89399623657027E-12  1.91795767309849E-01
 cg2d: Sum(rhs),rhsMax =  -3.93107768559275E-12  1.92067447652418E-01
 cg2d: Sum(rhs),rhsMax =  -3.91309207259383E-12  1.92278860076942E-01
 cg2d: Sum(rhs),rhsMax =  -3.89566157110721E-12  1.92428134500397E-01
 cg2d: Sum(rhs),rhsMax =  -3.91986443304404E-12  1.92513515062696E-01
 cg2d: Sum(rhs),rhsMax =  -3.85957932280689E-12  1.92533370804295E-01
 cg2d: Sum(rhs),rhsMax =  -3.88344911783634E-12  1.92486205942012E-01
 cg2d: Sum(rhs),rhsMax =  -3.85480536380101E-12  1.92370669670641E-01
 cg2d: Sum(rhs),rhsMax =  -3.88145071639201E-12  1.92185565421617E-01
 cg2d: Sum(rhs),rhsMax =  -3.82938125653709E-12  1.94197277699857E-01
 cg2d: Sum(rhs),rhsMax =  -3.70159458640273E-12  1.96203405239786E-01
 cg2d: Sum(rhs),rhsMax =  -3.67283981006494E-12  1.97735159202004E-01
 cg2d: Sum(rhs),rhsMax =  -3.62154750632726E-12  1.98789755604177E-01
 cg2d: Sum(rhs),rhsMax =  -3.56192852990489E-12  1.99401802675585E-01
 cg2d: Sum(rhs),rhsMax =  -3.49920092901357E-12  1.99559838928441E-01
 cg2d: Sum(rhs),rhsMax =  -3.46700446129944E-12  1.99240339352495E-01
 cg2d: Sum(rhs),rhsMax =  -3.43214345832621E-12  1.98482086337534E-01
 cg2d: Sum(rhs),rhsMax =  -3.51452200675340E-12  1.97287169344776E-01
 cg2d: Sum(rhs),rhsMax =  -3.55615537017684E-12  1.95654651441502E-01
 cg2d: Sum(rhs),rhsMax =  -3.65463215246109E-12  1.93716845264550E-01
 cg2d: Sum(rhs),rhsMax =  -3.66406904817040E-12  1.91315711501175E-01
 cg2d: Sum(rhs),rhsMax =  -3.72379904689524E-12  1.88570461361231E-01
 cg2d: Sum(rhs),rhsMax =  -3.72823993899374E-12  1.85457093456837E-01
 cg2d: Sum(rhs),rhsMax =  -3.79773990033527E-12  1.82012677260274E-01
 cg2d: Sum(rhs),rhsMax =  -3.81650266945144E-12  1.79487506188790E-01
 cg2d: Sum(rhs),rhsMax =  -3.82549547595090E-12  1.78115322510363E-01
 cg2d: Sum(rhs),rhsMax =  -3.79296594132938E-12  1.76684113321828E-01
 cg2d: Sum(rhs),rhsMax =  -3.79341003053923E-12  1.75196222295789E-01
 cg2d: Sum(rhs),rhsMax =  -3.80750986295197E-12  1.73654136771680E-01
 cg2d: Sum(rhs),rhsMax =  -3.76609854413346E-12  1.72060476474428E-01
 cg2d: Sum(rhs),rhsMax =  -3.84647869111632E-12  1.70417981639962E-01
 cg2d: Sum(rhs),rhsMax =  -3.81494835721696E-12  1.68729500654168E-01
 cg2d: Sum(rhs),rhsMax =  -3.81406017879726E-12  1.66997977305054E-01
 cg2d: Sum(rhs),rhsMax =  -3.80773190755690E-12  1.65226437738782E-01
 cg2d: Sum(rhs),rhsMax =  -3.78808096002103E-12  1.63417977200222E-01
 cg2d: Sum(rhs),rhsMax =  -3.78308495641022E-12  1.61575746629079E-01
 cg2d: Sum(rhs),rhsMax =  -3.73800990161044E-12  1.59702939174619E-01
 cg2d: Sum(rhs),rhsMax =  -3.77253783767628E-12  1.58166254311585E-01
 cg2d: Sum(rhs),rhsMax =  -3.63920005241880E-12  1.61572627700224E-01
 cg2d: Sum(rhs),rhsMax =  -3.48321371745897E-12  1.68088704102785E-01
 cg2d: Sum(rhs),rhsMax =  -3.28415072914368E-12  1.74178861639669E-01
 cg2d: Sum(rhs),rhsMax =  -3.12871950569615E-12  1.79829749168903E-01
 cg2d: Sum(rhs),rhsMax =  -2.97140090310677E-12  1.85070387949152E-01
 cg2d: Sum(rhs),rhsMax =  -2.84017254159608E-12  1.89802724641297E-01
 cg2d: Sum(rhs),rhsMax =  -2.66253685765605E-12  1.94036513159896E-01
 cg2d: Sum(rhs),rhsMax =  -2.52475818030007E-12  1.97775513471907E-01
 cg2d: Sum(rhs),rhsMax =  -2.38609132452439E-12  2.01087134406337E-01
 cg2d: Sum(rhs),rhsMax =  -2.29394281348050E-12  2.03842298342003E-01
 cg2d: Sum(rhs),rhsMax =  -2.22799556581776E-12  2.06070444828278E-01
 cg2d: Sum(rhs),rhsMax =  -2.15349960086542E-12  2.07790505165961E-01
 cg2d: Sum(rhs),rhsMax =  -2.11120010362720E-12  2.09022782506356E-01
 cg2d: Sum(rhs),rhsMax =  -2.06057393370429E-12  2.09778879217116E-01
 cg2d: Sum(rhs),rhsMax =  -2.04902761424819E-12  2.10057128973832E-01
 cg2d: Sum(rhs),rhsMax =  -2.07545092223427E-12  2.09811113578263E-01
 cg2d: Sum(rhs),rhsMax =  -2.08399963952388E-12  2.09142062266506E-01
 cg2d: Sum(rhs),rhsMax =  -2.04514183366200E-12  2.08031952674023E-01
 cg2d: Sum(rhs),rhsMax =  -2.00983674147892E-12  2.06476072869050E-01
 cg2d: Sum(rhs),rhsMax =  -1.91036075847251E-12  2.04494953530829E-01
 cg2d: Sum(rhs),rhsMax =  -1.91402449445377E-12  2.02145164938086E-01
 cg2d: Sum(rhs),rhsMax =  -1.87549975549928E-12  1.99390356648610E-01
 cg2d: Sum(rhs),rhsMax =  -1.87483362168450E-12  1.96281143460565E-01
 cg2d: Sum(rhs),rhsMax =  -1.85351733961170E-12  1.92830176685940E-01
 cg2d: Sum(rhs),rhsMax =  -1.83797421726695E-12  1.89049546573405E-01
 cg2d: Sum(rhs),rhsMax =  -1.81998860426802E-12  1.84981871498930E-01
 cg2d: Sum(rhs),rhsMax =  -1.81443748914489E-12  1.80588087740989E-01
 cg2d: Sum(rhs),rhsMax =  -1.86173298999393E-12  1.75928005963577E-01
 cg2d: Sum(rhs),rhsMax =  -1.86284321301855E-12  1.70967103163912E-01
 cg2d: Sum(rhs),rhsMax =  -1.87949655838793E-12  1.65752768232601E-01
 cg2d: Sum(rhs),rhsMax =  -1.87927451378300E-12  1.60319783006200E-01
 cg2d: Sum(rhs),rhsMax =  -1.90825133472572E-12  1.54675211277517E-01
 cg2d: Sum(rhs),rhsMax =  -1.89126492244895E-12  1.51735820535728E-01
 cg2d: Sum(rhs),rhsMax =  -1.75237602206835E-12  1.51352425029614E-01
 cg2d: Sum(rhs),rhsMax =  -1.69297909025090E-12  1.50600550628682E-01
 cg2d: Sum(rhs),rhsMax =  -1.68143277079480E-12  1.49414338555099E-01
 cg2d: Sum(rhs),rhsMax =  -1.68287606072681E-12  1.52618362576969E-01
 cg2d: Sum(rhs),rhsMax =  -1.63313806922361E-12  1.60488950042717E-01
 cg2d: Sum(rhs),rhsMax =  -1.57551749424556E-12  1.67967888842423E-01
 cg2d: Sum(rhs),rhsMax =  -1.54776191862993E-12  1.75259849681818E-01
 cg2d: Sum(rhs),rhsMax =  -1.51917367574583E-12  1.81930034957639E-01
 cg2d: Sum(rhs),rhsMax =  -1.49569245877501E-12  1.88207849508877E-01
 cg2d: Sum(rhs),rhsMax =  -1.48020484758149E-12  1.94026479262207E-01
 cg2d: Sum(rhs),rhsMax =  -1.45644607485451E-12  1.99349887608764E-01
 cg2d: Sum(rhs),rhsMax =  -1.46943568424263E-12  2.04181418262124E-01
 cg2d: Sum(rhs),rhsMax =  -1.46288536839734E-12  2.08521101974844E-01
 cg2d: Sum(rhs),rhsMax =  -1.48370205010906E-12  2.12352406589920E-01
 cg2d: Sum(rhs),rhsMax =  -1.48819845335879E-12  2.15681715691558E-01
 cg2d: Sum(rhs),rhsMax =  -1.50673917787003E-12  2.18416436370667E-01
 cg2d: Sum(rhs),rhsMax =  -1.54215529235557E-12  2.20671891638668E-01
 cg2d: Sum(rhs),rhsMax =  -1.55631063591954E-12  2.22416775255317E-01
 cg2d: Sum(rhs),rhsMax =  -1.59200430616124E-12  2.23652924653277E-01
 cg2d: Sum(rhs),rhsMax =  -1.63280500231622E-12  2.24353433554732E-01
 cg2d: Sum(rhs),rhsMax =  -1.66211489016632E-12  2.24663664692226E-01
 cg2d: Sum(rhs),rhsMax =  -1.71362923850893E-12  2.24387949557074E-01
 cg2d: Sum(rhs),rhsMax =  -1.75681691416685E-12  2.23677013436092E-01
 cg2d: Sum(rhs),rhsMax =  -1.81765713591631E-12  2.22536648516681E-01
 cg2d: Sum(rhs),rhsMax =  -1.87561077780174E-12  2.20929228601760E-01
 cg2d: Sum(rhs),rhsMax =  -1.95177207729103E-12  2.18935868803933E-01
 cg2d: Sum(rhs),rhsMax =  -2.02082794942271E-12  2.16546332388770E-01
 cg2d: Sum(rhs),rhsMax =  -2.10376160936221E-12  2.13736400435583E-01
 cg2d: Sum(rhs),rhsMax =  -2.19674278767457E-12  2.10597998427038E-01
 cg2d: Sum(rhs),rhsMax =  -2.28400631741010E-12  2.07109752146646E-01
 cg2d: Sum(rhs),rhsMax =  -2.39441799720908E-12  2.03279049553146E-01
 cg2d: Sum(rhs),rhsMax =  -2.48079334852491E-12  1.99122359372491E-01
 cg2d: Sum(rhs),rhsMax =  -2.42655895377197E-12  1.94643639999556E-01
 cg2d: Sum(rhs),rhsMax =  -2.45681253119301E-12  1.89820497307886E-01
 cg2d: Sum(rhs),rhsMax =  -2.51487719538090E-12  1.84694738203627E-01
 cg2d: Sum(rhs),rhsMax =  -2.59986476791596E-12  1.79296013738214E-01
 cg2d: Sum(rhs),rhsMax =  -2.69650968220958E-12  1.73840234672524E-01
 cg2d: Sum(rhs),rhsMax =  -2.80858669654549E-12  1.67888265640688E-01
 cg2d: Sum(rhs),rhsMax =  -2.93343127566459E-12  1.62016316882752E-01
 cg2d: Sum(rhs),rhsMax =  -3.07254222065012E-12  1.55872215948910E-01
 cg2d: Sum(rhs),rhsMax =  -3.12300185711933E-12  1.54791741905385E-01
 cg2d: Sum(rhs),rhsMax =  -2.98072677651362E-12  1.63989237950625E-01
 cg2d: Sum(rhs),rhsMax =  -2.82646128724195E-12  1.72829570997385E-01
 cg2d: Sum(rhs),rhsMax =  -2.72387667976659E-12  1.81235932979905E-01
 cg2d: Sum(rhs),rhsMax =  -2.61257682154792E-12  1.89198067524008E-01
 cg2d: Sum(rhs),rhsMax =  -2.52842191628133E-12  1.96690335765537E-01
 cg2d: Sum(rhs),rhsMax =  -2.44548825634183E-12  2.03679320674460E-01
 cg2d: Sum(rhs),rhsMax =  -2.37318498186312E-12  2.10143210875340E-01
 cg2d: Sum(rhs),rhsMax =  -2.28958518810884E-12  2.16085818520523E-01
 cg2d: Sum(rhs),rhsMax =  -2.23188134640395E-12  2.21490707623878E-01
 cg2d: Sum(rhs),rhsMax =  -2.18344786695468E-12  2.26334637706359E-01
 cg2d: Sum(rhs),rhsMax =  -2.13679074434481E-12  2.30604729038754E-01
 cg2d: Sum(rhs),rhsMax =  -2.09443573595536E-12  2.34277988553669E-01
 cg2d: Sum(rhs),rhsMax =  -2.03786987285071E-12  2.37370280270786E-01
 cg2d: Sum(rhs),rhsMax =  -1.98005500884335E-12  2.39860009044220E-01
 cg2d: Sum(rhs),rhsMax =  -1.93248195223816E-12  2.41773448762257E-01
 cg2d: Sum(rhs),rhsMax =  -1.89220861201989E-12  2.43116465773751E-01
 cg2d: Sum(rhs),rhsMax =  -1.87744264579237E-12  2.43899349873668E-01
 cg2d: Sum(rhs),rhsMax =  -1.88035698123201E-12  2.44148119590773E-01
 cg2d: Sum(rhs),rhsMax =  -1.88901672082409E-12  2.43804454770216E-01
 cg2d: Sum(rhs),rhsMax =  -1.89689930429893E-12  2.42911999986433E-01
 cg2d: Sum(rhs),rhsMax =  -1.90522597698362E-12  2.41497052271001E-01
 cg2d: Sum(rhs),rhsMax =  -1.90014670664596E-12  2.39573530102382E-01
 cg2d: Sum(rhs),rhsMax =  -1.87966309184162E-12  2.37199864140960E-01
 cg2d: Sum(rhs),rhsMax =  -1.85310100597746E-12  2.34351990616541E-01
 cg2d: Sum(rhs),rhsMax =  -1.80935821880723E-12  2.30982436640052E-01
 cg2d: Sum(rhs),rhsMax =  -1.76481051994415E-12  2.27229964005649E-01
 cg2d: Sum(rhs),rhsMax =  -1.71265779336238E-12  2.23097786762698E-01
 cg2d: Sum(rhs),rhsMax =  -1.66913705079708E-12  2.18563856670144E-01
 cg2d: Sum(rhs),rhsMax =  -1.63263846886252E-12  2.13712367318070E-01
 cg2d: Sum(rhs),rhsMax =  -1.60743640620353E-12  2.08457828059902E-01
 cg2d: Sum(rhs),rhsMax =  -1.61265445441927E-12  2.02921659621829E-01
 cg2d: Sum(rhs),rhsMax =  -1.66960889558254E-12  1.97034083607275E-01
 cg2d: Sum(rhs),rhsMax =  -1.68504099562483E-12  1.90812935256655E-01
 cg2d: Sum(rhs),rhsMax =  -1.66822111680176E-12  1.84325735056197E-01
 cg2d: Sum(rhs),rhsMax =  -1.61390345532197E-12  1.77560834010185E-01
 cg2d: Sum(rhs),rhsMax =  -1.53244084089010E-12  1.70661336665800E-01
 cg2d: Sum(rhs),rhsMax =  -1.44778633526244E-12  1.63602457433610E-01
 cg2d: Sum(rhs),rhsMax =  -1.35938482692666E-12  1.68187625679335E-01
 cg2d: Sum(rhs),rhsMax =  -1.24972254766931E-12  1.77617399383935E-01
 cg2d: Sum(rhs),rhsMax =  -1.15714382520338E-12  1.86521436080563E-01
 cg2d: Sum(rhs),rhsMax =  -1.08504871754178E-12  1.94949382393129E-01
 cg2d: Sum(rhs),rhsMax =  -1.02097497123310E-12  2.02889061636640E-01
 cg2d: Sum(rhs),rhsMax =  -9.71334124244549E-13  2.10232608745945E-01
 cg2d: Sum(rhs),rhsMax =  -9.20041820506867E-13  2.17077669575640E-01
 cg2d: Sum(rhs),rhsMax =  -8.02524713350294E-13  2.23362671260419E-01
 cg2d: Sum(rhs),rhsMax =  -6.87588874725975E-13  2.29040875940728E-01
 cg2d: Sum(rhs),rhsMax =  -5.75262060209525E-13  2.34119123450283E-01
 cg2d: Sum(rhs),rhsMax =  -4.57814341991991E-13  2.38670013561475E-01
 cg2d: Sum(rhs),rhsMax =  -3.55174223365395E-13  2.42501039397143E-01
 cg2d: Sum(rhs),rhsMax =  -2.60125254669674E-13  2.45694318099855E-01
 cg2d: Sum(rhs),rhsMax =  -1.84172121997506E-13  2.48332184402149E-01
 cg2d: Sum(rhs),rhsMax =  -9.99755833674953E-14  2.50325841227352E-01
 cg2d: Sum(rhs),rhsMax =  -3.32373017997156E-14  2.51793972010859E-01
 cg2d: Sum(rhs),rhsMax =   3.90937282546133E-14  2.52642437377162E-01
 cg2d: Sum(rhs),rhsMax =   9.53820356031088E-14  2.52867000019872E-01
 cg2d: Sum(rhs),rhsMax =   2.23945861854702E-13  2.52464140352499E-01
 cg2d: Sum(rhs),rhsMax =   3.30194205311329E-13  2.51488612604046E-01
 cg2d: Sum(rhs),rhsMax =   3.43822192938603E-13  2.49968259930016E-01
 cg2d: Sum(rhs),rhsMax =   3.62196383996150E-13  2.47935709328724E-01
 cg2d: Sum(rhs),rhsMax =   3.82832654466370E-13  2.45401232026006E-01
 cg2d: Sum(rhs),rhsMax =   4.03621580602476E-13  2.42375482235611E-01
 cg2d: Sum(rhs),rhsMax =   4.28712620959004E-13  2.38952006429942E-01
 cg2d: Sum(rhs),rhsMax =   4.54095094859497E-13  2.34391993521255E-01
 cg2d: Sum(rhs),rhsMax =   6.19213014196873E-13  2.30379431215270E-01
 cg2d: Sum(rhs),rhsMax =   6.39238662003550E-13  2.25994595084527E-01
 cg2d: Sum(rhs),rhsMax =   6.74724165428131E-13  2.21120540453104E-01
 cg2d: Sum(rhs),rhsMax =   7.01563807048444E-13  2.15856976816083E-01
 cg2d: Sum(rhs),rhsMax =   7.33829663701613E-13  2.10285284934502E-01
 cg2d: Sum(rhs),rhsMax =   7.75823849608059E-13  2.04274779260048E-01
 cg2d: Sum(rhs),rhsMax =   8.15625345040871E-13  1.98023038198548E-01
 cg2d: Sum(rhs),rhsMax =   8.63378812887561E-13  1.91521794112753E-01
 cg2d: Sum(rhs),rhsMax =   9.09550212924159E-13  1.84840384999476E-01
 cg2d: Sum(rhs),rhsMax =   9.67531610385208E-13  1.78088205388438E-01
 cg2d: Sum(rhs),rhsMax =   1.01983699263286E-12  1.71154730599268E-01
 cg2d: Sum(rhs),rhsMax =   1.04302677605972E-12  1.71865741038684E-01
 cg2d: Sum(rhs),rhsMax =   1.01051111922601E-12  1.81696858026158E-01
 cg2d: Sum(rhs),rhsMax =   9.73068847720526E-13  1.91066991012317E-01
 cg2d: Sum(rhs),rhsMax =   9.41066669035706E-13  1.99963486995267E-01
 cg2d: Sum(rhs),rhsMax =   9.21387965924225E-13  2.08354967859169E-01
 cg2d: Sum(rhs),rhsMax =   8.99211261007338E-13  2.16162206784001E-01
 cg2d: Sum(rhs),rhsMax =   8.87553919248774E-13  2.23424518896077E-01
 cg2d: Sum(rhs),rhsMax =   8.63781268733987E-13  2.30144106202971E-01
 cg2d: Sum(rhs),rhsMax =   8.60700399840653E-13  2.36300053130198E-01
 cg2d: Sum(rhs),rhsMax =   8.76618222456216E-13  2.41906539329118E-01
 cg2d: Sum(rhs),rhsMax =   8.92785845252320E-13  2.46915249228550E-01
 cg2d: Sum(rhs),rhsMax =   9.00418628546618E-13  2.51289077619884E-01
 cg2d: Sum(rhs),rhsMax =   9.51905221313609E-13  2.55054371742088E-01
 cg2d: Sum(rhs),rhsMax =   1.00749963927171E-12  2.58170392002103E-01
 cg2d: Sum(rhs),rhsMax =   1.05640496350645E-12  2.60683332448680E-01
 cg2d: Sum(rhs),rhsMax =   1.11682885162168E-12  2.62553701186765E-01
 cg2d: Sum(rhs),rhsMax =   1.13004050561472E-12  2.63810476633409E-01
 cg2d: Sum(rhs),rhsMax =   1.13969944592895E-12  2.64454806701010E-01
 cg2d: Sum(rhs),rhsMax =   1.15710219183995E-12  2.64504404796709E-01
 cg2d: Sum(rhs),rhsMax =   1.17292286994086E-12  2.63964171051005E-01
 cg2d: Sum(rhs),rhsMax =   1.20681242776755E-12  2.62818820409655E-01
 cg2d: Sum(rhs),rhsMax =   1.22135634939013E-12  2.61223730506314E-01
 cg2d: Sum(rhs),rhsMax =   1.24719679028829E-12  2.59093869844472E-01
 cg2d: Sum(rhs),rhsMax =   1.19526610831144E-12  2.56459608690785E-01
 cg2d: Sum(rhs),rhsMax =   1.23132060103615E-12  2.53350759807595E-01
 cg2d: Sum(rhs),rhsMax =   1.28400068355461E-12  2.49746279334287E-01
 cg2d: Sum(rhs),rhsMax =   1.32638344751967E-12  2.45812104501659E-01
 cg2d: Sum(rhs),rhsMax =   1.38020150863838E-12  2.41503775587368E-01
 cg2d: Sum(rhs),rhsMax =   1.43357548054723E-12  2.36795946662272E-01
 cg2d: Sum(rhs),rhsMax =   1.48669965227555E-12  2.31724676583596E-01
 cg2d: Sum(rhs),rhsMax =   1.56288870734045E-12  2.26273778167225E-01
 cg2d: Sum(rhs),rhsMax =   1.62647673107585E-12  2.20731374705593E-01
 cg2d: Sum(rhs),rhsMax =   1.70669034460502E-12  2.14641782744506E-01
 cg2d: Sum(rhs),rhsMax =   1.80100379054693E-12  2.08223139556662E-01
 cg2d: Sum(rhs),rhsMax =   1.89065429978541E-12  2.01541663916360E-01
 cg2d: Sum(rhs),rhsMax =   1.99618099827603E-12  1.94693663907705E-01
 cg2d: Sum(rhs),rhsMax =   2.11292094931537E-12  1.87752765141046E-01
 cg2d: Sum(rhs),rhsMax =   2.23665530540984E-12  1.80681363993305E-01
 cg2d: Sum(rhs),rhsMax =   2.30948593582525E-12  1.78928087320943E-01
 cg2d: Sum(rhs),rhsMax =   2.21445084491734E-12  1.88888120785231E-01
 cg2d: Sum(rhs),rhsMax =   2.14128714759454E-12  1.98382301611307E-01
 cg2d: Sum(rhs),rhsMax =   2.08555395175836E-12  2.07370058920816E-01
 cg2d: Sum(rhs),rhsMax =   2.04225525379798E-12  2.15818235045506E-01
 cg2d: Sum(rhs),rhsMax =   1.99851246662774E-12  2.23726522054715E-01
 cg2d: Sum(rhs),rhsMax =   1.96714866618208E-12  2.31069433501566E-01
 cg2d: Sum(rhs),rhsMax =   1.94333438230387E-12  2.37790852188975E-01
 cg2d: Sum(rhs),rhsMax =   1.91474613941978E-12  2.43897866000571E-01
 cg2d: Sum(rhs),rhsMax =   1.90963911350650E-12  2.49425109828613E-01
 cg2d: Sum(rhs),rhsMax =   1.95182758844226E-12  2.54346448396819E-01
 cg2d: Sum(rhs),rhsMax =   2.01311189940157E-12  2.58665054663805E-01
 cg2d: Sum(rhs),rhsMax =   2.01655359077790E-12  2.62317963844227E-01
 cg2d: Sum(rhs),rhsMax =   2.01449967818235E-12  2.65346881075752E-01
 cg2d: Sum(rhs),rhsMax =   2.02349248468181E-12  2.67802984833211E-01
 cg2d: Sum(rhs),rhsMax =   2.03315142499605E-12  2.69665080847065E-01
 cg2d: Sum(rhs),rhsMax =   2.04236627610044E-12  2.70941625790080E-01
 cg2d: Sum(rhs),rhsMax =   2.07078798553084E-12  2.71662511003447E-01
 cg2d: Sum(rhs),rhsMax =   2.09132711148641E-12  2.71769670309043E-01
 cg2d: Sum(rhs),rhsMax =   2.13379314217832E-12  2.71314866647239E-01
 cg2d: Sum(rhs),rhsMax =   2.14689377386890E-12  2.70336397281252E-01
 cg2d: Sum(rhs),rhsMax =   2.20096163516814E-12  2.68868581658665E-01
 cg2d: Sum(rhs),rhsMax =   2.25858221014619E-12  2.66850287198513E-01
 cg2d: Sum(rhs),rhsMax =   2.27989849221899E-12  2.64359539994465E-01
 cg2d: Sum(rhs),rhsMax =   2.32169838909613E-12  2.61434164412553E-01
 cg2d: Sum(rhs),rhsMax =   2.37676545111754E-12  2.58054756156909E-01
 cg2d: Sum(rhs),rhsMax =   2.43599584948129E-12  2.54279627197428E-01
 cg2d: Sum(rhs),rhsMax =   2.47896148053428E-12  2.50148292575993E-01
 cg2d: Sum(rhs),rhsMax =   2.53136400729659E-12  2.45682449743946E-01
 cg2d: Sum(rhs),rhsMax =   2.54857246417828E-12  2.40875829053941E-01
 cg2d: Sum(rhs),rhsMax =   2.53269627492614E-12  2.35622757299365E-01
 cg2d: Sum(rhs),rhsMax =   2.52481369145130E-12  2.30060967068913E-01
 cg2d: Sum(rhs),rhsMax =   2.61590749062179E-12  2.24185486708411E-01
 cg2d: Sum(rhs),rhsMax =   2.81019651993120E-12  2.18010874205021E-01
 cg2d: Sum(rhs),rhsMax =   2.98361335637765E-12  2.11543566825731E-01
 cg2d: Sum(rhs),rhsMax =   3.14193115968919E-12  2.04899687017399E-01
 cg2d: Sum(rhs),rhsMax =   3.32756044940652E-12  1.98119381550095E-01
 cg2d: Sum(rhs),rhsMax =   3.55437901333744E-12  1.91249994518297E-01
 cg2d: Sum(rhs),rhsMax =   3.66795482875659E-12  1.88910309078559E-01
 cg2d: Sum(rhs),rhsMax =   3.76365605347928E-12  1.87497827618978E-01
 cg2d: Sum(rhs),rhsMax =   3.61521923508690E-12  1.97219889307111E-01
 cg2d: Sum(rhs),rhsMax =   3.55304674570789E-12  2.06467260671819E-01
 cg2d: Sum(rhs),rhsMax =   3.46966899655854E-12  2.15104377886146E-01
 cg2d: Sum(rhs),rhsMax =   3.31656924146273E-12  2.23199507756506E-01
 cg2d: Sum(rhs),rhsMax =   3.24018589736852E-12  2.30792967157903E-01
 cg2d: Sum(rhs),rhsMax =   3.14070991436211E-12  2.37792527789250E-01
 cg2d: Sum(rhs),rhsMax =   2.99682501037069E-12  2.44192455053141E-01
 cg2d: Sum(rhs),rhsMax =   2.87614376759393E-12  2.50027535462686E-01
 cg2d: Sum(rhs),rhsMax =   2.73969735786750E-12  2.55287274802950E-01
 cg2d: Sum(rhs),rhsMax =   2.64938071481424E-12  2.59916420577046E-01
 cg2d: Sum(rhs),rhsMax =   2.54574139546548E-12  2.63926994072584E-01
 cg2d: Sum(rhs),rhsMax =   2.43582931602759E-12  2.67300394575901E-01
 cg2d: Sum(rhs),rhsMax =   2.35750308164029E-12  2.70089699298394E-01
 cg2d: Sum(rhs),rhsMax =   2.27345919867616E-12  2.72244574440392E-01
 cg2d: Sum(rhs),rhsMax =   2.21933582622569E-12  2.73801767920622E-01
 cg2d: Sum(rhs),rhsMax =   2.19368967435685E-12  2.74813732535249E-01
 cg2d: Sum(rhs),rhsMax =   2.12485584683009E-12  2.75279184821356E-01
 cg2d: Sum(rhs),rhsMax =   2.09787742733170E-12  2.75208030633447E-01
 cg2d: Sum(rhs),rhsMax =   2.11664019644786E-12  2.74589553648108E-01
 cg2d: Sum(rhs),rhsMax =   2.11652917414540E-12  2.73386569254545E-01
 cg2d: Sum(rhs),rhsMax =   2.11830553098480E-12  2.71612798285496E-01
 cg2d: Sum(rhs),rhsMax =   2.13673523319358E-12  2.69316730896877E-01
 cg2d: Sum(rhs),rhsMax =   2.17925677503672E-12  2.66582582885232E-01
 cg2d: Sum(rhs),rhsMax =   2.18236539950567E-12  2.63425572639784E-01
 cg2d: Sum(rhs),rhsMax =   2.20856666288682E-12  2.59836293973239E-01
 cg2d: Sum(rhs),rhsMax =   2.21722640247890E-12  2.55828807585483E-01
 cg2d: Sum(rhs),rhsMax =   2.26663132707472E-12  2.51406317930144E-01
 cg2d: Sum(rhs),rhsMax =   2.32225350060844E-12  2.46600105313688E-01
 cg2d: Sum(rhs),rhsMax =   2.37809771874709E-12  2.41464029101468E-01
 cg2d: Sum(rhs),rhsMax =   2.43505215991036E-12  2.35918005059798E-01
 cg2d: Sum(rhs),rhsMax =   2.50022225145585E-12  2.30080782063602E-01
 cg2d: Sum(rhs),rhsMax =   2.57782684087715E-12  2.23770742156508E-01
 cg2d: Sum(rhs),rhsMax =   2.65187871661965E-12  2.17290195864290E-01
 cg2d: Sum(rhs),rhsMax =   2.74458233917585E-12  2.10543759901377E-01
 cg2d: Sum(rhs),rhsMax =   2.85238499486695E-12  2.03571387263991E-01
 cg2d: Sum(rhs),rhsMax =   2.94930746491673E-12  1.99227918632212E-01
 cg2d: Sum(rhs),rhsMax =   2.98128188802593E-12  1.97812753340764E-01
 cg2d: Sum(rhs),rhsMax =   2.91300317201149E-12  1.95857095772965E-01
 cg2d: Sum(rhs),rhsMax =   2.71638267435037E-12  2.00424935785589E-01
 cg2d: Sum(rhs),rhsMax =   2.48123743773476E-12  2.10183109906729E-01
 cg2d: Sum(rhs),rhsMax =   2.29727348255437E-12  2.19453328386261E-01
 cg2d: Sum(rhs),rhsMax =   2.12563300294732E-12  2.28197262428017E-01
 cg2d: Sum(rhs),rhsMax =   1.91802129734242E-12  2.36294462585390E-01
 cg2d: Sum(rhs),rhsMax =   1.79589676463365E-12  2.43803966033170E-01
 cg2d: Sum(rhs),rhsMax =   1.68298708302927E-12  2.50706158965864E-01
 cg2d: Sum(rhs),rhsMax =   1.57063251293721E-12  2.56963560304894E-01
 cg2d: Sum(rhs),rhsMax =   1.47060141841848E-12  2.62616197146884E-01
 cg2d: Sum(rhs),rhsMax =   1.37179156922684E-12  2.67634897762452E-01
 cg2d: Sum(rhs),rhsMax =   1.29574129204002E-12  2.71977015933070E-01
 cg2d: Sum(rhs),rhsMax =   1.19015908239817E-12  2.75657224065937E-01
 cg2d: Sum(rhs),rhsMax =   1.11788356349507E-12  2.78821188794147E-01
 cg2d: Sum(rhs),rhsMax =   1.04505293307966E-12  2.81261864137180E-01
 cg2d: Sum(rhs),rhsMax =   9.64006652282023E-13  2.83032862206241E-01
 cg2d: Sum(rhs),rhsMax =   9.12936393149266E-13  2.84156063898859E-01
 cg2d: Sum(rhs),rhsMax =   8.42548253388031E-13  2.84697564215714E-01
 cg2d: Sum(rhs),rhsMax =   7.82041098545960E-13  2.84412772964428E-01
 cg2d: Sum(rhs),rhsMax =   7.12541137204425E-13  2.83616188228757E-01
 cg2d: Sum(rhs),rhsMax =   6.77347067323808E-13  2.82242952734835E-01
 cg2d: Sum(rhs),rhsMax =   5.99520433297585E-13  2.80447447473322E-01
 cg2d: Sum(rhs),rhsMax =   5.66435787163755E-13  2.77907194507339E-01
 cg2d: Sum(rhs),rhsMax =   5.17141884870398E-13  2.74817999821991E-01
 cg2d: Sum(rhs),rhsMax =   4.58855176077577E-13  2.71315074315466E-01
 cg2d: Sum(rhs),rhsMax =   4.09228206876833E-13  2.67338504622129E-01
 cg2d: Sum(rhs),rhsMax =   3.77475828372553E-13  2.62962233394412E-01
 cg2d: Sum(rhs),rhsMax =   3.35731442646647E-13  2.57990615370257E-01
 cg2d: Sum(rhs),rhsMax =   2.55795384873636E-13  2.52786036954726E-01
 cg2d: Sum(rhs),rhsMax =   1.87516668859189E-13  2.47104811624528E-01
 cg2d: Sum(rhs),rhsMax =   1.40443212615082E-13  2.40933743809452E-01
 cg2d: Sum(rhs),rhsMax =   3.95239396766556E-14  2.34366300372565E-01
 cg2d: Sum(rhs),rhsMax =  -1.74305014866150E-14  2.27498520518152E-01
 cg2d: Sum(rhs),rhsMax =  -9.15933995315754E-14  2.20236003886527E-01
 cg2d: Sum(rhs),rhsMax =  -1.74193992563687E-13  2.12620312554145E-01
 cg2d: Sum(rhs),rhsMax =  -2.74891220897189E-13  2.05123730098390E-01
 cg2d: Sum(rhs),rhsMax =  -3.55160345577588E-13  2.04391758850012E-01
 cg2d: Sum(rhs),rhsMax =  -4.53415083256914E-13  2.03133949231591E-01
 cg2d: Sum(rhs),rhsMax =  -5.16697795660548E-13  2.01293485304260E-01
 cg2d: Sum(rhs),rhsMax =  -6.10511641241374E-13  2.04134810644229E-01
 cg2d: Sum(rhs),rhsMax =  -6.74349465157320E-13  2.14278089916008E-01
 cg2d: Sum(rhs),rhsMax =  -7.31747995530441E-13  2.23917317793226E-01
 cg2d: Sum(rhs),rhsMax =  -8.16458012309340E-13  2.32972714304126E-01
 cg2d: Sum(rhs),rhsMax =  -8.83626505299162E-13  2.41404252927964E-01
 cg2d: Sum(rhs),rhsMax =  -8.89177620422288E-13  2.49171027591123E-01
 cg2d: Sum(rhs),rhsMax =  -9.61564161627848E-13  2.56290035955825E-01
 cg2d: Sum(rhs),rhsMax =  -1.02939878843245E-12  2.62762500967747E-01
 cg2d: Sum(rhs),rhsMax =  -1.03150821217923E-12  2.68612216110623E-01
 cg2d: Sum(rhs),rhsMax =  -1.10567111022419E-12  2.73702455794176E-01
 cg2d: Sum(rhs),rhsMax =  -1.13276055202505E-12  2.78232831513166E-01
 cg2d: Sum(rhs),rhsMax =  -1.19815268817547E-12  2.81824717724350E-01
 cg2d: Sum(rhs),rhsMax =  -1.24555921132696E-12  2.85053731127339E-01
 cg2d: Sum(rhs),rhsMax =  -1.29662947045972E-12  2.87360643282233E-01
 cg2d: Sum(rhs),rhsMax =  -1.32438504607535E-12  2.88942010494531E-01
 cg2d: Sum(rhs),rhsMax =  -1.38011824191153E-12  2.89800426249822E-01
 cg2d: Sum(rhs),rhsMax =  -1.44262379819793E-12  2.89958709100004E-01
 cg2d: Sum(rhs),rhsMax =  -1.50668366671880E-12  2.89391193437177E-01
 cg2d: Sum(rhs),rhsMax =  -1.55275792224074E-12  2.88184404511514E-01
 cg2d: Sum(rhs),rhsMax =  -1.60860214037939E-12  2.86360409513097E-01
 cg2d: Sum(rhs),rhsMax =  -1.66189284556140E-12  2.83921756319692E-01
 cg2d: Sum(rhs),rhsMax =  -1.72162284428623E-12  2.81165988920302E-01
 cg2d: Sum(rhs),rhsMax =  -1.78779213655389E-12  2.77672001338034E-01
 cg2d: Sum(rhs),rhsMax =  -1.85851334322251E-12  2.73601643900977E-01
 cg2d: Sum(rhs),rhsMax =  -1.96231919602496E-12  2.69005487278317E-01
 cg2d: Sum(rhs),rhsMax =  -2.00894856305922E-12  2.63880218442912E-01
 cg2d: Sum(rhs),rhsMax =  -2.09721129351692E-12  2.58307580858971E-01
 cg2d: Sum(rhs),rhsMax =  -2.14694928502013E-12  2.52334860774433E-01
 cg2d: Sum(rhs),rhsMax =  -2.20867768518929E-12  2.45860985193183E-01
 cg2d: Sum(rhs),rhsMax =  -2.31681340778778E-12  2.38965723836615E-01
 cg2d: Sum(rhs),rhsMax =  -2.34134933663199E-12  2.31641264251280E-01
 cg2d: Sum(rhs),rhsMax =  -2.42061926059023E-12  2.23882094945033E-01
 cg2d: Sum(rhs),rhsMax =  -2.48245868306185E-12  2.15774970622046E-01
 cg2d: Sum(rhs),rhsMax =  -2.50466314355435E-12  2.10944407039786E-01
 cg2d: Sum(rhs),rhsMax =  -2.51076937018979E-12  2.10909949988849E-01
 cg2d: Sum(rhs),rhsMax =  -2.45825582112502E-12  2.10348129501433E-01
 cg2d: Sum(rhs),rhsMax =  -2.44970710383541E-12  2.09232692438198E-01
 cg2d: Sum(rhs),rhsMax =  -2.42417197426903E-12  2.07557554983104E-01
 cg2d: Sum(rhs),rhsMax =  -2.33768560065073E-12  2.09751547418613E-01
 cg2d: Sum(rhs),rhsMax =  -2.18558504627708E-12  2.20428264885384E-01
 cg2d: Sum(rhs),rhsMax =  -2.07556194453673E-12  2.30503537690936E-01
 cg2d: Sum(rhs),rhsMax =  -1.95132798808118E-12  2.39902257999355E-01
 cg2d: Sum(rhs),rhsMax =  -1.89592785915238E-12  2.48612103359782E-01
 cg2d: Sum(rhs),rhsMax =  -1.80910841862669E-12  2.56648339786027E-01
 cg2d: Sum(rhs),rhsMax =  -1.78945747109083E-12  2.64063084832757E-01
 cg2d: Sum(rhs),rhsMax =  -1.74249503714918E-12  2.70940522704010E-01
 cg2d: Sum(rhs),rhsMax =  -1.72906133855122E-12  2.77056792004036E-01
 cg2d: Sum(rhs),rhsMax =  -1.69320113485583E-12  2.82621955841053E-01
 cg2d: Sum(rhs),rhsMax =  -1.72706293710689E-12  2.87216345952553E-01
 cg2d: Sum(rhs),rhsMax =  -1.73461245367434E-12  2.91029632438477E-01
 cg2d: Sum(rhs),rhsMax =  -1.75082170983387E-12  2.94064483518784E-01
 cg2d: Sum(rhs),rhsMax =  -1.77091674657959E-12  2.96336551178925E-01
 cg2d: Sum(rhs),rhsMax =  -1.85451654033386E-12  2.97816756693783E-01
 cg2d: Sum(rhs),rhsMax =  -1.88815629798000E-12  2.98573638385346E-01
 cg2d: Sum(rhs),rhsMax =  -1.95266025571073E-12  2.98623599062821E-01
 cg2d: Sum(rhs),rhsMax =  -2.01411110012373E-12  2.97944215333260E-01
 cg2d: Sum(rhs),rhsMax =  -2.09759987157554E-12  2.96618630027360E-01
 cg2d: Sum(rhs),rhsMax =  -2.20368168157847E-12  2.94962337419538E-01
 cg2d: Sum(rhs),rhsMax =  -2.30865326855678E-12  2.92024727106026E-01
 cg2d: Sum(rhs),rhsMax =  -2.43638442753991E-12  2.89112382451272E-01
 cg2d: Sum(rhs),rhsMax =  -2.54840593072458E-12  2.85541935029995E-01
 cg2d: Sum(rhs),rhsMax =  -2.71493938441836E-12  2.81334053887167E-01
 cg2d: Sum(rhs),rhsMax =  -2.90123480795046E-12  2.76560851818347E-01
 cg2d: Sum(rhs),rhsMax =  -3.05444558534873E-12  2.71297627463156E-01
 cg2d: Sum(rhs),rhsMax =  -3.15569792519454E-12  2.65562482081622E-01
 cg2d: Sum(rhs),rhsMax =  -3.27049498594079E-12  2.59349842660732E-01
 cg2d: Sum(rhs),rhsMax =  -3.42215145110458E-12  2.52705648799284E-01
 cg2d: Sum(rhs),rhsMax =  -3.53184148593755E-12  2.45605499725871E-01
 cg2d: Sum(rhs),rhsMax =  -3.72157860084599E-12  2.38051123123209E-01
 cg2d: Sum(rhs),rhsMax =  -3.91209287187166E-12  2.30111119881714E-01
 cg2d: Sum(rhs),rhsMax =  -4.08184597233685E-12  2.21792708993974E-01
 cg2d: Sum(rhs),rhsMax =  -4.29645208299689E-12  2.13143522754410E-01
 cg2d: Sum(rhs),rhsMax =  -4.37860858681915E-12  2.12182824973128E-01
 cg2d: Sum(rhs),rhsMax =  -4.43445280495780E-12  2.11838517021263E-01
 cg2d: Sum(rhs),rhsMax =  -4.52038406706379E-12  2.10952945290961E-01
 cg2d: Sum(rhs),rhsMax =  -4.57045512547438E-12  2.09504993773599E-01
 cg2d: Sum(rhs),rhsMax =  -4.46087611294388E-12  2.18108208879958E-01
 cg2d: Sum(rhs),rhsMax =  -4.27191615415268E-12  2.30021629327343E-01
 cg2d: Sum(rhs),rhsMax =  -4.11515266307561E-12  2.40894293845607E-01
 cg2d: Sum(rhs),rhsMax =  -3.98969746129296E-12  2.51045064667833E-01
 cg2d: Sum(rhs),rhsMax =  -3.89654974952691E-12  2.60511775594954E-01
 cg2d: Sum(rhs),rhsMax =  -3.79235531866584E-12  2.69280776268208E-01
 cg2d: Sum(rhs),rhsMax =  -3.72352149113908E-12  2.77236021364028E-01
 cg2d: Sum(rhs),rhsMax =  -3.66867647372260E-12  2.84476542161119E-01
 cg2d: Sum(rhs),rhsMax =  -3.61788377034600E-12  2.91028087279969E-01
 cg2d: Sum(rhs),rhsMax =  -3.66140451291130E-12  2.96887894597900E-01
(PID.TID 0000.0001)      cg2d_init_res =   5.55509209152235E-02
(PID.TID 0000.0001)      cg2d_iters(min,last) =      -1      29
(PID.TID 0000.0001)      cg2d_last_res =   9.05654642995768E-14
(PID.TID 0000.0001) // =======================================================
(PID.TID 0000.0001) // Begin MONITOR dynamic field statistics
(PID.TID 0000.0001) // =======================================================
(PID.TID 0000.0001) %MON time_tsnumber                =                   960
(PID.TID 0000.0001) %MON time_secondsf                =   1.4400000000000E+04
(PID.TID 0000.0001) %MON dynstat_eta_max              =   1.2881734644335E-02
(PID.TID 0000.0001) %MON dynstat_eta_min              =  -2.1640437197541E-02
(PID.TID 0000.0001) %MON dynstat_eta_mean             =   1.2986008033414E-15
(PID.TID 0000.0001) %MON dynstat_eta_sd               =   1.0712293377159E-02
(PID.TID 0000.0001) %MON dynstat_eta_del2             =   1.6658325158390E-04
(PID.TID 0000.0001) %MON dynstat_uvel_max             =   1.2276810155532E+00
(PID.TID 0000.0001) %MON dynstat_uvel_min             =  -6.3607851208247E-01
(PID.TID 0000.0001) %MON dynstat_uvel_mean            =  -1.1568360312363E-03
(PID.TID 0000.0001) %MON dynstat_uvel_sd              =   6.8960887790418E-02
(PID.TID 0000.0001) %MON dynstat_uvel_del2            =   2.5928807239431E-04
(PID.TID 0000.0001) %MON dynstat_vvel_max             =   0.0000000000000E+00
(PID.TID 0000.0001) %MON dynstat_vvel_min             =   0.0000000000000E+00
(PID.TID 0000.0001) %MON dynstat_vvel_mean            =   0.0000000000000E+00
(PID.TID 0000.0001) %MON dynstat_vvel_sd              =   0.0000000000000E+00
(PID.TID 0000.0001) %MON dynstat_vvel_del2            =   0.0000000000000E+00
(PID.TID 0000.0001) %MON dynstat_wvel_max             =   8.0411026047016E-02
(PID.TID 0000.0001) %MON dynstat_wvel_min             =  -2.5128814950161E-02
(PID.TID 0000.0001) %MON dynstat_wvel_mean            =   1.3597004490464E-20
(PID.TID 0000.0001) %MON dynstat_wvel_sd              =   2.4080779008673E-03
(PID.TID 0000.0001) %MON dynstat_wvel_del2            =   4.7531670696736E-05
(PID.TID 0000.0001) %MON dynstat_theta_max            =   1.5000000000320E+01
(PID.TID 0000.0001) %MON dynstat_theta_min            =   9.9999999999964E+00
(PID.TID 0000.0001) %MON dynstat_theta_mean           =   1.2728655453213E+01
(PID.TID 0000.0001) %MON dynstat_theta_sd             =   2.4452950365637E+00
(PID.TID 0000.0001) %MON dynstat_theta_del2           =   1.0906224914384E-03
(PID.TID 0000.0001) %MON dynstat_salt_max             =   3.5000000000000E+01
(PID.TID 0000.0001) %MON dynstat_salt_min             =   3.5000000000000E+01
(PID.TID 0000.0001) %MON dynstat_salt_mean            =   3.5000000000000E+01
(PID.TID 0000.0001) %MON dynstat_salt_sd              =   1.0658141036402E-13
(PID.TID 0000.0001) %MON dynstat_salt_del2            =   0.0000000000000E+00
(PID.TID 0000.0001) %MON dynstat_sst_max              =   1.5000000000002E+01
(PID.TID 0000.0001) %MON dynstat_sst_min              =   1.4999905166154E+01
(PID.TID 0000.0001) %MON dynstat_sst_mean             =   1.4999999402812E+01
(PID.TID 0000.0001) %MON dynstat_sst_sd               =   6.5684329841129E-06
(PID.TID 0000.0001) %MON dynstat_sst_del2             =   5.1729551916657E-07
(PID.TID 0000.0001) %MON dynstat_sss_max              =   3.5000000000000E+01
(PID.TID 0000.0001) %MON dynstat_sss_min              =   3.5000000000000E+01
(PID.TID 0000.0001) %MON dynstat_sss_mean             =   3.5000000000000E+01
(PID.TID 0000.0001) %MON dynstat_sss_sd               =   4.2632564145606E-14
(PID.TID 0000.0001) %MON dynstat_sss_del2             =   0.0000000000000E+00
(PID.TID 0000.0001) %MON forcing_qnet_max             =   0.0000000000000E+00
(PID.TID 0000.0001) %MON forcing_qnet_min             =   0.0000000000000E+00
(PID.TID 0000.0001) %MON forcing_qnet_mean            =   0.0000000000000E+00
(PID.TID 0000.0001) %MON forcing_qnet_sd              =   0.0000000000000E+00
(PID.TID 0000.0001) %MON forcing_qnet_del2            =   0.0000000000000E+00
(PID.TID 0000.0001) %MON forcing_qsw_max              =   0.0000000000000E+00
(PID.TID 0000.0001) %MON forcing_qsw_min              =   0.0000000000000E+00
(PID.TID 0000.0001) %MON forcing_qsw_mean             =   0.0000000000000E+00
(PID.TID 0000.0001) %MON forcing_qsw_sd               =   0.0000000000000E+00
(PID.TID 0000.0001) %MON forcing_qsw_del2             =   0.0000000000000E+00
(PID.TID 0000.0001) %MON forcing_empmr_max            =   0.0000000000000E+00
(PID.TID 0000.0001) %MON forcing_empmr_min            =   0.0000000000000E+00
(PID.TID 0000.0001) %MON forcing_empmr_mean           =   0.0000000000000E+00
(PID.TID 0000.0001) %MON forcing_empmr_sd             =   0.0000000000000E+00
(PID.TID 0000.0001) %MON forcing_empmr_del2           =   0.0000000000000E+00
(PID.TID 0000.0001) %MON forcing_fu_max               =   0.0000000000000E+00
(PID.TID 0000.0001) %MON forcing_fu_min               =   0.0000000000000E+00
(PID.TID 0000.0001) %MON forcing_fu_mean              =   0.0000000000000E+00
(PID.TID 0000.0001) %MON forcing_fu_sd                =   0.0000000000000E+00
(PID.TID 0000.0001) %MON forcing_fu_del2              =   0.0000000000000E+00
(PID.TID 0000.0001) %MON forcing_fv_max               =   0.0000000000000E+00
(PID.TID 0000.0001) %MON forcing_fv_min               =   0.0000000000000E+00
(PID.TID 0000.0001) %MON forcing_fv_mean              =   0.0000000000000E+00
(PID.TID 0000.0001) %MON forcing_fv_sd                =   0.0000000000000E+00
(PID.TID 0000.0001) %MON forcing_fv_del2              =   0.0000000000000E+00
(PID.TID 0000.0001) %MON advcfl_uvel_max              =   8.4502409141047E-02
(PID.TID 0000.0001) %MON advcfl_vvel_max              =   0.0000000000000E+00
(PID.TID 0000.0001) %MON advcfl_wvel_max              =   3.9354302280367E-01
(PID.TID 0000.0001) %MON advcfl_W_hf_max              =   3.9782453641349E-01
(PID.TID 0000.0001) %MON pe_b_mean                    =   3.2213526641825E-06
(PID.TID 0000.0001) %MON ke_max                       =   4.8601951004302E-01
(PID.TID 0000.0001) %MON ke_mean                      =   2.4047993002091E-03
(PID.TID 0000.0001) %MON ke_vol                       =   8.5338127039305E+10
(PID.TID 0000.0001) %MON vort_r_min                   =   0.0000000000000E+00
(PID.TID 0000.0001) %MON vort_r_max                   =   0.0000000000000E+00
(PID.TID 0000.0001) %MON vort_a_mean                  =   0.0000000000000E+00
(PID.TID 0000.0001) %MON vort_a_sd                    =   0.0000000000000E+00
(PID.TID 0000.0001) %MON vort_p_mean                  =   0.0000000000000E+00
(PID.TID 0000.0001) %MON vort_p_sd                    =   0.0000000000000E+00
(PID.TID 0000.0001) %MON surfExpan_theta_mean         =   1.6553229782974E-12
(PID.TID 0000.0001) %MON surfExpan_salt_mean          =   1.5009207568034E-18
(PID.TID 0000.0001) // =======================================================
(PID.TID 0000.0001) // End MONITOR dynamic field statistics
(PID.TID 0000.0001) // =======================================================
(PID.TID 0000.0001) // =======================================================
(PID.TID 0000.0001) // Begin OBCS MONITOR field statistics
(PID.TID 0000.0001) // =======================================================
(PID.TID 0000.0001) %MON obc_E_uVel_max               =   0.0000000000000E+00
(PID.TID 0000.0001) %MON obc_E_uVel_min               =   0.0000000000000E+00
(PID.TID 0000.0001) %MON obc_E_uVel_mean              =   0.0000000000000E+00
(PID.TID 0000.0001) %MON obc_E_uVel_sd                =   0.0000000000000E+00
(PID.TID 0000.0001) %MON obc_E_uVel_Int               =   0.0000000000000E+00
(PID.TID 0000.0001) %MON obc_W_uVel_max               =   0.0000000000000E+00
(PID.TID 0000.0001) %MON obc_W_uVel_min               =   0.0000000000000E+00
(PID.TID 0000.0001) %MON obc_W_uVel_mean              =   0.0000000000000E+00
(PID.TID 0000.0001) %MON obc_W_uVel_sd                =   0.0000000000000E+00
(PID.TID 0000.0001) %MON obc_W_uVel_Int               =   0.0000000000000E+00
(PID.TID 0000.0001) // =======================================================
(PID.TID 0000.0001) // End OBCS MONITOR field statistics
(PID.TID 0000.0001) // =======================================================
 cg2d: Sum(rhs),rhsMax =  -3.70614650080370E-12  3.02020250374934E-01
 cg2d: Sum(rhs),rhsMax =  -3.79379860859785E-12  3.06351438448832E-01
 cg2d: Sum(rhs),rhsMax =  -3.83881815224640E-12  3.09959762804888E-01
 cg2d: Sum(rhs),rhsMax =  -3.91631171936524E-12  3.12817508116560E-01
 cg2d: Sum(rhs),rhsMax =  -4.00529609478895E-12  3.14875615168320E-01
 cg2d: Sum(rhs),rhsMax =  -4.09078326768508E-12  3.16261714106926E-01
 cg2d: Sum(rhs),rhsMax =  -4.19320134170675E-12  3.17073985254781E-01
 cg2d: Sum(rhs),rhsMax =  -4.23622248391098E-12  3.16857931912490E-01
 cg2d: Sum(rhs),rhsMax =  -4.27363699984085E-12  3.16278850238060E-01
 cg2d: Sum(rhs),rhsMax =  -4.33320046511199E-12  3.14933547923005E-01
 cg2d: Sum(rhs),rhsMax =  -4.37994085444871E-12  3.12885058006762E-01
 cg2d: Sum(rhs),rhsMax =  -4.45682379890400E-12  3.10195176473012E-01
 cg2d: Sum(rhs),rhsMax =  -4.53870274697010E-12  3.06879539564322E-01
 cg2d: Sum(rhs),rhsMax =  -4.63207250334108E-12  3.02964725586590E-01
 cg2d: Sum(rhs),rhsMax =  -4.74109640435927E-12  2.98485045736656E-01
 cg2d: Sum(rhs),rhsMax =  -4.85100848379716E-12  2.93436636105282E-01
 cg2d: Sum(rhs),rhsMax =  -4.97546448485764E-12  2.88187129163610E-01
 cg2d: Sum(rhs),rhsMax =  -5.11679587589242E-12  2.82364500512845E-01
 cg2d: Sum(rhs),rhsMax =  -5.27067278710547E-12  2.75968133945999E-01
 cg2d: Sum(rhs),rhsMax =  -5.45868905632574E-12  2.69097519289085E-01
 cg2d: Sum(rhs),rhsMax =  -5.63876723091994E-12  2.61776921669010E-01
 cg2d: Sum(rhs),rhsMax =  -5.88268322943009E-12  2.53253197932158E-01
 cg2d: Sum(rhs),rhsMax =  -6.12809802902348E-12  2.44745897698839E-01
 cg2d: Sum(rhs),rhsMax =  -6.39455155493351E-12  2.36051393450994E-01
 cg2d: Sum(rhs),rhsMax =  -6.68537447623407E-12  2.27106086000948E-01
 cg2d: Sum(rhs),rhsMax =  -6.99462709974341E-12  2.17965767367122E-01
 cg2d: Sum(rhs),rhsMax =  -7.28606064370751E-12  2.10790073783410E-01
 cg2d: Sum(rhs),rhsMax =  -7.35911331872785E-12  2.10204232422213E-01
 cg2d: Sum(rhs),rhsMax =  -7.11736225511572E-12  2.18560066474327E-01
 cg2d: Sum(rhs),rhsMax =  -6.79423184379857E-12  2.30719740063885E-01
 cg2d: Sum(rhs),rhsMax =  -6.49352793757885E-12  2.42432325687622E-01
 cg2d: Sum(rhs),rhsMax =  -6.23723295234413E-12  2.53533310500405E-01
 cg2d: Sum(rhs),rhsMax =  -6.12687678369639E-12  2.64002774115600E-01
 cg2d: Sum(rhs),rhsMax =  -6.03106453667124E-12  2.73864952618590E-01
 cg2d: Sum(rhs),rhsMax =  -5.96767080196514E-12  2.83080692527192E-01
 cg2d: Sum(rhs),rhsMax =  -5.90977267123094E-12  2.91596655496002E-01
 cg2d: Sum(rhs),rhsMax =  -5.86197757002083E-12  2.99360213187350E-01
 cg2d: Sum(rhs),rhsMax =  -5.83130765896556E-12  3.06437302887357E-01
 cg2d: Sum(rhs),rhsMax =  -5.81731884885528E-12  3.12730529121498E-01
 cg2d: Sum(rhs),rhsMax =  -5.81509840280603E-12  3.18335470566853E-01
 cg2d: Sum(rhs),rhsMax =  -5.82631165535474E-12  3.23194878158715E-01
 cg2d: Sum(rhs),rhsMax =  -5.85001491693049E-12  3.27246780735284E-01
 cg2d: Sum(rhs),rhsMax =  -5.87913051575129E-12  3.30571520143691E-01
 cg2d: Sum(rhs),rhsMax =  -5.90860693705508E-12  3.33133449862082E-01
 cg2d: Sum(rhs),rhsMax =  -5.95110072332261E-12  3.34954304448082E-01
 cg2d: Sum(rhs),rhsMax =  -6.00744454182234E-12  3.36023950272207E-01
 cg2d: Sum(rhs),rhsMax =  -6.06376060474645E-12  3.36373278508916E-01
 cg2d: Sum(rhs),rhsMax =  -6.12582207182299E-12  3.36048384684499E-01
 cg2d: Sum(rhs),rhsMax =  -6.19818085745294E-12  3.35071750782606E-01
 cg2d: Sum(rhs),rhsMax =  -6.27767282601610E-12  3.33410893452321E-01
 cg2d: Sum(rhs),rhsMax =  -6.36998787051368E-12  3.31236486667718E-01
 cg2d: Sum(rhs),rhsMax =  -6.47057407654472E-12  3.28337860906544E-01
 cg2d: Sum(rhs),rhsMax =  -6.58087473404123E-12  3.24795704881084E-01
 cg2d: Sum(rhs),rhsMax =  -6.70369315614039E-12  3.20654956143631E-01
 cg2d: Sum(rhs),rhsMax =  -6.84055589950106E-12  3.15970961469949E-01
 cg2d: Sum(rhs),rhsMax =  -6.98591184900010E-12  3.10795953729297E-01
 cg2d: Sum(rhs),rhsMax =  -7.14828196635153E-12  3.05183197140383E-01
 cg2d: Sum(rhs),rhsMax =  -7.32483518284255E-12  2.99100130993456E-01
 cg2d: Sum(rhs),rhsMax =  -7.50488560186113E-12  2.92540504122481E-01
 cg2d: Sum(rhs),rhsMax =  -7.70675190331360E-12  2.85723626840015E-01
 cg2d: Sum(rhs),rhsMax =  -7.93135002119527E-12  2.78409934174527E-01
 cg2d: Sum(rhs),rhsMax =  -8.17532153085665E-12  2.70612126677190E-01
 cg2d: Sum(rhs),rhsMax =  -8.45615244493558E-12  2.62431446653339E-01
 cg2d: Sum(rhs),rhsMax =  -8.75871597472155E-12  2.53895325846564E-01
 cg2d: Sum(rhs),rhsMax =  -9.08387254305865E-12  2.45078951222336E-01
 cg2d: Sum(rhs),rhsMax =  -9.44844202876993E-12  2.36067906197894E-01
 cg2d: Sum(rhs),rhsMax =  -9.82036674201936E-12  2.26902636148057E-01
 cg2d: Sum(rhs),rhsMax =  -1.02264863244272E-11  2.17576427151695E-01
 cg2d: Sum(rhs),rhsMax =  -9.93946591698602E-12  2.23570466193047E-01
 cg2d: Sum(rhs),rhsMax =  -9.41433042633832E-12  2.35946716112726E-01
 cg2d: Sum(rhs),rhsMax =  -8.95403196032873E-12  2.48109267506432E-01
 cg2d: Sum(rhs),rhsMax =  -8.56642534685648E-12  2.59436536361057E-01
 cg2d: Sum(rhs),rhsMax =  -8.22711343495541E-12  2.70201370033677E-01
 cg2d: Sum(rhs),rhsMax =  -7.93015653144380E-12  2.80242765329633E-01
 cg2d: Sum(rhs),rhsMax =  -7.67469421347755E-12  2.89730440146375E-01
 cg2d: Sum(rhs),rhsMax =  -7.44375394656771E-12  2.98561434603335E-01
 cg2d: Sum(rhs),rhsMax =  -7.24113824457362E-12  3.06658266751123E-01
 cg2d: Sum(rhs),rhsMax =  -7.06606995137804E-12  3.14037144146097E-01
 cg2d: Sum(rhs),rhsMax =  -6.90318635587772E-12  3.20709843441346E-01
 cg2d: Sum(rhs),rhsMax =  -6.77040368213255E-12  3.26683141016802E-01
 cg2d: Sum(rhs),rhsMax =  -6.64994448396072E-12  3.31987233588349E-01
 cg2d: Sum(rhs),rhsMax =  -6.54737375427317E-12  3.36393324212808E-01
 cg2d: Sum(rhs),rhsMax =  -6.45905551266424E-12  3.40100518486759E-01
 cg2d: Sum(rhs),rhsMax =  -6.38691877163922E-12  3.43210223111994E-01
 cg2d: Sum(rhs),rhsMax =  -6.32260910293780E-12  3.45564041879113E-01
 cg2d: Sum(rhs),rhsMax =  -6.28713747730103E-12  3.47219741460927E-01
 cg2d: Sum(rhs),rhsMax =  -6.26297624872763E-12  3.48207738271315E-01
 cg2d: Sum(rhs),rhsMax =  -6.24902907198077E-12  3.48596796361956E-01
 cg2d: Sum(rhs),rhsMax =  -6.25353935301831E-12  3.48238251092983E-01
 cg2d: Sum(rhs),rhsMax =  -6.27503604633262E-12  3.47307090541477E-01
 cg2d: Sum(rhs),rhsMax =  -6.30324958894590E-12  3.45769011086338E-01
 cg2d: Sum(rhs),rhsMax =  -6.34348129580076E-12  3.43696339946197E-01
 cg2d: Sum(rhs),rhsMax =  -6.40933139894884E-12  3.41088084333011E-01
 cg2d: Sum(rhs),rhsMax =  -6.47125408814730E-12  3.37893165420145E-01
 cg2d: Sum(rhs),rhsMax =  -6.55910048497077E-12  3.34080539293513E-01
 cg2d: Sum(rhs),rhsMax =  -6.65531518784235E-12  3.29805618242737E-01
 cg2d: Sum(rhs),rhsMax =  -6.76279865441387E-12  3.25079157953840E-01
 cg2d: Sum(rhs),rhsMax =  -6.89026613542865E-12  3.19933403719439E-01
 cg2d: Sum(rhs),rhsMax =  -7.03334612772721E-12  3.14429296199208E-01
 cg2d: Sum(rhs),rhsMax =  -7.19441173302471E-12  3.08387456530166E-01
 cg2d: Sum(rhs),rhsMax =  -7.37476746337506E-12  3.01912277674702E-01
 cg2d: Sum(rhs),rhsMax =  -7.57077733837264E-12  2.95254864021001E-01
 cg2d: Sum(rhs),rhsMax =  -7.76421982262576E-12  2.88041711026716E-01
 cg2d: Sum(rhs),rhsMax =  -7.99033061937848E-12  2.80488390020054E-01
 cg2d: Sum(rhs),rhsMax =  -8.24834645030137E-12  2.72562871115422E-01
 cg2d: Sum(rhs),rhsMax =  -8.53087045449286E-12  2.64365483113006E-01
 cg2d: Sum(rhs),rhsMax =  -8.84928241795535E-12  2.55950591645665E-01
 cg2d: Sum(rhs),rhsMax =  -9.18123910231827E-12  2.47285088908224E-01
 cg2d: Sum(rhs),rhsMax =  -9.54861190116674E-12  2.38584607176616E-01
 cg2d: Sum(rhs),rhsMax =  -9.92753101947130E-12  2.29790729650498E-01
 cg2d: Sum(rhs),rhsMax =  -9.64886504029039E-12  2.36961523137046E-01
 cg2d: Sum(rhs),rhsMax =  -9.20449827468417E-12  2.48863473332811E-01
 cg2d: Sum(rhs),rhsMax =  -8.81453243728458E-12  2.60226504853806E-01
 cg2d: Sum(rhs),rhsMax =  -8.47122372249487E-12  2.71123177192999E-01
 cg2d: Sum(rhs),rhsMax =  -8.16466338982025E-12  2.81487902968427E-01
 cg2d: Sum(rhs),rhsMax =  -7.89526777289495E-12  2.91203245203826E-01
 cg2d: Sum(rhs),rhsMax =  -7.65804086810817E-12  3.00315598901408E-01
 cg2d: Sum(rhs),rhsMax =  -7.44929118390303E-12  3.08800548384702E-01
 cg2d: Sum(rhs),rhsMax =  -7.26488313951279E-12  3.16626580637730E-01
 cg2d: Sum(rhs),rhsMax =  -7.10065339859511E-12  3.23732833037475E-01
 cg2d: Sum(rhs),rhsMax =  -6.96695479085463E-12  3.30188800537571E-01
 cg2d: Sum(rhs),rhsMax =  -6.83958445435451E-12  3.36128624747395E-01
 cg2d: Sum(rhs),rhsMax =  -6.74285627333404E-12  3.41215298068934E-01
 cg2d: Sum(rhs),rhsMax =  -6.65889565709676E-12  3.45423905725647E-01
 cg2d: Sum(rhs),rhsMax =  -6.58972876266262E-12  3.49280810591450E-01
 cg2d: Sum(rhs),rhsMax =  -6.53294085495304E-12  3.52216992615842E-01
 cg2d: Sum(rhs),rhsMax =  -6.48664455482617E-12  3.54515651459520E-01
 cg2d: Sum(rhs),rhsMax =  -6.45639097740514E-12  3.56099311532731E-01
 cg2d: Sum(rhs),rhsMax =  -6.43010644729713E-12  3.57055572265278E-01
 cg2d: Sum(rhs),rhsMax =  -6.42155773000752E-12  3.57359789825452E-01
 cg2d: Sum(rhs),rhsMax =  -6.41361963538145E-12  3.57092626993503E-01
 cg2d: Sum(rhs),rhsMax =  -6.41778297172380E-12  3.56113273551203E-01
 cg2d: Sum(rhs),rhsMax =  -6.42452757659839E-12  3.54798444946001E-01
 cg2d: Sum(rhs),rhsMax =  -6.44195807808501E-12  3.52883613057095E-01
 cg2d: Sum(rhs),rhsMax =  -6.49516551654017E-12  3.50333636193814E-01
 cg2d: Sum(rhs),rhsMax =  -6.58470500347619E-12  3.47285860706471E-01
 cg2d: Sum(rhs),rhsMax =  -6.59944321412809E-12  3.43762142959354E-01
 cg2d: Sum(rhs),rhsMax =  -6.65956179091154E-12  3.39760075077607E-01
 cg2d: Sum(rhs),rhsMax =  -6.74210687279242E-12  3.35280527994662E-01
 cg2d: Sum(rhs),rhsMax =  -6.83525458455847E-12  3.30441928905768E-01
 cg2d: Sum(rhs),rhsMax =  -6.95457580413006E-12  3.25147374953564E-01
 cg2d: Sum(rhs),rhsMax =  -7.07522929133120E-12  3.19428166526070E-01
 cg2d: Sum(rhs),rhsMax =  -7.21556148164382E-12  3.13378153405445E-01
 cg2d: Sum(rhs),rhsMax =  -7.38459293714300E-12  3.07004712172487E-01
 cg2d: Sum(rhs),rhsMax =  -7.57166551679234E-12  3.00150768352423E-01
 cg2d: Sum(rhs),rhsMax =  -7.77156117237610E-12  2.92794219131232E-01
 cg2d: Sum(rhs),rhsMax =  -8.00104427156612E-12  2.85097790532826E-01
 cg2d: Sum(rhs),rhsMax =  -8.26039237011855E-12  2.77081327867396E-01
 cg2d: Sum(rhs),rhsMax =  -8.51912984600744E-12  2.68828715482173E-01
 cg2d: Sum(rhs),rhsMax =  -8.81583694933852E-12  2.60297839883593E-01
 cg2d: Sum(rhs),rhsMax =  -9.14079922864630E-12  2.51452736602772E-01
 cg2d: Sum(rhs),rhsMax =  -9.45493683346399E-12  2.42774639360749E-01
 cg2d: Sum(rhs),rhsMax =  -9.80254766247413E-12  2.34770149964249E-01
 cg2d: Sum(rhs),rhsMax =  -9.35201915908124E-12  2.46309622983063E-01
 cg2d: Sum(rhs),rhsMax =  -8.95511442777774E-12  2.57537129728139E-01
 cg2d: Sum(rhs),rhsMax =  -8.61472004842767E-12  2.68160239311117E-01
 cg2d: Sum(rhs),rhsMax =  -8.32306445985864E-12  2.78377826353159E-01
 cg2d: Sum(rhs),rhsMax =  -8.08697553367210E-12  2.88004320764485E-01
 cg2d: Sum(rhs),rhsMax =  -7.84700082689938E-12  2.97039912684886E-01
 cg2d: Sum(rhs),rhsMax =  -7.67419461311647E-12  3.05395513078847E-01
 cg2d: Sum(rhs),rhsMax =  -7.51204654036997E-12  3.13171442390753E-01
 cg2d: Sum(rhs),rhsMax =  -7.36360972197758E-12  3.20287263226160E-01
 cg2d: Sum(rhs),rhsMax =  -7.24009741048803E-12  3.26853131644095E-01
 cg2d: Sum(rhs),rhsMax =  -7.12518932743933E-12  3.32690697812479E-01
 cg2d: Sum(rhs),rhsMax =  -7.03997971029935E-12  3.37874292505886E-01
 cg2d: Sum(rhs),rhsMax =  -6.97147894967998E-12  3.42432953819536E-01
 cg2d: Sum(rhs),rhsMax =  -6.92401691537725E-12  3.46346139661795E-01
 cg2d: Sum(rhs),rhsMax =  -6.90159041027982E-12  3.49609705052682E-01
 cg2d: Sum(rhs),rhsMax =  -6.86622980694551E-12  3.52211252886840E-01
 cg2d: Sum(rhs),rhsMax =  -6.85418388712833E-12  3.54193208497418E-01
 cg2d: Sum(rhs),rhsMax =  -6.87105927710263E-12  3.55557772264804E-01
 cg2d: Sum(rhs),rhsMax =  -6.86467549471104E-12  3.56318554246264E-01
 cg2d: Sum(rhs),rhsMax =  -6.88799017822816E-12  3.56497603237774E-01
 cg2d: Sum(rhs),rhsMax =  -6.92268464774770E-12  3.56085087032883E-01
 cg2d: Sum(rhs),rhsMax =  -6.95654644999877E-12  3.55652024680753E-01
 cg2d: Sum(rhs),rhsMax =  -7.02726765666739E-12  3.53946113650917E-01
 cg2d: Sum(rhs),rhsMax =  -7.08599845467006E-12  3.51670075042760E-01
 cg2d: Sum(rhs),rhsMax =  -7.16732229122385E-12  3.48699973394608E-01
 cg2d: Sum(rhs),rhsMax =  -7.28633819946367E-12  3.45156207469728E-01
 cg2d: Sum(rhs),rhsMax =  -7.38092920116173E-12  3.41084068582629E-01
 cg2d: Sum(rhs),rhsMax =  -7.51715356628324E-12  3.36503162213173E-01
 cg2d: Sum(rhs),rhsMax =  -7.66348096092884E-12  3.31353265746450E-01
 cg2d: Sum(rhs),rhsMax =  -7.80953079981828E-12  3.25764249668068E-01
 cg2d: Sum(rhs),rhsMax =  -7.98761057296815E-12  3.19754235762344E-01
 cg2d: Sum(rhs),rhsMax =  -8.18095591270662E-12  3.13305308658219E-01
 cg2d: Sum(rhs),rhsMax =  -8.39156522047801E-12  3.06410852050248E-01
 cg2d: Sum(rhs),rhsMax =  -8.60633786459175E-12  2.99134916069094E-01
 cg2d: Sum(rhs),rhsMax =  -8.84553541524724E-12  2.92183592455225E-01
 cg2d: Sum(rhs),rhsMax =  -9.11998254693458E-12  2.83619314087893E-01
 cg2d: Sum(rhs),rhsMax =  -9.38243926995597E-12  2.75760722973272E-01
 cg2d: Sum(rhs),rhsMax =  -9.68547464452740E-12  2.67490931767119E-01
 cg2d: Sum(rhs),rhsMax =  -9.99988980510125E-12  2.58922645214411E-01
 cg2d: Sum(rhs),rhsMax =  -1.03024255793116E-11  2.50108323278714E-01
 cg2d: Sum(rhs),rhsMax =  -1.06253894571751E-11  2.41049327862799E-01
 cg2d: Sum(rhs),rhsMax =  -1.09603437437045E-11  2.31710068260302E-01
 cg2d: Sum(rhs),rhsMax =  -1.07031050688988E-11  2.34924927747420E-01
 cg2d: Sum(rhs),rhsMax =  -1.01354480364080E-11  2.45872052433650E-01
 cg2d: Sum(rhs),rhsMax =  -9.68336522078062E-12  2.56396097823781E-01
 cg2d: Sum(rhs),rhsMax =  -9.26492216279939E-12  2.66439477903591E-01
 cg2d: Sum(rhs),rhsMax =  -8.90332252367898E-12  2.75919393303284E-01
 cg2d: Sum(rhs),rhsMax =  -8.56381632274861E-12  2.84839372465877E-01
 cg2d: Sum(rhs),rhsMax =  -8.28159762988889E-12  2.93177400368542E-01
 cg2d: Sum(rhs),rhsMax =  -8.03468402921226E-12  3.00725427463460E-01
 cg2d: Sum(rhs),rhsMax =  -7.75302044786486E-12  3.07915953530415E-01
 cg2d: Sum(rhs),rhsMax =  -7.50699502560792E-12  3.14337644350347E-01
 cg2d: Sum(rhs),rhsMax =  -7.27978788361838E-12  3.20066397024347E-01
 cg2d: Sum(rhs),rhsMax =  -7.04075686641659E-12  3.26691243830494E-01
 cg2d: Sum(rhs),rhsMax =  -6.95504764891552E-12  3.30592507403872E-01
 cg2d: Sum(rhs),rhsMax =  -6.89420742716607E-12  3.33999601369282E-01
 cg2d: Sum(rhs),rhsMax =  -6.83947343205205E-12  3.36908416543486E-01
 cg2d: Sum(rhs),rhsMax =  -6.75548506023915E-12  3.39349495257793E-01
 cg2d: Sum(rhs),rhsMax =  -6.59811094649854E-12  3.40984793061252E-01
 cg2d: Sum(rhs),rhsMax =  -6.44950759465246E-12  3.41986997473040E-01
 cg2d: Sum(rhs),rhsMax =  -6.30306917770440E-12  3.42395831129293E-01
 cg2d: Sum(rhs),rhsMax =  -6.17683681980452E-12  3.42165677048824E-01
 cg2d: Sum(rhs),rhsMax =  -6.05210326298788E-12  3.41282625357708E-01
 cg2d: Sum(rhs),rhsMax =  -5.98637805993008E-12  3.39865287648415E-01
 cg2d: Sum(rhs),rhsMax =  -5.95712368323120E-12  3.37943531517327E-01
 cg2d: Sum(rhs),rhsMax =  -6.00286487184576E-12  3.35465153239400E-01
 cg2d: Sum(rhs),rhsMax =  -6.09157169151331E-12  3.32456308542833E-01
 cg2d: Sum(rhs),rhsMax =  -6.16040551904007E-12  3.29141856736205E-01
 cg2d: Sum(rhs),rhsMax =  -6.21214191198760E-12  3.25254210128566E-01
 cg2d: Sum(rhs),rhsMax =  -6.31794616623438E-12  3.20911489602687E-01
 cg2d: Sum(rhs),rhsMax =  -6.41253716793244E-12  3.16060587062731E-01
 cg2d: Sum(rhs),rhsMax =  -6.52766729558607E-12  3.10863111518952E-01
 cg2d: Sum(rhs),rhsMax =  -6.65500987651058E-12  3.05254450112474E-01
 cg2d: Sum(rhs),rhsMax =  -6.78024303368829E-12  2.99339876855553E-01
 cg2d: Sum(rhs),rhsMax =  -6.95288271401751E-12  2.93085907705414E-01
 cg2d: Sum(rhs),rhsMax =  -7.07489622442381E-12  2.86438929603852E-01
 cg2d: Sum(rhs),rhsMax =  -7.15394410377712E-12  2.79475688132883E-01
 cg2d: Sum(rhs),rhsMax =  -7.21611659315613E-12  2.72116371166858E-01
 cg2d: Sum(rhs),rhsMax =  -7.32780502943342E-12  2.64442431396632E-01
 cg2d: Sum(rhs),rhsMax =  -7.47457651328887E-12  2.56489029820216E-01
 cg2d: Sum(rhs),rhsMax =  -7.63344942811273E-12  2.48491777159786E-01
 cg2d: Sum(rhs),rhsMax =  -7.83517695168712E-12  2.40256664287005E-01
 cg2d: Sum(rhs),rhsMax =  -8.05033817385947E-12  2.32210479994978E-01
 cg2d: Sum(rhs),rhsMax =  -8.03845878749598E-12  2.31127591713794E-01
 cg2d: Sum(rhs),rhsMax =  -8.04334376880433E-12  2.29610746728635E-01
 cg2d: Sum(rhs),rhsMax =  -8.02635735652757E-12  2.27603186329070E-01
 cg2d: Sum(rhs),rhsMax =  -7.68995978006615E-12  2.35584951488064E-01
 cg2d: Sum(rhs),rhsMax =  -7.30759897038524E-12  2.45270842815272E-01
 cg2d: Sum(rhs),rhsMax =  -7.02193858614919E-12  2.54492681823391E-01
 cg2d: Sum(rhs),rhsMax =  -6.71218636227877E-12  2.63181089288127E-01
 cg2d: Sum(rhs),rhsMax =  -6.45217212991156E-12  2.71304183650110E-01
 cg2d: Sum(rhs),rhsMax =  -6.09978734189554E-12  2.78939446958900E-01
 cg2d: Sum(rhs),rhsMax =  -5.79525316624085E-12  2.85986635499262E-01
 cg2d: Sum(rhs),rhsMax =  -5.50126610932011E-12  2.92430475842797E-01
 cg2d: Sum(rhs),rhsMax =  -5.26512167198234E-12  2.98208435428031E-01
 cg2d: Sum(rhs),rhsMax =  -5.06594766136459E-12  3.03430685297326E-01
 cg2d: Sum(rhs),rhsMax =  -4.86233275864834E-12  3.08126905634946E-01
 cg2d: Sum(rhs),rhsMax =  -4.70024019705306E-12  3.12248787124668E-01
 cg2d: Sum(rhs),rhsMax =  -4.55768756069119E-12  3.15825071090747E-01
 cg2d: Sum(rhs),rhsMax =  -4.45266046256165E-12  3.18798356417060E-01
 cg2d: Sum(rhs),rhsMax =  -4.38160618898564E-12  3.21176387808880E-01
 cg2d: Sum(rhs),rhsMax =  -4.29944968516338E-12  3.23134652590390E-01
 cg2d: Sum(rhs),rhsMax =  -4.26947366349850E-12  3.24511083311586E-01
 cg2d: Sum(rhs),rhsMax =  -4.29323243622548E-12  3.25229222237348E-01
 cg2d: Sum(rhs),rhsMax =  -4.31954472190910E-12  3.25481227487605E-01
 cg2d: Sum(rhs),rhsMax =  -4.38937775015802E-12  3.25283373490566E-01
 cg2d: Sum(rhs),rhsMax =  -4.43822756324153E-12  3.24591506154259E-01
 cg2d: Sum(rhs),rhsMax =  -4.51583215266282E-12  3.23441996476330E-01
 cg2d: Sum(rhs),rhsMax =  -4.57778259743691E-12  3.21886177383908E-01
 cg2d: Sum(rhs),rhsMax =  -4.67059724229557E-12  3.19856222771524E-01
 cg2d: Sum(rhs),rhsMax =  -4.75752770512372E-12  3.17301810886221E-01
 cg2d: Sum(rhs),rhsMax =  -4.88764584360979E-12  3.14329319728970E-01
 cg2d: Sum(rhs),rhsMax =  -5.00666175184961E-12  3.11187937237816E-01
 cg2d: Sum(rhs),rhsMax =  -5.12778708383621E-12  3.07681659379594E-01
 cg2d: Sum(rhs),rhsMax =  -5.27411447848181E-12  3.03760592049744E-01
 cg2d: Sum(rhs),rhsMax =  -5.40301137164079E-12  2.99569998214792E-01
 cg2d: Sum(rhs),rhsMax =  -5.57109913756904E-12  2.95086993185705E-01
 cg2d: Sum(rhs),rhsMax =  -5.75273162439771E-12  2.90235411450713E-01
 cg2d: Sum(rhs),rhsMax =  -5.94480020765786E-12  2.85142508543671E-01
 cg2d: Sum(rhs),rhsMax =  -6.13509243407862E-12  2.79837212589836E-01
 cg2d: Sum(rhs),rhsMax =  -6.38755714987838E-12  2.73994162175148E-01
 cg2d: Sum(rhs),rhsMax =  -6.59239329792172E-12  2.67841349220334E-01
 cg2d: Sum(rhs),rhsMax =  -6.87905288287993E-12  2.61351109763104E-01
 cg2d: Sum(rhs),rhsMax =  -7.10997927200197E-12  2.54606534020084E-01
 cg2d: Sum(rhs),rhsMax =  -7.34778904387667E-12  2.47665020531662E-01
 cg2d: Sum(rhs),rhsMax =  -7.64055485547033E-12  2.40566623197656E-01
 cg2d: Sum(rhs),rhsMax =  -7.77922171124601E-12  2.37962614466669E-01
 cg2d: Sum(rhs),rhsMax =  -7.94198040665606E-12  2.36782157070162E-01
 cg2d: Sum(rhs),rhsMax =  -8.08264566387606E-12  2.35140898567171E-01
 cg2d: Sum(rhs),rhsMax =  -8.24751378303290E-12  2.33001596137274E-01
 cg2d: Sum(rhs),rhsMax =  -8.22752976858965E-12  2.36861557464320E-01
 cg2d: Sum(rhs),rhsMax =  -7.98927590750509E-12  2.47234534155137E-01
 cg2d: Sum(rhs),rhsMax =  -7.73581199098317E-12  2.57148840571417E-01
 cg2d: Sum(rhs),rhsMax =  -7.49644790687398E-12  2.66639661983640E-01
 cg2d: Sum(rhs),rhsMax =  -7.34479144171019E-12  2.75583411438272E-01
 cg2d: Sum(rhs),rhsMax =  -7.11775083317434E-12  2.84058164528125E-01
 cg2d: Sum(rhs),rhsMax =  -6.93378687799395E-12  2.92068503969304E-01
 cg2d: Sum(rhs),rhsMax =  -6.65034693980715E-12  2.99646029247007E-01
 cg2d: Sum(rhs),rhsMax =  -6.37290220595332E-12  3.06586203113935E-01
 cg2d: Sum(rhs),rhsMax =  -6.08535444257541E-12  3.12983834018960E-01
 cg2d: Sum(rhs),rhsMax =  -5.76694247911291E-12  3.18904862337000E-01
 cg2d: Sum(rhs),rhsMax =  -5.49038592367879E-12  3.24109842014476E-01
 cg2d: Sum(rhs),rhsMax =  -5.35438360316220E-12  3.28859151383508E-01
 cg2d: Sum(rhs),rhsMax =  -5.24225107767506E-12  3.32966063278263E-01
 cg2d: Sum(rhs),rhsMax =  -4.98101559998076E-12  3.36552011481223E-01
 cg2d: Sum(rhs),rhsMax =  -4.73410199930413E-12  3.39531831170530E-01
 cg2d: Sum(rhs),rhsMax =  -4.53959092538980E-12  3.41783130416936E-01
 cg2d: Sum(rhs),rhsMax =  -4.32631708235931E-12  3.43783496775804E-01
 cg2d: Sum(rhs),rhsMax =  -4.25459667496852E-12  3.45516322689563E-01
 cg2d: Sum(rhs),rhsMax =  -4.22262225185932E-12  3.46081093037947E-01
 cg2d: Sum(rhs),rhsMax =  -4.21584989140911E-12  3.46340634308643E-01
 cg2d: Sum(rhs),rhsMax =  -4.21962464969283E-12  3.46190886673802E-01
 cg2d: Sum(rhs),rhsMax =  -4.21296331154508E-12  3.45545613396846E-01
 cg2d: Sum(rhs),rhsMax =  -4.26192414693105E-12  3.44586167915049E-01
 cg2d: Sum(rhs),rhsMax =  -4.31743529816231E-12  3.43393908694334E-01
 cg2d: Sum(rhs),rhsMax =  -4.38860059404078E-12  3.41501700897327E-01
 cg2d: Sum(rhs),rhsMax =  -4.45887771149955E-12  3.39566849803546E-01
 cg2d: Sum(rhs),rhsMax =  -4.54236648295137E-12  3.36656106882407E-01
 cg2d: Sum(rhs),rhsMax =  -4.61453097955200E-12  3.33284093942989E-01
 cg2d: Sum(rhs),rhsMax =  -4.69291272509054E-12  3.29420796044610E-01
 cg2d: Sum(rhs),rhsMax =  -4.79627448868314E-12  3.25052653607376E-01
 cg2d: Sum(rhs),rhsMax =  -4.89153162419598E-12  3.20195564577164E-01
 cg2d: Sum(rhs),rhsMax =  -5.06550357215474E-12  3.14827235373231E-01
 cg2d: Sum(rhs),rhsMax =  -5.23225907045344E-12  3.08942264501201E-01
 cg2d: Sum(rhs),rhsMax =  -5.43420863863275E-12  3.02626659069444E-01
 cg2d: Sum(rhs),rhsMax =  -5.70643532427084E-12  2.95928399237131E-01
 cg2d: Sum(rhs),rhsMax =  -5.94146953858399E-12  2.88803354911393E-01
 cg2d: Sum(rhs),rhsMax =  -6.23168183722100E-12  2.81361827715582E-01
 cg2d: Sum(rhs),rhsMax =  -6.48703313288479E-12  2.73669980700185E-01
 cg2d: Sum(rhs),rhsMax =  -6.78024303368829E-12  2.65758715044034E-01
 cg2d: Sum(rhs),rhsMax =  -7.08888503453409E-12  2.58926859501955E-01
 cg2d: Sum(rhs),rhsMax =  -7.42395034336596E-12  2.49925826084753E-01
 cg2d: Sum(rhs),rhsMax =  -7.69595498439912E-12  2.42716661144462E-01
 cg2d: Sum(rhs),rhsMax =  -7.49489359463951E-12  2.48874910970604E-01
 cg2d: Sum(rhs),rhsMax =  -7.06268377115293E-12  2.60881741601515E-01
 cg2d: Sum(rhs),rhsMax =  -6.69553301690939E-12  2.72446628973082E-01
 cg2d: Sum(rhs),rhsMax =  -6.36835029155236E-12  2.83644003543586E-01
 cg2d: Sum(rhs),rhsMax =  -6.07314198930453E-12  2.94217410868943E-01
 cg2d: Sum(rhs),rhsMax =  -5.80840930908266E-12  3.04332246489372E-01
 cg2d: Sum(rhs),rhsMax =  -5.56743540158777E-12  3.13859138689793E-01
 cg2d: Sum(rhs),rhsMax =  -5.38191713417291E-12  3.22997945314311E-01
 cg2d: Sum(rhs),rhsMax =  -5.27683452489214E-12  3.31433160955678E-01
 cg2d: Sum(rhs),rhsMax =  -5.25773868886859E-12  3.39385553066325E-01
 cg2d: Sum(rhs),rhsMax =  -5.24152943270906E-12  3.46703334088448E-01
 cg2d: Sum(rhs),rhsMax =  -5.27172749897886E-12  3.53340497264185E-01
 cg2d: Sum(rhs),rhsMax =  -5.32213162429684E-12  3.58980565812313E-01
 cg2d: Sum(rhs),rhsMax =  -5.35449462546467E-12  3.64517299304013E-01
 cg2d: Sum(rhs),rhsMax =  -5.40023581407922E-12  3.68899516033538E-01
 cg2d: Sum(rhs),rhsMax =  -5.46773737397643E-12  3.72775250651071E-01
 cg2d: Sum(rhs),rhsMax =  -5.52902168493574E-12  3.75980197511335E-01
 cg2d: Sum(rhs),rhsMax =  -5.59396973187631E-12  3.78565952199028E-01
 cg2d: Sum(rhs),rhsMax =  -5.67285107777593E-12  3.80633541219494E-01
 cg2d: Sum(rhs),rhsMax =  -5.76549918918090E-12  3.82022039620144E-01
 cg2d: Sum(rhs),rhsMax =  -5.84599035846622E-12  3.82686712916290E-01
 cg2d: Sum(rhs),rhsMax =  -5.95684612747505E-12  3.82702386602359E-01
 cg2d: Sum(rhs),rhsMax =  -6.06914518641588E-12  3.82102647147535E-01
 cg2d: Sum(rhs),rhsMax =  -6.13153972039981E-12  3.81090749592357E-01
 cg2d: Sum(rhs),rhsMax =  -6.26243501500312E-12  3.79157169341905E-01
 cg2d: Sum(rhs),rhsMax =  -6.41103836684920E-12  3.76902484701667E-01
 cg2d: Sum(rhs),rhsMax =  -6.54837295499533E-12  3.73942162746188E-01
 cg2d: Sum(rhs),rhsMax =  -6.69686528453894E-12  3.70489848997001E-01
 cg2d: Sum(rhs),rhsMax =  -6.88510359836414E-12  3.66282688387185E-01
 cg2d: Sum(rhs),rhsMax =  -7.01455560303543E-12  3.61619418075114E-01
 cg2d: Sum(rhs),rhsMax =  -7.22927273599794E-12  3.56466636944878E-01
 cg2d: Sum(rhs),rhsMax =  -7.45420392078699E-12  3.50847358183655E-01
 cg2d: Sum(rhs),rhsMax =  -7.70972174990447E-12  3.44589836708839E-01
 cg2d: Sum(rhs),rhsMax =  -7.98827670678293E-12  3.37789053139662E-01
 cg2d: Sum(rhs),rhsMax =  -8.27987678420072E-12  3.30572773032749E-01
 cg2d: Sum(rhs),rhsMax =  -8.53783710397238E-12  3.22878640186757E-01
 cg2d: Sum(rhs),rhsMax =  -8.80845396622476E-12  3.14680872816845E-01
 cg2d: Sum(rhs),rhsMax =  -9.10099773321349E-12  3.06362969666943E-01
 cg2d: Sum(rhs),rhsMax =  -9.42035338624692E-12  2.97598743442578E-01
 cg2d: Sum(rhs),rhsMax =  -9.78545022789490E-12  2.88553744232947E-01
 cg2d: Sum(rhs),rhsMax =  -1.01633146343261E-11  2.79205440674284E-01
 cg2d: Sum(rhs),rhsMax =  -1.05948583239979E-11  2.69654568612677E-01
 cg2d: Sum(rhs),rhsMax =  -1.10515485651774E-11  2.60040877886403E-01
 cg2d: Sum(rhs),rhsMax =  -1.15380482945682E-11  2.50350083516239E-01
 cg2d: Sum(rhs),rhsMax =  -1.11783915457409E-11  2.59385018738420E-01
 cg2d: Sum(rhs),rhsMax =  -1.07578390640128E-11  2.71240509387256E-01
 cg2d: Sum(rhs),rhsMax =  -1.03806963025477E-11  2.82600181330722E-01
 cg2d: Sum(rhs),rhsMax =  -1.00437991257252E-11  2.93460856560566E-01
 cg2d: Sum(rhs),rhsMax =  -9.75686198501080E-12  3.03710682270363E-01
 cg2d: Sum(rhs),rhsMax =  -9.58216839208603E-12  3.13404671929907E-01
 cg2d: Sum(rhs),rhsMax =  -9.43473077441581E-12  3.22403524835058E-01
 cg2d: Sum(rhs),rhsMax =  -9.31155152983365E-12  3.30891463233598E-01
 cg2d: Sum(rhs),rhsMax =  -9.19975207125390E-12  3.38840838774611E-01
 cg2d: Sum(rhs),rhsMax =  -9.10443942458983E-12  3.46134833310906E-01
 cg2d: Sum(rhs),rhsMax =  -9.03038754884733E-12  3.52780916983046E-01
 cg2d: Sum(rhs),rhsMax =  -8.98031649043673E-12  3.58727897650167E-01
 cg2d: Sum(rhs),rhsMax =  -8.95319929306027E-12  3.64009613659997E-01
 cg2d: Sum(rhs),rhsMax =  -8.90443274670361E-12  3.70115651779285E-01
 cg2d: Sum(rhs),rhsMax =  -8.93057849893353E-12  3.73731721510481E-01
 cg2d: Sum(rhs),rhsMax =  -8.95905571951516E-12  3.76304972392658E-01
 cg2d: Sum(rhs),rhsMax =  -9.00968188943807E-12  3.78374651593270E-01
 cg2d: Sum(rhs),rhsMax =  -9.06563712987918E-12  3.79909224321569E-01
 cg2d: Sum(rhs),rhsMax =  -9.12891984228281E-12  3.81016082617433E-01
 cg2d: Sum(rhs),rhsMax =  -9.20569176443564E-12  3.81533074404496E-01
 cg2d: Sum(rhs),rhsMax =  -9.29867294274800E-12  3.81298875751414E-01
 cg2d: Sum(rhs),rhsMax =  -9.40963973405928E-12  3.80424026290373E-01
 cg2d: Sum(rhs),rhsMax =  -9.54256118568253E-12  3.78793734738060E-01
 cg2d: Sum(rhs),rhsMax =  -9.67440016985677E-12  3.76681637426228E-01
 cg2d: Sum(rhs),rhsMax =  -9.82075532007798E-12  3.74304421972233E-01
 cg2d: Sum(rhs),rhsMax =  -9.99159088799217E-12  3.71415676620976E-01
 cg2d: Sum(rhs),rhsMax =  -1.01686714604199E-11  3.68047595317772E-01
 cg2d: Sum(rhs),rhsMax =  -1.03641262239051E-11  3.64060864896689E-01
 cg2d: Sum(rhs),rhsMax =  -1.05877806522159E-11  3.59408837010271E-01
 cg2d: Sum(rhs),rhsMax =  -1.08160702616544E-11  3.54627023393178E-01
 cg2d: Sum(rhs),rhsMax =  -1.10594033930766E-11  3.49570691834718E-01
 cg2d: Sum(rhs),rhsMax =  -1.13412890190290E-11  3.44037531026773E-01
 cg2d: Sum(rhs),rhsMax =  -1.16289478047094E-11  3.38196277644872E-01
 cg2d: Sum(rhs),rhsMax =  -1.19415033417170E-11  3.32012743587006E-01
 cg2d: Sum(rhs),rhsMax =  -1.22779286737540E-11  3.25588128110092E-01
 cg2d: Sum(rhs),rhsMax =  -1.26417765144993E-11  3.18704543725251E-01
 cg2d: Sum(rhs),rhsMax =  -1.30434274492330E-11  3.11407900364221E-01
 cg2d: Sum(rhs),rhsMax =  -1.34880162594442E-11  3.03837106379326E-01
 cg2d: Sum(rhs),rhsMax =  -1.39886713323989E-11  2.95619473679035E-01
 cg2d: Sum(rhs),rhsMax =  -1.45118084216023E-11  2.87264593805761E-01
 cg2d: Sum(rhs),rhsMax =  -1.49844858743364E-11  2.78896890988151E-01
 cg2d: Sum(rhs),rhsMax =  -1.54937729313076E-11  2.70575476045224E-01
 cg2d: Sum(rhs),rhsMax =  -1.60332858101242E-11  2.62017350866521E-01
 cg2d: Sum(rhs),rhsMax =  -1.66257008160642E-11  2.53295407157470E-01
 cg2d: Sum(rhs),rhsMax =  -1.72776515316997E-11  2.44406654235611E-01
 cg2d: Sum(rhs),rhsMax =  -1.79803394395606E-11  2.35456552232898E-01
 cg2d: Sum(rhs),rhsMax =  -1.77513836963072E-11  2.39162479649032E-01
 cg2d: Sum(rhs),rhsMax =  -1.70293501522423E-11  2.49985606346031E-01
 cg2d: Sum(rhs),rhsMax =  -1.64390723256247E-11  2.59788122169543E-01
 cg2d: Sum(rhs),rhsMax =  -1.59010304923157E-11  2.69047250810913E-01
 cg2d: Sum(rhs),rhsMax =  -1.54358470449978E-11  2.77860464902724E-01
 cg2d: Sum(rhs),rhsMax =  -1.50263690379404E-11  2.86144028141617E-01
 cg2d: Sum(rhs),rhsMax =  -1.47579171105860E-11  2.93930067065264E-01
 cg2d: Sum(rhs),rhsMax =  -1.45304601684160E-11  3.01195164404462E-01
 cg2d: Sum(rhs),rhsMax =  -1.43430822774349E-11  3.07935223401555E-01
 cg2d: Sum(rhs),rhsMax =  -1.41814060494738E-11  3.14125027098348E-01
 cg2d: Sum(rhs),rhsMax =  -1.40688571903524E-11  3.19809509216608E-01
 cg2d: Sum(rhs),rhsMax =  -1.39706857194000E-11  3.24982088055206E-01
 cg2d: Sum(rhs),rhsMax =  -1.39006861576974E-11  3.29641387547015E-01
 cg2d: Sum(rhs),rhsMax =  -1.38543343464193E-11  3.33792359909047E-01
 cg2d: Sum(rhs),rhsMax =  -1.38224154344613E-11  3.37328652596755E-01
 cg2d: Sum(rhs),rhsMax =  -1.38258848814132E-11  3.40351026114627E-01
 cg2d: Sum(rhs),rhsMax =  -1.38472844302129E-11  3.42870754520795E-01
 cg2d: Sum(rhs),rhsMax =  -1.38780653635706E-11  3.44934677619345E-01
 cg2d: Sum(rhs),rhsMax =  -1.39160905021640E-11  3.46440795048271E-01
 cg2d: Sum(rhs),rhsMax =  -1.39531997067621E-11  3.47525967345049E-01
 cg2d: Sum(rhs),rhsMax =  -1.39137590338123E-11  3.48107295523308E-01
 cg2d: Sum(rhs),rhsMax =  -1.38098421587074E-11  3.48167335849126E-01
 cg2d: Sum(rhs),rhsMax =  -1.37131139776869E-11  3.47822313796962E-01
 cg2d: Sum(rhs),rhsMax =  -1.37667655053519E-11  3.47034681399521E-01
 cg2d: Sum(rhs),rhsMax =  -1.38571654151320E-11  3.45799811510607E-01
 cg2d: Sum(rhs),rhsMax =  -1.39833700174563E-11  3.44180962432392E-01
 cg2d: Sum(rhs),rhsMax =  -1.41267830766623E-11  3.42173108347379E-01
 cg2d: Sum(rhs),rhsMax =  -1.43028644483678E-11  3.39827920862035E-01
 cg2d: Sum(rhs),rhsMax =  -1.44807499324884E-11  3.37121300967729E-01
 cg2d: Sum(rhs),rhsMax =  -1.46937184641871E-11  3.34126427240894E-01
 cg2d: Sum(rhs),rhsMax =  -1.49177892261321E-11  3.30500424951420E-01
 cg2d: Sum(rhs),rhsMax =  -1.51677004289752E-11  3.26742927303225E-01
 cg2d: Sum(rhs),rhsMax =  -1.54221913017949E-11  3.22814577363291E-01
 cg2d: Sum(rhs),rhsMax =  -1.56946400320379E-11  3.18665655342291E-01
 cg2d: Sum(rhs),rhsMax =  -1.59891822004710E-11  3.14255548074923E-01
 cg2d: Sum(rhs),rhsMax =  -1.62871105491291E-11  3.09642601751849E-01
 cg2d: Sum(rhs),rhsMax =  -1.66005820201320E-11  3.04742318258189E-01
 cg2d: Sum(rhs),rhsMax =  -1.69151359585840E-11  2.99650304638369E-01
 cg2d: Sum(rhs),rhsMax =  -1.72544201149094E-11  2.94286966644998E-01
 cg2d: Sum(rhs),rhsMax =  -1.75948422498351E-11  2.88719978651271E-01
 cg2d: Sum(rhs),rhsMax =  -1.79750936357692E-11  2.82973966545995E-01
 cg2d: Sum(rhs),rhsMax =  -1.83580928236893E-11  2.77105184925602E-01
 cg2d: Sum(rhs),rhsMax =  -1.87851956212626E-11  2.71038655095269E-01
 cg2d: Sum(rhs),rhsMax =  -1.92486582228923E-11  2.64866999966979E-01
 cg2d: Sum(rhs),rhsMax =  -1.97484528730030E-11  2.58602127206798E-01
 cg2d: Sum(rhs),rhsMax =  -2.02803052129497E-11  2.52273222541162E-01
 cg2d: Sum(rhs),rhsMax =  -2.08101313958764E-11  2.45891468613771E-01
 cg2d: Sum(rhs),rhsMax =  -2.13548900784843E-11  2.39501554907609E-01
 cg2d: Sum(rhs),rhsMax =  -2.19446683047408E-11  2.33092872500051E-01
 cg2d: Sum(rhs),rhsMax =  -2.25560126132507E-11  2.26757200403215E-01
 cg2d: Sum(rhs),rhsMax =  -2.31973884545766E-11  2.20450108117364E-01
 cg2d: Sum(rhs),rhsMax =  -2.25739427150984E-11  2.26501110429934E-01
 cg2d: Sum(rhs),rhsMax =  -2.17722506690166E-11  2.34877121035669E-01
 cg2d: Sum(rhs),rhsMax =  -2.10497175245905E-11  2.42927696682943E-01
 cg2d: Sum(rhs),rhsMax =  -2.04002925663360E-11  2.50547720329016E-01
 cg2d: Sum(rhs),rhsMax =  -1.98397409612028E-11  2.57853246186956E-01
 cg2d: Sum(rhs),rhsMax =  -1.93267069015235E-11  2.64822693426016E-01
 cg2d: Sum(rhs),rhsMax =  -1.88867255168645E-11  2.71351661488437E-01
 cg2d: Sum(rhs),rhsMax =  -1.84733062180698E-11  2.77581926678619E-01
 cg2d: Sum(rhs),rhsMax =  -1.81233916762835E-11  2.83391368744279E-01
 cg2d: Sum(rhs),rhsMax =  -1.77898251685349E-11  2.88788451528225E-01
 cg2d: Sum(rhs),rhsMax =  -1.75010839154055E-11  2.93835606578472E-01
 cg2d: Sum(rhs),rhsMax =  -1.72518666019528E-11  2.98403085848768E-01
 cg2d: Sum(rhs),rhsMax =  -1.70316261094428E-11  3.02713623139224E-01
(PID.TID 0000.0001)      cg2d_init_res =   6.30522206629410E-02
(PID.TID 0000.0001)      cg2d_iters(min,last) =      -1      29
(PID.TID 0000.0001)      cg2d_last_res =   4.83349826014980E-14
(PID.TID 0000.0001) // =======================================================
(PID.TID 0000.0001) // Begin MONITOR dynamic field statistics
(PID.TID 0000.0001) // =======================================================
(PID.TID 0000.0001) %MON time_tsnumber                =                  1440
(PID.TID 0000.0001) %MON time_secondsf                =   2.1600000000000E+04
(PID.TID 0000.0001) %MON dynstat_eta_max              =   1.0373543908920E-02
(PID.TID 0000.0001) %MON dynstat_eta_min              =  -2.7696325519789E-02
(PID.TID 0000.0001) %MON dynstat_eta_mean             =   5.9725481850774E-15
(PID.TID 0000.0001) %MON dynstat_eta_sd               =   7.3846631249619E-03
(PID.TID 0000.0001) %MON dynstat_eta_del2             =   2.1487048698738E-04
(PID.TID 0000.0001) %MON dynstat_uvel_max             =   1.5625933836069E+00
(PID.TID 0000.0001) %MON dynstat_uvel_min             =  -6.8555790604216E-01
(PID.TID 0000.0001) %MON dynstat_uvel_mean            =   7.2220002949240E-04
(PID.TID 0000.0001) %MON dynstat_uvel_sd              =   9.5306709866037E-02
(PID.TID 0000.0001) %MON dynstat_uvel_del2            =   4.7922616288281E-04
(PID.TID 0000.0001) %MON dynstat_vvel_max             =   0.0000000000000E+00
(PID.TID 0000.0001) %MON dynstat_vvel_min             =   0.0000000000000E+00
(PID.TID 0000.0001) %MON dynstat_vvel_mean            =   0.0000000000000E+00
(PID.TID 0000.0001) %MON dynstat_vvel_sd              =   0.0000000000000E+00
(PID.TID 0000.0001) %MON dynstat_vvel_del2            =   0.0000000000000E+00
(PID.TID 0000.0001) %MON dynstat_wvel_max             =   8.0112851717678E-02
(PID.TID 0000.0001) %MON dynstat_wvel_min             =  -4.2231441522375E-02
(PID.TID 0000.0001) %MON dynstat_wvel_mean            =  -3.6810659304473E-20
(PID.TID 0000.0001) %MON dynstat_wvel_sd              =   3.5153454508163E-03
(PID.TID 0000.0001) %MON dynstat_wvel_del2            =   7.5572305261233E-05
(PID.TID 0000.0001) %MON dynstat_theta_max            =   1.5000000000377E+01
(PID.TID 0000.0001) %MON dynstat_theta_min            =   9.9999999999956E+00
(PID.TID 0000.0001) %MON dynstat_theta_mean           =   1.2728667806673E+01
(PID.TID 0000.0001) %MON dynstat_theta_sd             =   2.4335493061189E+00
(PID.TID 0000.0001) %MON dynstat_theta_del2           =   1.8924834888859E-03
(PID.TID 0000.0001) %MON dynstat_salt_max             =   3.5000000000000E+01
(PID.TID 0000.0001) %MON dynstat_salt_min             =   3.5000000000000E+01
(PID.TID 0000.0001) %MON dynstat_salt_mean            =   3.5000000000000E+01
(PID.TID 0000.0001) %MON dynstat_salt_sd              =   1.0658141036402E-13
(PID.TID 0000.0001) %MON dynstat_salt_del2            =   0.0000000000000E+00
(PID.TID 0000.0001) %MON dynstat_sst_max              =   1.5000000000002E+01
(PID.TID 0000.0001) %MON dynstat_sst_min              =   1.4999846767770E+01
(PID.TID 0000.0001) %MON dynstat_sst_mean             =   1.4999998661611E+01
(PID.TID 0000.0001) %MON dynstat_sst_sd               =   1.2493723008107E-05
(PID.TID 0000.0001) %MON dynstat_sst_del2             =   4.5240550438303E-07
(PID.TID 0000.0001) %MON dynstat_sss_max              =   3.5000000000000E+01
(PID.TID 0000.0001) %MON dynstat_sss_min              =   3.5000000000000E+01
(PID.TID 0000.0001) %MON dynstat_sss_mean             =   3.5000000000000E+01
(PID.TID 0000.0001) %MON dynstat_sss_sd               =   4.2632564145606E-14
(PID.TID 0000.0001) %MON dynstat_sss_del2             =   0.0000000000000E+00
(PID.TID 0000.0001) %MON forcing_qnet_max             =   0.0000000000000E+00
(PID.TID 0000.0001) %MON forcing_qnet_min             =   0.0000000000000E+00
(PID.TID 0000.0001) %MON forcing_qnet_mean            =   0.0000000000000E+00
(PID.TID 0000.0001) %MON forcing_qnet_sd              =   0.0000000000000E+00
(PID.TID 0000.0001) %MON forcing_qnet_del2            =   0.0000000000000E+00
(PID.TID 0000.0001) %MON forcing_qsw_max              =   0.0000000000000E+00
(PID.TID 0000.0001) %MON forcing_qsw_min              =   0.0000000000000E+00
(PID.TID 0000.0001) %MON forcing_qsw_mean             =   0.0000000000000E+00
(PID.TID 0000.0001) %MON forcing_qsw_sd               =   0.0000000000000E+00
(PID.TID 0000.0001) %MON forcing_qsw_del2             =   0.0000000000000E+00
(PID.TID 0000.0001) %MON forcing_empmr_max            =   0.0000000000000E+00
(PID.TID 0000.0001) %MON forcing_empmr_min            =   0.0000000000000E+00
(PID.TID 0000.0001) %MON forcing_empmr_mean           =   0.0000000000000E+00
(PID.TID 0000.0001) %MON forcing_empmr_sd             =   0.0000000000000E+00
(PID.TID 0000.0001) %MON forcing_empmr_del2           =   0.0000000000000E+00
(PID.TID 0000.0001) %MON forcing_fu_max               =   0.0000000000000E+00
(PID.TID 0000.0001) %MON forcing_fu_min               =   0.0000000000000E+00
(PID.TID 0000.0001) %MON forcing_fu_mean              =   0.0000000000000E+00
(PID.TID 0000.0001) %MON forcing_fu_sd                =   0.0000000000000E+00
(PID.TID 0000.0001) %MON forcing_fu_del2              =   0.0000000000000E+00
(PID.TID 0000.0001) %MON forcing_fv_max               =   0.0000000000000E+00
(PID.TID 0000.0001) %MON forcing_fv_min               =   0.0000000000000E+00
(PID.TID 0000.0001) %MON forcing_fv_mean              =   0.0000000000000E+00
(PID.TID 0000.0001) %MON forcing_fv_sd                =   0.0000000000000E+00
(PID.TID 0000.0001) %MON forcing_fv_del2              =   0.0000000000000E+00
(PID.TID 0000.0001) %MON advcfl_uvel_max              =   9.1189097810918E-02
(PID.TID 0000.0001) %MON advcfl_vvel_max              =   0.0000000000000E+00
(PID.TID 0000.0001) %MON advcfl_wvel_max              =   4.3219977399384E-01
(PID.TID 0000.0001) %MON advcfl_W_hf_max              =   4.3690185002439E-01
(PID.TID 0000.0001) %MON pe_b_mean                    =   1.5308573831440E-06
(PID.TID 0000.0001) %MON ke_max                       =   7.0617215301442E-01
(PID.TID 0000.0001) %MON ke_mean                      =   4.5922216663041E-03
(PID.TID 0000.0001) %MON ke_vol                       =   8.5338127039305E+10
(PID.TID 0000.0001) %MON vort_r_min                   =   0.0000000000000E+00
(PID.TID 0000.0001) %MON vort_r_max                   =   0.0000000000000E+00
(PID.TID 0000.0001) %MON vort_a_mean                  =   0.0000000000000E+00
(PID.TID 0000.0001) %MON vort_a_sd                    =   0.0000000000000E+00
(PID.TID 0000.0001) %MON vort_p_mean                  =   0.0000000000000E+00
(PID.TID 0000.0001) %MON vort_p_sd                    =   0.0000000000000E+00
(PID.TID 0000.0001) %MON surfExpan_theta_mean         =   9.3931881615759E-13
(PID.TID 0000.0001) %MON surfExpan_salt_mean          =  -3.3351725501674E-18
(PID.TID 0000.0001) // =======================================================
(PID.TID 0000.0001) // End MONITOR dynamic field statistics
(PID.TID 0000.0001) // =======================================================
(PID.TID 0000.0001) // =======================================================
(PID.TID 0000.0001) // Begin OBCS MONITOR field statistics
(PID.TID 0000.0001) // =======================================================
(PID.TID 0000.0001) %MON obc_E_uVel_max               =   0.0000000000000E+00
(PID.TID 0000.0001) %MON obc_E_uVel_min               =   0.0000000000000E+00
(PID.TID 0000.0001) %MON obc_E_uVel_mean              =   0.0000000000000E+00
(PID.TID 0000.0001) %MON obc_E_uVel_sd                =   0.0000000000000E+00
(PID.TID 0000.0001) %MON obc_E_uVel_Int               =   0.0000000000000E+00
(PID.TID 0000.0001) %MON obc_W_uVel_max               =   0.0000000000000E+00
(PID.TID 0000.0001) %MON obc_W_uVel_min               =   0.0000000000000E+00
(PID.TID 0000.0001) %MON obc_W_uVel_mean              =   0.0000000000000E+00
(PID.TID 0000.0001) %MON obc_W_uVel_sd                =   0.0000000000000E+00
(PID.TID 0000.0001) %MON obc_W_uVel_Int               =   0.0000000000000E+00
(PID.TID 0000.0001) // =======================================================
(PID.TID 0000.0001) // End OBCS MONITOR field statistics
(PID.TID 0000.0001) // =======================================================
(PID.TID 0000.0001) %CHECKPOINT      1440 0000001440
 cg2d: Sum(rhs),rhsMax =  -1.68366709463186E-11  3.06592399411425E-01
 cg2d: Sum(rhs),rhsMax =  -1.66726077388546E-11  3.10104826658173E-01
 cg2d: Sum(rhs),rhsMax =  -1.65213120961738E-11  3.13243831839674E-01
 cg2d: Sum(rhs),rhsMax =  -1.64041835670758E-11  3.15977076413991E-01
 cg2d: Sum(rhs),rhsMax =  -1.63138669240226E-11  3.18311586269537E-01
 cg2d: Sum(rhs),rhsMax =  -1.62279911730678E-11  3.20388657201152E-01
 cg2d: Sum(rhs),rhsMax =  -1.61733959558319E-11  3.22171525373766E-01
 cg2d: Sum(rhs),rhsMax =  -1.61367863515949E-11  3.23603271833605E-01
 cg2d: Sum(rhs),rhsMax =  -1.61313740143498E-11  3.24644487488882E-01
 cg2d: Sum(rhs),rhsMax =  -1.61113622443310E-11  3.25421444356700E-01
 cg2d: Sum(rhs),rhsMax =  -1.61285429456370E-11  3.25889612025337E-01
 cg2d: Sum(rhs),rhsMax =  -1.61389235309173E-11  3.26088862339684E-01
 cg2d: Sum(rhs),rhsMax =  -1.61619051475270E-11  3.25974450077027E-01
 cg2d: Sum(rhs),rhsMax =  -1.62194147002026E-11  3.25578889139205E-01
 cg2d: Sum(rhs),rhsMax =  -1.62491686772626E-11  3.24908057890885E-01
 cg2d: Sum(rhs),rhsMax =  -1.63122848562125E-11  3.23988829827535E-01
 cg2d: Sum(rhs),rhsMax =  -1.63771218808506E-11  3.22827452538884E-01
 cg2d: Sum(rhs),rhsMax =  -1.64444013961429E-11  3.21402573150585E-01
 cg2d: Sum(rhs),rhsMax =  -1.65081281977564E-11  3.19753807708069E-01
 cg2d: Sum(rhs),rhsMax =  -1.65822910958013E-11  3.17966942354605E-01
 cg2d: Sum(rhs),rhsMax =  -1.66637814658088E-11  3.15896459769963E-01
 cg2d: Sum(rhs),rhsMax =  -1.67675318074600E-11  3.13372246800345E-01
 cg2d: Sum(rhs),rhsMax =  -1.68494107555262E-11  3.11334361462382E-01
 cg2d: Sum(rhs),rhsMax =  -1.69491642942887E-11  3.08988737383408E-01
 cg2d: Sum(rhs),rhsMax =  -1.70763958529108E-11  3.06357367121053E-01
 cg2d: Sum(rhs),rhsMax =  -1.72079572813288E-11  3.03791641537367E-01
 cg2d: Sum(rhs),rhsMax =  -1.73711045547975E-11  3.00727729300496E-01
 cg2d: Sum(rhs),rhsMax =  -1.75471304153518E-11  2.97405240667699E-01
 cg2d: Sum(rhs),rhsMax =  -1.77426962011396E-11  2.93860171004531E-01
 cg2d: Sum(rhs),rhsMax =  -1.79452563919824E-11  2.89996406702186E-01
 cg2d: Sum(rhs),rhsMax =  -1.81806791843542E-11  2.85913899151112E-01
 cg2d: Sum(rhs),rhsMax =  -1.84272597181234E-11  2.81614047893094E-01
 cg2d: Sum(rhs),rhsMax =  -1.86834436810557E-11  2.77097738381162E-01
 cg2d: Sum(rhs),rhsMax =  -1.89576687681381E-11  2.72434298704582E-01
 cg2d: Sum(rhs),rhsMax =  -1.92558191614012E-11  2.67670489971464E-01
 cg2d: Sum(rhs),rhsMax =  -1.95560234672598E-11  2.62784593421060E-01
 cg2d: Sum(rhs),rhsMax =  -1.98032146236926E-11  2.58651105237140E-01
 cg2d: Sum(rhs),rhsMax =  -2.02006744665084E-11  2.53098682672168E-01
 cg2d: Sum(rhs),rhsMax =  -2.06896166865533E-11  2.48697225384164E-01
 cg2d: Sum(rhs),rhsMax =  -2.11392570115265E-11  2.44074610540864E-01
 cg2d: Sum(rhs),rhsMax =  -2.16064388602888E-11  2.39184098286826E-01
 cg2d: Sum(rhs),rhsMax =  -2.20783391569057E-11  2.34145824992403E-01
 cg2d: Sum(rhs),rhsMax =  -2.20120588423356E-11  2.35000034804451E-01
 cg2d: Sum(rhs),rhsMax =  -2.12826423151569E-11  2.42817275245537E-01
 cg2d: Sum(rhs),rhsMax =  -2.06479833231299E-11  2.50351980223090E-01
 cg2d: Sum(rhs),rhsMax =  -2.00597871646835E-11  2.57578887168801E-01
 cg2d: Sum(rhs),rhsMax =  -1.95123917023921E-11  2.64571854832850E-01
 cg2d: Sum(rhs),rhsMax =  -1.89993021315615E-11  2.71202428088224E-01
 cg2d: Sum(rhs),rhsMax =  -1.85502724292519E-11  2.77198472493929E-01
 cg2d: Sum(rhs),rhsMax =  -1.81468728932543E-11  2.83297534092607E-01
 cg2d: Sum(rhs),rhsMax =  -1.77463599371208E-11  2.88612317399511E-01
 cg2d: Sum(rhs),rhsMax =  -1.74101288941131E-11  2.93742286375128E-01
 cg2d: Sum(rhs),rhsMax =  -1.71173630825194E-11  2.98564295351192E-01
 cg2d: Sum(rhs),rhsMax =  -1.68448033299740E-11  3.03045842566728E-01
 cg2d: Sum(rhs),rhsMax =  -1.65867319878998E-11  3.07155782730237E-01
 cg2d: Sum(rhs),rhsMax =  -1.63722368995423E-11  3.10954283781850E-01
 cg2d: Sum(rhs),rhsMax =  -1.61812230281555E-11  3.14477432127489E-01
 cg2d: Sum(rhs),rhsMax =  -1.60150781525203E-11  3.17529133664089E-01
 cg2d: Sum(rhs),rhsMax =  -1.58539292804960E-11  3.20394516879135E-01
 cg2d: Sum(rhs),rhsMax =  -1.57293622571331E-11  3.22852989950191E-01
 cg2d: Sum(rhs),rhsMax =  -1.56167856424361E-11  3.24871598881191E-01
 cg2d: Sum(rhs),rhsMax =  -1.55093715648036E-11  3.26588083558395E-01
 cg2d: Sum(rhs),rhsMax =  -1.54334878210705E-11  3.28079596716418E-01
 cg2d: Sum(rhs),rhsMax =  -1.53621004805871E-11  3.29093080360350E-01
 cg2d: Sum(rhs),rhsMax =  -1.53206336506173E-11  3.29720185015452E-01
 cg2d: Sum(rhs),rhsMax =  -1.52858281587953E-11  3.30176335128375E-01
 cg2d: Sum(rhs),rhsMax =  -1.52710066814166E-11  3.30160496038965E-01
 cg2d: Sum(rhs),rhsMax =  -1.52818313559067E-11  3.29757362719610E-01
 cg2d: Sum(rhs),rhsMax =  -1.52995949243007E-11  3.29032720995375E-01
 cg2d: Sum(rhs),rhsMax =  -1.53393964197335E-11  3.28054352177318E-01
 cg2d: Sum(rhs),rhsMax =  -1.53543844305659E-11  3.26698609794722E-01
 cg2d: Sum(rhs),rhsMax =  -1.54227186577316E-11  3.24996233820451E-01
 cg2d: Sum(rhs),rhsMax =  -1.55322421591109E-11  3.22785289514692E-01
 cg2d: Sum(rhs),rhsMax =  -1.57787671817289E-11  3.20299851693332E-01
 cg2d: Sum(rhs),rhsMax =  -1.58704160924117E-11  3.17586726577752E-01
 cg2d: Sum(rhs),rhsMax =  -1.59802171495471E-11  3.14545658457405E-01
 cg2d: Sum(rhs),rhsMax =  -1.61081148419839E-11  3.11293809475165E-01
 cg2d: Sum(rhs),rhsMax =  -1.62510005452532E-11  3.07740198864009E-01
 cg2d: Sum(rhs),rhsMax =  -1.64317448536622E-11  3.03775838539402E-01
 cg2d: Sum(rhs),rhsMax =  -1.66477942542542E-11  2.99468029532449E-01
 cg2d: Sum(rhs),rhsMax =  -1.69031455499180E-11  2.94677416894225E-01
 cg2d: Sum(rhs),rhsMax =  -1.71787029046300E-11  2.89565275358940E-01
 cg2d: Sum(rhs),rhsMax =  -1.74651404449833E-11  2.84220763961750E-01
 cg2d: Sum(rhs),rhsMax =  -1.77772241372054E-11  2.78703757000038E-01
 cg2d: Sum(rhs),rhsMax =  -1.81223924755614E-11  2.72917155656001E-01
 cg2d: Sum(rhs),rhsMax =  -1.85154114262787E-11  2.67010402930558E-01
 cg2d: Sum(rhs),rhsMax =  -1.89409599116175E-11  2.60835544821561E-01
 cg2d: Sum(rhs),rhsMax =  -1.94314564438969E-11  2.54436605271370E-01
 cg2d: Sum(rhs),rhsMax =  -1.99285032920216E-11  2.47815958563094E-01
 cg2d: Sum(rhs),rhsMax =  -2.05379047102383E-11  2.40996127437055E-01
 cg2d: Sum(rhs),rhsMax =  -2.11342054967645E-11  2.34095216105121E-01
 cg2d: Sum(rhs),rhsMax =  -2.18096651849464E-11  2.27061845442663E-01
 cg2d: Sum(rhs),rhsMax =  -2.23808749311161E-11  2.21472694984625E-01
 cg2d: Sum(rhs),rhsMax =  -2.17506013200364E-11  2.28205569178867E-01
 cg2d: Sum(rhs),rhsMax =  -2.10103046072163E-11  2.36116151342964E-01
 cg2d: Sum(rhs),rhsMax =  -2.04009031889996E-11  2.43666842127838E-01
 cg2d: Sum(rhs),rhsMax =  -1.98181471233738E-11  2.50816098650737E-01
 cg2d: Sum(rhs),rhsMax =  -1.93498550515869E-11  2.57652950570137E-01
 cg2d: Sum(rhs),rhsMax =  -1.88906668086020E-11  2.64013749509943E-01
 cg2d: Sum(rhs),rhsMax =  -1.84783299772562E-11  2.70042175184040E-01
 cg2d: Sum(rhs),rhsMax =  -1.81297199475239E-11  2.75730017403808E-01
 cg2d: Sum(rhs),rhsMax =  -1.77676762191936E-11  2.81024083292779E-01
 cg2d: Sum(rhs),rhsMax =  -1.74837921917970E-11  2.85768301970811E-01
 cg2d: Sum(rhs),rhsMax =  -1.72146741306278E-11  2.90148372519194E-01
 cg2d: Sum(rhs),rhsMax =  -1.69899649904437E-11  2.94149250894760E-01
 cg2d: Sum(rhs),rhsMax =  -1.68116631726889E-11  2.97735231025341E-01
 cg2d: Sum(rhs),rhsMax =  -1.66303637527676E-11  3.00946030440163E-01
 cg2d: Sum(rhs),rhsMax =  -1.64480651321242E-11  3.03862599628044E-01
 cg2d: Sum(rhs),rhsMax =  -1.63297153576991E-11  3.06278173262748E-01
 cg2d: Sum(rhs),rhsMax =  -1.62254654156868E-11  3.08266049166392E-01
 cg2d: Sum(rhs),rhsMax =  -1.61426427780498E-11  3.09838581874187E-01
 cg2d: Sum(rhs),rhsMax =  -1.60788049541338E-11  3.11128645725434E-01
 cg2d: Sum(rhs),rhsMax =  -1.60365054568956E-11  3.11976370331996E-01
 cg2d: Sum(rhs),rhsMax =  -1.60067514798357E-11  3.12516975632256E-01
 cg2d: Sum(rhs),rhsMax =  -1.59947610711697E-11  3.12627156457564E-01
 cg2d: Sum(rhs),rhsMax =  -1.58916213521820E-11  3.14407221539490E-01
 cg2d: Sum(rhs),rhsMax =  -1.59707802538378E-11  3.12464609179088E-01
 cg2d: Sum(rhs),rhsMax =  -1.60571556051536E-11  3.11013489892816E-01
 cg2d: Sum(rhs),rhsMax =  -1.61330948600380E-11  3.09435855287578E-01
 cg2d: Sum(rhs),rhsMax =  -1.61927138364604E-11  3.07496480396446E-01
 cg2d: Sum(rhs),rhsMax =  -1.63237201533661E-11  3.05223128513588E-01
 cg2d: Sum(rhs),rhsMax =  -1.64436242400257E-11  3.02572688592951E-01
 cg2d: Sum(rhs),rhsMax =  -1.66106017829293E-11  2.99605444744579E-01
 cg2d: Sum(rhs),rhsMax =  -1.67591496236241E-11  2.96412844798616E-01
 cg2d: Sum(rhs),rhsMax =  -1.69128044902322E-11  2.93135376245604E-01
 cg2d: Sum(rhs),rhsMax =  -1.70993219583693E-11  2.89659297340060E-01
 cg2d: Sum(rhs),rhsMax =  -1.72380998364474E-11  2.85922374273759E-01
 cg2d: Sum(rhs),rhsMax =  -1.74535941255272E-11  2.81867986113890E-01
 cg2d: Sum(rhs),rhsMax =  -1.76652026340207E-11  2.77627771152425E-01
 cg2d: Sum(rhs),rhsMax =  -1.78874692835507E-11  2.73178827651286E-01
 cg2d: Sum(rhs),rhsMax =  -1.81400450216529E-11  2.68499140582283E-01
 cg2d: Sum(rhs),rhsMax =  -1.84112725065688E-11  2.63616939259620E-01
 cg2d: Sum(rhs),rhsMax =  -1.87383442096234E-11  2.58573176835972E-01
 cg2d: Sum(rhs),rhsMax =  -1.90969462465773E-11  2.53326922249642E-01
 cg2d: Sum(rhs),rhsMax =  -1.95462535046431E-11  2.47763929370911E-01
 cg2d: Sum(rhs),rhsMax =  -2.00114369519611E-11  2.42058134709766E-01
 cg2d: Sum(rhs),rhsMax =  -2.05141459375113E-11  2.36210482547868E-01
 cg2d: Sum(rhs),rhsMax =  -2.09096073788828E-11  2.31330197870131E-01
 cg2d: Sum(rhs),rhsMax =  -2.09001704831735E-11  2.31244380241097E-01
 cg2d: Sum(rhs),rhsMax =  -2.09169348508453E-11  2.30814056957297E-01
 cg2d: Sum(rhs),rhsMax =  -2.09849915222549E-11  2.30231349020163E-01
 cg2d: Sum(rhs),rhsMax =  -2.10643724685156E-11  2.29284497476235E-01
 cg2d: Sum(rhs),rhsMax =  -2.11340944744620E-11  2.28017983613831E-01
 cg2d: Sum(rhs),rhsMax =  -2.13027373519026E-11  2.26493720662631E-01
 cg2d: Sum(rhs),rhsMax =  -2.14334106019010E-11  2.24684412231563E-01
 cg2d: Sum(rhs),rhsMax =  -2.16232587391119E-11  2.22544801012547E-01
 cg2d: Sum(rhs),rhsMax =  -2.16990869716938E-11  2.21918533025179E-01
 cg2d: Sum(rhs),rhsMax =  -2.10536033051767E-11  2.28994760905175E-01
 cg2d: Sum(rhs),rhsMax =  -2.04618544330515E-11  2.35685876119199E-01
 cg2d: Sum(rhs),rhsMax =  -1.99508187748165E-11  2.42002670303713E-01
 cg2d: Sum(rhs),rhsMax =  -1.94868565728257E-11  2.48037461042137E-01
 cg2d: Sum(rhs),rhsMax =  -1.90587545745302E-11  2.53771001702279E-01
 cg2d: Sum(rhs),rhsMax =  -1.86535231705420E-11  2.59359145782990E-01
 cg2d: Sum(rhs),rhsMax =  -1.83276727128145E-11  2.64424456097643E-01
 cg2d: Sum(rhs),rhsMax =  -1.80282455630731E-11  2.69093548225452E-01
 cg2d: Sum(rhs),rhsMax =  -1.77724501781995E-11  2.73359062941385E-01
 cg2d: Sum(rhs),rhsMax =  -1.75396364099356E-11  2.77238601432580E-01
 cg2d: Sum(rhs),rhsMax =  -1.73471237374656E-11  2.80794076574631E-01
 cg2d: Sum(rhs),rhsMax =  -1.71863634434999E-11  2.84002547246390E-01
 cg2d: Sum(rhs),rhsMax =  -1.70532477028473E-11  2.86863552664912E-01
 cg2d: Sum(rhs),rhsMax =  -1.69517733183966E-11  2.89380237682010E-01
 cg2d: Sum(rhs),rhsMax =  -1.68671743239202E-11  2.91568934741142E-01
 cg2d: Sum(rhs),rhsMax =  -1.67770242143206E-11  2.93438677086934E-01
 cg2d: Sum(rhs),rhsMax =  -1.67109659443554E-11  2.95164706127211E-01
 cg2d: Sum(rhs),rhsMax =  -1.66539004808897E-11  2.96765204035720E-01
 cg2d: Sum(rhs),rhsMax =  -1.66182623217992E-11  2.98019195014825E-01
 cg2d: Sum(rhs),rhsMax =  -1.65765179360733E-11  2.98951676803216E-01
 cg2d: Sum(rhs),rhsMax =  -1.65727431777896E-11  2.99611454430649E-01
 cg2d: Sum(rhs),rhsMax =  -1.65643054828024E-11  2.99913200990615E-01
 cg2d: Sum(rhs),rhsMax =  -1.65875091440171E-11  2.99896651786973E-01
 cg2d: Sum(rhs),rhsMax =  -1.66209268570583E-11  2.99609449563886E-01
 cg2d: Sum(rhs),rhsMax =  -1.68607350303773E-11  2.95926725312282E-01
 cg2d: Sum(rhs),rhsMax =  -1.68921543419742E-11  2.95393361687261E-01
 cg2d: Sum(rhs),rhsMax =  -1.70077285588377E-11  2.94072980629218E-01
 cg2d: Sum(rhs),rhsMax =  -1.70660152676305E-11  2.92873541751025E-01
 cg2d: Sum(rhs),rhsMax =  -1.70996550252767E-11  2.91340610731227E-01
 cg2d: Sum(rhs),rhsMax =  -1.71391789649533E-11  2.89522547861831E-01
 cg2d: Sum(rhs),rhsMax =  -1.72327707659292E-11  2.87470671419869E-01
 cg2d: Sum(rhs),rhsMax =  -1.74095182714495E-11  2.85197772325112E-01
 cg2d: Sum(rhs),rhsMax =  -1.76125780626535E-11  2.82780725194691E-01
 cg2d: Sum(rhs),rhsMax =  -1.78359549352081E-11  2.80174770553506E-01
 cg2d: Sum(rhs),rhsMax =  -1.80228054702525E-11  2.77361612507889E-01
 cg2d: Sum(rhs),rhsMax =  -1.81826775857985E-11  2.74385151325575E-01
 cg2d: Sum(rhs),rhsMax =  -1.83171255940806E-11  2.71263837382762E-01
 cg2d: Sum(rhs),rhsMax =  -1.84737780628552E-11  2.68020308660336E-01
 cg2d: Sum(rhs),rhsMax =  -1.86741733188001E-11  2.64590764428860E-01
 cg2d: Sum(rhs),rhsMax =  -1.89226412317112E-11  2.60970222078825E-01
 cg2d: Sum(rhs),rhsMax =  -1.91370252977663E-11  2.57208423897129E-01
 cg2d: Sum(rhs),rhsMax =  -1.93700611106351E-11  2.53303066407203E-01
 cg2d: Sum(rhs),rhsMax =  -1.95750082809809E-11  2.49302669831196E-01
 cg2d: Sum(rhs),rhsMax =  -1.97959426628813E-11  2.45107163493968E-01
 cg2d: Sum(rhs),rhsMax =  -2.00860439392159E-11  2.40802035799955E-01
 cg2d: Sum(rhs),rhsMax =  -2.03176364621527E-11  2.36385157678981E-01
 cg2d: Sum(rhs),rhsMax =  -2.07112105243823E-11  2.31931582784495E-01
 cg2d: Sum(rhs),rhsMax =  -2.12236894725493E-11  2.27420594570408E-01
 cg2d: Sum(rhs),rhsMax =  -2.16657802809550E-11  2.23322716871493E-01
 cg2d: Sum(rhs),rhsMax =  -2.17661444423811E-11  2.22974913053272E-01
 cg2d: Sum(rhs),rhsMax =  -2.19401163903399E-11  2.22352936672032E-01
 cg2d: Sum(rhs),rhsMax =  -2.20600204769994E-11  2.21482932546440E-01
 cg2d: Sum(rhs),rhsMax =  -2.22331042465385E-11  2.20397103447162E-01
 cg2d: Sum(rhs),rhsMax =  -2.24069651721948E-11  2.19074229690287E-01
 cg2d: Sum(rhs),rhsMax =  -2.25510721207911E-11  2.17481081045936E-01
 cg2d: Sum(rhs),rhsMax =  -2.26321184015887E-11  2.15633474494270E-01
 cg2d: Sum(rhs),rhsMax =  -2.27439178601685E-11  2.13528706431256E-01
 cg2d: Sum(rhs),rhsMax =  -2.21599405492157E-11  2.17867371906955E-01
 cg2d: Sum(rhs),rhsMax =  -2.13974393759031E-11  2.24202945763504E-01
 cg2d: Sum(rhs),rhsMax =  -2.07267536467270E-11  2.30260538231412E-01
 cg2d: Sum(rhs),rhsMax =  -2.01132444033192E-11  2.36037444896176E-01
 cg2d: Sum(rhs),rhsMax =  -1.95459204377357E-11  2.41537579609849E-01
 cg2d: Sum(rhs),rhsMax =  -1.90717441839183E-11  2.46682910848926E-01
 cg2d: Sum(rhs),rhsMax =  -1.86894943965399E-11  2.51552375798182E-01
 cg2d: Sum(rhs),rhsMax =  -1.83355552962894E-11  2.56171987205068E-01
 cg2d: Sum(rhs),rhsMax =  -1.79851689097177E-11  2.60529512701832E-01
 cg2d: Sum(rhs),rhsMax =  -1.76392234152445E-11  2.64635251107439E-01
 cg2d: Sum(rhs),rhsMax =  -1.73073777531840E-11  2.68474728573038E-01
 cg2d: Sum(rhs),rhsMax =  -1.69673164407413E-11  2.71978320679061E-01
 cg2d: Sum(rhs),rhsMax =  -1.66751057406600E-11  2.75121709224676E-01
 cg2d: Sum(rhs),rhsMax =  -1.64294688964617E-11  2.77966083866391E-01
 cg2d: Sum(rhs),rhsMax =  -1.61945457044510E-11  2.80570293033357E-01
 cg2d: Sum(rhs),rhsMax =  -1.59652291387147E-11  2.82914417480576E-01
 cg2d: Sum(rhs),rhsMax =  -1.57627799701743E-11  2.84957233321775E-01
 cg2d: Sum(rhs),rhsMax =  -1.55750967678614E-11  2.86756768390904E-01
 cg2d: Sum(rhs),rhsMax =  -1.54136703400809E-11  2.88182728861838E-01
 cg2d: Sum(rhs),rhsMax =  -1.52722834378949E-11  2.89354365470860E-01
 cg2d: Sum(rhs),rhsMax =  -1.51531565073526E-11  2.90348051543637E-01
 cg2d: Sum(rhs),rhsMax =  -1.50209289451197E-11  2.91126495422811E-01
 cg2d: Sum(rhs),rhsMax =  -1.49008028138553E-11  2.91632821139982E-01
 cg2d: Sum(rhs),rhsMax =  -1.48066003902159E-11  2.91955760240813E-01
 cg2d: Sum(rhs),rhsMax =  -1.47334366928931E-11  2.92083332332651E-01
 cg2d: Sum(rhs),rhsMax =  -1.46350154217600E-11  2.92048893294477E-01
 cg2d: Sum(rhs),rhsMax =  -1.45775613802357E-11  2.91793332962426E-01
 cg2d: Sum(rhs),rhsMax =  -1.45054523947863E-11  2.91330332830008E-01
 cg2d: Sum(rhs),rhsMax =  -1.44788625533465E-11  2.90719290683229E-01
 cg2d: Sum(rhs),rhsMax =  -1.45105039095483E-11  2.89909585508118E-01
 cg2d: Sum(rhs),rhsMax =  -1.45559120312555E-11  2.88854297401735E-01
 cg2d: Sum(rhs),rhsMax =  -1.46582745941259E-11  2.87717227900141E-01
 cg2d: Sum(rhs),rhsMax =  -1.47775680581219E-11  2.86483571105878E-01
 cg2d: Sum(rhs),rhsMax =  -1.48981382785962E-11  2.85020287227139E-01
 cg2d: Sum(rhs),rhsMax =  -1.50285894839897E-11  2.83419394150707E-01
 cg2d: Sum(rhs),rhsMax =  -1.51608170462225E-11  2.81746554870597E-01
 cg2d: Sum(rhs),rhsMax =  -1.53074219966243E-11  2.79918557008089E-01
 cg2d: Sum(rhs),rhsMax =  -1.54488644099615E-11  2.77997325192666E-01
 cg2d: Sum(rhs),rhsMax =  -1.56157309305627E-11  2.75938329947183E-01
 cg2d: Sum(rhs),rhsMax =  -1.57965862612741E-11  2.73850095149228E-01
 cg2d: Sum(rhs),rhsMax =  -1.59622870476994E-11  2.71617476107237E-01
 cg2d: Sum(rhs),rhsMax =  -1.61570201662187E-11  2.69232808361815E-01
 cg2d: Sum(rhs),rhsMax =  -1.63495328386887E-11  2.66784451394679E-01
 cg2d: Sum(rhs),rhsMax =  -1.65489844050626E-11  2.64176331408960E-01
 cg2d: Sum(rhs),rhsMax =  -1.67713065657438E-11  2.61468002821650E-01
 cg2d: Sum(rhs),rhsMax =  -1.70135017185657E-11  2.58664391412079E-01
 cg2d: Sum(rhs),rhsMax =  -1.72651892782483E-11  2.55782702420830E-01
 cg2d: Sum(rhs),rhsMax =  -1.75400249879942E-11  2.52866621167280E-01
 cg2d: Sum(rhs),rhsMax =  -1.78076997592314E-11  2.49866411890368E-01
 cg2d: Sum(rhs),rhsMax =  -1.80829795581872E-11  2.46792385143884E-01
 cg2d: Sum(rhs),rhsMax =  -1.83119075458649E-11  2.43741335557803E-01
 cg2d: Sum(rhs),rhsMax =  -1.84703363714789E-11  2.40707275450801E-01
 cg2d: Sum(rhs),rhsMax =  -1.86196058571397E-11  2.37670561889400E-01
 cg2d: Sum(rhs),rhsMax =  -1.87768134374267E-11  2.34622517696020E-01
 cg2d: Sum(rhs),rhsMax =  -1.89375737313924E-11  2.31584432809147E-01
 cg2d: Sum(rhs),rhsMax =  -1.91400228999328E-11  2.28568682716385E-01
 cg2d: Sum(rhs),rhsMax =  -1.93514648749726E-11  2.25571715403906E-01
 cg2d: Sum(rhs),rhsMax =  -1.95518046197662E-11  2.22598284768169E-01
 cg2d: Sum(rhs),rhsMax =  -1.98128735640068E-11  2.19682925696473E-01
 cg2d: Sum(rhs),rhsMax =  -2.00623406776401E-11  2.16761901182851E-01
 cg2d: Sum(rhs),rhsMax =  -2.03312366942043E-11  2.13882308393286E-01
 cg2d: Sum(rhs),rhsMax =  -2.05861994118095E-11  2.11048295055923E-01
 cg2d: Sum(rhs),rhsMax =  -2.02516892144899E-11  2.14399128417570E-01
 cg2d: Sum(rhs),rhsMax =  -1.97773464272188E-11  2.19682108656827E-01
 cg2d: Sum(rhs),rhsMax =  -1.92828530920508E-11  2.24733995905835E-01
 cg2d: Sum(rhs),rhsMax =  -1.88181692450939E-11  2.29538217217425E-01
 cg2d: Sum(rhs),rhsMax =  -1.83886794680177E-11  2.34175276321579E-01
 cg2d: Sum(rhs),rhsMax =  -1.80112591507964E-11  2.38552010673052E-01
 cg2d: Sum(rhs),rhsMax =  -1.76194059342549E-11  2.42729615529108E-01
 cg2d: Sum(rhs),rhsMax =  -1.72908909412683E-11  2.46684571077357E-01
 cg2d: Sum(rhs),rhsMax =  -1.69932401483663E-11  2.50438145125558E-01
 cg2d: Sum(rhs),rhsMax =  -1.67291180908080E-11  2.53998359466700E-01
 cg2d: Sum(rhs),rhsMax =  -1.64825930681900E-11  2.57313054780931E-01
 cg2d: Sum(rhs),rhsMax =  -1.62707070039403E-11  2.60378968319470E-01
 cg2d: Sum(rhs),rhsMax =  -1.60736979282206E-11  2.63261989132327E-01
 cg2d: Sum(rhs),rhsMax =  -1.58960622442805E-11  2.65961843559457E-01
 cg2d: Sum(rhs),rhsMax =  -1.57430180003360E-11  2.68467100069011E-01
 cg2d: Sum(rhs),rhsMax =  -1.55878088214934E-11  2.70778914995645E-01
 cg2d: Sum(rhs),rhsMax =  -1.54501411664398E-11  2.72888240014216E-01
 cg2d: Sum(rhs),rhsMax =  -1.53202173169831E-11  2.74804368900260E-01
 cg2d: Sum(rhs),rhsMax =  -1.51931522918147E-11  2.76551039909686E-01
 cg2d: Sum(rhs),rhsMax =  -1.50865708814507E-11  2.78131192779534E-01
 cg2d: Sum(rhs),rhsMax =  -1.49773249358276E-11  2.79577631264849E-01
 cg2d: Sum(rhs),rhsMax =  -1.48842327352128E-11  2.80782275856656E-01
 cg2d: Sum(rhs),rhsMax =  -1.48129841726075E-11  2.81839654273961E-01
 cg2d: Sum(rhs),rhsMax =  -1.47394874083773E-11  2.82703193745335E-01
 cg2d: Sum(rhs),rhsMax =  -1.46700707137626E-11  2.83484437918515E-01
 cg2d: Sum(rhs),rhsMax =  -1.45928824579755E-11  2.84117311343361E-01
 cg2d: Sum(rhs),rhsMax =  -1.45471412693610E-11  2.84583395891859E-01
 cg2d: Sum(rhs),rhsMax =  -1.44848577576795E-11  2.84954123570416E-01
 cg2d: Sum(rhs),rhsMax =  -1.44335099427906E-11  2.85213183030286E-01
 cg2d: Sum(rhs),rhsMax =  -1.43829670395945E-11  2.85315039450034E-01
 cg2d: Sum(rhs),rhsMax =  -1.43320355583398E-11  2.85321879591536E-01
 cg2d: Sum(rhs),rhsMax =  -1.42936495972634E-11  2.85213251709708E-01
 cg2d: Sum(rhs),rhsMax =  -1.42705569583512E-11  2.84980833297318E-01
 cg2d: Sum(rhs),rhsMax =  -1.42358069776805E-11  2.84707337161198E-01
 cg2d: Sum(rhs),rhsMax =  -1.42247047474342E-11  2.84324860500721E-01
 cg2d: Sum(rhs),rhsMax =  -1.42302558625573E-11  2.83849704705407E-01
 cg2d: Sum(rhs),rhsMax =  -1.41378297957573E-11  2.83372391378277E-01
 cg2d: Sum(rhs),rhsMax =  -1.41168188250163E-11  2.82812802432693E-01
 cg2d: Sum(rhs),rhsMax =  -1.40757128175295E-11  2.82181555907043E-01
 cg2d: Sum(rhs),rhsMax =  -1.40396860803804E-11  2.81507697794437E-01
 cg2d: Sum(rhs),rhsMax =  -1.40065181675197E-11  2.80759243353575E-01
 cg2d: Sum(rhs),rhsMax =  -1.39784295249967E-11  2.79977851500155E-01
 cg2d: Sum(rhs),rhsMax =  -1.39815659050413E-11  2.79112052273669E-01
 cg2d: Sum(rhs),rhsMax =  -1.39554479083870E-11  2.78181248795935E-01
 cg2d: Sum(rhs),rhsMax =  -1.39065148285766E-11  2.77188221424085E-01
 cg2d: Sum(rhs),rhsMax =  -1.38770939184241E-11  2.76125863099998E-01
 cg2d: Sum(rhs),rhsMax =  -1.38445088726513E-11  2.74983962544560E-01
 cg2d: Sum(rhs),rhsMax =  -1.38203892774413E-11  2.73808737790502E-01
 cg2d: Sum(rhs),rhsMax =  -1.37962419266557E-11  2.72620304836123E-01
 cg2d: Sum(rhs),rhsMax =  -1.37901634555959E-11  2.71312056963874E-01
 cg2d: Sum(rhs),rhsMax =  -1.37688471735231E-11  2.70014570322650E-01
 cg2d: Sum(rhs),rhsMax =  -1.37383715514972E-11  2.68704933700715E-01
 cg2d: Sum(rhs),rhsMax =  -1.36969047215274E-11  2.67453498609803E-01
 cg2d: Sum(rhs),rhsMax =  -1.36690936347605E-11  2.66110825715745E-01
 cg2d: Sum(rhs),rhsMax =  -1.36230748903898E-11  2.64824901205804E-01
 cg2d: Sum(rhs),rhsMax =  -1.35930156019981E-11  2.63512376323867E-01
 cg2d: Sum(rhs),rhsMax =  -1.35639832699042E-11  2.62193141851672E-01
 cg2d: Sum(rhs),rhsMax =  -1.35259581313107E-11  2.60895324984483E-01
 cg2d: Sum(rhs),rhsMax =  -1.35069178064384E-11  2.59607916747943E-01
 cg2d: Sum(rhs),rhsMax =  -1.34651734207125E-11  2.58314552762656E-01
 cg2d: Sum(rhs),rhsMax =  -1.34301458842856E-11  2.56973143698654E-01
 cg2d: Sum(rhs),rhsMax =  -1.33912325672725E-11  2.55689972016779E-01
 cg2d: Sum(rhs),rhsMax =  -1.33488775588830E-11  2.54418506022514E-01
 cg2d: Sum(rhs),rhsMax =  -1.32959754317596E-11  2.53118369361460E-01
 cg2d: Sum(rhs),rhsMax =  -1.32533428676140E-11  2.51861168372113E-01
 cg2d: Sum(rhs),rhsMax =  -1.32305832956092E-11  2.50547581408503E-01
 cg2d: Sum(rhs),rhsMax =  -1.31988309171049E-11  2.49212612843382E-01
 cg2d: Sum(rhs),rhsMax =  -1.31615829346288E-11  2.47814525053207E-01
 cg2d: Sum(rhs),rhsMax =  -1.31094579636226E-11  2.46490026606046E-01
 cg2d: Sum(rhs),rhsMax =  -1.30740973602883E-11  2.45174863861403E-01
 cg2d: Sum(rhs),rhsMax =  -1.30174204748812E-11  2.43816170907073E-01
 cg2d: Sum(rhs),rhsMax =  -1.28416721700830E-11  2.44993944702756E-01
 cg2d: Sum(rhs),rhsMax =  -1.25653931704051E-11  2.48625868787800E-01
 cg2d: Sum(rhs),rhsMax =  -1.22949983527576E-11  2.52119514654667E-01
 cg2d: Sum(rhs),rhsMax =  -1.20516929769110E-11  2.55386421853789E-01
 cg2d: Sum(rhs),rhsMax =  -1.18557941242159E-11  2.58505503951080E-01
 cg2d: Sum(rhs),rhsMax =  -1.16450737941420E-11  2.61477870435199E-01
 cg2d: Sum(rhs),rhsMax =  -1.14483422741785E-11  2.64313024610871E-01
 cg2d: Sum(rhs),rhsMax =  -1.12603260049582E-11  2.66972001104000E-01
 cg2d: Sum(rhs),rhsMax =  -1.10655928864389E-11  2.69436711155090E-01
 cg2d: Sum(rhs),rhsMax =  -1.08956177413688E-11  2.71783611106798E-01
 cg2d: Sum(rhs),rhsMax =  -1.07276409977430E-11  2.73981227586028E-01
 cg2d: Sum(rhs),rhsMax =  -1.05550013174138E-11  2.76067629863539E-01
 cg2d: Sum(rhs),rhsMax =  -1.04181108184775E-11  2.78035358317748E-01
 cg2d: Sum(rhs),rhsMax =  -1.02507446975153E-11  2.79843443490260E-01
 cg2d: Sum(rhs),rhsMax =  -1.00915387157841E-11  2.81525484558670E-01
 cg2d: Sum(rhs),rhsMax =  -9.94626603301185E-12  2.83053874676772E-01
 cg2d: Sum(rhs),rhsMax =  -9.79050174265694E-12  2.84462332353871E-01
 cg2d: Sum(rhs),rhsMax =  -9.64517354873351E-12  2.85803046704176E-01
 cg2d: Sum(rhs),rhsMax =  -9.52182777069766E-12  2.87044094877883E-01
 cg2d: Sum(rhs),rhsMax =  -9.36878352675308E-12  2.88161213271586E-01
 cg2d: Sum(rhs),rhsMax =  -9.27496968117225E-12  2.89181793472105E-01
 cg2d: Sum(rhs),rhsMax =  -9.27152798979591E-12  2.90041241230739E-01
 cg2d: Sum(rhs),rhsMax =  -9.24621490483446E-12  2.90853779292031E-01
 cg2d: Sum(rhs),rhsMax =  -9.19786469211203E-12  2.91662578471630E-01
 cg2d: Sum(rhs),rhsMax =  -9.16611231360775E-12  2.92409567531754E-01
 cg2d: Sum(rhs),rhsMax =  -9.09466946197313E-12  2.93085639629979E-01
 cg2d: Sum(rhs),rhsMax =  -9.03233043914042E-12  2.93652892935713E-01
 cg2d: Sum(rhs),rhsMax =  -8.97021346091265E-12  2.94108557612839E-01
 cg2d: Sum(rhs),rhsMax =  -8.91742235609172E-12  2.94523400636885E-01
 cg2d: Sum(rhs),rhsMax =  -8.86729578652989E-12  2.94853877003620E-01
 cg2d: Sum(rhs),rhsMax =  -8.80934214464446E-12  2.95137730986503E-01
 cg2d: Sum(rhs),rhsMax =  -8.78974670825983E-12  2.95269474206661E-01
 cg2d: Sum(rhs),rhsMax =  -8.74589289878713E-12  2.95291435168929E-01
 cg2d: Sum(rhs),rhsMax =  -8.72252270411877E-12  2.95231512355046E-01
 cg2d: Sum(rhs),rhsMax =  -8.69310179396621E-12  2.95087271790508E-01
 cg2d: Sum(rhs),rhsMax =  -8.67433902485004E-12  2.94908125043644E-01
 cg2d: Sum(rhs),rhsMax =  -8.64541771505856E-12  2.94609787978266E-01
 cg2d: Sum(rhs),rhsMax =  -8.66562377410673E-12  2.94231979248823E-01
 cg2d: Sum(rhs),rhsMax =  -8.66090532625208E-12  2.93782733303191E-01
 cg2d: Sum(rhs),rhsMax =  -8.65152394169399E-12  2.93287634851798E-01
 cg2d: Sum(rhs),rhsMax =  -8.65646443415358E-12  2.92764311083291E-01
 cg2d: Sum(rhs),rhsMax =  -8.66234861618409E-12  2.92160945736153E-01
 cg2d: Sum(rhs),rhsMax =  -8.68732863423816E-12  2.91567769223049E-01
 cg2d: Sum(rhs),rhsMax =  -8.71352989761931E-12  2.90912820363152E-01
 cg2d: Sum(rhs),rhsMax =  -8.76709815855747E-12  2.90228202052734E-01
 cg2d: Sum(rhs),rhsMax =  -8.84242679077829E-12  2.89508066865115E-01
 cg2d: Sum(rhs),rhsMax =  -8.92508289496163E-12  2.88734471886686E-01
 cg2d: Sum(rhs),rhsMax =  -8.87029338869638E-12  2.87937054112831E-01
 cg2d: Sum(rhs),rhsMax =  -8.82133255331041E-12  2.87098258737866E-01
 cg2d: Sum(rhs),rhsMax =  -8.76992922727027E-12  2.86223425487724E-01
 cg2d: Sum(rhs),rhsMax =  -8.74489369806497E-12  2.85222803313982E-01
 cg2d: Sum(rhs),rhsMax =  -8.69571081807408E-12  2.84165065755880E-01
 cg2d: Sum(rhs),rhsMax =  -8.64708304959549E-12  2.83094155921330E-01
 cg2d: Sum(rhs),rhsMax =  -8.60278515091295E-12  2.81935948811819E-01
 cg2d: Sum(rhs),rhsMax =  -8.55893134144026E-12  2.80768550453918E-01
 cg2d: Sum(rhs),rhsMax =  -8.51507753196756E-12  2.79585877331363E-01
 cg2d: Sum(rhs),rhsMax =  -8.43475289613593E-12  2.78297790277630E-01
 cg2d: Sum(rhs),rhsMax =  -8.46528402931312E-12  2.76959579118386E-01
 cg2d: Sum(rhs),rhsMax =  -8.47849568330616E-12  2.75553354973701E-01
 cg2d: Sum(rhs),rhsMax =  -8.47166781170472E-12  2.73968139636501E-01
 cg2d: Sum(rhs),rhsMax =  -8.44285752421570E-12  2.72364304572021E-01
 cg2d: Sum(rhs),rhsMax =  -8.41954284069857E-12  2.70677583619825E-01
 cg2d: Sum(rhs),rhsMax =  -8.37085956106876E-12  2.68838675791406E-01
 cg2d: Sum(rhs),rhsMax =  -8.33927371601817E-12  2.67089494984940E-01
 cg2d: Sum(rhs),rhsMax =  -8.12977463127140E-12  2.70975960045277E-01
 cg2d: Sum(rhs),rhsMax =  -7.94547760918363E-12  2.74635680797017E-01
 cg2d: Sum(rhs),rhsMax =  -7.75468578240179E-12  2.78148283109571E-01
 cg2d: Sum(rhs),rhsMax =  -7.57161000564111E-12  2.81525699408345E-01
 cg2d: Sum(rhs),rhsMax =  -7.40651984187934E-12  2.84715368361980E-01
 cg2d: Sum(rhs),rhsMax =  -7.23815452019494E-12  2.87858959872958E-01
 cg2d: Sum(rhs),rhsMax =  -7.06223968194308E-12  2.90691417028274E-01
 cg2d: Sum(rhs),rhsMax =  -6.88521462066660E-12  2.93292393647831E-01
 cg2d: Sum(rhs),rhsMax =  -6.76791955811495E-12  2.95945032635822E-01
 cg2d: Sum(rhs),rhsMax =  -6.62248034188906E-12  2.98261918081453E-01
 cg2d: Sum(rhs),rhsMax =  -6.46743769650016E-12  3.00451205088007E-01
 cg2d: Sum(rhs),rhsMax =  -6.35297370266130E-12  3.02662705382316E-01
 cg2d: Sum(rhs),rhsMax =  -6.25638429951891E-12  3.04457200560239E-01
 cg2d: Sum(rhs),rhsMax =  -6.14308603985592E-12  3.06111981887996E-01
 cg2d: Sum(rhs),rhsMax =  -6.04599703635245E-12  3.07661742950157E-01
 cg2d: Sum(rhs),rhsMax =  -5.96728222390652E-12  3.09102805679492E-01
 cg2d: Sum(rhs),rhsMax =  -5.87208059954492E-12  3.10265671802165E-01
 cg2d: Sum(rhs),rhsMax =  -5.80158143748122E-12  3.11394924108334E-01
 cg2d: Sum(rhs),rhsMax =  -5.74462699631795E-12  3.12373923275288E-01
 cg2d: Sum(rhs),rhsMax =  -5.64165381078396E-12  3.13283447228750E-01
 cg2d: Sum(rhs),rhsMax =  -5.59347013151523E-12  3.13865983078848E-01
 cg2d: Sum(rhs),rhsMax =  -5.52591306046679E-12  3.14359397588466E-01
 cg2d: Sum(rhs),rhsMax =  -5.48738832151230E-12  3.14559927651044E-01
 cg2d: Sum(rhs),rhsMax =  -5.44553291348393E-12  3.14691975279702E-01
 cg2d: Sum(rhs),rhsMax =  -5.38469269173447E-12  3.14766459410691E-01
 cg2d: Sum(rhs),rhsMax =  -5.34361443982334E-12  3.14770131169911E-01
 cg2d: Sum(rhs),rhsMax =  -5.28366239649358E-12  3.14669788089966E-01
 cg2d: Sum(rhs),rhsMax =  -5.23270315966329E-12  3.14409374078871E-01
 cg2d: Sum(rhs),rhsMax =  -5.19939646892453E-12  3.14014148904350E-01
 cg2d: Sum(rhs),rhsMax =  -5.14821518748931E-12  3.13527177057781E-01
 cg2d: Sum(rhs),rhsMax =  -5.13411535507657E-12  3.12958795544056E-01
 cg2d: Sum(rhs),rhsMax =  -5.13145081981747E-12  3.11974863774174E-01
 cg2d: Sum(rhs),rhsMax =  -5.11768405431212E-12  3.10825218746229E-01
 cg2d: Sum(rhs),rhsMax =  -5.07738295851823E-12  3.09692995236083E-01
 cg2d: Sum(rhs),rhsMax =  -5.08892927797433E-12  3.08290235546209E-01
 cg2d: Sum(rhs),rhsMax =  -5.05040453901984E-12  3.06830660126092E-01
 cg2d: Sum(rhs),rhsMax =  -5.03419528286031E-12  3.05222213715722E-01
 cg2d: Sum(rhs),rhsMax =  -5.00754993026931E-12  3.03462542411128E-01
 cg2d: Sum(rhs),rhsMax =  -5.01276797848504E-12  3.01556930435709E-01
 cg2d: Sum(rhs),rhsMax =  -4.96302998698184E-12  2.99469764808641E-01
 cg2d: Sum(rhs),rhsMax =  -4.95703478264886E-12  2.97312546142233E-01
 cg2d: Sum(rhs),rhsMax =  -4.90241180983730E-12  2.94981264642400E-01
 cg2d: Sum(rhs),rhsMax =  -4.88442619683838E-12  2.92531330113514E-01
 cg2d: Sum(rhs),rhsMax =  -4.86244378095080E-12  2.89955145144758E-01
 cg2d: Sum(rhs),rhsMax =  -4.83935114203859E-12  2.87204432748270E-01
 cg2d: Sum(rhs),rhsMax =  -4.86255480325326E-12  2.84217642057146E-01
 cg2d: Sum(rhs),rhsMax =  -4.84856599314298E-12  2.81319213899101E-01
 cg2d: Sum(rhs),rhsMax =  -4.88331597381375E-12  2.78050065444077E-01
 cg2d: Sum(rhs),rhsMax =  -4.87843099250540E-12  2.74948857409909E-01
 cg2d: Sum(rhs),rhsMax =  -4.91107154942938E-12  2.71657494480457E-01
 cg2d: Sum(rhs),rhsMax =  -4.91107154942938E-12  2.68593471136645E-01
 cg2d: Sum(rhs),rhsMax =  -4.95126162292081E-12  2.64361482339304E-01
 cg2d: Sum(rhs),rhsMax =  -4.97557550716010E-12  2.61244813465507E-01
 cg2d: Sum(rhs),rhsMax =  -4.98778796043098E-12  2.58977837939083E-01
 cg2d: Sum(rhs),rhsMax =  -4.80659956281215E-12  2.63995480127935E-01
 cg2d: Sum(rhs),rhsMax =  -4.71533923018796E-12  2.68572752903851E-01
 cg2d: Sum(rhs),rhsMax =  -4.69280170278807E-12  2.72986732537460E-01
 cg2d: Sum(rhs),rhsMax =  -4.65405491922866E-12  2.77117180242939E-01
 cg2d: Sum(rhs),rhsMax =  -4.58721949314622E-12  2.81493811241005E-01
 cg2d: Sum(rhs),rhsMax =  -4.58033611039355E-12  2.85177507234874E-01
 cg2d: Sum(rhs),rhsMax =  -4.55735449378381E-12  2.88376230541581E-01
 cg2d: Sum(rhs),rhsMax =  -4.56434889883894E-12  2.91457895919697E-01
 cg2d: Sum(rhs),rhsMax =  -4.54003501459965E-12  2.94361705132085E-01
 cg2d: Sum(rhs),rhsMax =  -4.39737135593532E-12  2.96980459098539E-01
 cg2d: Sum(rhs),rhsMax =  -4.31576996362537E-12  2.99379268100718E-01
 cg2d: Sum(rhs),rhsMax =  -4.23627799506221E-12  3.01401213316922E-01
 cg2d: Sum(rhs),rhsMax =  -4.18221013376296E-12  3.03317575303602E-01
 cg2d: Sum(rhs),rhsMax =  -4.10393941052689E-12  3.04980768055883E-01
 cg2d: Sum(rhs),rhsMax =  -3.95838917199853E-12  3.06389641000573E-01
 cg2d: Sum(rhs),rhsMax =  -3.92919030645089E-12  3.07617999095601E-01
 cg2d: Sum(rhs),rhsMax =  -3.80739884064951E-12  3.08504280403297E-01
 cg2d: Sum(rhs),rhsMax =  -3.77098352544181E-12  3.09201926705959E-01
 cg2d: Sum(rhs),rhsMax =  -3.73967523614738E-12  3.09722996922263E-01
 cg2d: Sum(rhs),rhsMax =  -3.65174557259706E-12  3.10101474389301E-01
 cg2d: Sum(rhs),rhsMax =  -3.57436302778069E-12  3.10273547961349E-01
 cg2d: Sum(rhs),rhsMax =  -3.49076323402642E-12  3.10236401217411E-01
 cg2d: Sum(rhs),rhsMax =  -3.52584628160457E-12  3.09973237880390E-01
 cg2d: Sum(rhs),rhsMax =  -3.54649642986260E-12  3.09500422336813E-01
 cg2d: Sum(rhs),rhsMax =  -3.53683748954836E-12  3.10293820730851E-01
(PID.TID 0000.0001)      cg2d_init_res =   5.62410946367275E-02
(PID.TID 0000.0001)      cg2d_iters(min,last) =      -1      28
(PID.TID 0000.0001)      cg2d_last_res =   9.22807007312780E-14
(PID.TID 0000.0001) // =======================================================
(PID.TID 0000.0001) // Begin MONITOR dynamic field statistics
(PID.TID 0000.0001) // =======================================================
(PID.TID 0000.0001) %MON time_tsnumber                =                  1920
(PID.TID 0000.0001) %MON time_secondsf                =   2.8800000000000E+04
(PID.TID 0000.0001) %MON dynstat_eta_max              =   2.1431004490477E-02
(PID.TID 0000.0001) %MON dynstat_eta_min              =  -2.6389052880917E-02
(PID.TID 0000.0001) %MON dynstat_eta_mean             =   1.2712391989270E-15
(PID.TID 0000.0001) %MON dynstat_eta_sd               =   1.6272281240611E-02
(PID.TID 0000.0001) %MON dynstat_eta_del2             =   2.0049081216096E-04
(PID.TID 0000.0001) %MON dynstat_uvel_max             =   1.6439729414750E+00
(PID.TID 0000.0001) %MON dynstat_uvel_min             =  -7.3156231668759E-01
(PID.TID 0000.0001) %MON dynstat_uvel_mean            =   7.3157620195627E-05
(PID.TID 0000.0001) %MON dynstat_uvel_sd              =   1.1829245878385E-01
(PID.TID 0000.0001) %MON dynstat_uvel_del2            =   5.6449857332555E-04
(PID.TID 0000.0001) %MON dynstat_vvel_max             =   0.0000000000000E+00
(PID.TID 0000.0001) %MON dynstat_vvel_min             =   0.0000000000000E+00
(PID.TID 0000.0001) %MON dynstat_vvel_mean            =   0.0000000000000E+00
(PID.TID 0000.0001) %MON dynstat_vvel_sd              =   0.0000000000000E+00
(PID.TID 0000.0001) %MON dynstat_vvel_del2            =   0.0000000000000E+00
(PID.TID 0000.0001) %MON dynstat_wvel_max             =   7.4932501009669E-02
(PID.TID 0000.0001) %MON dynstat_wvel_min             =  -2.3478230983913E-02
(PID.TID 0000.0001) %MON dynstat_wvel_mean            =   3.5087949705163E-20
(PID.TID 0000.0001) %MON dynstat_wvel_sd              =   3.8221543486177E-03
(PID.TID 0000.0001) %MON dynstat_wvel_del2            =   6.5341631195321E-05
(PID.TID 0000.0001) %MON dynstat_theta_max            =   1.5000000000265E+01
(PID.TID 0000.0001) %MON dynstat_theta_min            =   9.9999999999947E+00
(PID.TID 0000.0001) %MON dynstat_theta_mean           =   1.2728644029718E+01
(PID.TID 0000.0001) %MON dynstat_theta_sd             =   2.4202425792058E+00
(PID.TID 0000.0001) %MON dynstat_theta_del2           =   1.7580498254480E-03
(PID.TID 0000.0001) %MON dynstat_salt_max             =   3.5000000000000E+01
(PID.TID 0000.0001) %MON dynstat_salt_min             =   3.5000000000000E+01
(PID.TID 0000.0001) %MON dynstat_salt_mean            =   3.5000000000000E+01
(PID.TID 0000.0001) %MON dynstat_salt_sd              =   1.0658141036402E-13
(PID.TID 0000.0001) %MON dynstat_salt_del2            =   0.0000000000000E+00
(PID.TID 0000.0001) %MON dynstat_sst_max              =   1.5000000000003E+01
(PID.TID 0000.0001) %MON dynstat_sst_min              =   1.4999817100777E+01
(PID.TID 0000.0001) %MON dynstat_sst_mean             =   1.4999998189892E+01
(PID.TID 0000.0001) %MON dynstat_sst_sd               =   1.5992648212390E-05
(PID.TID 0000.0001) %MON dynstat_sst_del2             =   6.0354263264644E-07
(PID.TID 0000.0001) %MON dynstat_sss_max              =   3.5000000000000E+01
(PID.TID 0000.0001) %MON dynstat_sss_min              =   3.5000000000000E+01
(PID.TID 0000.0001) %MON dynstat_sss_mean             =   3.5000000000000E+01
(PID.TID 0000.0001) %MON dynstat_sss_sd               =   4.2632564145606E-14
(PID.TID 0000.0001) %MON dynstat_sss_del2             =   0.0000000000000E+00
(PID.TID 0000.0001) %MON forcing_qnet_max             =   0.0000000000000E+00
(PID.TID 0000.0001) %MON forcing_qnet_min             =   0.0000000000000E+00
(PID.TID 0000.0001) %MON forcing_qnet_mean            =   0.0000000000000E+00
(PID.TID 0000.0001) %MON forcing_qnet_sd              =   0.0000000000000E+00
(PID.TID 0000.0001) %MON forcing_qnet_del2            =   0.0000000000000E+00
(PID.TID 0000.0001) %MON forcing_qsw_max              =   0.0000000000000E+00
(PID.TID 0000.0001) %MON forcing_qsw_min              =   0.0000000000000E+00
(PID.TID 0000.0001) %MON forcing_qsw_mean             =   0.0000000000000E+00
(PID.TID 0000.0001) %MON forcing_qsw_sd               =   0.0000000000000E+00
(PID.TID 0000.0001) %MON forcing_qsw_del2             =   0.0000000000000E+00
(PID.TID 0000.0001) %MON forcing_empmr_max            =   0.0000000000000E+00
(PID.TID 0000.0001) %MON forcing_empmr_min            =   0.0000000000000E+00
(PID.TID 0000.0001) %MON forcing_empmr_mean           =   0.0000000000000E+00
(PID.TID 0000.0001) %MON forcing_empmr_sd             =   0.0000000000000E+00
(PID.TID 0000.0001) %MON forcing_empmr_del2           =   0.0000000000000E+00
(PID.TID 0000.0001) %MON forcing_fu_max               =   0.0000000000000E+00
(PID.TID 0000.0001) %MON forcing_fu_min               =   0.0000000000000E+00
(PID.TID 0000.0001) %MON forcing_fu_mean              =   0.0000000000000E+00
(PID.TID 0000.0001) %MON forcing_fu_sd                =   0.0000000000000E+00
(PID.TID 0000.0001) %MON forcing_fu_del2              =   0.0000000000000E+00
(PID.TID 0000.0001) %MON forcing_fv_max               =   0.0000000000000E+00
(PID.TID 0000.0001) %MON forcing_fv_min               =   0.0000000000000E+00
(PID.TID 0000.0001) %MON forcing_fv_mean              =   0.0000000000000E+00
(PID.TID 0000.0001) %MON forcing_fv_sd                =   0.0000000000000E+00
(PID.TID 0000.0001) %MON forcing_fv_del2              =   0.0000000000000E+00
(PID.TID 0000.0001) %MON advcfl_uvel_max              =   8.4358326467113E-02
(PID.TID 0000.0001) %MON advcfl_vvel_max              =   0.0000000000000E+00
(PID.TID 0000.0001) %MON advcfl_wvel_max              =   4.0100004828270E-01
(PID.TID 0000.0001) %MON advcfl_W_hf_max              =   4.0536268988674E-01
(PID.TID 0000.0001) %MON pe_b_mean                    =   7.4331045231491E-06
(PID.TID 0000.0001) %MON ke_max                       =   6.9208013710340E-01
(PID.TID 0000.0001) %MON ke_mean                      =   7.0740029401478E-03
(PID.TID 0000.0001) %MON ke_vol                       =   8.5338127039305E+10
(PID.TID 0000.0001) %MON vort_r_min                   =   0.0000000000000E+00
(PID.TID 0000.0001) %MON vort_r_max                   =   0.0000000000000E+00
(PID.TID 0000.0001) %MON vort_a_mean                  =   0.0000000000000E+00
(PID.TID 0000.0001) %MON vort_a_sd                    =   0.0000000000000E+00
(PID.TID 0000.0001) %MON vort_p_mean                  =   0.0000000000000E+00
(PID.TID 0000.0001) %MON vort_p_sd                    =   0.0000000000000E+00
(PID.TID 0000.0001) %MON surfExpan_theta_mean         =   1.4564046974972E-12
(PID.TID 0000.0001) %MON surfExpan_salt_mean          =   1.7335774404922E-18
(PID.TID 0000.0001) // =======================================================
(PID.TID 0000.0001) // End MONITOR dynamic field statistics
(PID.TID 0000.0001) // =======================================================
(PID.TID 0000.0001) // =======================================================
(PID.TID 0000.0001) // Begin OBCS MONITOR field statistics
(PID.TID 0000.0001) // =======================================================
(PID.TID 0000.0001) %MON obc_E_uVel_max               =   0.0000000000000E+00
(PID.TID 0000.0001) %MON obc_E_uVel_min               =   0.0000000000000E+00
(PID.TID 0000.0001) %MON obc_E_uVel_mean              =   0.0000000000000E+00
(PID.TID 0000.0001) %MON obc_E_uVel_sd                =   0.0000000000000E+00
(PID.TID 0000.0001) %MON obc_E_uVel_Int               =   0.0000000000000E+00
(PID.TID 0000.0001) %MON obc_W_uVel_max               =   0.0000000000000E+00
(PID.TID 0000.0001) %MON obc_W_uVel_min               =   0.0000000000000E+00
(PID.TID 0000.0001) %MON obc_W_uVel_mean              =   0.0000000000000E+00
(PID.TID 0000.0001) %MON obc_W_uVel_sd                =   0.0000000000000E+00
(PID.TID 0000.0001) %MON obc_W_uVel_Int               =   0.0000000000000E+00
(PID.TID 0000.0001) // =======================================================
(PID.TID 0000.0001) // End OBCS MONITOR field statistics
(PID.TID 0000.0001) // =======================================================
 cg2d: Sum(rhs),rhsMax =  -3.57458507238562E-12  3.08558776525197E-01
 cg2d: Sum(rhs),rhsMax =  -3.63342689269075E-12  3.07762231840758E-01
 cg2d: Sum(rhs),rhsMax =  -3.59967611274215E-12  3.06292936792617E-01
 cg2d: Sum(rhs),rhsMax =  -3.60111940267416E-12  3.04382999167840E-01
 cg2d: Sum(rhs),rhsMax =  -3.57103235870682E-12  3.03461621555223E-01
 cg2d: Sum(rhs),rhsMax =  -3.52473605857995E-12  3.00679333489642E-01
 cg2d: Sum(rhs),rhsMax =  -3.52928797298091E-12  2.98062266604912E-01
 cg2d: Sum(rhs),rhsMax =  -3.42836870004248E-12  2.95436833644627E-01
 cg2d: Sum(rhs),rhsMax =  -3.44557715692417E-12  2.92597807616677E-01
 cg2d: Sum(rhs),rhsMax =  -3.47510908937920E-12  2.90004801715375E-01
 cg2d: Sum(rhs),rhsMax =  -3.52151641180853E-12  2.87128709480426E-01
 cg2d: Sum(rhs),rhsMax =  -3.57769369685457E-12  2.83990765053400E-01
 cg2d: Sum(rhs),rhsMax =  -3.68560737484813E-12  2.80582154456570E-01
 cg2d: Sum(rhs),rhsMax =  -3.70470321087168E-12  2.76931816415681E-01
 cg2d: Sum(rhs),rhsMax =  -3.65596442009064E-12  2.73045655978965E-01
 cg2d: Sum(rhs),rhsMax =  -3.60711460700713E-12  2.69047211172266E-01
 cg2d: Sum(rhs),rhsMax =  -3.63953311932619E-12  2.64842396978129E-01
 cg2d: Sum(rhs),rhsMax =  -3.53983509171485E-12  2.60582866772498E-01
 cg2d: Sum(rhs),rhsMax =  -3.38928884957568E-12  2.56241207381414E-01
 cg2d: Sum(rhs),rhsMax =  -3.29825056155642E-12  2.51847225166733E-01
 cg2d: Sum(rhs),rhsMax =  -3.22564197574593E-12  2.47342159270202E-01
 cg2d: Sum(rhs),rhsMax =  -3.31945582132676E-12  2.43421116040811E-01
 cg2d: Sum(rhs),rhsMax =  -3.41671135828392E-12  2.39425331710652E-01
 cg2d: Sum(rhs),rhsMax =  -3.46889184044130E-12  2.35248977092468E-01
 cg2d: Sum(rhs),rhsMax =  -3.36186634086744E-12  2.31002275704956E-01
 cg2d: Sum(rhs),rhsMax =  -3.51407791754355E-12  2.26756917954492E-01
 cg2d: Sum(rhs),rhsMax =  -3.64464014523946E-12  2.23408231453044E-01
 cg2d: Sum(rhs),rhsMax =  -3.58335583428016E-12  2.29417724206758E-01
 cg2d: Sum(rhs),rhsMax =  -3.56492613207138E-12  2.35025957410408E-01
 cg2d: Sum(rhs),rhsMax =  -3.53084228521539E-12  2.40323235983997E-01
 cg2d: Sum(rhs),rhsMax =  -3.50564022255639E-12  2.45393455824075E-01
 cg2d: Sum(rhs),rhsMax =  -3.48232553903927E-12  2.50222377259057E-01
 cg2d: Sum(rhs),rhsMax =  -3.47699646852107E-12  2.54786647021545E-01
 cg2d: Sum(rhs),rhsMax =  -3.45556916414580E-12  2.59086303149417E-01
 cg2d: Sum(rhs),rhsMax =  -3.46245254689848E-12  2.62922873676569E-01
 cg2d: Sum(rhs),rhsMax =  -3.43747252884441E-12  2.66573130137708E-01
 cg2d: Sum(rhs),rhsMax =  -3.37796457472450E-12  2.71779858466672E-01
 cg2d: Sum(rhs),rhsMax =  -3.36641825526840E-12  2.74515058483011E-01
 cg2d: Sum(rhs),rhsMax =  -3.39017702799538E-12  2.76882998677640E-01
 cg2d: Sum(rhs),rhsMax =  -3.37185834808906E-12  2.80129800912485E-01
 cg2d: Sum(rhs),rhsMax =  -3.43425288207300E-12  2.81699605997132E-01
 cg2d: Sum(rhs),rhsMax =  -3.47777362463830E-12  2.83317782814914E-01
 cg2d: Sum(rhs),rhsMax =  -3.52984308449322E-12  2.84873128559261E-01
 cg2d: Sum(rhs),rhsMax =  -3.57180951482405E-12  2.86215030073085E-01
 cg2d: Sum(rhs),rhsMax =  -3.61621843580906E-12  2.87194215928581E-01
 cg2d: Sum(rhs),rhsMax =  -3.67850194749053E-12  2.87761199032021E-01
 cg2d: Sum(rhs),rhsMax =  -3.70325992093967E-12  2.88048490512230E-01
 cg2d: Sum(rhs),rhsMax =  -3.77453623912061E-12  2.88147996682340E-01
 cg2d: Sum(rhs),rhsMax =  -3.76132458512757E-12  2.88062671618666E-01
 cg2d: Sum(rhs),rhsMax =  -3.82249787378441E-12  2.87731418780520E-01
 cg2d: Sum(rhs),rhsMax =  -3.86679577246696E-12  2.87170565699933E-01
 cg2d: Sum(rhs),rhsMax =  -3.91220389417413E-12  2.86371240957722E-01
 cg2d: Sum(rhs),rhsMax =  -3.78586051397178E-12  2.85344952776637E-01
 cg2d: Sum(rhs),rhsMax =  -3.79551945428602E-12  2.84142383841351E-01
 cg2d: Sum(rhs),rhsMax =  -3.76454423189898E-12  2.83336467747842E-01
 cg2d: Sum(rhs),rhsMax =  -3.75433018007243E-12  2.82135560392120E-01
 cg2d: Sum(rhs),rhsMax =  -3.75777187144877E-12  2.80565407064980E-01
 cg2d: Sum(rhs),rhsMax =  -3.82827103351246E-12  2.78711343474656E-01
 cg2d: Sum(rhs),rhsMax =  -3.93585164459864E-12  2.76562538208718E-01
 cg2d: Sum(rhs),rhsMax =  -4.02722299952529E-12  2.74203051153458E-01
 cg2d: Sum(rhs),rhsMax =  -4.20219414820622E-12  2.71657093340519E-01
 cg2d: Sum(rhs),rhsMax =  -4.32809343919871E-12  2.68951205292595E-01
 cg2d: Sum(rhs),rhsMax =  -4.46698233957932E-12  2.66102665927870E-01
 cg2d: Sum(rhs),rhsMax =  -4.63329374866817E-12  2.63117574163850E-01
 cg2d: Sum(rhs),rhsMax =  -4.78272976778271E-12  2.60008978035708E-01
 cg2d: Sum(rhs),rhsMax =  -4.98290297912263E-12  2.56746256390004E-01
 cg2d: Sum(rhs),rhsMax =  -5.15443243642721E-12  2.53387053274099E-01
 cg2d: Sum(rhs),rhsMax =  -5.35016475566863E-12  2.50757162025830E-01
 cg2d: Sum(rhs),rhsMax =  -5.58264545702514E-12  2.46790802150154E-01
 cg2d: Sum(rhs),rhsMax =  -5.68689539903744E-12  2.43856214246879E-01
 cg2d: Sum(rhs),rhsMax =  -5.92437210400476E-12  2.40726415056249E-01
 cg2d: Sum(rhs),rhsMax =  -6.14852613267658E-12  2.37348134929826E-01
 cg2d: Sum(rhs),rhsMax =  -6.35824726202827E-12  2.33748862628641E-01
 cg2d: Sum(rhs),rhsMax =  -6.59383658785373E-12  2.30087848171134E-01
 cg2d: Sum(rhs),rhsMax =  -6.82387479855606E-12  2.26314009930874E-01
 cg2d: Sum(rhs),rhsMax =  -7.04669655959833E-12  2.22526996055931E-01
 cg2d: Sum(rhs),rhsMax =  -7.22333304281619E-12  2.20032093005921E-01
 cg2d: Sum(rhs),rhsMax =  -7.23920923206833E-12  2.19050566679661E-01
 cg2d: Sum(rhs),rhsMax =  -7.29871718618824E-12  2.17852343964797E-01
 cg2d: Sum(rhs),rhsMax =  -7.39963645912667E-12  2.16438600951773E-01
 cg2d: Sum(rhs),rhsMax =  -7.52931050840289E-12  2.14820015872425E-01
 cg2d: Sum(rhs),rhsMax =  -7.68773933401690E-12  2.12895979740477E-01
 cg2d: Sum(rhs),rhsMax =  -7.88347165325831E-12  2.10870741265579E-01
 cg2d: Sum(rhs),rhsMax =  -8.09274869340015E-12  2.08615176662322E-01
 cg2d: Sum(rhs),rhsMax =  -8.13882294892210E-12  2.10888134084974E-01
 cg2d: Sum(rhs),rhsMax =  -8.01314570253453E-12  2.16084763885346E-01
 cg2d: Sum(rhs),rhsMax =  -7.96140930958700E-12  2.21355538655189E-01
 cg2d: Sum(rhs),rhsMax =  -7.83884068766838E-12  2.26585340897262E-01
 cg2d: Sum(rhs),rhsMax =  -7.81408271421924E-12  2.31531642566820E-01
 cg2d: Sum(rhs),rhsMax =  -7.80797648758380E-12  2.36195166558808E-01
 cg2d: Sum(rhs),rhsMax =  -7.80020492641142E-12  2.40581640913809E-01
 cg2d: Sum(rhs),rhsMax =  -7.78177522420265E-12  2.44706812167789E-01
 cg2d: Sum(rhs),rhsMax =  -7.78932474077010E-12  2.48393049020896E-01
 cg2d: Sum(rhs),rhsMax =  -7.83206832721817E-12  2.51899076989045E-01
 cg2d: Sum(rhs),rhsMax =  -7.83900722112207E-12  2.55178788852669E-01
 cg2d: Sum(rhs),rhsMax =  -7.89002196910360E-12  2.58240782308265E-01
 cg2d: Sum(rhs),rhsMax =  -7.93293208900536E-12  2.61083018222795E-01
 cg2d: Sum(rhs),rhsMax =  -7.99427191111590E-12  2.63635002662293E-01
 cg2d: Sum(rhs),rhsMax =  -8.06787969764855E-12  2.65949200741508E-01
 cg2d: Sum(rhs),rhsMax =  -8.02213850903399E-12  2.68002223866408E-01
 cg2d: Sum(rhs),rhsMax =  -7.95785659590820E-12  2.69829502971814E-01
 cg2d: Sum(rhs),rhsMax =  -7.93559662426446E-12  2.71402228392859E-01
 cg2d: Sum(rhs),rhsMax =  -7.92693688467239E-12  2.72742588578856E-01
 cg2d: Sum(rhs),rhsMax =  -7.93154431022458E-12  2.74018212812405E-01
 cg2d: Sum(rhs),rhsMax =  -7.93354271166891E-12  2.74849043878168E-01
 cg2d: Sum(rhs),rhsMax =  -7.94914134516489E-12  2.75381995644759E-01
 cg2d: Sum(rhs),rhsMax =  -7.94725396602303E-12  2.75689937677069E-01
 cg2d: Sum(rhs),rhsMax =  -7.92410581595959E-12  2.75795430901504E-01
 cg2d: Sum(rhs),rhsMax =  -7.90639775871682E-12  2.75695694256503E-01
 cg2d: Sum(rhs),rhsMax =  -7.89424081659718E-12  2.75378494353733E-01
 cg2d: Sum(rhs),rhsMax =  -7.89052156946468E-12  2.74730803023284E-01
 cg2d: Sum(rhs),rhsMax =  -7.89823761948583E-12  2.74025356239174E-01
 cg2d: Sum(rhs),rhsMax =  -7.88585863276126E-12  2.73164717356969E-01
 cg2d: Sum(rhs),rhsMax =  -7.89396326084102E-12  2.72101453497643E-01
 cg2d: Sum(rhs),rhsMax =  -7.92843568575563E-12  2.70873185357068E-01
 cg2d: Sum(rhs),rhsMax =  -7.98311416971842E-12  2.69472824257906E-01
 cg2d: Sum(rhs),rhsMax =  -8.05960853611509E-12  2.67868316088213E-01
 cg2d: Sum(rhs),rhsMax =  -8.18595191631744E-12  2.66635834699315E-01
 cg2d: Sum(rhs),rhsMax =  -8.37513391971356E-12  2.65074081727520E-01
 cg2d: Sum(rhs),rhsMax =  -8.56303916663137E-12  2.63225919455483E-01
 cg2d: Sum(rhs),rhsMax =  -8.73739969264875E-12  2.61149152079347E-01
 cg2d: Sum(rhs),rhsMax =  -8.90770790462625E-12  2.58897289658955E-01
 cg2d: Sum(rhs),rhsMax =  -9.00357566280263E-12  2.56479088851265E-01
 cg2d: Sum(rhs),rhsMax =  -9.06885677665059E-12  2.53930929204705E-01
 cg2d: Sum(rhs),rhsMax =  -9.20447051910855E-12  2.50402037202752E-01
 cg2d: Sum(rhs),rhsMax =  -9.34524679863102E-12  2.47379773478338E-01
 cg2d: Sum(rhs),rhsMax =  -9.49690326379482E-12  2.44470503885233E-01
 cg2d: Sum(rhs),rhsMax =  -9.69213598267515E-12  2.41472796021380E-01
 cg2d: Sum(rhs),rhsMax =  -9.86022374860340E-12  2.38385234208227E-01
 cg2d: Sum(rhs),rhsMax =  -1.01311736777632E-11  2.33751548418225E-01
 cg2d: Sum(rhs),rhsMax =  -1.03324571121277E-11  2.30674241695030E-01
 cg2d: Sum(rhs),rhsMax =  -1.05132569316879E-11  2.27595757870656E-01
 cg2d: Sum(rhs),rhsMax =  -1.06996078663713E-11  2.24295326887882E-01
 cg2d: Sum(rhs),rhsMax =  -1.08887898697674E-11  2.20859838489485E-01
 cg2d: Sum(rhs),rhsMax =  -1.10659814644976E-11  2.17369374368934E-01
 cg2d: Sum(rhs),rhsMax =  -1.12374554106509E-11  2.13822925663945E-01
 cg2d: Sum(rhs),rhsMax =  -1.14567244580144E-11  2.10218779997546E-01
 cg2d: Sum(rhs),rhsMax =  -1.17864051851768E-11  2.06574466673608E-01
 cg2d: Sum(rhs),rhsMax =  -1.21341270364894E-11  2.02906627785681E-01
 cg2d: Sum(rhs),rhsMax =  -1.24974475212980E-11  1.99236592432054E-01
 cg2d: Sum(rhs),rhsMax =  -1.27709509634144E-11  1.96407711445815E-01
 cg2d: Sum(rhs),rhsMax =  -1.28649868536002E-11  1.95286228284966E-01
 cg2d: Sum(rhs),rhsMax =  -1.30274124821028E-11  1.93970202468024E-01
 cg2d: Sum(rhs),rhsMax =  -1.32279742715014E-11  1.92507024926621E-01
 cg2d: Sum(rhs),rhsMax =  -1.30870869696764E-11  1.96262730429389E-01
 cg2d: Sum(rhs),rhsMax =  -1.28102528584861E-11  2.02062431179143E-01
 cg2d: Sum(rhs),rhsMax =  -1.25720545085528E-11  2.07682212640750E-01
 cg2d: Sum(rhs),rhsMax =  -1.23453469669244E-11  2.13120686616098E-01
 cg2d: Sum(rhs),rhsMax =  -1.21428422872327E-11  2.18348193089018E-01
 cg2d: Sum(rhs),rhsMax =  -1.19810827925448E-11  2.23360112882897E-01
 cg2d: Sum(rhs),rhsMax =  -1.18062226661664E-11  2.28166435743557E-01
 cg2d: Sum(rhs),rhsMax =  -1.16744391931434E-11  2.32702020143449E-01
 cg2d: Sum(rhs),rhsMax =  -1.15462084337992E-11  2.37027545740614E-01
 cg2d: Sum(rhs),rhsMax =  -1.14375175996884E-11  2.41110404700406E-01
 cg2d: Sum(rhs),rhsMax =  -1.13277720537042E-11  2.45009157577631E-01
 cg2d: Sum(rhs),rhsMax =  -1.12225229109697E-11  2.48590089263290E-01
 cg2d: Sum(rhs),rhsMax =  -1.11131104318929E-11  2.51899774000933E-01
 cg2d: Sum(rhs),rhsMax =  -1.09334208353573E-11  2.54994726524004E-01
 cg2d: Sum(rhs),rhsMax =  -1.08043574087446E-11  2.57861072376997E-01
 cg2d: Sum(rhs),rhsMax =  -1.06780140285423E-11  2.60544365771215E-01
 cg2d: Sum(rhs),rhsMax =  -1.05178088460889E-11  2.63014803902066E-01
 cg2d: Sum(rhs),rhsMax =  -1.04478092843863E-11  2.65268615522292E-01
 cg2d: Sum(rhs),rhsMax =  -1.02794439627019E-11  2.67329749222405E-01
 cg2d: Sum(rhs),rhsMax =  -1.02015618175244E-11  2.69141549662446E-01
 cg2d: Sum(rhs),rhsMax =  -1.01407215957749E-11  2.70722929188727E-01
 cg2d: Sum(rhs),rhsMax =  -1.00823793758309E-11  2.72092173602312E-01
 cg2d: Sum(rhs),rhsMax =  -1.00600083818847E-11  2.73246814187876E-01
 cg2d: Sum(rhs),rhsMax =  -1.00240926670381E-11  2.74217191675220E-01
 cg2d: Sum(rhs),rhsMax =  -1.00104924349864E-11  2.74973048969793E-01
 cg2d: Sum(rhs),rhsMax =  -1.00062735874928E-11  2.75516641436523E-01
 cg2d: Sum(rhs),rhsMax =  -9.96941418307529E-12  2.75865438236997E-01
 cg2d: Sum(rhs),rhsMax =  -1.00089936339032E-11  2.75975322512328E-01
 cg2d: Sum(rhs),rhsMax =  -1.00995878327126E-11  2.75932824898703E-01
 cg2d: Sum(rhs),rhsMax =  -1.01302854993435E-11  2.75733661362229E-01
 cg2d: Sum(rhs),rhsMax =  -1.01439967536976E-11  2.75351543513542E-01
 cg2d: Sum(rhs),rhsMax =  -1.01538222274655E-11  2.74801011740427E-01
 cg2d: Sum(rhs),rhsMax =  -1.01710306843472E-11  2.74089183214027E-01
 cg2d: Sum(rhs),rhsMax =  -1.02105546240239E-11  2.73231182816994E-01
 cg2d: Sum(rhs),rhsMax =  -1.02409747348986E-11  2.72211998872880E-01
 cg2d: Sum(rhs),rhsMax =  -1.02758912490231E-11  2.71040639874270E-01
 cg2d: Sum(rhs),rhsMax =  -1.03130837203480E-11  2.69740711317366E-01
 cg2d: Sum(rhs),rhsMax =  -1.03420605412907E-11  2.68308999368917E-01
 cg2d: Sum(rhs),rhsMax =  -1.03686503827305E-11  2.66752563713083E-01
 cg2d: Sum(rhs),rhsMax =  -1.03910213766767E-11  2.65076704051094E-01
 cg2d: Sum(rhs),rhsMax =  -1.04313779836218E-11  2.63269173965329E-01
 cg2d: Sum(rhs),rhsMax =  -1.04732889028014E-11  2.61402441602103E-01
 cg2d: Sum(rhs),rhsMax =  -1.05273012529494E-11  2.59350747352517E-01
 cg2d: Sum(rhs),rhsMax =  -1.05988551268865E-11  2.57204641581410E-01
 cg2d: Sum(rhs),rhsMax =  -1.06642472630369E-11  2.54932899486592E-01
 cg2d: Sum(rhs),rhsMax =  -1.07389652725942E-11  2.52654308277256E-01
 cg2d: Sum(rhs),rhsMax =  -1.08254516462125E-11  2.50221657172051E-01
 cg2d: Sum(rhs),rhsMax =  -1.09177666907101E-11  2.47765389414271E-01
 cg2d: Sum(rhs),rhsMax =  -1.09929843006285E-11  2.45182660589431E-01
 cg2d: Sum(rhs),rhsMax =  -1.10590425705936E-11  2.42839920407701E-01
 cg2d: Sum(rhs),rhsMax =  -1.11434750316164E-11  2.40105546946683E-01
 cg2d: Sum(rhs),rhsMax =  -1.12382880779194E-11  2.37274871204303E-01
 cg2d: Sum(rhs),rhsMax =  -1.14226961223096E-11  2.34416178916548E-01
 cg2d: Sum(rhs),rhsMax =  -1.16471832178888E-11  2.31475739538752E-01
 cg2d: Sum(rhs),rhsMax =  -1.18741128041222E-11  2.28483878887112E-01
 cg2d: Sum(rhs),rhsMax =  -1.20939924741492E-11  2.25486926194471E-01
 cg2d: Sum(rhs),rhsMax =  -1.23355770043077E-11  2.22331990177485E-01
 cg2d: Sum(rhs),rhsMax =  -1.25775501125247E-11  2.19117125361052E-01
 cg2d: Sum(rhs),rhsMax =  -1.28234090013279E-11  2.15893676015654E-01
 cg2d: Sum(rhs),rhsMax =  -1.30964683542345E-11  2.12617868227115E-01
 cg2d: Sum(rhs),rhsMax =  -1.35338962259368E-11  2.09332943172957E-01
 cg2d: Sum(rhs),rhsMax =  -1.39655509379111E-11  2.06069417970480E-01
 cg2d: Sum(rhs),rhsMax =  -1.42661438218283E-11  2.02804334926063E-01
 cg2d: Sum(rhs),rhsMax =  -1.45642387039402E-11  1.99513538702146E-01
 cg2d: Sum(rhs),rhsMax =  -1.48697165691658E-11  1.96224645464494E-01
 cg2d: Sum(rhs),rhsMax =  -1.51524903735378E-11  1.93035215599213E-01
 cg2d: Sum(rhs),rhsMax =  -1.47754586343751E-11  1.98270868718740E-01
 cg2d: Sum(rhs),rhsMax =  -1.43801637264573E-11  2.03918802203498E-01
 cg2d: Sum(rhs),rhsMax =  -1.39757649897376E-11  2.09404486683282E-01
 cg2d: Sum(rhs),rhsMax =  -1.35907951559489E-11  2.14724044472308E-01
 cg2d: Sum(rhs),rhsMax =  -1.32168165301039E-11  2.19898751534955E-01
 cg2d: Sum(rhs),rhsMax =  -1.28683730338253E-11  2.24879366459327E-01
 cg2d: Sum(rhs),rhsMax =  -1.25363053271599E-11  2.29677553414845E-01
 cg2d: Sum(rhs),rhsMax =  -1.22098997579201E-11  2.34317099084312E-01
 cg2d: Sum(rhs),rhsMax =  -1.19262377751284E-11  2.38729419998323E-01
 cg2d: Sum(rhs),rhsMax =  -1.16474052624937E-11  2.42960531268600E-01
 cg2d: Sum(rhs),rhsMax =  -1.13932197010058E-11  2.47017445585960E-01
 cg2d: Sum(rhs),rhsMax =  -1.11409770298110E-11  2.50893058030486E-01
 cg2d: Sum(rhs),rhsMax =  -1.08945075183442E-11  2.54592555760938E-01
 cg2d: Sum(rhs),rhsMax =  -1.06561981461084E-11  2.58088059900369E-01
 cg2d: Sum(rhs),rhsMax =  -1.04418140800533E-11  2.61369162550613E-01
 cg2d: Sum(rhs),rhsMax =  -1.02457486939045E-11  2.64467231264693E-01
 cg2d: Sum(rhs),rhsMax =  -1.00520147761074E-11  2.67357227009843E-01
 cg2d: Sum(rhs),rhsMax =  -9.90879600593075E-12  2.70034474286548E-01
 cg2d: Sum(rhs),rhsMax =  -9.74048619539758E-12  2.72537070308929E-01
 cg2d: Sum(rhs),rhsMax =  -9.59826662594310E-12  2.74884698218052E-01
 cg2d: Sum(rhs),rhsMax =  -9.48152667490376E-12  2.76958192425815E-01
 cg2d: Sum(rhs),rhsMax =  -9.39442967862192E-12  2.78825119550179E-01
 cg2d: Sum(rhs),rhsMax =  -9.35540533930634E-12  2.80455103481555E-01
 cg2d: Sum(rhs),rhsMax =  -9.34619048820196E-12  2.81945779671930E-01
 cg2d: Sum(rhs),rhsMax =  -9.29939458771400E-12  2.83231914850776E-01
 cg2d: Sum(rhs),rhsMax =  -9.16416942331466E-12  2.84334173165005E-01
 cg2d: Sum(rhs),rhsMax =  -9.02222740961633E-12  2.85257286795081E-01
 cg2d: Sum(rhs),rhsMax =  -8.92069751401436E-12  2.85943237399017E-01
 cg2d: Sum(rhs),rhsMax =  -8.83526585226946E-12  2.86518944204275E-01
 cg2d: Sum(rhs),rhsMax =  -8.72762973003205E-12  2.86889458271309E-01
 cg2d: Sum(rhs),rhsMax =  -8.62820925817687E-12  2.87131276574069E-01
 cg2d: Sum(rhs),rhsMax =  -8.55548965006392E-12  2.87209035536805E-01
 cg2d: Sum(rhs),rhsMax =  -8.48421333188298E-12  2.87026934089138E-01
 cg2d: Sum(rhs),rhsMax =  -8.40677527591538E-12  2.86737079441228E-01
 cg2d: Sum(rhs),rhsMax =  -8.33588753579306E-12  2.86328751919826E-01
 cg2d: Sum(rhs),rhsMax =  -8.25300938700479E-12  2.85763537656346E-01
 cg2d: Sum(rhs),rhsMax =  -8.16213763243923E-12  2.85036149765053E-01
 cg2d: Sum(rhs),rhsMax =  -8.07492961385492E-12  2.84169871168363E-01
 cg2d: Sum(rhs),rhsMax =  -7.97734100999037E-12  2.83156935539818E-01
 cg2d: Sum(rhs),rhsMax =  -7.90123522165231E-12  2.82042528511478E-01
 cg2d: Sum(rhs),rhsMax =  -7.82984788116892E-12  2.80784910559441E-01
 cg2d: Sum(rhs),rhsMax =  -7.75024489030329E-12  2.79385175444150E-01
 cg2d: Sum(rhs),rhsMax =  -7.68174412968392E-12  2.77858932924465E-01
 cg2d: Sum(rhs),rhsMax =  -7.61374296942563E-12  2.76316311977233E-01
 cg2d: Sum(rhs),rhsMax =  -7.53530571273586E-12  2.74609698386425E-01
 cg2d: Sum(rhs),rhsMax =  -7.46253059347168E-12  2.72804198975229E-01
 cg2d: Sum(rhs),rhsMax =  -7.36244398780173E-12  2.70888316683394E-01
 cg2d: Sum(rhs),rhsMax =  -7.36621874608545E-12  2.68897277118203E-01
 cg2d: Sum(rhs),rhsMax =  -7.38004102274203E-12  2.66778145246641E-01
 cg2d: Sum(rhs),rhsMax =  -7.37754302093663E-12  2.64581368317601E-01
 cg2d: Sum(rhs),rhsMax =  -7.39985850373159E-12  2.62345431662584E-01
 cg2d: Sum(rhs),rhsMax =  -7.40740802029904E-12  2.59890829509344E-01
 cg2d: Sum(rhs),rhsMax =  -7.42989003654770E-12  2.57292838317182E-01
 cg2d: Sum(rhs),rhsMax =  -7.45814521252441E-12  2.54602695635134E-01
 cg2d: Sum(rhs),rhsMax =  -7.48456852051049E-12  2.51807584282513E-01
 cg2d: Sum(rhs),rhsMax =  -7.51065876158918E-12  2.48933770329151E-01
 cg2d: Sum(rhs),rhsMax =  -7.55095985738308E-12  2.45992176785247E-01
 cg2d: Sum(rhs),rhsMax =  -7.60613794170695E-12  2.42957393898146E-01
 cg2d: Sum(rhs),rhsMax =  -7.65043584038949E-12  2.39745048255828E-01
 cg2d: Sum(rhs),rhsMax =  -7.71660513265715E-12  2.36586064117158E-01
 cg2d: Sum(rhs),rhsMax =  -7.75512987161164E-12  2.33428942403118E-01
 cg2d: Sum(rhs),rhsMax =  -7.69895258656561E-12  2.30163494888932E-01
 cg2d: Sum(rhs),rhsMax =  -7.64888152815502E-12  2.26824151947651E-01
 cg2d: Sum(rhs),rhsMax =  -7.60691509782419E-12  2.23496870293768E-01
 cg2d: Sum(rhs),rhsMax =  -7.51454454217537E-12  2.20138979747355E-01
 cg2d: Sum(rhs),rhsMax =  -7.51043671698426E-12  2.16636433796172E-01
 cg2d: Sum(rhs),rhsMax =  -7.43560768512452E-12  2.13099716380001E-01
 cg2d: Sum(rhs),rhsMax =  -7.54307727390824E-12  2.09547389001709E-01
 cg2d: Sum(rhs),rhsMax =  -7.43860528729101E-12  2.06261434588537E-01
 cg2d: Sum(rhs),rhsMax =  -7.00983715518078E-12  2.12141557341175E-01
 cg2d: Sum(rhs),rhsMax =  -6.65434374269580E-12  2.17822448204131E-01
 cg2d: Sum(rhs),rhsMax =  -6.31428243025312E-12  2.23301242287178E-01
 cg2d: Sum(rhs),rhsMax =  -6.09279293684040E-12  2.28688288948434E-01
 cg2d: Sum(rhs),rhsMax =  -5.78503911441430E-12  2.33857262907447E-01
 cg2d: Sum(rhs),rhsMax =  -5.51059198272696E-12  2.38835223496916E-01
 cg2d: Sum(rhs),rhsMax =  -5.26112486909369E-12  2.43581526651286E-01
 cg2d: Sum(rhs),rhsMax =  -5.01354513460228E-12  2.48176216342166E-01
 cg2d: Sum(rhs),rhsMax =  -4.75441908065477E-12  2.52593151046972E-01
 cg2d: Sum(rhs),rhsMax =  -4.54547510742032E-12  2.56829758118537E-01
 cg2d: Sum(rhs),rhsMax =  -4.31432667369336E-12  2.60873693211607E-01
 cg2d: Sum(rhs),rhsMax =  -4.11504164077314E-12  2.64654966371165E-01
 cg2d: Sum(rhs),rhsMax =  -3.92597065967948E-12  2.68250985527783E-01
 cg2d: Sum(rhs),rhsMax =  -3.74067443686954E-12  2.71652505470222E-01
 cg2d: Sum(rhs),rhsMax =  -3.55049323275125E-12  2.74789040620854E-01
 cg2d: Sum(rhs),rhsMax =  -3.42359474103660E-12  2.77802623741298E-01
 cg2d: Sum(rhs),rhsMax =  -3.23496784915278E-12  2.80565789188807E-01
 cg2d: Sum(rhs),rhsMax =  -3.10873549125290E-12  2.83098628712884E-01
 cg2d: Sum(rhs),rhsMax =  -2.98694402545152E-12  2.85398363685033E-01
 cg2d: Sum(rhs),rhsMax =  -2.83717493942959E-12  2.87563075798910E-01
 cg2d: Sum(rhs),rhsMax =  -2.71849209809716E-12  2.89559836402696E-01
 cg2d: Sum(rhs),rhsMax =  -2.59958721215980E-12  2.91222564758029E-01
 cg2d: Sum(rhs),rhsMax =  -2.47346587656239E-12  2.92698749424062E-01
 cg2d: Sum(rhs),rhsMax =  -2.34989805392161E-12  2.93945332578314E-01
 cg2d: Sum(rhs),rhsMax =  -2.21589413484935E-12  2.95012747113151E-01
 cg2d: Sum(rhs),rhsMax =  -2.08599804096821E-12  2.95857831767207E-01
 cg2d: Sum(rhs),rhsMax =  -1.95632399169199E-12  2.96513310645578E-01
 cg2d: Sum(rhs),rhsMax =  -1.81799020282369E-12  2.96988285429030E-01
 cg2d: Sum(rhs),rhsMax =  -1.71163083706460E-12  2.97364008285515E-01
 cg2d: Sum(rhs),rhsMax =  -1.59616764250359E-12  2.97448408324292E-01
 cg2d: Sum(rhs),rhsMax =  -1.47293288677020E-12  2.97349866645884E-01
 cg2d: Sum(rhs),rhsMax =  -1.37456712678841E-12  2.97057453500099E-01
 cg2d: Sum(rhs),rhsMax =  -1.23545618180287E-12  2.96606254011483E-01
 cg2d: Sum(rhs),rhsMax =  -1.14985798660427E-12  2.95951523136332E-01
 cg2d: Sum(rhs),rhsMax =  -1.01452179990247E-12  2.95131115226663E-01
 cg2d: Sum(rhs),rhsMax =  -9.18154441365004E-13  2.94130093692736E-01
 cg2d: Sum(rhs),rhsMax =  -8.06132938180326E-13  2.92942683709650E-01
 cg2d: Sum(rhs),rhsMax =  -7.00328683933549E-13  2.91631179698492E-01
 cg2d: Sum(rhs),rhsMax =  -6.20392626160537E-13  2.90168052489430E-01
 cg2d: Sum(rhs),rhsMax =  -5.11923836654660E-13  2.88627487392915E-01
 cg2d: Sum(rhs),rhsMax =  -3.98236998933044E-13  2.86834776029356E-01
 cg2d: Sum(rhs),rhsMax =  -2.76334510829201E-13  2.85003125383871E-01
 cg2d: Sum(rhs),rhsMax =  -1.94733118519252E-13  2.82957740922921E-01
 cg2d: Sum(rhs),rhsMax =  -1.06470388061553E-13  2.80759015230278E-01
 cg2d: Sum(rhs),rhsMax =  -4.44089209850063E-16  2.78483222191816E-01
 cg2d: Sum(rhs),rhsMax =   6.36157793110215E-14  2.76119448064110E-01
 cg2d: Sum(rhs),rhsMax =   1.19237952844742E-13  2.73571863526801E-01
 cg2d: Sum(rhs),rhsMax =   1.24344978758018E-13  2.70914834130881E-01
 cg2d: Sum(rhs),rhsMax =   1.10134124042816E-13  2.68109884090014E-01
 cg2d: Sum(rhs),rhsMax =   5.72875080706581E-14  2.65230425493772E-01
 cg2d: Sum(rhs),rhsMax =   3.65263375101677E-14  2.62250573731865E-01
 cg2d: Sum(rhs),rhsMax =   2.43138842392909E-14  2.59102303972182E-01
 cg2d: Sum(rhs),rhsMax =   5.95079541199084E-14  2.55814290567681E-01
 cg2d: Sum(rhs),rhsMax =   3.08642000845794E-14  2.52385155384751E-01
 cg2d: Sum(rhs),rhsMax =   4.68514116391816E-14  2.48827499237889E-01
 cg2d: Sum(rhs),rhsMax =   7.49400541621981E-14  2.45212764975300E-01
 cg2d: Sum(rhs),rhsMax =   4.89608353859694E-14  2.41510472551527E-01
 cg2d: Sum(rhs),rhsMax =   1.72084568816899E-14  2.37752339041259E-01
 cg2d: Sum(rhs),rhsMax =   2.55351295663786E-14  2.34014043056119E-01
 cg2d: Sum(rhs),rhsMax =   1.32893696047631E-13  2.30145702596186E-01
 cg2d: Sum(rhs),rhsMax =   2.19935181178244E-13  2.26212445814917E-01
 cg2d: Sum(rhs),rhsMax =   3.33399974294935E-13  2.22241876835541E-01
 cg2d: Sum(rhs),rhsMax =   3.77364806070091E-13  2.18528127817128E-01
 cg2d: Sum(rhs),rhsMax =   4.10560474506383E-13  2.17012093503696E-01
 cg2d: Sum(rhs),rhsMax =   4.05120381685720E-13  2.15303494184598E-01
 cg2d: Sum(rhs),rhsMax =   4.86721773995669E-13  2.13410747819834E-01
 cg2d: Sum(rhs),rhsMax =   5.14477349611298E-13  2.11345608871514E-01
 cg2d: Sum(rhs),rhsMax =   5.77426995107544E-13  2.09153978991020E-01
 cg2d: Sum(rhs),rhsMax =   6.00297589414822E-13  2.14445455473292E-01
 cg2d: Sum(rhs),rhsMax =   5.86974913119320E-13  2.19739471925337E-01
 cg2d: Sum(rhs),rhsMax =   5.98410210272959E-13  2.24854112351057E-01
 cg2d: Sum(rhs),rhsMax =   5.83644244045445E-13  2.29750733088016E-01
 cg2d: Sum(rhs),rhsMax =   5.81090731088807E-13  2.34438760572834E-01
 cg2d: Sum(rhs),rhsMax =   5.41233724504764E-13  2.38873438439819E-01
 cg2d: Sum(rhs),rhsMax =   4.63629135083465E-13  2.43119352869814E-01
 cg2d: Sum(rhs),rhsMax =   4.46531700504238E-13  2.47176971795563E-01
 cg2d: Sum(rhs),rhsMax =   4.05231403988182E-13  2.51040613325452E-01
 cg2d: Sum(rhs),rhsMax =   4.04454247870945E-13  2.54694865625118E-01
 cg2d: Sum(rhs),rhsMax =   4.06452649315270E-13  2.58164914169671E-01
 cg2d: Sum(rhs),rhsMax =   3.02091685000505E-13  2.61397911908740E-01
 cg2d: Sum(rhs),rhsMax =   2.54463117244086E-13  2.64405329487118E-01
 cg2d: Sum(rhs),rhsMax =   1.74860126378462E-13  2.67189352752154E-01
 cg2d: Sum(rhs),rhsMax =   1.48214773787458E-13  2.69767088749893E-01
 cg2d: Sum(rhs),rhsMax =   1.06026298851702E-13  2.72076654694439E-01
 cg2d: Sum(rhs),rhsMax =  -4.21884749357559E-15  2.74192560684334E-01
 cg2d: Sum(rhs),rhsMax =  -1.07469588783715E-13  2.76063091241851E-01
 cg2d: Sum(rhs),rhsMax =  -1.72972747236599E-13  2.77705475766420E-01
 cg2d: Sum(rhs),rhsMax =  -2.47690756793872E-13  2.79137176001406E-01
 cg2d: Sum(rhs),rhsMax =  -2.97206703692154E-13  2.80387277060718E-01
 cg2d: Sum(rhs),rhsMax =  -3.30846461338297E-13  2.81411885307120E-01
 cg2d: Sum(rhs),rhsMax =  -3.50497408874162E-13  2.82235558052093E-01
 cg2d: Sum(rhs),rhsMax =  -3.32067706665384E-13  2.82830038277087E-01
 cg2d: Sum(rhs),rhsMax =  -3.35509398041722E-13  2.83244233369606E-01
 cg2d: Sum(rhs),rhsMax =  -3.83582055007992E-13  2.83433655128432E-01
 cg2d: Sum(rhs),rhsMax =  -3.49609230454462E-13  2.83465137853346E-01
 cg2d: Sum(rhs),rhsMax =  -3.77142761465166E-13  2.83330836714987E-01
 cg2d: Sum(rhs),rhsMax =  -3.67927910360777E-13  2.82991236311479E-01
 cg2d: Sum(rhs),rhsMax =  -3.51607631898787E-13  2.82482587656543E-01
 cg2d: Sum(rhs),rhsMax =  -3.51163542688937E-13  2.81844141538893E-01
 cg2d: Sum(rhs),rhsMax =  -3.41948691584548E-13  2.81036331999984E-01
 cg2d: Sum(rhs),rhsMax =  -3.44724249146111E-13  2.80035994079219E-01
 cg2d: Sum(rhs),rhsMax =  -4.06563671617732E-13  2.78882687588418E-01
 cg2d: Sum(rhs),rhsMax =  -4.45532499782075E-13  2.77593255896618E-01
 cg2d: Sum(rhs),rhsMax =  -4.57855975355415E-13  2.76155787297650E-01
 cg2d: Sum(rhs),rhsMax =  -5.27911048209262E-13  2.74639540921201E-01
 cg2d: Sum(rhs),rhsMax =  -5.06705788438921E-13  2.72928468449730E-01
 cg2d: Sum(rhs),rhsMax =  -5.85642645489770E-13  2.71047081510314E-01
 cg2d: Sum(rhs),rhsMax =  -6.52145004664817E-13  2.69072721578418E-01
 cg2d: Sum(rhs),rhsMax =  -7.09987624247788E-13  2.66993577960039E-01
 cg2d: Sum(rhs),rhsMax =  -7.14539538648751E-13  2.64814647738613E-01
 cg2d: Sum(rhs),rhsMax =  -7.38853422888042E-13  2.62567198778994E-01
 cg2d: Sum(rhs),rhsMax =  -8.11462008698527E-13  2.60235088344544E-01
 cg2d: Sum(rhs),rhsMax =  -8.70414851306123E-13  2.57798940288362E-01
 cg2d: Sum(rhs),rhsMax =  -9.31033028450656E-13  2.55234584278435E-01
 cg2d: Sum(rhs),rhsMax =  -9.93760629341978E-13  2.52632708459751E-01
 cg2d: Sum(rhs),rhsMax =  -1.10145226273062E-12  2.49900844849252E-01
 cg2d: Sum(rhs),rhsMax =  -1.18038911978147E-12  2.47089330141250E-01
 cg2d: Sum(rhs),rhsMax =  -1.29274368987353E-12  2.44256955849635E-01
 cg2d: Sum(rhs),rhsMax =  -1.38100642033123E-12  2.41351835659428E-01
 cg2d: Sum(rhs),rhsMax =  -1.42885703269258E-12  2.44217067582548E-01
 cg2d: Sum(rhs),rhsMax =  -1.52122758834139E-12  2.46777589753659E-01
 cg2d: Sum(rhs),rhsMax =  -1.56707979925841E-12  2.49274784120311E-01
 cg2d: Sum(rhs),rhsMax =  -1.64013247427874E-12  2.51478582711322E-01
 cg2d: Sum(rhs),rhsMax =  -1.67132974127071E-12  2.53595306041548E-01
 cg2d: Sum(rhs),rhsMax =  -1.71818115290989E-12  2.55143067768584E-01
 cg2d: Sum(rhs),rhsMax =  -1.76680892138847E-12  2.56686506224988E-01
 cg2d: Sum(rhs),rhsMax =  -1.77768910702980E-12  2.58250041484740E-01
 cg2d: Sum(rhs),rhsMax =  -1.80522263804050E-12  2.60508358932688E-01
 cg2d: Sum(rhs),rhsMax =  -1.86806126123429E-12  2.60793400619301E-01
 cg2d: Sum(rhs),rhsMax =  -1.97064586870965E-12  2.61211626798187E-01
 cg2d: Sum(rhs),rhsMax =  -1.92079685490398E-12  2.61492766436695E-01
 cg2d: Sum(rhs),rhsMax =  -1.92179605562615E-12  2.63288808910597E-01
 cg2d: Sum(rhs),rhsMax =  -1.90092386276319E-12  2.61927993074449E-01
 cg2d: Sum(rhs),rhsMax =  -1.88105087062240E-12  2.60876710783095E-01
 cg2d: Sum(rhs),rhsMax =  -1.96376248595698E-12  2.60648019481010E-01
 cg2d: Sum(rhs),rhsMax =  -2.08799644241253E-12  2.59520927477827E-01
 cg2d: Sum(rhs),rhsMax =  -2.23276952482365E-12  2.58643358707066E-01
 cg2d: Sum(rhs),rhsMax =  -2.31703545239270E-12  2.57408320848644E-01
 cg2d: Sum(rhs),rhsMax =  -2.38931097129580E-12  2.55957465117448E-01
 cg2d: Sum(rhs),rhsMax =  -2.40651942817749E-12  2.53983021065773E-01
 cg2d: Sum(rhs),rhsMax =  -2.44304576568766E-12  2.52105840709945E-01
 cg2d: Sum(rhs),rhsMax =  -2.48390197299386E-12  2.49985243467292E-01
 cg2d: Sum(rhs),rhsMax =  -2.58604249125938E-12  2.47570001005474E-01
 cg2d: Sum(rhs),rhsMax =  -2.63400412592318E-12  2.44695291379949E-01
 cg2d: Sum(rhs),rhsMax =  -2.75479639100240E-12  2.42954529928565E-01
 cg2d: Sum(rhs),rhsMax =  -2.75024447660144E-12  2.45670518982563E-01
 cg2d: Sum(rhs),rhsMax =  -2.81552559044940E-12  2.48652992757502E-01
 cg2d: Sum(rhs),rhsMax =  -2.84838819197830E-12  2.51467376190421E-01
 cg2d: Sum(rhs),rhsMax =  -2.86504153734768E-12  2.54067384882177E-01
 cg2d: Sum(rhs),rhsMax =  -2.92244006772080E-12  2.56461712715242E-01
 cg2d: Sum(rhs),rhsMax =  -2.93409740947936E-12  2.58703534128030E-01
 cg2d: Sum(rhs),rhsMax =  -2.96329627502701E-12  2.60766867948742E-01
 cg2d: Sum(rhs),rhsMax =  -2.97806224125452E-12  2.62651849676510E-01
 cg2d: Sum(rhs),rhsMax =  -3.01825231474595E-12  2.64356898416195E-01
 cg2d: Sum(rhs),rhsMax =  -3.03113090183160E-12  2.65881705330493E-01
 cg2d: Sum(rhs),rhsMax =  -3.03390645939317E-12  2.67201597961194E-01
 cg2d: Sum(rhs),rhsMax =  -3.04356539970740E-12  2.68372842400115E-01
 cg2d: Sum(rhs),rhsMax =  -3.03179703564638E-12  2.69379640679079E-01
 cg2d: Sum(rhs),rhsMax =  -3.01159097659820E-12  2.70240037784349E-01
 cg2d: Sum(rhs),rhsMax =  -2.94775315268225E-12  2.70939572860979E-01
 cg2d: Sum(rhs),rhsMax =  -3.02941005614343E-12  2.71458038867597E-01
 cg2d: Sum(rhs),rhsMax =  -3.05810932132999E-12  2.71804843617383E-01
 cg2d: Sum(rhs),rhsMax =  -3.07881498073925E-12  2.72005762423008E-01
 cg2d: Sum(rhs),rhsMax =  -3.08653103076040E-12  2.72062334366533E-01
 cg2d: Sum(rhs),rhsMax =  -3.10862446895044E-12  2.71975866420682E-01
 cg2d: Sum(rhs),rhsMax =  -3.14304138271382E-12  2.71696294281563E-01
 cg2d: Sum(rhs),rhsMax =  -3.20565796130268E-12  2.71239144849988E-01
 cg2d: Sum(rhs),rhsMax =  -3.22220028436959E-12  2.70617613874200E-01
 cg2d: Sum(rhs),rhsMax =  -3.30102611911798E-12  2.69875260357722E-01
 cg2d: Sum(rhs),rhsMax =  -3.37779804127081E-12  2.69022368851140E-01
 cg2d: Sum(rhs),rhsMax =  -3.47355477714473E-12  2.68086686094266E-01
 cg2d: Sum(rhs),rhsMax =  -3.54288820503257E-12  2.67070719820989E-01
 cg2d: Sum(rhs),rhsMax =  -3.62632146533315E-12  2.65975614398733E-01
 cg2d: Sum(rhs),rhsMax =  -3.67234020970386E-12  2.64760043762967E-01
 cg2d: Sum(rhs),rhsMax =  -3.72452069186124E-12  2.63450726957586E-01
 cg2d: Sum(rhs),rhsMax =  -3.79868358990620E-12  2.62063604416123E-01
 cg2d: Sum(rhs),rhsMax =  -3.87168075377531E-12  2.60551983164117E-01
 cg2d: Sum(rhs),rhsMax =  -3.95244947881679E-12  2.58917758435630E-01
 cg2d: Sum(rhs),rhsMax =  -4.04309918877743E-12  2.57201072722628E-01
 cg2d: Sum(rhs),rhsMax =  -4.10915745874263E-12  2.55438525689322E-01
 cg2d: Sum(rhs),rhsMax =  -4.06447098200147E-12  2.53543255247833E-01
 cg2d: Sum(rhs),rhsMax =  -4.01273458905393E-12  2.51661645332664E-01
 cg2d: Sum(rhs),rhsMax =  -4.01140232142438E-12  2.49650318536696E-01
 cg2d: Sum(rhs),rhsMax =  -3.99213995194714E-12  2.47570957128268E-01
 cg2d: Sum(rhs),rhsMax =  -3.95966592847685E-12  2.45461480010875E-01
 cg2d: Sum(rhs),rhsMax =  -3.92380572478146E-12  2.43259529589797E-01
 cg2d: Sum(rhs),rhsMax =  -3.87506693400042E-12  2.40941795598139E-01
 cg2d: Sum(rhs),rhsMax =  -3.84231535477397E-12  2.39006993160340E-01
 cg2d: Sum(rhs),rhsMax =  -3.92380572478146E-12  2.36202760966050E-01
 cg2d: Sum(rhs),rhsMax =  -4.04098976503064E-12  2.33637720596354E-01
 cg2d: Sum(rhs),rhsMax =  -4.17577084022014E-12  2.30928129849817E-01
 cg2d: Sum(rhs),rhsMax =  -4.23788781844792E-12  2.28176517010180E-01
 cg2d: Sum(rhs),rhsMax =  -4.32398561400760E-12  2.25388595995933E-01
 cg2d: Sum(rhs),rhsMax =  -4.42212932938446E-12  2.22572340029116E-01
 cg2d: Sum(rhs),rhsMax =  -4.50234294291363E-12  2.19680976907353E-01
 cg2d: Sum(rhs),rhsMax =  -4.61730653711356E-12  2.16706649646386E-01
 cg2d: Sum(rhs),rhsMax =  -4.75069983352228E-12  2.13632106967272E-01
 cg2d: Sum(rhs),rhsMax =  -4.85533835359320E-12  2.10499706877448E-01
 cg2d: Sum(rhs),rhsMax =  -4.95764540531241E-12  2.07369226151090E-01
 cg2d: Sum(rhs),rhsMax =  -5.08271202903643E-12  2.04245068855475E-01
 cg2d: Sum(rhs),rhsMax =  -5.20139487036886E-12  2.01128835768080E-01
(PID.TID 0000.0001)      cg2d_init_res =   9.87559379163122E-02
(PID.TID 0000.0001)      cg2d_iters(min,last) =      -1      30
(PID.TID 0000.0001)      cg2d_last_res =   3.70964815302142E-14
(PID.TID 0000.0001) // =======================================================
(PID.TID 0000.0001) // Begin MONITOR dynamic field statistics
(PID.TID 0000.0001) // =======================================================
(PID.TID 0000.0001) %MON time_tsnumber                =                  2400
(PID.TID 0000.0001) %MON time_secondsf                =   3.6000000000000E+04
(PID.TID 0000.0001) %MON dynstat_eta_max              =   1.1802859418101E-02
(PID.TID 0000.0001) %MON dynstat_eta_min              =  -2.9006778657590E-02
(PID.TID 0000.0001) %MON dynstat_eta_mean             =   1.2201505912816E-15
(PID.TID 0000.0001) %MON dynstat_eta_sd               =   8.9915194507956E-03
(PID.TID 0000.0001) %MON dynstat_eta_del2             =   2.3640581496875E-04
(PID.TID 0000.0001) %MON dynstat_uvel_max             =   1.3391607110340E+00
(PID.TID 0000.0001) %MON dynstat_uvel_min             =  -7.8568945714861E-01
(PID.TID 0000.0001) %MON dynstat_uvel_mean            =  -6.5568590833643E-04
(PID.TID 0000.0001) %MON dynstat_uvel_sd              =   1.3734481418353E-01
(PID.TID 0000.0001) %MON dynstat_uvel_del2            =   7.4968435468978E-04
(PID.TID 0000.0001) %MON dynstat_vvel_max             =   0.0000000000000E+00
(PID.TID 0000.0001) %MON dynstat_vvel_min             =   0.0000000000000E+00
(PID.TID 0000.0001) %MON dynstat_vvel_mean            =   0.0000000000000E+00
(PID.TID 0000.0001) %MON dynstat_vvel_sd              =   0.0000000000000E+00
(PID.TID 0000.0001) %MON dynstat_vvel_del2            =   0.0000000000000E+00
(PID.TID 0000.0001) %MON dynstat_wvel_max             =   5.6747269602790E-02
(PID.TID 0000.0001) %MON dynstat_wvel_min             =  -4.2730163134944E-02
(PID.TID 0000.0001) %MON dynstat_wvel_mean            =   9.9270396402785E-20
(PID.TID 0000.0001) %MON dynstat_wvel_sd              =   4.4267276840785E-03
(PID.TID 0000.0001) %MON dynstat_wvel_del2            =   8.9380224243642E-05
(PID.TID 0000.0001) %MON dynstat_theta_max            =   1.5000000000465E+01
(PID.TID 0000.0001) %MON dynstat_theta_min            =   9.9999999999940E+00
(PID.TID 0000.0001) %MON dynstat_theta_mean           =   1.2728645528602E+01
(PID.TID 0000.0001) %MON dynstat_theta_sd             =   2.4058947555266E+00
(PID.TID 0000.0001) %MON dynstat_theta_del2           =   2.1624203289616E-03
(PID.TID 0000.0001) %MON dynstat_salt_max             =   3.5000000000000E+01
(PID.TID 0000.0001) %MON dynstat_salt_min             =   3.5000000000000E+01
(PID.TID 0000.0001) %MON dynstat_salt_mean            =   3.5000000000000E+01
(PID.TID 0000.0001) %MON dynstat_salt_sd              =   1.0658141036402E-13
(PID.TID 0000.0001) %MON dynstat_salt_del2            =   0.0000000000000E+00
(PID.TID 0000.0001) %MON dynstat_sst_max              =   1.5000000000003E+01
(PID.TID 0000.0001) %MON dynstat_sst_min              =   1.4999827493593E+01
(PID.TID 0000.0001) %MON dynstat_sst_mean             =   1.4999997953189E+01
(PID.TID 0000.0001) %MON dynstat_sst_sd               =   1.6370688682802E-05
(PID.TID 0000.0001) %MON dynstat_sst_del2             =   5.7704206406708E-07
(PID.TID 0000.0001) %MON dynstat_sss_max              =   3.5000000000000E+01
(PID.TID 0000.0001) %MON dynstat_sss_min              =   3.5000000000000E+01
(PID.TID 0000.0001) %MON dynstat_sss_mean             =   3.5000000000000E+01
(PID.TID 0000.0001) %MON dynstat_sss_sd               =   4.2632564145606E-14
(PID.TID 0000.0001) %MON dynstat_sss_del2             =   0.0000000000000E+00
(PID.TID 0000.0001) %MON forcing_qnet_max             =   0.0000000000000E+00
(PID.TID 0000.0001) %MON forcing_qnet_min             =   0.0000000000000E+00
(PID.TID 0000.0001) %MON forcing_qnet_mean            =   0.0000000000000E+00
(PID.TID 0000.0001) %MON forcing_qnet_sd              =   0.0000000000000E+00
(PID.TID 0000.0001) %MON forcing_qnet_del2            =   0.0000000000000E+00
(PID.TID 0000.0001) %MON forcing_qsw_max              =   0.0000000000000E+00
(PID.TID 0000.0001) %MON forcing_qsw_min              =   0.0000000000000E+00
(PID.TID 0000.0001) %MON forcing_qsw_mean             =   0.0000000000000E+00
(PID.TID 0000.0001) %MON forcing_qsw_sd               =   0.0000000000000E+00
(PID.TID 0000.0001) %MON forcing_qsw_del2             =   0.0000000000000E+00
(PID.TID 0000.0001) %MON forcing_empmr_max            =   0.0000000000000E+00
(PID.TID 0000.0001) %MON forcing_empmr_min            =   0.0000000000000E+00
(PID.TID 0000.0001) %MON forcing_empmr_mean           =   0.0000000000000E+00
(PID.TID 0000.0001) %MON forcing_empmr_sd             =   0.0000000000000E+00
(PID.TID 0000.0001) %MON forcing_empmr_del2           =   0.0000000000000E+00
(PID.TID 0000.0001) %MON forcing_fu_max               =   0.0000000000000E+00
(PID.TID 0000.0001) %MON forcing_fu_min               =   0.0000000000000E+00
(PID.TID 0000.0001) %MON forcing_fu_mean              =   0.0000000000000E+00
(PID.TID 0000.0001) %MON forcing_fu_sd                =   0.0000000000000E+00
(PID.TID 0000.0001) %MON forcing_fu_del2              =   0.0000000000000E+00
(PID.TID 0000.0001) %MON forcing_fv_max               =   0.0000000000000E+00
(PID.TID 0000.0001) %MON forcing_fv_min               =   0.0000000000000E+00
(PID.TID 0000.0001) %MON forcing_fv_mean              =   0.0000000000000E+00
(PID.TID 0000.0001) %MON forcing_fv_sd                =   0.0000000000000E+00
(PID.TID 0000.0001) %MON forcing_fv_del2              =   0.0000000000000E+00
(PID.TID 0000.0001) %MON advcfl_uvel_max              =   7.8148929648939E-02
(PID.TID 0000.0001) %MON advcfl_vvel_max              =   0.0000000000000E+00
(PID.TID 0000.0001) %MON advcfl_wvel_max              =   3.9990298558116E-01
(PID.TID 0000.0001) %MON advcfl_W_hf_max              =   4.0425369179665E-01
(PID.TID 0000.0001) %MON pe_b_mean                    =   2.2695488373369E-06
(PID.TID 0000.0001) %MON ke_max                       =   8.3762184096014E-01
(PID.TID 0000.0001) %MON ke_mean                      =   9.5364202698872E-03
(PID.TID 0000.0001) %MON ke_vol                       =   8.5338127039305E+10
(PID.TID 0000.0001) %MON vort_r_min                   =   0.0000000000000E+00
(PID.TID 0000.0001) %MON vort_r_max                   =   0.0000000000000E+00
(PID.TID 0000.0001) %MON vort_a_mean                  =   0.0000000000000E+00
(PID.TID 0000.0001) %MON vort_a_sd                    =   0.0000000000000E+00
(PID.TID 0000.0001) %MON vort_p_mean                  =   0.0000000000000E+00
(PID.TID 0000.0001) %MON vort_p_sd                    =   0.0000000000000E+00
(PID.TID 0000.0001) %MON surfExpan_theta_mean         =  -2.3325312307301E-12
(PID.TID 0000.0001) %MON surfExpan_salt_mean          =   6.7220207219246E-18
(PID.TID 0000.0001) // =======================================================
(PID.TID 0000.0001) // End MONITOR dynamic field statistics
(PID.TID 0000.0001) // =======================================================
(PID.TID 0000.0001) // =======================================================
(PID.TID 0000.0001) // Begin OBCS MONITOR field statistics
(PID.TID 0000.0001) // =======================================================
(PID.TID 0000.0001) %MON obc_E_uVel_max               =   0.0000000000000E+00
(PID.TID 0000.0001) %MON obc_E_uVel_min               =   0.0000000000000E+00
(PID.TID 0000.0001) %MON obc_E_uVel_mean              =   0.0000000000000E+00
(PID.TID 0000.0001) %MON obc_E_uVel_sd                =   0.0000000000000E+00
(PID.TID 0000.0001) %MON obc_E_uVel_Int               =   0.0000000000000E+00
(PID.TID 0000.0001) %MON obc_W_uVel_max               =   0.0000000000000E+00
(PID.TID 0000.0001) %MON obc_W_uVel_min               =   0.0000000000000E+00
(PID.TID 0000.0001) %MON obc_W_uVel_mean              =   0.0000000000000E+00
(PID.TID 0000.0001) %MON obc_W_uVel_sd                =   0.0000000000000E+00
(PID.TID 0000.0001) %MON obc_W_uVel_Int               =   0.0000000000000E+00
(PID.TID 0000.0001) // =======================================================
(PID.TID 0000.0001) // End OBCS MONITOR field statistics
(PID.TID 0000.0001) // =======================================================
 cg2d: Sum(rhs),rhsMax =  -5.34533528551151E-12  1.98038221388944E-01
 cg2d: Sum(rhs),rhsMax =  -5.48527889776551E-12  1.94726542834380E-01
 cg2d: Sum(rhs),rhsMax =  -5.63238344852834E-12  1.91698518788409E-01
 cg2d: Sum(rhs),rhsMax =  -5.65081315073712E-12  1.92537955733612E-01
 cg2d: Sum(rhs),rhsMax =  -5.55344659147750E-12  1.97191308300099E-01
 cg2d: Sum(rhs),rhsMax =  -5.39657207809796E-12  2.01651842052335E-01
 cg2d: Sum(rhs),rhsMax =  -5.27361487812072E-12  2.05974237448461E-01
 cg2d: Sum(rhs),rhsMax =  -5.16214848644836E-12  2.10141621583860E-01
 cg2d: Sum(rhs),rhsMax =  -5.03586061739725E-12  2.14173399118067E-01
 cg2d: Sum(rhs),rhsMax =  -4.95326002436514E-12  2.17996277707009E-01
 cg2d: Sum(rhs),rhsMax =  -4.85206319567055E-12  2.21660613578238E-01
 cg2d: Sum(rhs),rhsMax =  -4.75913752850943E-12  2.25157785709562E-01
 cg2d: Sum(rhs),rhsMax =  -4.69629890531564E-12  2.28487670355847E-01
 cg2d: Sum(rhs),rhsMax =  -4.53381776566175E-12  2.31631554477055E-01
 cg2d: Sum(rhs),rhsMax =  -4.38565850302552E-12  2.34636744551401E-01
 cg2d: Sum(rhs),rhsMax =  -4.27385904444577E-12  2.37438674471233E-01
 cg2d: Sum(rhs),rhsMax =  -4.30033786358308E-12  2.40155165720908E-01
 cg2d: Sum(rhs),rhsMax =  -4.28052038259352E-12  2.42720987422585E-01
 cg2d: Sum(rhs),rhsMax =  -4.27968771532505E-12  2.45106715167817E-01
 cg2d: Sum(rhs),rhsMax =  -4.25476320842222E-12  2.47908049124452E-01
 cg2d: Sum(rhs),rhsMax =  -4.26203516923351E-12  2.49657414001320E-01
 cg2d: Sum(rhs),rhsMax =  -4.28040936029106E-12  2.51485955343955E-01
 cg2d: Sum(rhs),rhsMax =  -4.27119450918667E-12  2.53214299251378E-01
 cg2d: Sum(rhs),rhsMax =  -4.29023483405899E-12  2.54750718654263E-01
 cg2d: Sum(rhs),rhsMax =  -4.28990176715160E-12  2.56143270068093E-01
 cg2d: Sum(rhs),rhsMax =  -4.33009184064304E-12  2.57377878958839E-01
 cg2d: Sum(rhs),rhsMax =  -4.32687219387162E-12  2.58423642818110E-01
 cg2d: Sum(rhs),rhsMax =  -4.35412816912617E-12  2.59310742585474E-01
 cg2d: Sum(rhs),rhsMax =  -4.36378710944041E-12  2.60059557654166E-01
 cg2d: Sum(rhs),rhsMax =  -4.37716529688714E-12  2.60687768187991E-01
 cg2d: Sum(rhs),rhsMax =  -4.36262137526455E-12  2.61185525223497E-01
 cg2d: Sum(rhs),rhsMax =  -4.26275681419952E-12  2.61553346825357E-01
 cg2d: Sum(rhs),rhsMax =  -4.23000523497308E-12  2.61798184327115E-01
 cg2d: Sum(rhs),rhsMax =  -4.21329637845247E-12  2.61927440297924E-01
 cg2d: Sum(rhs),rhsMax =  -4.20080636942544E-12  2.61945569038269E-01
 cg2d: Sum(rhs),rhsMax =  -4.17887946468909E-12  2.61855115275024E-01
 cg2d: Sum(rhs),rhsMax =  -4.16305878658818E-12  2.61613413746858E-01
 cg2d: Sum(rhs),rhsMax =  -4.15328882397148E-12  2.61289393483486E-01
 cg2d: Sum(rhs),rhsMax =  -4.12775369440510E-12  2.60856061809634E-01
 cg2d: Sum(rhs),rhsMax =  -4.10538270045890E-12  2.60301750425039E-01
 cg2d: Sum(rhs),rhsMax =  -4.09250411337325E-12  2.59625597825049E-01
 cg2d: Sum(rhs),rhsMax =  -4.06563671617732E-12  2.58864346864662E-01
 cg2d: Sum(rhs),rhsMax =  -4.04709599166608E-12  2.57758752063349E-01
 cg2d: Sum(rhs),rhsMax =  -4.02666788801298E-12  2.56892708541806E-01
 cg2d: Sum(rhs),rhsMax =  -3.96443988748274E-12  2.55897279644781E-01
 cg2d: Sum(rhs),rhsMax =  -3.90371068803574E-12  2.54775929946007E-01
 cg2d: Sum(rhs),rhsMax =  -3.80617759532242E-12  2.53578651481705E-01
 cg2d: Sum(rhs),rhsMax =  -3.71885855443566E-12  2.52321370713664E-01
 cg2d: Sum(rhs),rhsMax =  -3.61632945811152E-12  2.50964424937365E-01
 cg2d: Sum(rhs),rhsMax =  -3.50330875420468E-12  2.49540238055443E-01
 cg2d: Sum(rhs),rhsMax =  -3.48099327140972E-12  2.48036952515882E-01
 cg2d: Sum(rhs),rhsMax =  -3.45290462888670E-12  2.46447686603205E-01
 cg2d: Sum(rhs),rhsMax =  -3.35398375739260E-12  2.44672331023591E-01
 cg2d: Sum(rhs),rhsMax =  -3.29603011550716E-12  2.42968941126495E-01
 cg2d: Sum(rhs),rhsMax =  -3.34438032822959E-12  2.41189002465346E-01
 cg2d: Sum(rhs),rhsMax =  -3.36386474231176E-12  2.39392494025532E-01
 cg2d: Sum(rhs),rhsMax =  -3.39939187909977E-12  2.37551907067545E-01
 cg2d: Sum(rhs),rhsMax =  -3.39306360785940E-12  2.35675182785370E-01
 cg2d: Sum(rhs),rhsMax =  -3.39184236253232E-12  2.33765191016681E-01
 cg2d: Sum(rhs),rhsMax =  -3.39256400749832E-12  2.31818630770679E-01
 cg2d: Sum(rhs),rhsMax =  -3.40871775250662E-12  2.29825895496207E-01
 cg2d: Sum(rhs),rhsMax =  -3.40238948126625E-12  2.27783191416383E-01
 cg2d: Sum(rhs),rhsMax =  -3.41338068921004E-12  2.25693439341763E-01
 cg2d: Sum(rhs),rhsMax =  -3.41060513164848E-12  2.23543370149142E-01
 cg2d: Sum(rhs),rhsMax =  -3.41682238058638E-12  2.21343042770152E-01
 cg2d: Sum(rhs),rhsMax =  -3.39722694420175E-12  2.19118644887768E-01
 cg2d: Sum(rhs),rhsMax =  -3.38284955603285E-12  2.16870601035495E-01
 cg2d: Sum(rhs),rhsMax =  -3.35809158258371E-12  2.14594183704707E-01
 cg2d: Sum(rhs),rhsMax =  -3.34243743793650E-12  2.12263703093675E-01
 cg2d: Sum(rhs),rhsMax =  -3.32006644399030E-12  2.09902834765992E-01
 cg2d: Sum(rhs),rhsMax =  -3.31867866520952E-12  2.07521643433799E-01
 cg2d: Sum(rhs),rhsMax =  -3.31146221554945E-12  2.05139392301524E-01
 cg2d: Sum(rhs),rhsMax =  -3.34032801418971E-12  2.02739024242073E-01
 cg2d: Sum(rhs),rhsMax =  -3.31840110945336E-12  2.00336766809599E-01
 cg2d: Sum(rhs),rhsMax =  -3.35670380380293E-12  1.97909589321070E-01
 cg2d: Sum(rhs),rhsMax =  -3.47161188685163E-12  1.95473199020053E-01
 cg2d: Sum(rhs),rhsMax =  -3.57286422669745E-12  1.93039048311146E-01
 cg2d: Sum(rhs),rhsMax =  -3.67117447552801E-12  1.90653222217617E-01
 cg2d: Sum(rhs),rhsMax =  -3.74805741998330E-12  1.88301127462570E-01
 cg2d: Sum(rhs),rhsMax =  -3.82432974177505E-12  1.85983604242085E-01
 cg2d: Sum(rhs),rhsMax =  -3.81161768814309E-12  1.83702918584008E-01
 cg2d: Sum(rhs),rhsMax =  -3.78991282801167E-12  1.81440650106275E-01
 cg2d: Sum(rhs),rhsMax =  -3.81139564353816E-12  1.78902551758741E-01
 cg2d: Sum(rhs),rhsMax =  -3.72923913971590E-12  1.80848687788736E-01
 cg2d: Sum(rhs),rhsMax =  -3.62310181856174E-12  1.84218104245627E-01
 cg2d: Sum(rhs),rhsMax =  -3.53450602119665E-12  1.87487135991795E-01
 cg2d: Sum(rhs),rhsMax =  -3.40938388632139E-12  1.90647027377178E-01
 cg2d: Sum(rhs),rhsMax =  -3.29208882376975E-12  1.93733368620824E-01
 cg2d: Sum(rhs),rhsMax =  -3.17068593602698E-12  1.96664479221427E-01
 cg2d: Sum(rhs),rhsMax =  -3.01703106941886E-12  1.99474385852117E-01
 cg2d: Sum(rhs),rhsMax =  -2.87309065427621E-12  2.02149209335784E-01
 cg2d: Sum(rhs),rhsMax =  -2.72970535064587E-12  2.04690783847598E-01
 cg2d: Sum(rhs),rhsMax =  -2.60769184023957E-12  2.07128506464770E-01
 cg2d: Sum(rhs),rhsMax =  -2.48145948233969E-12  2.09435957216101E-01
 cg2d: Sum(rhs),rhsMax =  -2.36283215215849E-12  2.11595350673957E-01
 cg2d: Sum(rhs),rhsMax =  -2.25985896662451E-12  2.13636060615985E-01
 cg2d: Sum(rhs),rhsMax =  -2.20240492510015E-12  2.15568340446758E-01
 cg2d: Sum(rhs),rhsMax =  -2.18103313187612E-12  2.17384498314193E-01
 cg2d: Sum(rhs),rhsMax =  -2.16088258397917E-12  2.19082505117317E-01
 cg2d: Sum(rhs),rhsMax =  -2.18641771354555E-12  2.20662460352932E-01
 cg2d: Sum(rhs),rhsMax =  -2.21039853087746E-12  2.22140308165063E-01
 cg2d: Sum(rhs),rhsMax =  -2.22788454351530E-12  2.23499131023094E-01
 cg2d: Sum(rhs),rhsMax =  -2.14317452673640E-12  2.24722569774395E-01
 cg2d: Sum(rhs),rhsMax =  -2.05269135022945E-12  2.25816844049854E-01
 cg2d: Sum(rhs),rhsMax =  -1.95810034853139E-12  2.26782664784470E-01
 cg2d: Sum(rhs),rhsMax =  -1.89404048001052E-12  2.27641169550773E-01
 cg2d: Sum(rhs),rhsMax =  -1.83569826006647E-12  2.28401519752156E-01
 cg2d: Sum(rhs),rhsMax =  -1.78412840057263E-12  2.29052430502998E-01
 cg2d: Sum(rhs),rhsMax =  -1.74021907994870E-12  2.29605082186969E-01
 cg2d: Sum(rhs),rhsMax =  -1.65767399806782E-12  2.30075108066871E-01
 cg2d: Sum(rhs),rhsMax =  -1.57840407410959E-12  2.30445830851196E-01
 cg2d: Sum(rhs),rhsMax =  -1.49502632496024E-12  2.30738969207354E-01
 cg2d: Sum(rhs),rhsMax =  -1.39122047215778E-12  2.30957479412199E-01
 cg2d: Sum(rhs),rhsMax =  -1.30001565068483E-12  2.31086013144064E-01
 cg2d: Sum(rhs),rhsMax =  -1.18921539282724E-12  2.31125689657792E-01
 cg2d: Sum(rhs),rhsMax =  -1.10950137965915E-12  2.31065010654427E-01
 cg2d: Sum(rhs),rhsMax =  -1.01796349127881E-12  2.30922582142979E-01
 cg2d: Sum(rhs),rhsMax =  -9.65227897609111E-13  2.30699303449314E-01
 cg2d: Sum(rhs),rhsMax =  -8.71080985120898E-13  2.30398798811614E-01
 cg2d: Sum(rhs),rhsMax =  -7.93809462606987E-13  2.30007171902909E-01
 cg2d: Sum(rhs),rhsMax =  -7.24531545870377E-13  2.29539102700487E-01
 cg2d: Sum(rhs),rhsMax =  -6.60915766559356E-13  2.28998456337165E-01
 cg2d: Sum(rhs),rhsMax =  -6.28941343450151E-13  2.28379274965507E-01
 cg2d: Sum(rhs),rhsMax =  -5.44231326671252E-13  2.27682948070250E-01
 cg2d: Sum(rhs),rhsMax =  -5.39679412270289E-13  2.26906628395415E-01
 cg2d: Sum(rhs),rhsMax =  -5.04152275482284E-13  2.26057196207393E-01
 cg2d: Sum(rhs),rhsMax =  -4.76951811378967E-13  2.25135453794736E-01
 cg2d: Sum(rhs),rhsMax =  -4.57522908448027E-13  2.24149364843159E-01
 cg2d: Sum(rhs),rhsMax =  -4.26325641456060E-13  2.23097664365181E-01
 cg2d: Sum(rhs),rhsMax =  -3.74811293113453E-13  2.21974848052701E-01
 cg2d: Sum(rhs),rhsMax =  -3.39506200930373E-13  2.20803595803638E-01
 cg2d: Sum(rhs),rhsMax =  -3.20854454116670E-13  2.19577665929227E-01
 cg2d: Sum(rhs),rhsMax =  -2.80664380625240E-13  2.18309686715457E-01
 cg2d: Sum(rhs),rhsMax =  -2.56017429478561E-13  2.16995049610593E-01
 cg2d: Sum(rhs),rhsMax =  -2.08166817117217E-13  2.15653082462557E-01
 cg2d: Sum(rhs),rhsMax =  -1.60649271663260E-13  2.14257428489304E-01
 cg2d: Sum(rhs),rhsMax =  -1.22346577313692E-13  2.12837144086464E-01
 cg2d: Sum(rhs),rhsMax =  -8.84847750626250E-14  2.11388616136468E-01
 cg2d: Sum(rhs),rhsMax =  -5.66213742558830E-14  2.09902163889703E-01
 cg2d: Sum(rhs),rhsMax =  -5.99520433297585E-15  2.11679422015268E-01
 cg2d: Sum(rhs),rhsMax =   4.37427871702312E-14  2.14120043561834E-01
 cg2d: Sum(rhs),rhsMax =   8.65973959207622E-14  2.16302430800853E-01
 cg2d: Sum(rhs),rhsMax =   1.58650870218935E-13  2.18193009392134E-01
 cg2d: Sum(rhs),rhsMax =   1.86184401229639E-13  2.19782159068853E-01
 cg2d: Sum(rhs),rhsMax =   2.09499084746767E-13  2.21021162908222E-01
 cg2d: Sum(rhs),rhsMax =   2.81552559044940E-13  2.22024457343335E-01
 cg2d: Sum(rhs),rhsMax =   3.03534974932518E-13  2.22759260140557E-01
 cg2d: Sum(rhs),rhsMax =   3.73701070088828E-13  2.23333698500650E-01
 cg2d: Sum(rhs),rhsMax =   4.06119582407882E-13  2.23627522484283E-01
 cg2d: Sum(rhs),rhsMax =   4.56079618516014E-13  2.23569550002009E-01
 cg2d: Sum(rhs),rhsMax =   5.53779244683028E-13  2.23244763674607E-01
 cg2d: Sum(rhs),rhsMax =   6.02629057766535E-13  2.22582253275184E-01
 cg2d: Sum(rhs),rhsMax =   6.35602681597902E-13  2.21740790305643E-01
 cg2d: Sum(rhs),rhsMax =   7.01327884655711E-13  2.20725710901490E-01
 cg2d: Sum(rhs),rhsMax =   7.11875003389650E-13  2.19457459318637E-01
 cg2d: Sum(rhs),rhsMax =   7.18536341537401E-13  2.17940652374365E-01
 cg2d: Sum(rhs),rhsMax =   6.35380636992977E-13  2.16189062398813E-01
 cg2d: Sum(rhs),rhsMax =   5.67990099398230E-13  2.14091472362356E-01
 cg2d: Sum(rhs),rhsMax =   5.11479747444810E-13  2.11680913728994E-01
 cg2d: Sum(rhs),rhsMax =   4.11004563716233E-13  2.09099986525559E-01
 cg2d: Sum(rhs),rhsMax =   3.15414361296007E-13  2.06311107102699E-01
 cg2d: Sum(rhs),rhsMax =   2.51132448170210E-13  2.03195333901843E-01
 cg2d: Sum(rhs),rhsMax =   2.00506278247303E-13  1.99903384326234E-01
 cg2d: Sum(rhs),rhsMax =   7.59392548843607E-14  1.96327051547658E-01
 cg2d: Sum(rhs),rhsMax =   6.43929354282591E-14  1.92452215341674E-01
 cg2d: Sum(rhs),rhsMax =   2.99760216648792E-15  1.88342936710553E-01
 cg2d: Sum(rhs),rhsMax =   1.88737914186277E-15  1.85720589600567E-01
 cg2d: Sum(rhs),rhsMax =   2.93098878501041E-14  1.84054445353625E-01
 cg2d: Sum(rhs),rhsMax =   9.60342916300760E-14  1.82281629050240E-01
 cg2d: Sum(rhs),rhsMax =   6.18394224716212E-14  1.90407481094962E-01
 cg2d: Sum(rhs),rhsMax =   5.76205749780456E-14  1.98231281679845E-01
 cg2d: Sum(rhs),rhsMax =   1.19126930542279E-13  2.05801080323840E-01
 cg2d: Sum(rhs),rhsMax =   1.89737114908439E-13  2.13282514243746E-01
 cg2d: Sum(rhs),rhsMax =   2.49356091330810E-13  2.20616763650688E-01
 cg2d: Sum(rhs),rhsMax =   2.83217893581877E-13  2.27611669957301E-01
 cg2d: Sum(rhs),rhsMax =   3.29181126801359E-13  2.34021381001686E-01
 cg2d: Sum(rhs),rhsMax =   3.58491014651463E-13  2.40336987307762E-01
 cg2d: Sum(rhs),rhsMax =   3.80917519748891E-13  2.46380214347865E-01
 cg2d: Sum(rhs),rhsMax =   4.16888745746746E-13  2.52135517794813E-01
 cg2d: Sum(rhs),rhsMax =   4.13336032067946E-13  2.57556402308252E-01
 cg2d: Sum(rhs),rhsMax =   4.35318447955524E-13  2.62718509370603E-01
 cg2d: Sum(rhs),rhsMax =   4.22217816264947E-13  2.67504176140207E-01
 cg2d: Sum(rhs),rhsMax =   3.90243393155743E-13  2.71961719047221E-01
 cg2d: Sum(rhs),rhsMax =   3.76476627650391E-13  2.76007422018653E-01
 cg2d: Sum(rhs),rhsMax =   3.57047724719450E-13  2.79563999617030E-01
 cg2d: Sum(rhs),rhsMax =   3.91797705390218E-13  2.82777840186346E-01
 cg2d: Sum(rhs),rhsMax =   4.21551682450172E-13  2.85564571316159E-01
 cg2d: Sum(rhs),rhsMax =   4.25437463036360E-13  2.88005195464694E-01
 cg2d: Sum(rhs),rhsMax =   4.55524507003702E-13  2.89770568601929E-01
 cg2d: Sum(rhs),rhsMax =   5.15032461123610E-13  2.91124344634977E-01
 cg2d: Sum(rhs),rhsMax =   5.67990099398230E-13  2.92378056043200E-01
 cg2d: Sum(rhs),rhsMax =   6.45705711121991E-13  2.93010138984164E-01
 cg2d: Sum(rhs),rhsMax =   6.93334278878410E-13  2.93161629142874E-01
 cg2d: Sum(rhs),rhsMax =   7.20867809889114E-13  2.92969912893732E-01
 cg2d: Sum(rhs),rhsMax =   7.30526750203353E-13  2.92337459255652E-01
 cg2d: Sum(rhs),rhsMax =   7.09765579642863E-13  2.91242416293657E-01
 cg2d: Sum(rhs),rhsMax =   7.17204073907851E-13  2.89655712545370E-01
 cg2d: Sum(rhs),rhsMax =   6.93889390390723E-13  2.87912715658388E-01
 cg2d: Sum(rhs),rhsMax =   7.13984427136438E-13  2.85368644059857E-01
 cg2d: Sum(rhs),rhsMax =   7.46069872548105E-13  2.82423108404245E-01
 cg2d: Sum(rhs),rhsMax =   7.16871007000464E-13  2.79035847751317E-01
 cg2d: Sum(rhs),rhsMax =   7.86370968341998E-13  2.75147857198520E-01
 cg2d: Sum(rhs),rhsMax =   8.16458012309340E-13  2.70752607837979E-01
 cg2d: Sum(rhs),rhsMax =   8.51652082189958E-13  2.65908937640457E-01
 cg2d: Sum(rhs),rhsMax =   8.77964367873574E-13  2.60626845348428E-01
 cg2d: Sum(rhs),rhsMax =   8.59756710269721E-13  2.54785568521097E-01
 cg2d: Sum(rhs),rhsMax =   8.45323810949594E-13  2.48802671052755E-01
 cg2d: Sum(rhs),rhsMax =   8.33777491493493E-13  2.42461158609734E-01
 cg2d: Sum(rhs),rhsMax =   8.33111357678717E-13  2.36048393274289E-01
 cg2d: Sum(rhs),rhsMax =   7.83262343873048E-13  2.29317823867665E-01
 cg2d: Sum(rhs),rhsMax =   7.95030707934075E-13  2.22305120022142E-01
 cg2d: Sum(rhs),rhsMax =   7.76156916515447E-13  2.16747535195527E-01
 cg2d: Sum(rhs),rhsMax =   7.11986025692113E-13  2.20351421154330E-01
 cg2d: Sum(rhs),rhsMax =   7.07878200501000E-13  2.23258979418866E-01
 cg2d: Sum(rhs),rhsMax =   6.97109037162136E-13  2.25362827862786E-01
 cg2d: Sum(rhs),rhsMax =   7.10986824969950E-13  2.26500920954602E-01
 cg2d: Sum(rhs),rhsMax =   6.92335078156248E-13  2.26877493307559E-01
 cg2d: Sum(rhs),rhsMax =   6.71906974503145E-13  2.26611583517609E-01
 cg2d: Sum(rhs),rhsMax =   6.96553925649823E-13  2.26971615707334E-01
 cg2d: Sum(rhs),rhsMax =   6.66133814775094E-13  2.32973383558210E-01
 cg2d: Sum(rhs),rhsMax =   6.33271213246189E-13  2.39197297105438E-01
 cg2d: Sum(rhs),rhsMax =   6.46704911844154E-13  2.44208781791350E-01
 cg2d: Sum(rhs),rhsMax =   6.29052365752614E-13  2.49376952579743E-01
 cg2d: Sum(rhs),rhsMax =   5.96744875736022E-13  2.53658509846270E-01
 cg2d: Sum(rhs),rhsMax =   5.49005285677140E-13  2.60412123327193E-01
 cg2d: Sum(rhs),rhsMax =   5.77760062014931E-13  2.63055394199760E-01
 cg2d: Sum(rhs),rhsMax =   6.12843109593086E-13  2.66023236365307E-01
 cg2d: Sum(rhs),rhsMax =   6.03406213883773E-13  2.68840411976677E-01
 cg2d: Sum(rhs),rhsMax =   6.38711306066853E-13  2.71088080507809E-01
 cg2d: Sum(rhs),rhsMax =   6.07403016772423E-13  2.72867514416176E-01
 cg2d: Sum(rhs),rhsMax =   5.79869485761719E-13  2.74231584872540E-01
 cg2d: Sum(rhs),rhsMax =   5.49893464096840E-13  2.75211969427358E-01
 cg2d: Sum(rhs),rhsMax =   5.89195359168571E-13  2.75754291895662E-01
 cg2d: Sum(rhs),rhsMax =   6.33604280153577E-13  2.75935873113599E-01
 cg2d: Sum(rhs),rhsMax =   6.25721696678738E-13  2.75620866286529E-01
 cg2d: Sum(rhs),rhsMax =   6.37045971529915E-13  2.74755752076917E-01
 cg2d: Sum(rhs),rhsMax =   6.04405414605935E-13  2.73555625326068E-01
 cg2d: Sum(rhs),rhsMax =   5.78759262737094E-13  2.71788733605796E-01
 cg2d: Sum(rhs),rhsMax =   5.97633054155722E-13  2.69711623586628E-01
 cg2d: Sum(rhs),rhsMax =   5.90194559890733E-13  2.67045411048344E-01
 cg2d: Sum(rhs),rhsMax =   5.87196957724245E-13  2.64199629883243E-01
 cg2d: Sum(rhs),rhsMax =   6.06625860655186E-13  2.60614049716941E-01
 cg2d: Sum(rhs),rhsMax =   6.04183370001010E-13  2.57078603115019E-01
 cg2d: Sum(rhs),rhsMax =   5.80868686483882E-13  2.52912975103880E-01
 cg2d: Sum(rhs),rhsMax =   5.58331159083991E-13  2.47658130390206E-01
 cg2d: Sum(rhs),rhsMax =   5.73319169916431E-13  2.41703377150293E-01
 cg2d: Sum(rhs),rhsMax =   5.30464561165900E-13  2.36846990907764E-01
 cg2d: Sum(rhs),rhsMax =   4.06230604710345E-13  2.35679369513196E-01
 cg2d: Sum(rhs),rhsMax =   3.53939100250500E-13  2.37000612674388E-01
 cg2d: Sum(rhs),rhsMax =   2.38808972596871E-13  2.37537225108827E-01
 cg2d: Sum(rhs),rhsMax =   1.70086167372574E-13  2.37343493246203E-01
 cg2d: Sum(rhs),rhsMax =   7.77156117237610E-14  2.36375987756827E-01
 cg2d: Sum(rhs),rhsMax =  -4.87387907810444E-14  2.34646248838819E-01
 cg2d: Sum(rhs),rhsMax =  -1.39110944985532E-13  2.32193749053684E-01
 cg2d: Sum(rhs),rhsMax =  -2.10831352376317E-13  2.29042698930749E-01
 cg2d: Sum(rhs),rhsMax =  -3.32844862782622E-13  2.25125011356597E-01
 cg2d: Sum(rhs),rhsMax =  -3.86801701779405E-13  2.20542189124957E-01
 cg2d: Sum(rhs),rhsMax =  -3.52162743411100E-13  2.15313352787993E-01
 cg2d: Sum(rhs),rhsMax =  -3.34510197319560E-13  2.09540513474942E-01
 cg2d: Sum(rhs),rhsMax =  -3.74145159298678E-13  2.03261802839250E-01
 cg2d: Sum(rhs),rhsMax =  -4.41646719195887E-13  1.96501631326541E-01
 cg2d: Sum(rhs),rhsMax =  -4.47641923528863E-13  1.89363018833593E-01
 cg2d: Sum(rhs),rhsMax =  -5.05373520809371E-13  1.89208381201668E-01
 cg2d: Sum(rhs),rhsMax =  -5.42899059041702E-13  1.90392348011638E-01
 cg2d: Sum(rhs),rhsMax =  -5.58886270596304E-13  1.91453944089018E-01
 cg2d: Sum(rhs),rhsMax =  -5.55888668429816E-13  1.92415486567383E-01
 cg2d: Sum(rhs),rhsMax =  -5.92415005939984E-13  1.93261547162176E-01
 cg2d: Sum(rhs),rhsMax =  -6.29274410357539E-13  1.93998958065234E-01
 cg2d: Sum(rhs),rhsMax =  -5.90305582193196E-13  1.94615660426625E-01
 cg2d: Sum(rhs),rhsMax =  -6.07180972167498E-13  1.95120152149914E-01
 cg2d: Sum(rhs),rhsMax =  -6.49480469405717E-13  1.95523798908883E-01
 cg2d: Sum(rhs),rhsMax =  -6.50701714732804E-13  1.95837239911666E-01
 cg2d: Sum(rhs),rhsMax =  -6.72129019108070E-13  1.96060793605539E-01
 cg2d: Sum(rhs),rhsMax =  -7.38964445190504E-13  1.96192934533536E-01
 cg2d: Sum(rhs),rhsMax =  -7.30637772505816E-13  1.96230213986617E-01
 cg2d: Sum(rhs),rhsMax =  -7.26418925012240E-13  1.96180610224914E-01
 cg2d: Sum(rhs),rhsMax =  -7.77045094935147E-13  1.96049903983399E-01
 cg2d: Sum(rhs),rhsMax =  -7.72937269744034E-13  1.95838852140862E-01
 cg2d: Sum(rhs),rhsMax =  -7.94475596421762E-13  1.95547664116622E-01
 cg2d: Sum(rhs),rhsMax =  -7.65387753176583E-13  1.95170808924461E-01
 cg2d: Sum(rhs),rhsMax =  -7.58615392726369E-13  1.94725668848732E-01
 cg2d: Sum(rhs),rhsMax =  -8.94062601730639E-13  1.94195834114341E-01
 cg2d: Sum(rhs),rhsMax =  -9.41469124882133E-13  1.93585770505187E-01
 cg2d: Sum(rhs),rhsMax =  -9.47908418424959E-13  1.92900702340569E-01
 cg2d: Sum(rhs),rhsMax =  -9.75886038645513E-13  1.92141084763466E-01
 cg2d: Sum(rhs),rhsMax =  -1.08701936341049E-12  1.91295601502290E-01
 cg2d: Sum(rhs),rhsMax =  -1.13342668583982E-12  1.90417732344266E-01
 cg2d: Sum(rhs),rhsMax =  -1.12243547789603E-12  1.89455580335405E-01
 cg2d: Sum(rhs),rhsMax =  -1.19104726081787E-12  1.88430156487813E-01
 cg2d: Sum(rhs),rhsMax =  -1.21269660979806E-12  1.87339389255175E-01
 cg2d: Sum(rhs),rhsMax =  -1.25266463868456E-12  1.87347356966899E-01
 cg2d: Sum(rhs),rhsMax =  -1.25233157177718E-12  1.88265477754671E-01
 cg2d: Sum(rhs),rhsMax =  -1.32160948851379E-12  1.89124250595450E-01
 cg2d: Sum(rhs),rhsMax =  -1.32960309429109E-12  1.89918042420114E-01
 cg2d: Sum(rhs),rhsMax =  -1.33792976697578E-12  1.90637992299804E-01
 cg2d: Sum(rhs),rhsMax =  -1.36357591884462E-12  1.91281922002952E-01
 cg2d: Sum(rhs),rhsMax =  -1.40609746068776E-12  1.91852772026820E-01
 cg2d: Sum(rhs),rhsMax =  -1.41464617797737E-12  1.92334303952743E-01
 cg2d: Sum(rhs),rhsMax =  -1.51634260703304E-12  1.92739583269390E-01
 cg2d: Sum(rhs),rhsMax =  -1.61315405478035E-12  1.93061883078866E-01
 cg2d: Sum(rhs),rhsMax =  -1.70352620898484E-12  1.93288645170030E-01
 cg2d: Sum(rhs),rhsMax =  -1.79911641140507E-12  1.93423003814814E-01
 cg2d: Sum(rhs),rhsMax =  -1.90092386276319E-12  1.93456994738088E-01
 cg2d: Sum(rhs),rhsMax =  -2.00650607240505E-12  1.93397128612039E-01
 cg2d: Sum(rhs),rhsMax =  -2.14050999147730E-12  1.93241176960248E-01
 cg2d: Sum(rhs),rhsMax =  -2.24087415290342E-12  1.92989284896958E-01
 cg2d: Sum(rhs),rhsMax =  -2.39752662167803E-12  1.92638116075105E-01
 cg2d: Sum(rhs),rhsMax =  -2.44049225273102E-12  1.92191010465178E-01
 cg2d: Sum(rhs),rhsMax =  -2.54729570769996E-12  1.91640895868807E-01
 cg2d: Sum(rhs),rhsMax =  -2.57915910850670E-12  1.90984614983305E-01
 cg2d: Sum(rhs),rhsMax =  -2.73758793412071E-12  1.90222760276843E-01
 cg2d: Sum(rhs),rhsMax =  -2.79332112995689E-12  1.89356088224404E-01
 cg2d: Sum(rhs),rhsMax =  -2.83117973509661E-12  1.88382863558056E-01
 cg2d: Sum(rhs),rhsMax =  -2.99593683195098E-12  1.87297153462530E-01
 cg2d: Sum(rhs),rhsMax =  -3.07087688611318E-12  1.86094659283466E-01
 cg2d: Sum(rhs),rhsMax =  -3.14548387336799E-12  1.84773593921811E-01
 cg2d: Sum(rhs),rhsMax =  -3.23241433619614E-12  1.83332456223118E-01
 cg2d: Sum(rhs),rhsMax =  -3.29125615650128E-12  1.81770806775622E-01
 cg2d: Sum(rhs),rhsMax =  -3.39372974167418E-12  1.80092636452560E-01
 cg2d: Sum(rhs),rhsMax =  -3.44846373678820E-12  1.78305239986503E-01
 cg2d: Sum(rhs),rhsMax =  -3.54671847446753E-12  1.76404470522850E-01
 cg2d: Sum(rhs),rhsMax =  -3.64031027544343E-12  1.74380438598855E-01
 cg2d: Sum(rhs),rhsMax =  -3.71835895407457E-12  1.72229790175055E-01
 cg2d: Sum(rhs),rhsMax =  -3.84403620046214E-12  1.69958399163510E-01
 cg2d: Sum(rhs),rhsMax =  -3.81872311550069E-12  1.71252515524973E-01
 cg2d: Sum(rhs),rhsMax =  -3.82438525292628E-12  1.74314551255545E-01
 cg2d: Sum(rhs),rhsMax =  -3.80784292985936E-12  1.77241437718362E-01
 cg2d: Sum(rhs),rhsMax =  -3.77786690819448E-12  1.80023318312597E-01
 cg2d: Sum(rhs),rhsMax =  -3.76820796788024E-12  1.82664145714403E-01
 cg2d: Sum(rhs),rhsMax =  -3.77009534702211E-12  1.85162733614016E-01
 cg2d: Sum(rhs),rhsMax =  -3.76432218729406E-12  1.87515535671620E-01
 cg2d: Sum(rhs),rhsMax =  -3.75610653691183E-12  1.89724734728911E-01
 cg2d: Sum(rhs),rhsMax =  -3.76321196426943E-12  1.91783547950333E-01
 cg2d: Sum(rhs),rhsMax =  -3.78752584850872E-12  1.93684159522491E-01
 cg2d: Sum(rhs),rhsMax =  -3.78530540245947E-12  1.95446760558441E-01
 cg2d: Sum(rhs),rhsMax =  -3.85935727820197E-12  1.97087798105011E-01
 cg2d: Sum(rhs),rhsMax =  -3.87312404370732E-12  1.98599391288200E-01
 cg2d: Sum(rhs),rhsMax =  -3.76720876715808E-12  1.99979357083903E-01
 cg2d: Sum(rhs),rhsMax =  -3.70847796915541E-12  2.01229820829757E-01
 cg2d: Sum(rhs),rhsMax =  -3.70503627777907E-12  2.02352139932996E-01
 cg2d: Sum(rhs),rhsMax =  -3.70958819218004E-12  2.03345980649271E-01
 cg2d: Sum(rhs),rhsMax =  -3.71092045980959E-12  2.04200808327552E-01
 cg2d: Sum(rhs),rhsMax =  -3.73989728075230E-12  2.04930391350356E-01
 cg2d: Sum(rhs),rhsMax =  -3.73234776418485E-12  2.05531605060350E-01
 cg2d: Sum(rhs),rhsMax =  -3.75632858151675E-12  2.06004427847214E-01
 cg2d: Sum(rhs),rhsMax =  -3.75766084914630E-12  2.06342826717520E-01
 cg2d: Sum(rhs),rhsMax =  -3.77664566286740E-12  2.06552003017380E-01
 cg2d: Sum(rhs),rhsMax =  -3.79918319026729E-12  2.06628456230382E-01
 cg2d: Sum(rhs),rhsMax =  -3.80467879423918E-12  2.06589662893520E-01
 cg2d: Sum(rhs),rhsMax =  -3.80168119207269E-12  2.06411650772939E-01
 cg2d: Sum(rhs),rhsMax =  -3.84248188822767E-12  2.06127096005219E-01
 cg2d: Sum(rhs),rhsMax =  -3.84736686953602E-12  2.05742844892328E-01
 cg2d: Sum(rhs),rhsMax =  -3.87628817932750E-12  2.05246255413664E-01
 cg2d: Sum(rhs),rhsMax =  -3.90582011178253E-12  2.04656392481289E-01
 cg2d: Sum(rhs),rhsMax =  -3.95489196947096E-12  2.03964075491189E-01
 cg2d: Sum(rhs),rhsMax =  -4.00052213578306E-12  2.03193911367687E-01
 cg2d: Sum(rhs),rhsMax =  -4.04676292475870E-12  2.02327795255300E-01
 cg2d: Sum(rhs),rhsMax =  -4.09350331409541E-12  2.01373267289219E-01
 cg2d: Sum(rhs),rhsMax =  -4.14279721638877E-12  2.00353682771855E-01
 cg2d: Sum(rhs),rhsMax =  -4.20524726152394E-12  1.99229362412769E-01
 cg2d: Sum(rhs),rhsMax =  -4.25809387749609E-12  1.98011305673519E-01
 cg2d: Sum(rhs),rhsMax =  -4.33381108777553E-12  1.96719526785891E-01
 cg2d: Sum(rhs),rhsMax =  -4.41019443186974E-12  1.95354770767185E-01
 cg2d: Sum(rhs),rhsMax =  -4.46209735827097E-12  1.93913390321570E-01
 cg2d: Sum(rhs),rhsMax =  -4.44949632694147E-12  1.92402398667681E-01
 cg2d: Sum(rhs),rhsMax =  -4.53953541423857E-12  1.90831826058233E-01
 cg2d: Sum(rhs),rhsMax =  -4.63751259616174E-12  1.89204182817290E-01
 cg2d: Sum(rhs),rhsMax =  -4.67292871064728E-12  1.87537712738486E-01
 cg2d: Sum(rhs),rhsMax =  -4.78139750015316E-12  1.85817409081421E-01
 cg2d: Sum(rhs),rhsMax =  -4.88931117814673E-12  1.84060984823802E-01
 cg2d: Sum(rhs),rhsMax =  -5.00161023708756E-12  1.82274314736774E-01
 cg2d: Sum(rhs),rhsMax =  -5.09187136898959E-12  1.80447017065640E-01
 cg2d: Sum(rhs),rhsMax =  -5.10591569025109E-12  1.78578422395818E-01
 cg2d: Sum(rhs),rhsMax =  -5.11335418451608E-12  1.76670483285468E-01
 cg2d: Sum(rhs),rhsMax =  -5.11440889638948E-12  1.74719486232988E-01
 cg2d: Sum(rhs),rhsMax =  -5.14965847742133E-12  1.72741698744279E-01
 cg2d: Sum(rhs),rhsMax =  -5.16570120012716E-12  1.72269609434083E-01
 cg2d: Sum(rhs),rhsMax =  -5.15998355155034E-12  1.72664249069774E-01
 cg2d: Sum(rhs),rhsMax =  -5.14965847742133E-12  1.72986590035855E-01
 cg2d: Sum(rhs),rhsMax =  -5.12573317124065E-12  1.73236275727101E-01
 cg2d: Sum(rhs),rhsMax =  -5.12223596871308E-12  1.73413055001770E-01
 cg2d: Sum(rhs),rhsMax =  -5.13533660040366E-12  1.73514817361711E-01
 cg2d: Sum(rhs),rhsMax =  -5.14166487164402E-12  1.73537055838952E-01
 cg2d: Sum(rhs),rhsMax =  -5.14860376554793E-12  1.73474970300971E-01
 cg2d: Sum(rhs),rhsMax =  -5.17358378360200E-12  1.73323190569100E-01
 cg2d: Sum(rhs),rhsMax =  -5.21604981429391E-12  1.73084377813501E-01
 cg2d: Sum(rhs),rhsMax =  -5.10075315318659E-12  1.72754035285091E-01
 cg2d: Sum(rhs),rhsMax =  -5.04551955771149E-12  1.72329593932702E-01
 cg2d: Sum(rhs),rhsMax =  -5.01482189108060E-12  1.71809393691570E-01
 cg2d: Sum(rhs),rhsMax =  -4.90779639150674E-12  1.73960602291082E-01
 cg2d: Sum(rhs),rhsMax =  -4.75547379252816E-12  1.78764720356049E-01
 cg2d: Sum(rhs),rhsMax =  -4.57556215138766E-12  1.83428867955645E-01
 cg2d: Sum(rhs),rhsMax =  -4.40397718293184E-12  1.87752520174824E-01
 cg2d: Sum(rhs),rhsMax =  -4.23505674973512E-12  1.91691895565651E-01
 cg2d: Sum(rhs),rhsMax =  -4.11337630623620E-12  1.95301353989260E-01
 cg2d: Sum(rhs),rhsMax =  -3.98847621596587E-12  1.98567390926376E-01
 cg2d: Sum(rhs),rhsMax =  -3.93501897733017E-12  2.01522979534869E-01
 cg2d: Sum(rhs),rhsMax =  -3.87517795630288E-12  2.04056053264436E-01
 cg2d: Sum(rhs),rhsMax =  -3.79724029997419E-12  2.06344619086497E-01
 cg2d: Sum(rhs),rhsMax =  -3.71347397276622E-12  2.08198319252478E-01
 cg2d: Sum(rhs),rhsMax =  -3.62426755273759E-12  2.09708512918103E-01
 cg2d: Sum(rhs),rhsMax =  -3.56703555581817E-12  2.10796834050255E-01
 cg2d: Sum(rhs),rhsMax =  -3.50047768549189E-12  2.11553525874954E-01
 cg2d: Sum(rhs),rhsMax =  -3.45168338355961E-12  2.11974049672226E-01
 cg2d: Sum(rhs),rhsMax =  -3.38706840352643E-12  2.12020301758508E-01
 cg2d: Sum(rhs),rhsMax =  -3.36852767901519E-12  2.11795017289962E-01
 cg2d: Sum(rhs),rhsMax =  -3.31906724326814E-12  2.11162033715214E-01
 cg2d: Sum(rhs),rhsMax =  -3.29269944643329E-12  2.10186010384942E-01
 cg2d: Sum(rhs),rhsMax =  -3.27832205826439E-12  2.08923489886484E-01
 cg2d: Sum(rhs),rhsMax =  -3.24779092508720E-12  2.07297148063275E-01
 cg2d: Sum(rhs),rhsMax =  -3.23874260743651E-12  2.05985254061217E-01
 cg2d: Sum(rhs),rhsMax =  -3.18528536880081E-12  2.07601482833058E-01
 cg2d: Sum(rhs),rhsMax =  -3.13166159671141E-12  2.09082184712509E-01
 cg2d: Sum(rhs),rhsMax =  -3.09441361423524E-12  2.10427010140671E-01
 cg2d: Sum(rhs),rhsMax =  -3.06532577099006E-12  2.11633749203772E-01
 cg2d: Sum(rhs),rhsMax =  -3.06782377279546E-12  2.12705445714755E-01
 cg2d: Sum(rhs),rhsMax =  -3.05805381017876E-12  2.13647357402746E-01
 cg2d: Sum(rhs),rhsMax =  -3.04611891266404E-12  2.14457028105269E-01
 cg2d: Sum(rhs),rhsMax =  -3.03634895004734E-12  2.15138347215106E-01
 cg2d: Sum(rhs),rhsMax =  -3.04350988855617E-12  2.15682461805679E-01
 cg2d: Sum(rhs),rhsMax =  -3.03956859681875E-12  2.16100178919617E-01
 cg2d: Sum(rhs),rhsMax =  -3.03135294643653E-12  2.16390320031275E-01
 cg2d: Sum(rhs),rhsMax =  -3.01408897840361E-12  2.16553649902453E-01
 cg2d: Sum(rhs),rhsMax =  -3.01925151546811E-12  2.16592169763470E-01
 cg2d: Sum(rhs),rhsMax =  -3.02408098562523E-12  2.16503953643733E-01
 cg2d: Sum(rhs),rhsMax =  -2.97678548477620E-12  2.19093295486271E-01
 cg2d: Sum(rhs),rhsMax =  -2.86731749454816E-12  2.26968052821622E-01
 cg2d: Sum(rhs),rhsMax =  -2.75501843560733E-12  2.34444538804365E-01
 cg2d: Sum(rhs),rhsMax =  -2.65898414397725E-12  2.41503123550821E-01
 cg2d: Sum(rhs),rhsMax =  -2.54984922065660E-12  2.48095175229673E-01
 cg2d: Sum(rhs),rhsMax =  -2.45720110925163E-12  2.54303751203733E-01
 cg2d: Sum(rhs),rhsMax =  -2.40107933535683E-12  2.59983202192098E-01
 cg2d: Sum(rhs),rhsMax =  -2.33285613049361E-12  2.65172978387678E-01
 cg2d: Sum(rhs),rhsMax =  -2.25258700581321E-12  2.69872168265471E-01
 cg2d: Sum(rhs),rhsMax =  -2.17531548329930E-12  2.73965517203274E-01
 cg2d: Sum(rhs),rhsMax =  -2.10792494570455E-12  2.77642773151466E-01
 cg2d: Sum(rhs),rhsMax =  -2.02893257750247E-12  2.80818101548063E-01
 cg2d: Sum(rhs),rhsMax =  -1.94899651972946E-12  2.83467377227926E-01
 cg2d: Sum(rhs),rhsMax =  -1.89159798935634E-12  2.85591600211484E-01
 cg2d: Sum(rhs),rhsMax =  -1.81554771216952E-12  2.87205893665439E-01
 cg2d: Sum(rhs),rhsMax =  -1.75254255552204E-12  2.88290059097091E-01
 cg2d: Sum(rhs),rhsMax =  -1.65051305955899E-12  2.88774986232306E-01
 cg2d: Sum(rhs),rhsMax =  -1.56241686255498E-12  2.88818072012062E-01
 cg2d: Sum(rhs),rhsMax =  -1.48442369507507E-12  2.88298724204948E-01
 cg2d: Sum(rhs),rhsMax =  -1.43268730212753E-12  2.87222432693617E-01
 cg2d: Sum(rhs),rhsMax =  -1.35808031487272E-12  2.85999292193453E-01
 cg2d: Sum(rhs),rhsMax =  -1.30495614314441E-12  2.84146173106243E-01
 cg2d: Sum(rhs),rhsMax =  -1.22968302207482E-12  2.81709843647996E-01
 cg2d: Sum(rhs),rhsMax =  -1.17583720538050E-12  2.78733388376665E-01
 cg2d: Sum(rhs),rhsMax =  -1.10228492999909E-12  2.75302005886135E-01
 cg2d: Sum(rhs),rhsMax =  -1.03494990355557E-12  2.71244579689603E-01
 cg2d: Sum(rhs),rhsMax =  -9.57456336436735E-13  2.66699762091714E-01
 cg2d: Sum(rhs),rhsMax =  -8.82183215367149E-13  2.61679325524296E-01
 cg2d: Sum(rhs),rhsMax =  -9.19819775901942E-13  2.56182002736312E-01
 cg2d: Sum(rhs),rhsMax =  -9.52016243616072E-13  2.50254737372310E-01
 cg2d: Sum(rhs),rhsMax =  -9.56179579958416E-13  2.43872407559699E-01
 cg2d: Sum(rhs),rhsMax =  -9.53792600455472E-13  2.37044798002011E-01
 cg2d: Sum(rhs),rhsMax =  -9.55957535353491E-13  2.29892652766233E-01
 cg2d: Sum(rhs),rhsMax =  -9.75330927133200E-13  2.22337811738485E-01
 cg2d: Sum(rhs),rhsMax =  -1.00275343584144E-12  2.14299626989958E-01
 cg2d: Sum(rhs),rhsMax =  -9.90985071780415E-13  2.06137085230483E-01
 cg2d: Sum(rhs),rhsMax =  -1.03717034960482E-12  1.97923550649174E-01
 cg2d: Sum(rhs),rhsMax =  -9.73887637201187E-13  2.02452589735777E-01
 cg2d: Sum(rhs),rhsMax =  -8.98947583038989E-13  2.13652540457669E-01
 cg2d: Sum(rhs),rhsMax =  -8.32445223863942E-13  2.24577940951551E-01
 cg2d: Sum(rhs),rhsMax =  -7.64610597059345E-13  2.35084003565720E-01
 cg2d: Sum(rhs),rhsMax =  -7.36133376477710E-13  2.45141392868343E-01
 cg2d: Sum(rhs),rhsMax =  -6.76902978113958E-13  2.54877379457319E-01
 cg2d: Sum(rhs),rhsMax =  -6.40432151755022E-13  2.63703575368586E-01
 cg2d: Sum(rhs),rhsMax =  -6.03295191581310E-13  2.72230369576371E-01
 cg2d: Sum(rhs),rhsMax =  -5.83144643684363E-13  2.80478205260993E-01
 cg2d: Sum(rhs),rhsMax =  -5.65159030685436E-13  2.88139289458670E-01
 cg2d: Sum(rhs),rhsMax =  -5.52835555112097E-13  2.95333165958841E-01
 cg2d: Sum(rhs),rhsMax =  -5.80535619576494E-13  3.01990809790652E-01
 cg2d: Sum(rhs),rhsMax =  -6.10844708148761E-13  3.08376547180534E-01
 cg2d: Sum(rhs),rhsMax =  -6.35158592388052E-13  3.13666740228523E-01
 cg2d: Sum(rhs),rhsMax =  -5.79480907703100E-13  3.18453415315644E-01
 cg2d: Sum(rhs),rhsMax =  -5.28077581662956E-13  3.22685243325398E-01
 cg2d: Sum(rhs),rhsMax =  -4.95492535890207E-13  3.26315001444914E-01
 cg2d: Sum(rhs),rhsMax =  -4.43645120640213E-13  3.29344688247836E-01
(PID.TID 0000.0001)      cg2d_init_res =   6.95792430066815E-02
(PID.TID 0000.0001)      cg2d_iters(min,last) =      -1      29
(PID.TID 0000.0001)      cg2d_last_res =   7.08259264146396E-14
(PID.TID 0000.0001) // =======================================================
(PID.TID 0000.0001) // Begin MONITOR dynamic field statistics
(PID.TID 0000.0001) // =======================================================
(PID.TID 0000.0001) %MON time_tsnumber                =                  2880
(PID.TID 0000.0001) %MON time_secondsf                =   4.3200000000000E+04
(PID.TID 0000.0001) %MON dynstat_eta_max              =   1.4632042993501E-02
(PID.TID 0000.0001) %MON dynstat_eta_min              =  -2.2555749199038E-02
(PID.TID 0000.0001) %MON dynstat_eta_mean             =   1.5641036553307E-16
(PID.TID 0000.0001) %MON dynstat_eta_sd               =   1.0885174631527E-02
(PID.TID 0000.0001) %MON dynstat_eta_del2             =   2.7156909153419E-04
(PID.TID 0000.0001) %MON dynstat_uvel_max             =   1.6704491237686E+00
(PID.TID 0000.0001) %MON dynstat_uvel_min             =  -6.5561911397543E-01
(PID.TID 0000.0001) %MON dynstat_uvel_mean            =   7.8437671005043E-04
(PID.TID 0000.0001) %MON dynstat_uvel_sd              =   1.5081516773709E-01
(PID.TID 0000.0001) %MON dynstat_uvel_del2            =   8.2934943973200E-04
(PID.TID 0000.0001) %MON dynstat_vvel_max             =   0.0000000000000E+00
(PID.TID 0000.0001) %MON dynstat_vvel_min             =   0.0000000000000E+00
(PID.TID 0000.0001) %MON dynstat_vvel_mean            =   0.0000000000000E+00
(PID.TID 0000.0001) %MON dynstat_vvel_sd              =   0.0000000000000E+00
(PID.TID 0000.0001) %MON dynstat_vvel_del2            =   0.0000000000000E+00
(PID.TID 0000.0001) %MON dynstat_wvel_max             =   6.0274870515825E-02
(PID.TID 0000.0001) %MON dynstat_wvel_min             =  -6.0142220994694E-02
(PID.TID 0000.0001) %MON dynstat_wvel_mean            =   1.5401315692812E-20
(PID.TID 0000.0001) %MON dynstat_wvel_sd              =   4.9852540831380E-03
(PID.TID 0000.0001) %MON dynstat_wvel_del2            =   1.0406932767142E-04
(PID.TID 0000.0001) %MON dynstat_theta_max            =   1.5000000000331E+01
(PID.TID 0000.0001) %MON dynstat_theta_min            =   9.9999999999937E+00
(PID.TID 0000.0001) %MON dynstat_theta_mean           =   1.2728643715704E+01
(PID.TID 0000.0001) %MON dynstat_theta_sd             =   2.3885673871926E+00
(PID.TID 0000.0001) %MON dynstat_theta_del2           =   2.3053589872738E-03
(PID.TID 0000.0001) %MON dynstat_salt_max             =   3.5000000000000E+01
(PID.TID 0000.0001) %MON dynstat_salt_min             =   3.5000000000000E+01
(PID.TID 0000.0001) %MON dynstat_salt_mean            =   3.5000000000000E+01
(PID.TID 0000.0001) %MON dynstat_salt_sd              =   1.0658141036402E-13
(PID.TID 0000.0001) %MON dynstat_salt_del2            =   0.0000000000000E+00
(PID.TID 0000.0001) %MON dynstat_sst_max              =   1.5000000000003E+01
(PID.TID 0000.0001) %MON dynstat_sst_min              =   1.4984515672897E+01
(PID.TID 0000.0001) %MON dynstat_sst_mean             =   1.4999796195036E+01
(PID.TID 0000.0001) %MON dynstat_sst_sd               =   1.5267948070789E-03
(PID.TID 0000.0001) %MON dynstat_sst_del2             =   5.8070388095291E-05
(PID.TID 0000.0001) %MON dynstat_sss_max              =   3.5000000000000E+01
(PID.TID 0000.0001) %MON dynstat_sss_min              =   3.5000000000000E+01
(PID.TID 0000.0001) %MON dynstat_sss_mean             =   3.5000000000000E+01
(PID.TID 0000.0001) %MON dynstat_sss_sd               =   4.2632564145606E-14
(PID.TID 0000.0001) %MON dynstat_sss_del2             =   0.0000000000000E+00
(PID.TID 0000.0001) %MON forcing_qnet_max             =   0.0000000000000E+00
(PID.TID 0000.0001) %MON forcing_qnet_min             =   0.0000000000000E+00
(PID.TID 0000.0001) %MON forcing_qnet_mean            =   0.0000000000000E+00
(PID.TID 0000.0001) %MON forcing_qnet_sd              =   0.0000000000000E+00
(PID.TID 0000.0001) %MON forcing_qnet_del2            =   0.0000000000000E+00
(PID.TID 0000.0001) %MON forcing_qsw_max              =   0.0000000000000E+00
(PID.TID 0000.0001) %MON forcing_qsw_min              =   0.0000000000000E+00
(PID.TID 0000.0001) %MON forcing_qsw_mean             =   0.0000000000000E+00
(PID.TID 0000.0001) %MON forcing_qsw_sd               =   0.0000000000000E+00
(PID.TID 0000.0001) %MON forcing_qsw_del2             =   0.0000000000000E+00
(PID.TID 0000.0001) %MON forcing_empmr_max            =   0.0000000000000E+00
(PID.TID 0000.0001) %MON forcing_empmr_min            =   0.0000000000000E+00
(PID.TID 0000.0001) %MON forcing_empmr_mean           =   0.0000000000000E+00
(PID.TID 0000.0001) %MON forcing_empmr_sd             =   0.0000000000000E+00
(PID.TID 0000.0001) %MON forcing_empmr_del2           =   0.0000000000000E+00
(PID.TID 0000.0001) %MON forcing_fu_max               =   0.0000000000000E+00
(PID.TID 0000.0001) %MON forcing_fu_min               =   0.0000000000000E+00
(PID.TID 0000.0001) %MON forcing_fu_mean              =   0.0000000000000E+00
(PID.TID 0000.0001) %MON forcing_fu_sd                =   0.0000000000000E+00
(PID.TID 0000.0001) %MON forcing_fu_del2              =   0.0000000000000E+00
(PID.TID 0000.0001) %MON forcing_fv_max               =   0.0000000000000E+00
(PID.TID 0000.0001) %MON forcing_fv_min               =   0.0000000000000E+00
(PID.TID 0000.0001) %MON forcing_fv_mean              =   0.0000000000000E+00
(PID.TID 0000.0001) %MON forcing_fv_sd                =   0.0000000000000E+00
(PID.TID 0000.0001) %MON forcing_fv_del2              =   0.0000000000000E+00
(PID.TID 0000.0001) %MON advcfl_uvel_max              =   9.9515566028129E-02
(PID.TID 0000.0001) %MON advcfl_vvel_max              =   0.0000000000000E+00
(PID.TID 0000.0001) %MON advcfl_wvel_max              =   4.2234979582831E-01
(PID.TID 0000.0001) %MON advcfl_W_hf_max              =   4.2694470996518E-01
(PID.TID 0000.0001) %MON pe_b_mean                    =   3.3261678239636E-06
(PID.TID 0000.0001) %MON ke_max                       =   8.2730420529102E-01
(PID.TID 0000.0001) %MON ke_mean                      =   1.1498805873727E-02
(PID.TID 0000.0001) %MON ke_vol                       =   8.5338127039305E+10
(PID.TID 0000.0001) %MON vort_r_min                   =   0.0000000000000E+00
(PID.TID 0000.0001) %MON vort_r_max                   =   0.0000000000000E+00
(PID.TID 0000.0001) %MON vort_a_mean                  =   0.0000000000000E+00
(PID.TID 0000.0001) %MON vort_a_sd                    =   0.0000000000000E+00
(PID.TID 0000.0001) %MON vort_p_mean                  =   0.0000000000000E+00
(PID.TID 0000.0001) %MON vort_p_sd                    =   0.0000000000000E+00
(PID.TID 0000.0001) %MON surfExpan_theta_mean         =  -1.1571398059973E-09
(PID.TID 0000.0001) %MON surfExpan_salt_mean          =   6.2941838188531E-19
(PID.TID 0000.0001) // =======================================================
(PID.TID 0000.0001) // End MONITOR dynamic field statistics
(PID.TID 0000.0001) // =======================================================
(PID.TID 0000.0001) // =======================================================
(PID.TID 0000.0001) // Begin OBCS MONITOR field statistics
(PID.TID 0000.0001) // =======================================================
(PID.TID 0000.0001) %MON obc_E_uVel_max               =   0.0000000000000E+00
(PID.TID 0000.0001) %MON obc_E_uVel_min               =   0.0000000000000E+00
(PID.TID 0000.0001) %MON obc_E_uVel_mean              =   0.0000000000000E+00
(PID.TID 0000.0001) %MON obc_E_uVel_sd                =   0.0000000000000E+00
(PID.TID 0000.0001) %MON obc_E_uVel_Int               =   0.0000000000000E+00
(PID.TID 0000.0001) %MON obc_W_uVel_max               =   0.0000000000000E+00
(PID.TID 0000.0001) %MON obc_W_uVel_min               =   0.0000000000000E+00
(PID.TID 0000.0001) %MON obc_W_uVel_mean              =   0.0000000000000E+00
(PID.TID 0000.0001) %MON obc_W_uVel_sd                =   0.0000000000000E+00
(PID.TID 0000.0001) %MON obc_W_uVel_Int               =   0.0000000000000E+00
(PID.TID 0000.0001) // =======================================================
(PID.TID 0000.0001) // End OBCS MONITOR field statistics
(PID.TID 0000.0001) // =======================================================
(PID.TID 0000.0001) %CHECKPOINT      2880 0000002880
 cg2d: Sum(rhs),rhsMax =  -3.97681887420731E-13  3.31728915552387E-01
 cg2d: Sum(rhs),rhsMax =  -3.67039731941077E-13  3.33135523929111E-01
 cg2d: Sum(rhs),rhsMax =  -3.34010596958478E-13  3.34421118533954E-01
 cg2d: Sum(rhs),rhsMax =  -3.00814928522186E-13  3.34538341396344E-01
 cg2d: Sum(rhs),rhsMax =  -2.74502642838570E-13  3.34195521270373E-01
 cg2d: Sum(rhs),rhsMax =  -2.27873275804313E-13  3.33277190236354E-01
 cg2d: Sum(rhs),rhsMax =  -1.88127291522733E-13  3.31753239505830E-01
 cg2d: Sum(rhs),rhsMax =  -1.21680443498917E-13  3.29531024468161E-01
 cg2d: Sum(rhs),rhsMax =  -6.59472476627343E-14  3.26634067643474E-01
 cg2d: Sum(rhs),rhsMax =  -1.71529457304587E-14  3.22971557485080E-01
 cg2d: Sum(rhs),rhsMax =   4.37982983214624E-14  3.18793214313870E-01
 cg2d: Sum(rhs),rhsMax =   8.77631300966186E-14  3.14076145388608E-01
 cg2d: Sum(rhs),rhsMax =   1.60205182453410E-13  3.08809660313113E-01
 cg2d: Sum(rhs),rhsMax =   2.14550599508812E-13  3.03010664416139E-01
 cg2d: Sum(rhs),rhsMax =   3.05089287166993E-13  2.96196978751352E-01
 cg2d: Sum(rhs),rhsMax =   3.67261776546002E-13  2.89258341193131E-01
 cg2d: Sum(rhs),rhsMax =   4.41757741498350E-13  2.80885903503601E-01
 cg2d: Sum(rhs),rhsMax =   5.03375119365046E-13  2.71662000868292E-01
 cg2d: Sum(rhs),rhsMax =   5.75872682873069E-13  2.63483116901292E-01
 cg2d: Sum(rhs),rhsMax =   6.48925357893404E-13  2.54125586005774E-01
 cg2d: Sum(rhs),rhsMax =   7.02771174587724E-13  2.44493351591035E-01
 cg2d: Sum(rhs),rhsMax =   7.68385355343071E-13  2.34056520356925E-01
 cg2d: Sum(rhs),rhsMax =   8.59645687967259E-13  2.23371647017813E-01
 cg2d: Sum(rhs),rhsMax =   9.48685574542196E-13  2.12817264889828E-01
 cg2d: Sum(rhs),rhsMax =   1.03639319348758E-12  2.06926212124777E-01
 cg2d: Sum(rhs),rhsMax =   1.09900977207644E-12  2.06837475338399E-01
 cg2d: Sum(rhs),rhsMax =   1.12965192755610E-12  2.06690794797969E-01
 cg2d: Sum(rhs),rhsMax =   1.21314069900791E-12  2.07890551765845E-01
 cg2d: Sum(rhs),rhsMax =   1.19793064357054E-12  2.16428582469298E-01
 cg2d: Sum(rhs),rhsMax =   1.16884280032536E-12  2.24608056405613E-01
 cg2d: Sum(rhs),rhsMax =   1.16673337657858E-12  2.32337326817359E-01
 cg2d: Sum(rhs),rhsMax =   1.16617826506626E-12  2.39628188830984E-01
 cg2d: Sum(rhs),rhsMax =   1.19748655436069E-12  2.46360008670639E-01
 cg2d: Sum(rhs),rhsMax =   1.20492504862568E-12  2.52628548603279E-01
 cg2d: Sum(rhs),rhsMax =   1.22024612636551E-12  2.58392610631634E-01
 cg2d: Sum(rhs),rhsMax =   1.23123733430930E-12  2.63586968788076E-01
 cg2d: Sum(rhs),rhsMax =   1.22668541990834E-12  2.68243212858509E-01
 cg2d: Sum(rhs),rhsMax =   1.23634436022257E-12  2.72384462457574E-01
 cg2d: Sum(rhs),rhsMax =   1.27664545601647E-12  2.75962974351890E-01
 cg2d: Sum(rhs),rhsMax =   1.32038824318670E-12  2.78996373400296E-01
 cg2d: Sum(rhs),rhsMax =   1.38122846493616E-12  2.81453545813514E-01
 cg2d: Sum(rhs),rhsMax =   1.42008627079804E-12  2.83200726017142E-01
 cg2d: Sum(rhs),rhsMax =   1.49491530265777E-12  2.84395328847854E-01
 cg2d: Sum(rhs),rhsMax =   1.56596957623378E-12  2.85037765466136E-01
 cg2d: Sum(rhs),rhsMax =   1.63991042967382E-12  2.84815932740483E-01
 cg2d: Sum(rhs),rhsMax =   1.73672187742113E-12  2.84275952821088E-01
 cg2d: Sum(rhs),rhsMax =   1.80777615099714E-12  2.83139786731376E-01
 cg2d: Sum(rhs),rhsMax =   1.89026572172679E-12  2.81365804438416E-01
 cg2d: Sum(rhs),rhsMax =   1.99196215078246E-12  2.79080318125504E-01
 cg2d: Sum(rhs),rhsMax =   2.09066097767163E-12  2.75937706196375E-01
 cg2d: Sum(rhs),rhsMax =   2.17592610596284E-12  2.72010398179681E-01
 cg2d: Sum(rhs),rhsMax =   2.26074714504421E-12  2.67519689108590E-01
 cg2d: Sum(rhs),rhsMax =   2.36755060001315E-12  2.63331796435631E-01
 cg2d: Sum(rhs),rhsMax =   2.49411602482041E-12  2.58795509829072E-01
 cg2d: Sum(rhs),rhsMax =   2.61968224890552E-12  2.53569949624264E-01
 cg2d: Sum(rhs),rhsMax =   2.76623168815604E-12  2.47794980239482E-01
 cg2d: Sum(rhs),rhsMax =   2.88824519856234E-12  2.41890458106071E-01
 cg2d: Sum(rhs),rhsMax =   3.06854541776147E-12  2.35733740207876E-01
 cg2d: Sum(rhs),rhsMax =   3.20921067498148E-12  2.29237121470661E-01
 cg2d: Sum(rhs),rhsMax =   3.38595818050180E-12  2.22826735587985E-01
 cg2d: Sum(rhs),rhsMax =   3.53239659744986E-12  2.15822821496398E-01
 cg2d: Sum(rhs),rhsMax =   3.74866804264684E-12  2.08721181078165E-01
 cg2d: Sum(rhs),rhsMax =   3.93685084532081E-12  2.01251402886779E-01
 cg2d: Sum(rhs),rhsMax =   4.01922939374799E-12  2.00757524555303E-01
 cg2d: Sum(rhs),rhsMax =   4.04221101035773E-12  2.00963780284123E-01
 cg2d: Sum(rhs),rhsMax =   4.08761913206490E-12  2.01097267890332E-01
 cg2d: Sum(rhs),rhsMax =   4.13724610126565E-12  2.01147242910734E-01
 cg2d: Sum(rhs),rhsMax =   4.21052082089091E-12  2.01108252751179E-01
 cg2d: Sum(rhs),rhsMax =   4.28568291965803E-12  2.00975194657855E-01
 cg2d: Sum(rhs),rhsMax =   4.37883063142408E-12  2.00745432964753E-01
 cg2d: Sum(rhs),rhsMax =   4.46831460720887E-12  2.00424825126802E-01
 cg2d: Sum(rhs),rhsMax =   4.55291360168530E-12  2.00013597885157E-01
 cg2d: Sum(rhs),rhsMax =   4.61530813566924E-12  1.99511098333174E-01
 cg2d: Sum(rhs),rhsMax =   4.70257166540478E-12  1.98908696915590E-01
 cg2d: Sum(rhs),rhsMax =   4.80782080813924E-12  1.98202405220421E-01
 cg2d: Sum(rhs),rhsMax =   4.87843099250540E-12  1.97389689156216E-01
 cg2d: Sum(rhs),rhsMax =   4.94204677181642E-12  1.96466895335846E-01
 cg2d: Sum(rhs),rhsMax =   5.03475039437262E-12  1.95437022554171E-01
 cg2d: Sum(rhs),rhsMax =   5.13733500184799E-12  1.94304166127412E-01
 cg2d: Sum(rhs),rhsMax =   5.28987964543148E-12  1.93059214243265E-01
 cg2d: Sum(rhs),rhsMax =   5.41833244938061E-12  1.91698976306131E-01
 cg2d: Sum(rhs),rhsMax =   5.53068701947268E-12  1.91053033158048E-01
 cg2d: Sum(rhs),rhsMax =   5.63549207299729E-12  1.91340364309377E-01
 cg2d: Sum(rhs),rhsMax =   5.74251757257116E-12  1.91606673392347E-01
 cg2d: Sum(rhs),rhsMax =   5.79536418854332E-12  1.91850989035770E-01
 cg2d: Sum(rhs),rhsMax =   5.87130344342768E-12  1.92072411288513E-01
 cg2d: Sum(rhs),rhsMax =   5.93991522634951E-12  1.92270139590006E-01
 cg2d: Sum(rhs),rhsMax =   6.04538641368890E-12  1.92443493754145E-01
 cg2d: Sum(rhs),rhsMax =   6.10533845701866E-12  1.92591926501833E-01
 cg2d: Sum(rhs),rhsMax =   6.16351414350902E-12  1.92715027496241E-01
 cg2d: Sum(rhs),rhsMax =   6.28042062800205E-12  1.92812520214673E-01
 cg2d: Sum(rhs),rhsMax =   6.30873131512999E-12  1.92884254060038E-01
 cg2d: Sum(rhs),rhsMax =   6.39710506789015E-12  1.92930194669204E-01
 cg2d: Sum(rhs),rhsMax =   6.45838937884946E-12  1.92950415318382E-01
 cg2d: Sum(rhs),rhsMax =   6.57074394894153E-12  1.92945091683809E-01
 cg2d: Sum(rhs),rhsMax =   6.61826149439548E-12  1.92914501129694E-01
 cg2d: Sum(rhs),rhsMax =   6.65745236716475E-12  1.93515065573844E-01
 cg2d: Sum(rhs),rhsMax =   6.64313049014709E-12  1.95187438209383E-01
 cg2d: Sum(rhs),rhsMax =   6.63391563904270E-12  1.96727763705666E-01
 cg2d: Sum(rhs),rhsMax =   6.64301946784462E-12  1.98156864647864E-01
 cg2d: Sum(rhs),rhsMax =   6.68520794278038E-12  1.99473198374784E-01
 cg2d: Sum(rhs),rhsMax =   6.68265442982374E-12  2.00675937336345E-01
 cg2d: Sum(rhs),rhsMax =   6.60016485909409E-12  2.01766219425373E-01
 cg2d: Sum(rhs),rhsMax =   6.53488374524613E-12  2.02768529744523E-01
 cg2d: Sum(rhs),rhsMax =   6.49336140412515E-12  2.03623517958976E-01
 cg2d: Sum(rhs),rhsMax =   6.50390852285909E-12  2.04388867652545E-01
 cg2d: Sum(rhs),rhsMax =   6.50279829983447E-12  2.05009958664580E-01
 cg2d: Sum(rhs),rhsMax =   6.49535980556948E-12  2.05533699433430E-01
 cg2d: Sum(rhs),rhsMax =   6.42841335718458E-12  2.05983060027322E-01
 cg2d: Sum(rhs),rhsMax =   6.41608988161124E-12  2.06326591400895E-01
 cg2d: Sum(rhs),rhsMax =   6.38711306066853E-12  2.06574301760960E-01
 cg2d: Sum(rhs),rhsMax =   6.38233910166264E-12  2.06711817377000E-01
 cg2d: Sum(rhs),rhsMax =   6.35735908360857E-12  2.06787447251635E-01
 cg2d: Sum(rhs),rhsMax =   6.31572572018513E-12  2.06767318579817E-01
 cg2d: Sum(rhs),rhsMax =   6.29030161292121E-12  2.06654200892299E-01
 cg2d: Sum(rhs),rhsMax =   6.29707397337143E-12  2.06434205763838E-01
 cg2d: Sum(rhs),rhsMax =   6.32305319214765E-12  2.06171656213920E-01
 cg2d: Sum(rhs),rhsMax =   6.33515462311607E-12  2.05795226061663E-01
 cg2d: Sum(rhs),rhsMax =   6.31694696551222E-12  2.05316783196140E-01
 cg2d: Sum(rhs),rhsMax =   6.38011865561339E-12  2.04760930830704E-01
 cg2d: Sum(rhs),rhsMax =   6.44173603348008E-12  2.04120087433764E-01
 cg2d: Sum(rhs),rhsMax =   6.49424958254485E-12  2.03407897675596E-01
 cg2d: Sum(rhs),rhsMax =   6.46882547528094E-12  2.02616627841846E-01
 cg2d: Sum(rhs),rhsMax =   6.47570885803361E-12  2.01739987261468E-01
 cg2d: Sum(rhs),rhsMax =   6.53288534380181E-12  2.00805757704860E-01
 cg2d: Sum(rhs),rhsMax =   6.56297238776915E-12  1.99812425916400E-01
 cg2d: Sum(rhs),rhsMax =   6.57263132808339E-12  1.98800066290967E-01
 cg2d: Sum(rhs),rhsMax =   6.61282140157482E-12  1.97659966394535E-01
 cg2d: Sum(rhs),rhsMax =   6.66144917005340E-12  1.96464636504596E-01
 cg2d: Sum(rhs),rhsMax =   6.70885569320490E-12  1.95211730598377E-01
 cg2d: Sum(rhs),rhsMax =   6.76347866601645E-12  1.93911222930967E-01
 cg2d: Sum(rhs),rhsMax =   6.81388279133444E-12  1.92543046527526E-01
 cg2d: Sum(rhs),rhsMax =   6.84430290220917E-12  1.91245617278793E-01
 cg2d: Sum(rhs),rhsMax =   6.84508005832640E-12  1.92006654693569E-01
 cg2d: Sum(rhs),rhsMax =   6.77280453942330E-12  1.92707652505081E-01
 cg2d: Sum(rhs),rhsMax =   6.68665123271239E-12  1.93347248726990E-01
 cg2d: Sum(rhs),rhsMax =   6.68920474566903E-12  1.93920895479466E-01
 cg2d: Sum(rhs),rhsMax =   6.74060807170918E-12  1.94428663110975E-01
 cg2d: Sum(rhs),rhsMax =   6.76425582213369E-12  1.94868493593401E-01
 cg2d: Sum(rhs),rhsMax =   6.81288359061227E-12  1.95235847663998E-01
 cg2d: Sum(rhs),rhsMax =   6.89670542897147E-12  1.95528023685542E-01
 cg2d: Sum(rhs),rhsMax =   6.90225654409460E-12  1.95742308173459E-01
 cg2d: Sum(rhs),rhsMax =   6.90336676711922E-12  1.95869823410026E-01
 cg2d: Sum(rhs),rhsMax =   6.82565115539546E-12  1.95921440974090E-01
 cg2d: Sum(rhs),rhsMax =   6.78901379558283E-12  1.95901003120432E-01
 cg2d: Sum(rhs),rhsMax =   6.77324862863316E-12  1.95809239591665E-01
 cg2d: Sum(rhs),rhsMax =   6.84408085760424E-12  1.95636263413020E-01
 cg2d: Sum(rhs),rhsMax =   6.83841872017865E-12  1.95385340961960E-01
 cg2d: Sum(rhs),rhsMax =   6.90925094914974E-12  1.95053566386949E-01
 cg2d: Sum(rhs),rhsMax =   6.94044821614170E-12  1.94643816659000E-01
 cg2d: Sum(rhs),rhsMax =   7.04358793512938E-12  1.94146697427885E-01
 cg2d: Sum(rhs),rhsMax =   7.06934510930068E-12  1.93575327024561E-01
 cg2d: Sum(rhs),rhsMax =   7.18913817365774E-12  1.92917334225321E-01
 cg2d: Sum(rhs),rhsMax =   7.23499038457476E-12  1.92180564116956E-01
 cg2d: Sum(rhs),rhsMax =   7.34801108848160E-12  1.91364396812761E-01
 cg2d: Sum(rhs),rhsMax =   7.43560768512452E-12  1.90453822810199E-01
 cg2d: Sum(rhs),rhsMax =   7.54452056384025E-12  1.89435622814494E-01
 cg2d: Sum(rhs),rhsMax =   7.59514673376316E-12  1.88322617505371E-01
 cg2d: Sum(rhs),rhsMax =   7.71704922186700E-12  1.87105564089766E-01
 cg2d: Sum(rhs),rhsMax =   7.78210829111003E-12  1.85782986556284E-01
 cg2d: Sum(rhs),rhsMax =   7.73914266005704E-12  1.87385801360811E-01
 cg2d: Sum(rhs),rhsMax =   7.69795338584345E-12  1.89729297719983E-01
 cg2d: Sum(rhs),rhsMax =   7.66253727135791E-12  1.91499551504398E-01
 cg2d: Sum(rhs),rhsMax =   7.66475771740716E-12  1.92752861901902E-01
 cg2d: Sum(rhs),rhsMax =   7.67619301456079E-12  1.93473269753658E-01
 cg2d: Sum(rhs),rhsMax =   7.75612907233381E-12  1.93672040308688E-01
 cg2d: Sum(rhs),rhsMax =   7.88069609569675E-12  1.93392765092100E-01
 cg2d: Sum(rhs),rhsMax =   7.96995802687661E-12  1.92618311029174E-01
 cg2d: Sum(rhs),rhsMax =   8.07665045954309E-12  1.91382928407379E-01
 cg2d: Sum(rhs),rhsMax =   8.15181255831021E-12  1.89695042489767E-01
 cg2d: Sum(rhs),rhsMax =   8.12627742874383E-12  1.90832812076036E-01
 cg2d: Sum(rhs),rhsMax =   8.01669841621333E-12  1.94000217366962E-01
 cg2d: Sum(rhs),rhsMax =   7.90223442237448E-12  1.97043823658636E-01
 cg2d: Sum(rhs),rhsMax =   7.84927678409986E-12  1.99962832001570E-01
 cg2d: Sum(rhs),rhsMax =   7.73947572696443E-12  2.02774959778635E-01
 cg2d: Sum(rhs),rhsMax =   7.66098295912343E-12  2.05467312705232E-01
 cg2d: Sum(rhs),rhsMax =   7.61180007913254E-12  2.08029123807720E-01
 cg2d: Sum(rhs),rhsMax =   7.51831930045910E-12  2.10478509058303E-01
 cg2d: Sum(rhs),rhsMax =   7.45603578877763E-12  2.12815380208741E-01
 cg2d: Sum(rhs),rhsMax =   7.40740802029904E-12  2.15024180495547E-01
 cg2d: Sum(rhs),rhsMax =   7.32580662798910E-12  2.17113252179767E-01
 cg2d: Sum(rhs),rhsMax =   7.27284898971448E-12  2.19100038967170E-01
 cg2d: Sum(rhs),rhsMax =   7.18591852688633E-12  2.20963880765574E-01
 cg2d: Sum(rhs),rhsMax =   7.16804393618986E-12  2.22725575454917E-01
 cg2d: Sum(rhs),rhsMax =   7.11919412310635E-12  2.24362360740662E-01
 cg2d: Sum(rhs),rhsMax =   7.09765579642863E-12  2.25881915020786E-01
 cg2d: Sum(rhs),rhsMax =   7.05091540709191E-12  2.27283108536303E-01
 cg2d: Sum(rhs),rhsMax =   7.02116143003195E-12  2.28561388286770E-01
 cg2d: Sum(rhs),rhsMax =   7.03370695021022E-12  2.29729030222430E-01
 cg2d: Sum(rhs),rhsMax =   7.01394498037189E-12  2.30801740946635E-01
 cg2d: Sum(rhs),rhsMax =   7.00517421847735E-12  2.31757006161680E-01
 cg2d: Sum(rhs),rhsMax =   6.96853685866472E-12  2.32597635562566E-01
 cg2d: Sum(rhs),rhsMax =   6.93911594851215E-12  2.33327231120857E-01
 cg2d: Sum(rhs),rhsMax =   6.91446899736547E-12  2.33958096350212E-01
 cg2d: Sum(rhs),rhsMax =   6.91102730598914E-12  2.34475482940176E-01
 cg2d: Sum(rhs),rhsMax =   6.87350176775681E-12  2.34881619574153E-01
 cg2d: Sum(rhs),rhsMax =   6.87094825480017E-12  2.35188208184033E-01
 cg2d: Sum(rhs),rhsMax =   6.86839474184353E-12  2.35395350380459E-01
 cg2d: Sum(rhs),rhsMax =   6.85673740008497E-12  2.35512801994753E-01
 cg2d: Sum(rhs),rhsMax =   6.85462797633818E-12  2.35545075025516E-01
 cg2d: Sum(rhs),rhsMax =   6.84829970509782E-12  2.35460697214937E-01
 cg2d: Sum(rhs),rhsMax =   6.83164635972844E-12  2.35290053866620E-01
 cg2d: Sum(rhs),rhsMax =   6.85240753028893E-12  2.35038079423200E-01
 cg2d: Sum(rhs),rhsMax =   6.87294665624449E-12  2.34702534810188E-01
 cg2d: Sum(rhs),rhsMax =   6.90336676711922E-12  2.34285121080182E-01
 cg2d: Sum(rhs),rhsMax =   6.90003609804535E-12  2.33794144600211E-01
 cg2d: Sum(rhs),rhsMax =   6.94577728665990E-12  2.33213266490925E-01
 cg2d: Sum(rhs),rhsMax =   6.99001967419122E-12  2.32559603200915E-01
 cg2d: Sum(rhs),rhsMax =   7.03070934804373E-12  2.31838338429393E-01
 cg2d: Sum(rhs),rhsMax =   7.05713265602981E-12  2.31046790269189E-01
 cg2d: Sum(rhs),rhsMax =   7.11991576807236E-12  2.30178629292337E-01
 cg2d: Sum(rhs),rhsMax =   7.16249282106673E-12  2.29238721375574E-01
 cg2d: Sum(rhs),rhsMax =   7.19663217907396E-12  2.28247478438590E-01
 cg2d: Sum(rhs),rhsMax =   7.23621162990185E-12  2.27227743969431E-01
 cg2d: Sum(rhs),rhsMax =   7.29483140560205E-12  2.26106139969268E-01
 cg2d: Sum(rhs),rhsMax =   7.36521954536329E-12  2.24918271466920E-01
 cg2d: Sum(rhs),rhsMax =   7.41123828973400E-12  2.23675184653552E-01
 cg2d: Sum(rhs),rhsMax =   7.49311723780011E-12  2.22396457625314E-01
 cg2d: Sum(rhs),rhsMax =   7.57527374162237E-12  2.21043570909423E-01
 cg2d: Sum(rhs),rhsMax =   7.65265628643874E-12  2.19653062602259E-01
 cg2d: Sum(rhs),rhsMax =   7.71838148949655E-12  2.18203380122597E-01
 cg2d: Sum(rhs),rhsMax =   7.81463782573155E-12  2.16720063226146E-01
 cg2d: Sum(rhs),rhsMax =   7.87742093777410E-12  2.15203016636111E-01
 cg2d: Sum(rhs),rhsMax =   7.97534260854604E-12  2.13624038314717E-01
 cg2d: Sum(rhs),rhsMax =   8.07298672356183E-12  2.11994270218318E-01
 cg2d: Sum(rhs),rhsMax =   8.14132095072750E-12  2.10314981442634E-01
 cg2d: Sum(rhs),rhsMax =   8.20715717608778E-12  2.08587591506103E-01
 cg2d: Sum(rhs),rhsMax =   8.27338197950667E-12  2.06819960941993E-01
 cg2d: Sum(rhs),rhsMax =   8.35398417109445E-12  2.05000738278756E-01
 cg2d: Sum(rhs),rhsMax =   8.42470537776308E-12  2.03134857400199E-01
 cg2d: Sum(rhs),rhsMax =   8.50286507869669E-12  2.01225385940550E-01
 cg2d: Sum(rhs),rhsMax =   8.60000959335139E-12  1.99268404525614E-01
 cg2d: Sum(rhs),rhsMax =   8.71624994402964E-12  1.97274053971499E-01
 cg2d: Sum(rhs),rhsMax =   8.83870754364580E-12  1.95243108120666E-01
 cg2d: Sum(rhs),rhsMax =   8.94395668638026E-12  1.93169475602972E-01
 cg2d: Sum(rhs),rhsMax =   9.08473296590273E-12  1.91069828538369E-01
 cg2d: Sum(rhs),rhsMax =   9.22817378068430E-12  1.88936994689288E-01
 cg2d: Sum(rhs),rhsMax =   9.36539734652797E-12  1.86770218023312E-01
 cg2d: Sum(rhs),rhsMax =   9.49174072673031E-12  1.84575051491565E-01
 cg2d: Sum(rhs),rhsMax =   9.58744195145300E-12  1.82364713477817E-01
 cg2d: Sum(rhs),rhsMax =   9.69524460714410E-12  1.80139773657760E-01
 cg2d: Sum(rhs),rhsMax =   9.80293624053274E-12  1.77904042109609E-01
 cg2d: Sum(rhs),rhsMax =   9.91196014155094E-12  1.75670628602795E-01
 cg2d: Sum(rhs),rhsMax =   1.00762731491955E-11  1.73488797099708E-01
 cg2d: Sum(rhs),rhsMax =   9.95947768700489E-12  1.76007939737607E-01
 cg2d: Sum(rhs),rhsMax =   9.75997060947975E-12  1.80003781479785E-01
 cg2d: Sum(rhs),rhsMax =   9.59587964644015E-12  1.83881196959094E-01
 cg2d: Sum(rhs),rhsMax =   9.43545241938182E-12  1.87653130543128E-01
 cg2d: Sum(rhs),rhsMax =   9.26558829661417E-12  1.91336914367703E-01
 cg2d: Sum(rhs),rhsMax =   9.13630282539657E-12  1.94921054222547E-01
 cg2d: Sum(rhs),rhsMax =   9.00707286533020E-12  1.98401486894627E-01
 cg2d: Sum(rhs),rhsMax =   8.88789042363669E-12  2.01785227109136E-01
 cg2d: Sum(rhs),rhsMax =   8.72690808506604E-12  2.05062287957788E-01
 cg2d: Sum(rhs),rhsMax =   8.61560822684737E-12  2.08233912182375E-01
 cg2d: Sum(rhs),rhsMax =   8.52040660248576E-12  2.11278310367522E-01
 cg2d: Sum(rhs),rhsMax =   8.43081160439851E-12  2.14214081455787E-01
 cg2d: Sum(rhs),rhsMax =   8.34038393904279E-12  2.17045619216819E-01
 cg2d: Sum(rhs),rhsMax =   8.27432566907760E-12  2.19770359482687E-01
 cg2d: Sum(rhs),rhsMax =   8.19294632137257E-12  2.22361956128562E-01
 cg2d: Sum(rhs),rhsMax =   8.13582534675561E-12  2.24831038390101E-01
 cg2d: Sum(rhs),rhsMax =   8.08053624012928E-12  2.27210473312953E-01
 cg2d: Sum(rhs),rhsMax =   8.01081423418282E-12  2.29465955251801E-01
 cg2d: Sum(rhs),rhsMax =   7.93098919871227E-12  2.31601451653313E-01
 cg2d: Sum(rhs),rhsMax =   7.87336862373422E-12  2.33620330169194E-01
 cg2d: Sum(rhs),rhsMax =   7.82085507466945E-12  2.35529845493104E-01
 cg2d: Sum(rhs),rhsMax =   7.77256037309826E-12  2.37337224198806E-01
 cg2d: Sum(rhs),rhsMax =   7.74563746475110E-12  2.39023138081402E-01
 cg2d: Sum(rhs),rhsMax =   7.70128405491732E-12  2.40592881038951E-01
 cg2d: Sum(rhs),rhsMax =   7.67597096995587E-12  2.42049569009865E-01
 cg2d: Sum(rhs),rhsMax =   7.63888952093339E-12  2.43385852137088E-01
 cg2d: Sum(rhs),rhsMax =   7.60685958667295E-12  2.44622750880672E-01
 cg2d: Sum(rhs),rhsMax =   7.58870744022033E-12  2.45757347671600E-01
 cg2d: Sum(rhs),rhsMax =   7.54485363074764E-12  2.46760705692906E-01
 cg2d: Sum(rhs),rhsMax =   7.48756612267698E-12  2.47641698192989E-01
 cg2d: Sum(rhs),rhsMax =   7.46591677369679E-12  2.48418430147970E-01
 cg2d: Sum(rhs),rhsMax =   7.43677341930038E-12  2.49080800604469E-01
 cg2d: Sum(rhs),rhsMax =   7.38586969362132E-12  2.49633157822319E-01
 cg2d: Sum(rhs),rhsMax =   7.33996197155307E-12  2.50074045556342E-01
 cg2d: Sum(rhs),rhsMax =   7.30832061535125E-12  2.50418059373528E-01
 cg2d: Sum(rhs),rhsMax =   7.27723437066174E-12  2.50638936232336E-01
 cg2d: Sum(rhs),rhsMax =   7.22127913022064E-12  2.50753863992944E-01
 cg2d: Sum(rhs),rhsMax =   7.19807546900597E-12  2.50776049218231E-01
 cg2d: Sum(rhs),rhsMax =   7.16232628761304E-12  2.50705185571602E-01
 cg2d: Sum(rhs),rhsMax =   7.13606951308066E-12  2.50533059793042E-01
 cg2d: Sum(rhs),rhsMax =   7.11580794288125E-12  2.50272222781183E-01
 cg2d: Sum(rhs),rhsMax =   7.09582392843799E-12  2.49934483492795E-01
 cg2d: Sum(rhs),rhsMax =   7.07184311110609E-12  2.49508583909832E-01
 cg2d: Sum(rhs),rhsMax =   7.05091540709191E-12  2.48990133766976E-01
 cg2d: Sum(rhs),rhsMax =   7.02937708041418E-12  2.48383995900465E-01
 cg2d: Sum(rhs),rhsMax =   7.01461111418666E-12  2.47690581220586E-01
 cg2d: Sum(rhs),rhsMax =   6.99706959039759E-12  2.46911700967047E-01
 cg2d: Sum(rhs),rhsMax =   6.98513469288287E-12  2.46046101216705E-01
 cg2d: Sum(rhs),rhsMax =   6.95676849460369E-12  2.45133736377352E-01
 cg2d: Sum(rhs),rhsMax =   6.96270818778544E-12  2.44106016024350E-01
 cg2d: Sum(rhs),rhsMax =   6.94433399672789E-12  2.42982012839993E-01
 cg2d: Sum(rhs),rhsMax =   6.94605484241606E-12  2.41786717579244E-01
 cg2d: Sum(rhs),rhsMax =   6.94128088341017E-12  2.40538226367063E-01
 cg2d: Sum(rhs),rhsMax =   6.93617385749690E-12  2.39218312522804E-01
 cg2d: Sum(rhs),rhsMax =   6.94666546507960E-12  2.37832670535697E-01
 cg2d: Sum(rhs),rhsMax =   6.94133639456140E-12  2.36360431856609E-01
 cg2d: Sum(rhs),rhsMax =   6.94333479600573E-12  2.34851299300108E-01
 cg2d: Sum(rhs),rhsMax =   6.91419144160932E-12  2.33301329968971E-01
 cg2d: Sum(rhs),rhsMax =   6.88377133073459E-12  2.31671450872364E-01
 cg2d: Sum(rhs),rhsMax =   6.90203449948967E-12  2.29980624633409E-01
 cg2d: Sum(rhs),rhsMax =   6.87011558753170E-12  2.28237766438150E-01
 cg2d: Sum(rhs),rhsMax =   6.86289913787164E-12  2.26444129090350E-01
 cg2d: Sum(rhs),rhsMax =   6.81815714997924E-12  2.24608192775547E-01
 cg2d: Sum(rhs),rhsMax =   6.80427936217143E-12  2.22715657673241E-01
 cg2d: Sum(rhs),rhsMax =   6.79040157436361E-12  2.20774406047401E-01
 cg2d: Sum(rhs),rhsMax =   6.78079814520061E-12  2.18789167504461E-01
 cg2d: Sum(rhs),rhsMax =   6.75304256958498E-12  2.16737960839278E-01
 cg2d: Sum(rhs),rhsMax =   6.75154376850173E-12  2.14651850521934E-01
 cg2d: Sum(rhs),rhsMax =   6.71779298855313E-12  2.12520450229721E-01
 cg2d: Sum(rhs),rhsMax =   6.71263045148862E-12  2.10341314309183E-01
 cg2d: Sum(rhs),rhsMax =   6.70580257988718E-12  2.08114518094616E-01
 cg2d: Sum(rhs),rhsMax =   6.69297950395276E-12  2.05833032690991E-01
 cg2d: Sum(rhs),rhsMax =   6.77069511567652E-12  2.03512857509137E-01
 cg2d: Sum(rhs),rhsMax =   6.82742751223486E-12  2.01146494337017E-01
 cg2d: Sum(rhs),rhsMax =   6.91846580025413E-12  1.98736210999048E-01
 cg2d: Sum(rhs),rhsMax =   6.98519020403410E-12  1.96291873112400E-01
 cg2d: Sum(rhs),rhsMax =   7.06634750713420E-12  1.93816594514654E-01
 cg2d: Sum(rhs),rhsMax =   7.12541137204425E-12  1.91322863739517E-01
 cg2d: Sum(rhs),rhsMax =   7.18425319234939E-12  1.88801727551406E-01
 cg2d: Sum(rhs),rhsMax =   7.23965332127818E-12  1.86261591224086E-01
 cg2d: Sum(rhs),rhsMax =   7.31970040135366E-12  1.83741336915820E-01
 cg2d: Sum(rhs),rhsMax =   7.38853422888042E-12  1.81172616202030E-01
 cg2d: Sum(rhs),rhsMax =   7.46014361396874E-12  1.78585457247719E-01
 cg2d: Sum(rhs),rhsMax =   7.52831130768072E-12  1.76002527922156E-01
 cg2d: Sum(rhs),rhsMax =   7.57616192004207E-12  1.73424500194304E-01
 cg2d: Sum(rhs),rhsMax =   7.61501972590395E-12  1.70835121016189E-01
 cg2d: Sum(rhs),rhsMax =   7.51354534145321E-12  1.71874707170881E-01
 cg2d: Sum(rhs),rhsMax =   7.29905025309563E-12  1.75331846691375E-01
 cg2d: Sum(rhs),rhsMax =   7.08622049927499E-12  1.78689366633457E-01
 cg2d: Sum(rhs),rhsMax =   6.88538115412030E-12  1.81949755409761E-01
 cg2d: Sum(rhs),rhsMax =   6.65334454197364E-12  1.85118677944365E-01
 cg2d: Sum(rhs),rhsMax =   6.46949160909571E-12  1.88193346689279E-01
 cg2d: Sum(rhs),rhsMax =   6.27442542366907E-12  1.91166521271398E-01
 cg2d: Sum(rhs),rhsMax =   6.14519546360270E-12  1.94037938029368E-01
 cg2d: Sum(rhs),rhsMax =   6.01052541071567E-12  1.96809412665598E-01
 cg2d: Sum(rhs),rhsMax =   5.90216764351226E-12  1.99488968503421E-01
 cg2d: Sum(rhs),rhsMax =   5.77393688416805E-12  2.02064172471923E-01
 cg2d: Sum(rhs),rhsMax =   5.64892577159526E-12  2.04541584784680E-01
 cg2d: Sum(rhs),rhsMax =   5.53024293026283E-12  2.06920995519070E-01
 cg2d: Sum(rhs),rhsMax =   5.42366151989881E-12  2.09223103438153E-01
 cg2d: Sum(rhs),rhsMax =   5.31308330664615E-12  2.11404374342649E-01
 cg2d: Sum(rhs),rhsMax =   5.24813525970558E-12  2.13480109531004E-01
 cg2d: Sum(rhs),rhsMax =   5.16886533574734E-12  2.15465022027539E-01
 cg2d: Sum(rhs),rhsMax =   5.12156983489831E-12  2.17351493972421E-01
 cg2d: Sum(rhs),rhsMax =   5.07216491030249E-12  2.19137893485767E-01
 cg2d: Sum(rhs),rhsMax =   5.03508346128001E-12  2.20837932067284E-01
 cg2d: Sum(rhs),rhsMax =   5.03941333107605E-12  2.22413301909460E-01
 cg2d: Sum(rhs),rhsMax =   5.02842212313226E-12  2.23883931219072E-01
 cg2d: Sum(rhs),rhsMax =   4.99678076693044E-12  2.25260324039774E-01
 cg2d: Sum(rhs),rhsMax =   4.95725682725379E-12  2.26538803200289E-01
 cg2d: Sum(rhs),rhsMax =   4.90529838970133E-12  2.27708869450232E-01
 cg2d: Sum(rhs),rhsMax =   4.82192064055198E-12  2.28787463795837E-01
 cg2d: Sum(rhs),rhsMax =   4.69746463949150E-12  2.29767462112993E-01
 cg2d: Sum(rhs),rhsMax =   4.59821070109001E-12  2.30652749424396E-01
 cg2d: Sum(rhs),rhsMax =   4.49706938354666E-12  2.31444225478853E-01
 cg2d: Sum(rhs),rhsMax =   4.43545200567996E-12  2.32167438344289E-01
 cg2d: Sum(rhs),rhsMax =   4.40991687611358E-12  2.32760940683465E-01
 cg2d: Sum(rhs),rhsMax =   4.41258141137268E-12  2.33243913792058E-01
 cg2d: Sum(rhs),rhsMax =   4.46731540648670E-12  2.33639783115863E-01
 cg2d: Sum(rhs),rhsMax =   4.48840964395458E-12  2.33941904508779E-01
 cg2d: Sum(rhs),rhsMax =   4.49373871447278E-12  2.34168938921380E-01
 cg2d: Sum(rhs),rhsMax =   4.47208936549259E-12  2.34296550961564E-01
 cg2d: Sum(rhs),rhsMax =   4.47197834319013E-12  2.34340281084668E-01
 cg2d: Sum(rhs),rhsMax =   4.47419878923938E-12  2.34292928293252E-01
 cg2d: Sum(rhs),rhsMax =   4.47597514607878E-12  2.34169389417483E-01
 cg2d: Sum(rhs),rhsMax =   4.51605419726775E-12  2.33964579664745E-01
 cg2d: Sum(rhs),rhsMax =   4.51683135338499E-12  2.33684248341216E-01
 cg2d: Sum(rhs),rhsMax =   4.51738646489730E-12  2.33316385352183E-01
 cg2d: Sum(rhs),rhsMax =   4.54036808150704E-12  2.32865317646423E-01
 cg2d: Sum(rhs),rhsMax =   4.54514204051293E-12  2.32336883525255E-01
 cg2d: Sum(rhs),rhsMax =   4.56767956791282E-12  2.31733677181067E-01
 cg2d: Sum(rhs),rhsMax =   4.56867876863498E-12  2.31052235290902E-01
 cg2d: Sum(rhs),rhsMax =   4.60287363779344E-12  2.30297189087246E-01
 cg2d: Sum(rhs),rhsMax =   4.63140636952630E-12  2.29468481112760E-01
 cg2d: Sum(rhs),rhsMax =   4.65993910125917E-12  2.28559104015817E-01
 cg2d: Sum(rhs),rhsMax =   4.72988315181055E-12  2.27579896593264E-01
 cg2d: Sum(rhs),rhsMax =   4.78450612462211E-12  2.26537534829017E-01
 cg2d: Sum(rhs),rhsMax =   4.86499729390744E-12  2.25429206596947E-01
 cg2d: Sum(rhs),rhsMax =   4.96191976395721E-12  2.24255945470039E-01
 cg2d: Sum(rhs),rhsMax =   5.06461539373504E-12  2.23016798582297E-01
 cg2d: Sum(rhs),rhsMax =   5.14965847742133E-12  2.21762774888121E-01
 cg2d: Sum(rhs),rhsMax =   5.24913446042774E-12  2.20397405485849E-01
 cg2d: Sum(rhs),rhsMax =   5.37703215286456E-12  2.18961203668592E-01
 cg2d: Sum(rhs),rhsMax =   5.48949774525909E-12  2.17488632558771E-01
 cg2d: Sum(rhs),rhsMax =   5.73596725672587E-12  2.15977719180585E-01
 cg2d: Sum(rhs),rhsMax =   6.01407812439447E-12  2.14427818125579E-01
 cg2d: Sum(rhs),rhsMax =   6.15307804707754E-12  2.12832976913036E-01
 cg2d: Sum(rhs),rhsMax =   6.25177687396672E-12  2.11194025448975E-01
 cg2d: Sum(rhs),rhsMax =   6.34481356343031E-12  2.09508106638674E-01
 cg2d: Sum(rhs),rhsMax =   6.42763620106734E-12  2.07800751410221E-01
 cg2d: Sum(rhs),rhsMax =   6.54076792727665E-12  2.06038579836120E-01
 cg2d: Sum(rhs),rhsMax =   6.62170318577182E-12  2.04233510991065E-01
 cg2d: Sum(rhs),rhsMax =   6.71251942918616E-12  2.02400156701532E-01
 cg2d: Sum(rhs),rhsMax =   6.82365275395114E-12  2.00529909305572E-01
 cg2d: Sum(rhs),rhsMax =   6.89970303113796E-12  1.98606539318929E-01
 cg2d: Sum(rhs),rhsMax =   6.98763269468827E-12  1.96651642914930E-01
 cg2d: Sum(rhs),rhsMax =   7.10398406766899E-12  1.94650244932824E-01
 cg2d: Sum(rhs),rhsMax =   7.17059744914650E-12  1.93506520140257E-01
 cg2d: Sum(rhs),rhsMax =   7.15749681745592E-12  1.93901213795922E-01
 cg2d: Sum(rhs),rhsMax =   7.15805192896823E-12  1.94237984001373E-01
 cg2d: Sum(rhs),rhsMax =   7.10931313818719E-12  1.94516723467827E-01
 cg2d: Sum(rhs),rhsMax =   7.07789382659030E-12  1.94728317771981E-01
 cg2d: Sum(rhs),rhsMax =   7.07611746975090E-12  1.94866934387564E-01
 cg2d: Sum(rhs),rhsMax =   7.03115343725358E-12  1.94934363968448E-01
 cg2d: Sum(rhs),rhsMax =   7.03348490560529E-12  1.94929973883386E-01
 cg2d: Sum(rhs),rhsMax =   7.10287384464436E-12  1.94851845212888E-01
 cg2d: Sum(rhs),rhsMax =   7.16038339731995E-12  1.94703811214676E-01
 cg2d: Sum(rhs),rhsMax =   7.21700477157583E-12  1.94489439010661E-01
 cg2d: Sum(rhs),rhsMax =   7.24365012416683E-12  1.94203746722738E-01
 cg2d: Sum(rhs),rhsMax =   7.26707582998642E-12  1.93846824687316E-01
 cg2d: Sum(rhs),rhsMax =   7.33346716685901E-12  1.93412502927215E-01
 cg2d: Sum(rhs),rhsMax =   7.37032657127656E-12  1.92902837612928E-01
 cg2d: Sum(rhs),rhsMax =   7.43494155130975E-12  1.92310824303089E-01
 cg2d: Sum(rhs),rhsMax =   7.48356931978833E-12  1.91635856309986E-01
 cg2d: Sum(rhs),rhsMax =   7.56916751498693E-12  1.90873375258701E-01
 cg2d: Sum(rhs),rhsMax =   7.64288632382204E-12  1.90031739380147E-01
 cg2d: Sum(rhs),rhsMax =   7.72160113626796E-12  1.89106119676730E-01
 cg2d: Sum(rhs),rhsMax =   7.80620013074440E-12  1.88097747811201E-01
 cg2d: Sum(rhs),rhsMax =   7.85582709994515E-12  1.87007324991473E-01
 cg2d: Sum(rhs),rhsMax =   7.87292453452437E-12  1.85831874530677E-01
 cg2d: Sum(rhs),rhsMax =   7.88524801009771E-12  1.84575083738243E-01
 cg2d: Sum(rhs),rhsMax =   8.02813371336697E-12  1.83239566252154E-01
 cg2d: Sum(rhs),rhsMax =   8.04833977241515E-12  1.82797318196774E-01
 cg2d: Sum(rhs),rhsMax =   8.01492205937393E-12  1.83088260328791E-01
 cg2d: Sum(rhs),rhsMax =   7.99915689242425E-12  1.83366664908741E-01
 cg2d: Sum(rhs),rhsMax =   7.98228150244995E-12  1.83631852320377E-01
 cg2d: Sum(rhs),rhsMax =   7.96784860312982E-12  1.83883196588815E-01
 cg2d: Sum(rhs),rhsMax =   7.92965693108272E-12  1.84120143930942E-01
 cg2d: Sum(rhs),rhsMax =   7.91078313966409E-12  1.84342222503190E-01
 cg2d: Sum(rhs),rhsMax =   7.91122722887394E-12  1.84549043112343E-01
 cg2d: Sum(rhs),rhsMax =   7.84616815963091E-12  1.84740291667848E-01
 cg2d: Sum(rhs),rhsMax =   7.74447173057524E-12  1.86089842551229E-01
 cg2d: Sum(rhs),rhsMax =   7.68829444552921E-12  1.88200658885819E-01
 cg2d: Sum(rhs),rhsMax =   7.60780327624389E-12  1.90217833977143E-01
 cg2d: Sum(rhs),rhsMax =   7.59359242152868E-12  1.92144680758478E-01
 cg2d: Sum(rhs),rhsMax =   7.53908047101959E-12  1.93977805860047E-01
 cg2d: Sum(rhs),rhsMax =   7.54030171634668E-12  1.95724064924390E-01
 cg2d: Sum(rhs),rhsMax =   7.46658290751157E-12  1.97388316665017E-01
 cg2d: Sum(rhs),rhsMax =   7.41928740666253E-12  1.98969187181210E-01
 cg2d: Sum(rhs),rhsMax =   7.35922434103031E-12  2.00468469301466E-01
 cg2d: Sum(rhs),rhsMax =   7.33768601435258E-12  2.01891205083990E-01
 cg2d: Sum(rhs),rhsMax =   7.38664684973855E-12  2.03233785869912E-01
 cg2d: Sum(rhs),rhsMax =   7.39586170084294E-12  2.04494442654586E-01
 cg2d: Sum(rhs),rhsMax =   7.34423633019787E-12  2.05680247329850E-01
 cg2d: Sum(rhs),rhsMax =   7.26851911991844E-12  2.06789236659326E-01
 cg2d: Sum(rhs),rhsMax =   7.23709980832155E-12  2.07818360277511E-01
 cg2d: Sum(rhs),rhsMax =   7.20379311758279E-12  2.08777671326839E-01
 cg2d: Sum(rhs),rhsMax =   7.07733871507799E-12  2.09657310157056E-01
 cg2d: Sum(rhs),rhsMax =   6.97708557595433E-12  2.10465919247432E-01
 cg2d: Sum(rhs),rhsMax =   6.86872780875092E-12  2.11201384122518E-01
 cg2d: Sum(rhs),rhsMax =   6.70830058169258E-12  2.11865607355064E-01
 cg2d: Sum(rhs),rhsMax =   6.59428067706358E-12  2.12450094591114E-01
 cg2d: Sum(rhs),rhsMax =   6.41420250246938E-12  2.12953398546379E-01
 cg2d: Sum(rhs),rhsMax =   6.31195096190140E-12  2.13377459889754E-01
 cg2d: Sum(rhs),rhsMax =   6.20148377095120E-12  2.13733438489063E-01
 cg2d: Sum(rhs),rhsMax =   6.05049343960218E-12  2.14014535832723E-01
 cg2d: Sum(rhs),rhsMax =   5.93469717813377E-12  2.14230794041684E-01
 cg2d: Sum(rhs),rhsMax =   5.81534820298657E-12  2.14376726598019E-01
 cg2d: Sum(rhs),rhsMax =   5.70254954368465E-12  2.14464033944519E-01
 cg2d: Sum(rhs),rhsMax =   5.60340662758563E-12  2.14492332334621E-01
 cg2d: Sum(rhs),rhsMax =   5.54167822741647E-12  2.14464175261608E-01
 cg2d: Sum(rhs),rhsMax =   5.43443068323768E-12  2.14377424331112E-01
 cg2d: Sum(rhs),rhsMax =   5.39468469895610E-12  2.14228023835767E-01
 cg2d: Sum(rhs),rhsMax =   5.37636601904978E-12  2.14020788050401E-01
 cg2d: Sum(rhs),rhsMax =   5.38358246870985E-12  2.13748818084561E-01
 cg2d: Sum(rhs),rhsMax =   5.43753930770663E-12  2.13417875653095E-01
 cg2d: Sum(rhs),rhsMax =   5.40378852775802E-12  2.13027023387920E-01
 cg2d: Sum(rhs),rhsMax =   5.36926059169218E-12  2.12578928661756E-01
 cg2d: Sum(rhs),rhsMax =   5.35516075927944E-12  2.12085575211019E-01
 cg2d: Sum(rhs),rhsMax =   5.31807931025696E-12  2.11546840588052E-01
 cg2d: Sum(rhs),rhsMax =   5.26600985040204E-12  2.10958253471719E-01
 cg2d: Sum(rhs),rhsMax =   5.20050669194916E-12  2.10329415752333E-01
 cg2d: Sum(rhs),rhsMax =   5.17341725014830E-12  2.09653708140881E-01
 cg2d: Sum(rhs),rhsMax =   5.07860420384532E-12  2.08939013892593E-01
 cg2d: Sum(rhs),rhsMax =   5.01809704900325E-12  2.08184002845259E-01
 cg2d: Sum(rhs),rhsMax =   4.96502838842616E-12  2.07392394261648E-01
(PID.TID 0000.0001)      cg2d_init_res =   7.99479103698318E-02
(PID.TID 0000.0001)      cg2d_iters(min,last) =      -1      29
(PID.TID 0000.0001)      cg2d_last_res =   9.10232235720357E-14
(PID.TID 0000.0001) // =======================================================
(PID.TID 0000.0001) // Begin MONITOR dynamic field statistics
(PID.TID 0000.0001) // =======================================================
(PID.TID 0000.0001) %MON time_tsnumber                =                  3360
(PID.TID 0000.0001) %MON time_secondsf                =   5.0400000000000E+04
(PID.TID 0000.0001) %MON dynstat_eta_max              =   1.9238559030943E-02
(PID.TID 0000.0001) %MON dynstat_eta_min              =  -1.5731038279553E-02
(PID.TID 0000.0001) %MON dynstat_eta_mean             =  -1.1802516546953E-15
(PID.TID 0000.0001) %MON dynstat_eta_sd               =   1.3069643043226E-02
(PID.TID 0000.0001) %MON dynstat_eta_del2             =   2.1949162626367E-04
(PID.TID 0000.0001) %MON dynstat_uvel_max             =   2.0720119994943E+00
(PID.TID 0000.0001) %MON dynstat_uvel_min             =  -6.1375990680572E-01
(PID.TID 0000.0001) %MON dynstat_uvel_mean            =  -4.1400125765377E-04
(PID.TID 0000.0001) %MON dynstat_uvel_sd              =   1.6530085313630E-01
(PID.TID 0000.0001) %MON dynstat_uvel_del2            =   8.3407469447821E-04
(PID.TID 0000.0001) %MON dynstat_vvel_max             =   0.0000000000000E+00
(PID.TID 0000.0001) %MON dynstat_vvel_min             =   0.0000000000000E+00
(PID.TID 0000.0001) %MON dynstat_vvel_mean            =   0.0000000000000E+00
(PID.TID 0000.0001) %MON dynstat_vvel_sd              =   0.0000000000000E+00
(PID.TID 0000.0001) %MON dynstat_vvel_del2            =   0.0000000000000E+00
(PID.TID 0000.0001) %MON dynstat_wvel_max             =   5.4797426492252E-02
(PID.TID 0000.0001) %MON dynstat_wvel_min             =  -4.0027481674025E-02
(PID.TID 0000.0001) %MON dynstat_wvel_mean            =   2.7734416706777E-20
(PID.TID 0000.0001) %MON dynstat_wvel_sd              =   4.7765533516896E-03
(PID.TID 0000.0001) %MON dynstat_wvel_del2            =   9.6338434672954E-05
(PID.TID 0000.0001) %MON dynstat_theta_max            =   1.5000000000282E+01
(PID.TID 0000.0001) %MON dynstat_theta_min            =   9.9999999999944E+00
(PID.TID 0000.0001) %MON dynstat_theta_mean           =   1.2728624861611E+01
(PID.TID 0000.0001) %MON dynstat_theta_sd             =   2.3738203380596E+00
(PID.TID 0000.0001) %MON dynstat_theta_del2           =   2.3464250766359E-03
(PID.TID 0000.0001) %MON dynstat_salt_max             =   3.5000000000000E+01
(PID.TID 0000.0001) %MON dynstat_salt_min             =   3.5000000000000E+01
(PID.TID 0000.0001) %MON dynstat_salt_mean            =   3.5000000000000E+01
(PID.TID 0000.0001) %MON dynstat_salt_sd              =   1.0658141036402E-13
(PID.TID 0000.0001) %MON dynstat_salt_del2            =   0.0000000000000E+00
(PID.TID 0000.0001) %MON dynstat_sst_max              =   1.5000000000003E+01
(PID.TID 0000.0001) %MON dynstat_sst_min              =   1.4985373090439E+01
(PID.TID 0000.0001) %MON dynstat_sst_mean             =   1.4999645099394E+01
(PID.TID 0000.0001) %MON dynstat_sst_sd               =   1.6338288213956E-03
(PID.TID 0000.0001) %MON dynstat_sst_del2             =   7.7133639460525E-05
(PID.TID 0000.0001) %MON dynstat_sss_max              =   3.5000000000000E+01
(PID.TID 0000.0001) %MON dynstat_sss_min              =   3.5000000000000E+01
(PID.TID 0000.0001) %MON dynstat_sss_mean             =   3.5000000000000E+01
(PID.TID 0000.0001) %MON dynstat_sss_sd               =   4.2632564145606E-14
(PID.TID 0000.0001) %MON dynstat_sss_del2             =   0.0000000000000E+00
(PID.TID 0000.0001) %MON forcing_qnet_max             =   0.0000000000000E+00
(PID.TID 0000.0001) %MON forcing_qnet_min             =   0.0000000000000E+00
(PID.TID 0000.0001) %MON forcing_qnet_mean            =   0.0000000000000E+00
(PID.TID 0000.0001) %MON forcing_qnet_sd              =   0.0000000000000E+00
(PID.TID 0000.0001) %MON forcing_qnet_del2            =   0.0000000000000E+00
(PID.TID 0000.0001) %MON forcing_qsw_max              =   0.0000000000000E+00
(PID.TID 0000.0001) %MON forcing_qsw_min              =   0.0000000000000E+00
(PID.TID 0000.0001) %MON forcing_qsw_mean             =   0.0000000000000E+00
(PID.TID 0000.0001) %MON forcing_qsw_sd               =   0.0000000000000E+00
(PID.TID 0000.0001) %MON forcing_qsw_del2             =   0.0000000000000E+00
(PID.TID 0000.0001) %MON forcing_empmr_max            =   0.0000000000000E+00
(PID.TID 0000.0001) %MON forcing_empmr_min            =   0.0000000000000E+00
(PID.TID 0000.0001) %MON forcing_empmr_mean           =   0.0000000000000E+00
(PID.TID 0000.0001) %MON forcing_empmr_sd             =   0.0000000000000E+00
(PID.TID 0000.0001) %MON forcing_empmr_del2           =   0.0000000000000E+00
(PID.TID 0000.0001) %MON forcing_fu_max               =   0.0000000000000E+00
(PID.TID 0000.0001) %MON forcing_fu_min               =   0.0000000000000E+00
(PID.TID 0000.0001) %MON forcing_fu_mean              =   0.0000000000000E+00
(PID.TID 0000.0001) %MON forcing_fu_sd                =   0.0000000000000E+00
(PID.TID 0000.0001) %MON forcing_fu_del2              =   0.0000000000000E+00
(PID.TID 0000.0001) %MON forcing_fv_max               =   0.0000000000000E+00
(PID.TID 0000.0001) %MON forcing_fv_min               =   0.0000000000000E+00
(PID.TID 0000.0001) %MON forcing_fv_mean              =   0.0000000000000E+00
(PID.TID 0000.0001) %MON forcing_fv_sd                =   0.0000000000000E+00
(PID.TID 0000.0001) %MON forcing_fv_del2              =   0.0000000000000E+00
(PID.TID 0000.0001) %MON advcfl_uvel_max              =   9.7699474450329E-02
(PID.TID 0000.0001) %MON advcfl_vvel_max              =   0.0000000000000E+00
(PID.TID 0000.0001) %MON advcfl_wvel_max              =   3.4615140749670E-01
(PID.TID 0000.0001) %MON advcfl_W_hf_max              =   3.4991732856855E-01
(PID.TID 0000.0001) %MON pe_b_mean                    =   4.7951346734252E-06
(PID.TID 0000.0001) %MON ke_max                       =   1.0844962760760E+00
(PID.TID 0000.0001) %MON ke_mean                      =   1.3813504266099E-02
(PID.TID 0000.0001) %MON ke_vol                       =   8.5338127039305E+10
(PID.TID 0000.0001) %MON vort_r_min                   =   0.0000000000000E+00
(PID.TID 0000.0001) %MON vort_r_max                   =   0.0000000000000E+00
(PID.TID 0000.0001) %MON vort_a_mean                  =   0.0000000000000E+00
(PID.TID 0000.0001) %MON vort_a_sd                    =   0.0000000000000E+00
(PID.TID 0000.0001) %MON vort_p_mean                  =   0.0000000000000E+00
(PID.TID 0000.0001) %MON vort_p_sd                    =   0.0000000000000E+00
(PID.TID 0000.0001) %MON surfExpan_theta_mean         =   5.0477243749682E-10
(PID.TID 0000.0001) %MON surfExpan_salt_mean          =   2.7111079488973E-18
(PID.TID 0000.0001) // =======================================================
(PID.TID 0000.0001) // End MONITOR dynamic field statistics
(PID.TID 0000.0001) // =======================================================
(PID.TID 0000.0001) // =======================================================
(PID.TID 0000.0001) // Begin OBCS MONITOR field statistics
(PID.TID 0000.0001) // =======================================================
(PID.TID 0000.0001) %MON obc_E_uVel_max               =   0.0000000000000E+00
(PID.TID 0000.0001) %MON obc_E_uVel_min               =   0.0000000000000E+00
(PID.TID 0000.0001) %MON obc_E_uVel_mean              =   0.0000000000000E+00
(PID.TID 0000.0001) %MON obc_E_uVel_sd                =   0.0000000000000E+00
(PID.TID 0000.0001) %MON obc_E_uVel_Int               =   0.0000000000000E+00
(PID.TID 0000.0001) %MON obc_W_uVel_max               =   0.0000000000000E+00
(PID.TID 0000.0001) %MON obc_W_uVel_min               =   0.0000000000000E+00
(PID.TID 0000.0001) %MON obc_W_uVel_mean              =   0.0000000000000E+00
(PID.TID 0000.0001) %MON obc_W_uVel_sd                =   0.0000000000000E+00
(PID.TID 0000.0001) %MON obc_W_uVel_Int               =   0.0000000000000E+00
(PID.TID 0000.0001) // =======================================================
(PID.TID 0000.0001) // End OBCS MONITOR field statistics
(PID.TID 0000.0001) // =======================================================
 cg2d: Sum(rhs),rhsMax =   4.90096851990529E-12  2.06568489317157E-01
 cg2d: Sum(rhs),rhsMax =   4.86954920830840E-12  2.05706557477855E-01
 cg2d: Sum(rhs),rhsMax =   4.88920015584426E-12  2.05103417140497E-01
 cg2d: Sum(rhs),rhsMax =   4.90429918897917E-12  2.04120752062777E-01
 cg2d: Sum(rhs),rhsMax =   4.98578955898665E-12  2.03094507937541E-01
 cg2d: Sum(rhs),rhsMax =   4.90940621489244E-12  2.02079137709432E-01
 cg2d: Sum(rhs),rhsMax =   4.83457718303271E-12  2.01046199012821E-01
 cg2d: Sum(rhs),rhsMax =   4.74142947126666E-12  1.99981137081382E-01
 cg2d: Sum(rhs),rhsMax =   4.64484006812427E-12  1.98886755651411E-01
 cg2d: Sum(rhs),rhsMax =   4.59543514352845E-12  1.97767493567768E-01
 cg2d: Sum(rhs),rhsMax =   4.48141523889944E-12  1.96625247166118E-01
 cg2d: Sum(rhs),rhsMax =   4.39015490627526E-12  1.95456932549731E-01
 cg2d: Sum(rhs),rhsMax =   4.29389857004026E-12  1.94256887867430E-01
 cg2d: Sum(rhs),rhsMax =   4.20974366477367E-12  1.93030850579529E-01
 cg2d: Sum(rhs),rhsMax =   4.12869738397603E-12  1.91779050313852E-01
 cg2d: Sum(rhs),rhsMax =   4.15378842433256E-12  1.90504246330349E-01
 cg2d: Sum(rhs),rhsMax =   4.02611277650067E-12  1.89207878867659E-01
 cg2d: Sum(rhs),rhsMax =   4.02322619663664E-12  1.87960996141731E-01
 cg2d: Sum(rhs),rhsMax =   3.97715194111470E-12  1.87737242430046E-01
 cg2d: Sum(rhs),rhsMax =   3.91764398699479E-12  1.87457382278406E-01
 cg2d: Sum(rhs),rhsMax =   3.86979337463345E-12  1.87124551720670E-01
 cg2d: Sum(rhs),rhsMax =   3.82005538313024E-12  1.86740002521870E-01
 cg2d: Sum(rhs),rhsMax =   3.73867603542521E-12  1.86303128628501E-01
 cg2d: Sum(rhs),rhsMax =   3.60000917964953E-12  1.85814752559214E-01
 cg2d: Sum(rhs),rhsMax =   3.46922490734869E-12  1.85272986818254E-01
 cg2d: Sum(rhs),rhsMax =   3.43292061444345E-12  1.84680544430923E-01
 cg2d: Sum(rhs),rhsMax =   3.42559314248092E-12  1.84035092116783E-01
 cg2d: Sum(rhs),rhsMax =   3.49387185849537E-12  1.83333058554140E-01
 cg2d: Sum(rhs),rhsMax =   3.62609942072822E-12  1.82575877296027E-01
 cg2d: Sum(rhs),rhsMax =   3.70392605475445E-12  1.81763929140964E-01
 cg2d: Sum(rhs),rhsMax =   3.73745479009813E-12  1.80895830502105E-01
 cg2d: Sum(rhs),rhsMax =   3.74611452969020E-12  1.79969431340051E-01
 cg2d: Sum(rhs),rhsMax =   3.72946118432083E-12  1.78980646087943E-01
 cg2d: Sum(rhs),rhsMax =   3.68804986550231E-12  1.77929431055193E-01
 cg2d: Sum(rhs),rhsMax =   3.65618646469557E-12  1.76810319035622E-01
 cg2d: Sum(rhs),rhsMax =   3.64552832365916E-12  1.75620711122552E-01
 cg2d: Sum(rhs),rhsMax =   3.63187258045627E-12  1.74359994179894E-01
 cg2d: Sum(rhs),rhsMax =   3.60123042497662E-12  1.73024441100602E-01
 cg2d: Sum(rhs),rhsMax =   3.60367291563080E-12  1.71613761030648E-01
 cg2d: Sum(rhs),rhsMax =   3.59312579689686E-12  1.70127844035017E-01
 cg2d: Sum(rhs),rhsMax =   3.64297481070253E-12  1.68566228903170E-01
 cg2d: Sum(rhs),rhsMax =   3.63198360275874E-12  1.66929306441472E-01
 cg2d: Sum(rhs),rhsMax =   3.72324393538292E-12  1.65220518396397E-01
 cg2d: Sum(rhs),rhsMax =   3.84681175802370E-12  1.63440339325695E-01
 cg2d: Sum(rhs),rhsMax =   3.89799303945892E-12  1.64996631874103E-01
 cg2d: Sum(rhs),rhsMax =   3.86579657174480E-12  1.67764675640390E-01
 cg2d: Sum(rhs),rhsMax =   3.73556741095626E-12  1.70458834337514E-01
 cg2d: Sum(rhs),rhsMax =   3.61688456962383E-12  1.73077884577428E-01
 cg2d: Sum(rhs),rhsMax =   3.47466500016935E-12  1.75621272388684E-01
 cg2d: Sum(rhs),rhsMax =   3.35409477969506E-12  1.78087277600206E-01
 cg2d: Sum(rhs),rhsMax =   3.22741833258533E-12  1.80476482350431E-01
 cg2d: Sum(rhs),rhsMax =   3.10274028691992E-12  1.82786136612690E-01
 cg2d: Sum(rhs),rhsMax =   3.01536573488193E-12  1.85001819007923E-01
 cg2d: Sum(rhs),rhsMax =   2.91500157345581E-12  1.87148968263972E-01
 cg2d: Sum(rhs),rhsMax =   2.81608070196171E-12  1.89220608115992E-01
 cg2d: Sum(rhs),rhsMax =   2.73525646576900E-12  1.91212023849999E-01
 cg2d: Sum(rhs),rhsMax =   2.63533639355273E-12  1.93123654321733E-01
 cg2d: Sum(rhs),rhsMax =   2.59758881071548E-12  1.94957737995925E-01
 cg2d: Sum(rhs),rhsMax =   2.52609044792962E-12  1.96715664215328E-01
 cg2d: Sum(rhs),rhsMax =   2.48512321832095E-12  1.98396334936508E-01
 cg2d: Sum(rhs),rhsMax =   2.34867680859452E-12  2.00000704509103E-01
 cg2d: Sum(rhs),rhsMax =   2.22011298234293E-12  2.01530032146935E-01
 cg2d: Sum(rhs),rhsMax =   2.10120809640557E-12  2.02979441701649E-01
 cg2d: Sum(rhs),rhsMax =   2.00361949254102E-12  2.04354757186132E-01
 cg2d: Sum(rhs),rhsMax =   2.00339744793609E-12  2.05657557229045E-01
 cg2d: Sum(rhs),rhsMax =   2.06090700061168E-12  2.06887098024036E-01
 cg2d: Sum(rhs),rhsMax =   2.11419770579369E-12  2.08040851098805E-01
 cg2d: Sum(rhs),rhsMax =   2.09920969496125E-12  2.09119498267767E-01
 cg2d: Sum(rhs),rhsMax =   2.08566497406082E-12  2.10126160631546E-01
 cg2d: Sum(rhs),rhsMax =   2.05890859916735E-12  2.11062670915757E-01
 cg2d: Sum(rhs),rhsMax =   2.02338146237935E-12  2.11929563171225E-01
 cg2d: Sum(rhs),rhsMax =   2.02959871131725E-12  2.12727416220382E-01
 cg2d: Sum(rhs),rhsMax =   2.06934469559883E-12  2.13458819630933E-01
 cg2d: Sum(rhs),rhsMax =   2.10031991798587E-12  2.14124590830914E-01
 cg2d: Sum(rhs),rhsMax =   2.15505391309989E-12  2.14726486053633E-01
 cg2d: Sum(rhs),rhsMax =   2.20301554776370E-12  2.15265605362955E-01
 cg2d: Sum(rhs),rhsMax =   2.23754348382954E-12  2.15743245166254E-01
 cg2d: Sum(rhs),rhsMax =   2.25996998892697E-12  2.16159798350957E-01
 cg2d: Sum(rhs),rhsMax =   2.25264251696444E-12  2.16518237423566E-01
 cg2d: Sum(rhs),rhsMax =   2.23376872554581E-12  2.16817483464085E-01
 cg2d: Sum(rhs),rhsMax =   2.20645723914004E-12  2.17060399662269E-01
 cg2d: Sum(rhs),rhsMax =   2.19058104988790E-12  2.17246378331337E-01
 cg2d: Sum(rhs),rhsMax =   2.15005790948908E-12  2.17376320868387E-01
 cg2d: Sum(rhs),rhsMax =   2.09487982516521E-12  2.17454788884858E-01
 cg2d: Sum(rhs),rhsMax =   2.06767936106189E-12  2.17483598213094E-01
 cg2d: Sum(rhs),rhsMax =   2.00939265226907E-12  2.17460252236054E-01
 cg2d: Sum(rhs),rhsMax =   1.98963068243074E-12  2.17385906555915E-01
 cg2d: Sum(rhs),rhsMax =   1.98463467881993E-12  2.17261605777154E-01
 cg2d: Sum(rhs),rhsMax =   2.00339744793609E-12  2.17085707993229E-01
 cg2d: Sum(rhs),rhsMax =   2.06867856178405E-12  2.16859927475210E-01
 cg2d: Sum(rhs),rhsMax =   2.17126316925942E-12  2.16581510064303E-01
 cg2d: Sum(rhs),rhsMax =   2.28173036020962E-12  2.16250815270171E-01
 cg2d: Sum(rhs),rhsMax =   2.37332375974120E-12  2.15886413186264E-01
 cg2d: Sum(rhs),rhsMax =   2.46647147150725E-12  2.15489916756496E-01
 cg2d: Sum(rhs),rhsMax =   2.55884202715606E-12  2.15054030906845E-01
 cg2d: Sum(rhs),rhsMax =   2.65598654181076E-12  2.14568876405295E-01
 cg2d: Sum(rhs),rhsMax =   2.76667577736589E-12  2.14033435493886E-01
 cg2d: Sum(rhs),rhsMax =   2.85993451143440E-12  2.13449472033491E-01
 cg2d: Sum(rhs),rhsMax =   2.94819724189210E-12  2.12825592169293E-01
 cg2d: Sum(rhs),rhsMax =   3.04867242562068E-12  2.12164540261081E-01
 cg2d: Sum(rhs),rhsMax =   3.11828340926468E-12  2.11467271445602E-01
 cg2d: Sum(rhs),rhsMax =   3.12805337188138E-12  2.10733377158422E-01
 cg2d: Sum(rhs),rhsMax =   3.22075699443758E-12  2.09963429183299E-01
 cg2d: Sum(rhs),rhsMax =   3.29025695577911E-12  2.09338256035459E-01
 cg2d: Sum(rhs),rhsMax =   3.37579963982648E-12  2.08595410156410E-01
 cg2d: Sum(rhs),rhsMax =   3.45246053967685E-12  2.07748833544359E-01
 cg2d: Sum(rhs),rhsMax =   3.53644891148974E-12  2.06862178118312E-01
 cg2d: Sum(rhs),rhsMax =   3.64103192040943E-12  2.05948497994964E-01
 cg2d: Sum(rhs),rhsMax =   3.69576591552345E-12  2.05008098846038E-01
 cg2d: Sum(rhs),rhsMax =   3.78258535604914E-12  2.04044874860771E-01
 cg2d: Sum(rhs),rhsMax =   3.85524945301086E-12  2.03059661766170E-01
 cg2d: Sum(rhs),rhsMax =   3.90665277905100E-12  2.02052528470676E-01
 cg2d: Sum(rhs),rhsMax =   3.99602573253333E-12  2.01022170536211E-01
 cg2d: Sum(rhs),rhsMax =   4.07757161369204E-12  1.99968528889251E-01
 cg2d: Sum(rhs),rhsMax =   4.16622292220836E-12  1.98890621415740E-01
 cg2d: Sum(rhs),rhsMax =   4.27707869121718E-12  1.97789934347896E-01
 cg2d: Sum(rhs),rhsMax =   4.36711777851428E-12  1.96668342489637E-01
 cg2d: Sum(rhs),rhsMax =   4.47203385434136E-12  1.95525438102905E-01
 cg2d: Sum(rhs),rhsMax =   4.57900384276400E-12  1.94360241915514E-01
 cg2d: Sum(rhs),rhsMax =   4.67781369195563E-12  1.93172073540694E-01
 cg2d: Sum(rhs),rhsMax =   4.77862194259160E-12  1.91961859646624E-01
 cg2d: Sum(rhs),rhsMax =   4.83357798231054E-12  1.90730228976049E-01
 cg2d: Sum(rhs),rhsMax =   4.83557638375487E-12  1.89480038211556E-01
 cg2d: Sum(rhs),rhsMax =   4.80748774123185E-12  1.91217809747104E-01
 cg2d: Sum(rhs),rhsMax =   4.77962114331376E-12  1.93662157911301E-01
 cg2d: Sum(rhs),rhsMax =   4.75053330006858E-12  1.95888447629474E-01
 cg2d: Sum(rhs),rhsMax =   4.74159600472035E-12  1.97909544488252E-01
 cg2d: Sum(rhs),rhsMax =   4.73932004751987E-12  1.99696668272767E-01
 cg2d: Sum(rhs),rhsMax =   4.76463313248132E-12  2.01258365445847E-01
 cg2d: Sum(rhs),rhsMax =   4.78950212823293E-12  2.02625308802714E-01
 cg2d: Sum(rhs),rhsMax =   4.77634598539112E-12  2.03754251237665E-01
 cg2d: Sum(rhs),rhsMax =   4.81681361463870E-12  2.04656897233624E-01
 cg2d: Sum(rhs),rhsMax =   4.83890705282874E-12  2.05330833268827E-01
 cg2d: Sum(rhs),rhsMax =   4.86305440361434E-12  2.05820168455763E-01
 cg2d: Sum(rhs),rhsMax =   4.92661467177413E-12  2.06069992057540E-01
 cg2d: Sum(rhs),rhsMax =   5.01232388927519E-12  2.06137024907937E-01
 cg2d: Sum(rhs),rhsMax =   5.09792208447379E-12  2.05897150940162E-01
 cg2d: Sum(rhs),rhsMax =   5.19573273294327E-12  2.05415783438171E-01
 cg2d: Sum(rhs),rhsMax =   5.27783372561430E-12  2.04870860620207E-01
 cg2d: Sum(rhs),rhsMax =   5.33778576894406E-12  2.04544196841073E-01
 cg2d: Sum(rhs),rhsMax =   5.44853051565042E-12  2.03699523620544E-01
 cg2d: Sum(rhs),rhsMax =   5.54428725152434E-12  2.02419723356369E-01
 cg2d: Sum(rhs),rhsMax =   5.63826763055886E-12  2.01160974175836E-01
 cg2d: Sum(rhs),rhsMax =   5.71498404156046E-12  1.99657429428970E-01
 cg2d: Sum(rhs),rhsMax =   5.81373837960086E-12  1.97987186488135E-01
 cg2d: Sum(rhs),rhsMax =   5.92975668567419E-12  1.96051068794662E-01
 cg2d: Sum(rhs),rhsMax =   6.04460925757166E-12  1.94074941059203E-01
 cg2d: Sum(rhs),rhsMax =   6.20631324110832E-12  1.91571238881984E-01
 cg2d: Sum(rhs),rhsMax =   6.38650243800498E-12  1.88877922578638E-01
 cg2d: Sum(rhs),rhsMax =   6.58084697846562E-12  1.86428875498015E-01
 cg2d: Sum(rhs),rhsMax =   6.78135325671292E-12  1.83818061438561E-01
 cg2d: Sum(rhs),rhsMax =   6.93245461036440E-12  1.81040848406210E-01
 cg2d: Sum(rhs),rhsMax =   6.96032120828249E-12  1.81769193080212E-01
 cg2d: Sum(rhs),rhsMax =   6.79678535675521E-12  1.86552737478872E-01
 cg2d: Sum(rhs),rhsMax =   6.69914124173943E-12  1.90904903568061E-01
 cg2d: Sum(rhs),rhsMax =   6.60205223823596E-12  1.95096157096704E-01
 cg2d: Sum(rhs),rhsMax =   6.50163256565861E-12  1.99113781943919E-01
 cg2d: Sum(rhs),rhsMax =   6.39316377615273E-12  2.02988758558179E-01
 cg2d: Sum(rhs),rhsMax =   6.32288665869396E-12  2.06415413808432E-01
 cg2d: Sum(rhs),rhsMax =   6.25077767324456E-12  2.09720312028122E-01
 cg2d: Sum(rhs),rhsMax =   6.24122975523278E-12  2.12769955611881E-01
 cg2d: Sum(rhs),rhsMax =   6.20553608499108E-12  2.15587657925164E-01
 cg2d: Sum(rhs),rhsMax =   6.24827967143915E-12  2.18795833285968E-01
 cg2d: Sum(rhs),rhsMax =   6.31722452126837E-12  2.20886623438756E-01
 cg2d: Sum(rhs),rhsMax =   6.39394093226997E-12  2.22830442460479E-01
 cg2d: Sum(rhs),rhsMax =   6.49497122751086E-12  2.24702911409303E-01
 cg2d: Sum(rhs),rhsMax =   6.57462972952771E-12  2.26332746059762E-01
 cg2d: Sum(rhs),rhsMax =   6.66927624237701E-12  2.28046586518308E-01
 cg2d: Sum(rhs),rhsMax =   6.77835565454643E-12  2.28981973030103E-01
 cg2d: Sum(rhs),rhsMax =   6.90275614445568E-12  2.29807340621073E-01
 cg2d: Sum(rhs),rhsMax =   7.00201008285717E-12  2.30409477667871E-01
 cg2d: Sum(rhs),rhsMax =   7.11630754324233E-12  2.30790456651498E-01
 cg2d: Sum(rhs),rhsMax =   7.24342807956191E-12  2.30947485854566E-01
 cg2d: Sum(rhs),rhsMax =   7.37088168278888E-12  2.30862584353596E-01
 cg2d: Sum(rhs),rhsMax =   7.49467155003458E-12  2.30475288093613E-01
 cg2d: Sum(rhs),rhsMax =   7.60724816473157E-12  2.29893808044711E-01
 cg2d: Sum(rhs),rhsMax =   7.76895214826823E-12  2.29122654609497E-01
 cg2d: Sum(rhs),rhsMax =   7.92588217279899E-12  2.28068788430531E-01
 cg2d: Sum(rhs),rhsMax =   8.08897393511643E-12  2.26859004697469E-01
 cg2d: Sum(rhs),rhsMax =   8.24595947079843E-12  2.25351960015669E-01
 cg2d: Sum(rhs),rhsMax =   8.33560998003691E-12  2.23768834583410E-01
 cg2d: Sum(rhs),rhsMax =   8.42126368638674E-12  2.21855896443238E-01
 cg2d: Sum(rhs),rhsMax =   8.53989101656794E-12  2.19597216420989E-01
 cg2d: Sum(rhs),rhsMax =   8.68699556733077E-12  2.17041819180337E-01
 cg2d: Sum(rhs),rhsMax =   8.83676465335270E-12  2.14333049077344E-01
 cg2d: Sum(rhs),rhsMax =   9.04287755787436E-12  2.10992749595401E-01
 cg2d: Sum(rhs),rhsMax =   9.23261467278280E-12  2.07567327833829E-01
 cg2d: Sum(rhs),rhsMax =   9.43878308845569E-12  2.03562313188082E-01
 cg2d: Sum(rhs),rhsMax =   9.64783808399261E-12  1.99609995753815E-01
 cg2d: Sum(rhs),rhsMax =   9.90652004873027E-12  1.95695332481549E-01
 cg2d: Sum(rhs),rhsMax =   1.00472963282527E-11  1.93465159723413E-01
 cg2d: Sum(rhs),rhsMax =   1.01356700810129E-11  1.92785337212387E-01
 cg2d: Sum(rhs),rhsMax =   1.01946229236205E-11  1.92065081807441E-01
 cg2d: Sum(rhs),rhsMax =   1.02936548174171E-11  1.91305248294832E-01
 cg2d: Sum(rhs),rhsMax =   1.03931308004235E-11  1.90505156444794E-01
 cg2d: Sum(rhs),rhsMax =   1.05124797755707E-11  1.89665470396848E-01
 cg2d: Sum(rhs),rhsMax =   1.06005204614235E-11  1.88787526632478E-01
 cg2d: Sum(rhs),rhsMax =   1.05410125073035E-11  1.90682631750734E-01
 cg2d: Sum(rhs),rhsMax =   1.03456132549695E-11  1.94865734031758E-01
 cg2d: Sum(rhs),rhsMax =   1.02595709705611E-11  1.97023070647654E-01
 cg2d: Sum(rhs),rhsMax =   1.01796349127881E-11  1.99076227815965E-01
 cg2d: Sum(rhs),rhsMax =   1.01123553974958E-11  2.01186536979865E-01
 cg2d: Sum(rhs),rhsMax =   1.00653929635541E-11  2.03004420960810E-01
 cg2d: Sum(rhs),rhsMax =   1.01355590587104E-11  2.04479102285560E-01
 cg2d: Sum(rhs),rhsMax =   1.02233776999583E-11  2.05950905259288E-01
 cg2d: Sum(rhs),rhsMax =   1.03071995383175E-11  2.07025988857422E-01
 cg2d: Sum(rhs),rhsMax =   1.04347641638469E-11  2.07485443051848E-01
 cg2d: Sum(rhs),rhsMax =   1.03989039601515E-11  2.07729107382040E-01
 cg2d: Sum(rhs),rhsMax =   1.04261044242548E-11  2.07645827665471E-01
 cg2d: Sum(rhs),rhsMax =   1.04862785121895E-11  2.07306264227009E-01
 cg2d: Sum(rhs),rhsMax =   1.05211395151628E-11  2.06793721667038E-01
 cg2d: Sum(rhs),rhsMax =   1.05692121721290E-11  2.05941170627221E-01
 cg2d: Sum(rhs),rhsMax =   1.06719078019069E-11  2.04744439967882E-01
 cg2d: Sum(rhs),rhsMax =   1.08111297691948E-11  2.03327748194779E-01
 cg2d: Sum(rhs),rhsMax =   1.08993924996525E-11  2.01630704270003E-01
 cg2d: Sum(rhs),rhsMax =   1.10034203970599E-11  2.00528166500781E-01
 cg2d: Sum(rhs),rhsMax =   1.11172182570840E-11  1.98060555918044E-01
 cg2d: Sum(rhs),rhsMax =   1.11382014722494E-11  1.96553636125556E-01
 cg2d: Sum(rhs),rhsMax =   1.13523634936996E-11  1.94420620224074E-01
 cg2d: Sum(rhs),rhsMax =   1.15936149569507E-11  1.92032755302773E-01
 cg2d: Sum(rhs),rhsMax =   1.17917897668463E-11  1.89532350682486E-01
 cg2d: Sum(rhs),rhsMax =   1.19738663428848E-11  1.86655978353431E-01
 cg2d: Sum(rhs),rhsMax =   1.21762600002739E-11  1.83539065601787E-01
 cg2d: Sum(rhs),rhsMax =   1.24098509246551E-11  1.80745128915497E-01
 cg2d: Sum(rhs),rhsMax =   1.26459953619928E-11  1.77784414901591E-01
 cg2d: Sum(rhs),rhsMax =   1.29466437570613E-11  1.74586523476761E-01
 cg2d: Sum(rhs),rhsMax =   1.31611388454189E-11  1.72033593242353E-01
 cg2d: Sum(rhs),rhsMax =   1.34715572031041E-11  1.68590737174464E-01
 cg2d: Sum(rhs),rhsMax =   1.35996769401459E-11  1.66877290993335E-01
 cg2d: Sum(rhs),rhsMax =   1.36285427387861E-11  1.66835925689242E-01
 cg2d: Sum(rhs),rhsMax =   1.36252120697122E-11  1.66734379545584E-01
 cg2d: Sum(rhs),rhsMax =   1.36628486302470E-11  1.66570777142658E-01
 cg2d: Sum(rhs),rhsMax =   1.37092559526764E-11  1.66343851549293E-01
 cg2d: Sum(rhs),rhsMax =   1.37799771593450E-11  1.66052857730620E-01
 cg2d: Sum(rhs),rhsMax =   1.38083988687754E-11  1.65698515636451E-01
 cg2d: Sum(rhs),rhsMax =   1.38477007638471E-11  1.65278963140058E-01
 cg2d: Sum(rhs),rhsMax =   1.38704603358519E-11  1.64797456195017E-01
 cg2d: Sum(rhs),rhsMax =   1.39026568035661E-11  1.64255234614464E-01
 cg2d: Sum(rhs),rhsMax =   1.39612765792663E-11  1.63653223187315E-01
 cg2d: Sum(rhs),rhsMax =   1.39707134749756E-11  1.62992580735272E-01
 cg2d: Sum(rhs),rhsMax =   1.40285560945586E-11  1.62273977548784E-01
 cg2d: Sum(rhs),rhsMax =   1.41018308141838E-11  1.61498622052606E-01
 cg2d: Sum(rhs),rhsMax =   1.41643363704702E-11  1.60668270508772E-01
 cg2d: Sum(rhs),rhsMax =   1.42716949369515E-11  1.59786558804267E-01
 cg2d: Sum(rhs),rhsMax =   1.43676182062791E-11  1.58845829165163E-01
 cg2d: Sum(rhs),rhsMax =   1.45987666400060E-11  1.57848493469234E-01
 cg2d: Sum(rhs),rhsMax =   1.47215573065296E-11  1.56798368492515E-01
 cg2d: Sum(rhs),rhsMax =   1.47732936994771E-11  1.55692686540892E-01
 cg2d: Sum(rhs),rhsMax =   1.48685508349899E-11  1.54530514689215E-01
 cg2d: Sum(rhs),rhsMax =   1.50079948468829E-11  1.53311709163330E-01
 cg2d: Sum(rhs),rhsMax =   1.49413814654054E-11  1.53996136341229E-01
 cg2d: Sum(rhs),rhsMax =   1.48352441442512E-11  1.54696459208499E-01
 cg2d: Sum(rhs),rhsMax =   1.48077106132405E-11  1.55402371946111E-01
 cg2d: Sum(rhs),rhsMax =   1.47470924360960E-11  1.56115578778907E-01
 cg2d: Sum(rhs),rhsMax =   1.47009071582715E-11  1.56837533755961E-01
 cg2d: Sum(rhs),rhsMax =   1.45470302470585E-11  1.57569348733306E-01
 cg2d: Sum(rhs),rhsMax =   1.45505829607373E-11  1.58311705788609E-01
 cg2d: Sum(rhs),rhsMax =   1.45106149318508E-11  1.59064780167378E-01
 cg2d: Sum(rhs),rhsMax =   1.44271261603990E-11  1.59828180363069E-01
 cg2d: Sum(rhs),rhsMax =   1.43736134106121E-11  1.60600911788051E-01
 cg2d: Sum(rhs),rhsMax =   1.43072220737395E-11  1.61381369573425E-01
 cg2d: Sum(rhs),rhsMax =   1.42401646030521E-11  1.62167364326358E-01
 cg2d: Sum(rhs),rhsMax =   1.42024170202149E-11  1.62956182282738E-01
 cg2d: Sum(rhs),rhsMax =   1.42115208490168E-11  1.63744678450325E-01
 cg2d: Sum(rhs),rhsMax =   1.42343914433241E-11  1.64529398364077E-01
 cg2d: Sum(rhs),rhsMax =   1.42464928742925E-11  1.65306721336158E-01
 cg2d: Sum(rhs),rhsMax =   1.42847955686420E-11  1.66073015929493E-01
 cg2d: Sum(rhs),rhsMax =   1.42690304016924E-11  1.66824797097000E-01
 cg2d: Sum(rhs),rhsMax =   1.41617828575136E-11  1.67558874176161E-01
 cg2d: Sum(rhs),rhsMax =   1.40869538256538E-11  1.68272479739615E-01
 cg2d: Sum(rhs),rhsMax =   1.40177869312197E-11  1.68963371067912E-01
 cg2d: Sum(rhs),rhsMax =   1.39341871374654E-11  1.69629898505247E-01
 cg2d: Sum(rhs),rhsMax =   1.39108724539483E-11  1.70271037880042E-01
 cg2d: Sum(rhs),rhsMax =   1.38983269337700E-11  1.70886387186416E-01
 cg2d: Sum(rhs),rhsMax =   1.38347111544590E-11  1.71476130512319E-01
 cg2d: Sum(rhs),rhsMax =   1.37487798923530E-11  1.72040974502212E-01
 cg2d: Sum(rhs),rhsMax =   1.37450051340693E-11  1.72582064272784E-01
 cg2d: Sum(rhs),rhsMax =   1.37239108966014E-11  1.73100886566729E-01
 cg2d: Sum(rhs),rhsMax =   1.36735067712834E-11  1.73599168027850E-01
 cg2d: Sum(rhs),rhsMax =   1.36790578864066E-11  1.74078775884378E-01
 cg2d: Sum(rhs),rhsMax =   1.36380906567979E-11  1.74541627168585E-01
 cg2d: Sum(rhs),rhsMax =   1.35655930932899E-11  1.74989611050756E-01
 cg2d: Sum(rhs),rhsMax =   1.35145228341571E-11  1.75424527112590E-01
 cg2d: Sum(rhs),rhsMax =   1.34814381880233E-11  1.75848040615465E-01
 cg2d: Sum(rhs),rhsMax =   1.34033895093921E-11  1.76261654199425E-01
 cg2d: Sum(rhs),rhsMax =   1.33577593430800E-11  1.76666694112541E-01
 cg2d: Sum(rhs),rhsMax =   1.33679733949066E-11  1.77064308107203E-01
 cg2d: Sum(rhs),rhsMax =   1.32769351068873E-11  1.77455471591389E-01
 cg2d: Sum(rhs),rhsMax =   1.31925581570158E-11  1.77840998482979E-01
 cg2d: Sum(rhs),rhsMax =   1.31010757797867E-11  1.78221553437124E-01
 cg2d: Sum(rhs),rhsMax =   1.30317978630501E-11  1.78597662625012E-01
 cg2d: Sum(rhs),rhsMax =   1.29629640355233E-11  1.78969720947136E-01
 cg2d: Sum(rhs),rhsMax =   1.29812827154296E-11  1.79337994375460E-01
 cg2d: Sum(rhs),rhsMax =   1.29296573447846E-11  1.79702616957783E-01
 cg2d: Sum(rhs),rhsMax =   1.29456445563392E-11  1.80063582822367E-01
 cg2d: Sum(rhs),rhsMax =   1.28819177547257E-11  1.80420734246149E-01
 cg2d: Sum(rhs),rhsMax =   1.28106414365448E-11  1.80773747462299E-01
 cg2d: Sum(rhs),rhsMax =   1.27675647831893E-11  1.81122118353314E-01
 cg2d: Sum(rhs),rhsMax =   1.27133858995876E-11  1.81465150474214E-01
 cg2d: Sum(rhs),rhsMax =   1.26705312908371E-11  1.81801947944110E-01
 cg2d: Sum(rhs),rhsMax =   1.26494370533692E-11  1.82131415602533E-01
 cg2d: Sum(rhs),rhsMax =   1.26206822770314E-11  1.82452268429960E-01
 cg2d: Sum(rhs),rhsMax =   1.25393029293264E-11  1.82763051582537E-01
 cg2d: Sum(rhs),rhsMax =   1.25334187472959E-11  1.83062171523931E-01
 cg2d: Sum(rhs),rhsMax =   1.24688037672627E-11  1.83347937722936E-01
 cg2d: Sum(rhs),rhsMax =   1.24580346039238E-11  1.83618613326138E-01
 cg2d: Sum(rhs),rhsMax =   1.24289467606786E-11  1.83872472232494E-01
 cg2d: Sum(rhs),rhsMax =   1.23865362411379E-11  1.84107859214510E-01
 cg2d: Sum(rhs),rhsMax =   1.23474563906711E-11  1.84323249254161E-01
 cg2d: Sum(rhs),rhsMax =   1.22722942919040E-11  1.84683727167061E-01
 cg2d: Sum(rhs),rhsMax =   1.21611609671390E-11  1.85201508080611E-01
 cg2d: Sum(rhs),rhsMax =   1.20377041668007E-11  1.85672737119585E-01
 cg2d: Sum(rhs),rhsMax =   1.19876331083901E-11  1.86097457636377E-01
 cg2d: Sum(rhs),rhsMax =   1.18892673484083E-11  1.86475711138621E-01
 cg2d: Sum(rhs),rhsMax =   1.17926779452660E-11  1.86807977674161E-01
 cg2d: Sum(rhs),rhsMax =   1.16985310327777E-11  1.87093899483584E-01
 cg2d: Sum(rhs),rhsMax =   1.16385789894480E-11  1.87332770573870E-01
 cg2d: Sum(rhs),rhsMax =   1.15977227821418E-11  1.87524927674454E-01
 cg2d: Sum(rhs),rhsMax =   1.15820686374946E-11  1.87670728676706E-01
 cg2d: Sum(rhs),rhsMax =   1.14381837335031E-11  1.87769817745217E-01
 cg2d: Sum(rhs),rhsMax =   1.13372644605647E-11  1.87820476204425E-01
 cg2d: Sum(rhs),rhsMax =   1.12631015625198E-11  1.87824493579360E-01
 cg2d: Sum(rhs),rhsMax =   1.11618492226739E-11  1.87780554852914E-01
 cg2d: Sum(rhs),rhsMax =   1.10522702101434E-11  1.87687591623811E-01
 cg2d: Sum(rhs),rhsMax =   1.09675601933645E-11  1.87545753395607E-01
 cg2d: Sum(rhs),rhsMax =   1.09662279257350E-11  1.87353260190799E-01
 cg2d: Sum(rhs),rhsMax =   1.08552056232725E-11  1.87109307624897E-01
 cg2d: Sum(rhs),rhsMax =   1.07700515172837E-11  1.86813587637754E-01
 cg2d: Sum(rhs),rhsMax =   1.07071018717875E-11  1.86464830725486E-01
 cg2d: Sum(rhs),rhsMax =   1.06427089363592E-11  1.86062267786969E-01
 cg2d: Sum(rhs),rhsMax =   1.06075148664786E-11  1.85605033206950E-01
 cg2d: Sum(rhs),rhsMax =   1.05743191980423E-11  1.85090993511730E-01
 cg2d: Sum(rhs),rhsMax =   1.05812025807950E-11  1.84519133116203E-01
 cg2d: Sum(rhs),rhsMax =   1.05490061130808E-11  1.83888795853118E-01
 cg2d: Sum(rhs),rhsMax =   1.05335740130386E-11  1.83198299541972E-01
 cg2d: Sum(rhs),rhsMax =   1.04982689208555E-11  1.82717800471015E-01
 cg2d: Sum(rhs),rhsMax =   1.04902753150782E-11  1.82485969669162E-01
 cg2d: Sum(rhs),rhsMax =   1.04871666906092E-11  1.82245447239026E-01
 cg2d: Sum(rhs),rhsMax =   1.03761443881467E-11  1.83114194987011E-01
 cg2d: Sum(rhs),rhsMax =   1.01815222919299E-11  1.85886093868609E-01
 cg2d: Sum(rhs),rhsMax =   1.00646158074369E-11  1.88118622674056E-01
 cg2d: Sum(rhs),rhsMax =   9.95303839346207E-12  1.89855068696093E-01
 cg2d: Sum(rhs),rhsMax =   9.86688508675115E-12  1.91003380865865E-01
 cg2d: Sum(rhs),rhsMax =   9.83968462264784E-12  1.91618329668722E-01
 cg2d: Sum(rhs),rhsMax =   9.82314229958092E-12  1.91722440342943E-01
 cg2d: Sum(rhs),rhsMax =   9.76918546058414E-12  1.91253193298567E-01
 cg2d: Sum(rhs),rhsMax =   9.78894743042247E-12  1.90202371324607E-01
 cg2d: Sum(rhs),rhsMax =   9.61275503641446E-12  1.93469161496688E-01
 cg2d: Sum(rhs),rhsMax =   9.30433508017359E-12  1.98472097127143E-01
 cg2d: Sum(rhs),rhsMax =   9.03910279959064E-12  2.02934949947008E-01
 cg2d: Sum(rhs),rhsMax =   8.82105499755426E-12  2.06929734810328E-01
 cg2d: Sum(rhs),rhsMax =   8.59579074585781E-12  2.10346065554013E-01
 cg2d: Sum(rhs),rhsMax =   8.43058955979359E-12  2.13115491079448E-01
 cg2d: Sum(rhs),rhsMax =   8.31767987818921E-12  2.15405629533635E-01
 cg2d: Sum(rhs),rhsMax =   8.22331092109607E-12  2.17007862582466E-01
 cg2d: Sum(rhs),rhsMax =   8.13960010503934E-12  2.18017911300724E-01
 cg2d: Sum(rhs),rhsMax =   8.06577027390176E-12  2.18476653828503E-01
 cg2d: Sum(rhs),rhsMax =   8.01403388095423E-12  2.18386909934361E-01
 cg2d: Sum(rhs),rhsMax =   7.92088616918818E-12  2.17586158541618E-01
 cg2d: Sum(rhs),rhsMax =   7.93110022101473E-12  2.16183373234461E-01
 cg2d: Sum(rhs),rhsMax =   7.88791254535681E-12  2.14234335706346E-01
 cg2d: Sum(rhs),rhsMax =   7.84405873588412E-12  2.11709208994994E-01
 cg2d: Sum(rhs),rhsMax =   7.88524801009771E-12  2.08691986523265E-01
 cg2d: Sum(rhs),rhsMax =   7.89823761948583E-12  2.05163066369932E-01
 cg2d: Sum(rhs),rhsMax =   7.96640531319781E-12  2.01147943861125E-01
 cg2d: Sum(rhs),rhsMax =   8.04922795083485E-12  1.96617195549220E-01
 cg2d: Sum(rhs),rhsMax =   8.14948108995850E-12  1.91664646725446E-01
 cg2d: Sum(rhs),rhsMax =   8.25184365282894E-12  1.86325211087951E-01
 cg2d: Sum(rhs),rhsMax =   8.46500647355697E-12  1.80548407380740E-01
 cg2d: Sum(rhs),rhsMax =   8.72635297355373E-12  1.74469814837382E-01
 cg2d: Sum(rhs),rhsMax =   9.00757246569128E-12  1.68034434058940E-01
 cg2d: Sum(rhs),rhsMax =   9.01834162903015E-12  1.67000393136934E-01
 cg2d: Sum(rhs),rhsMax =   8.96138718786688E-12  1.67885677653168E-01
 cg2d: Sum(rhs),rhsMax =   8.59923243723415E-12  1.73442297431649E-01
 cg2d: Sum(rhs),rhsMax =   8.31457125372026E-12  1.79165862101068E-01
 cg2d: Sum(rhs),rhsMax =   8.00159938307843E-12  1.84453948197811E-01
 cg2d: Sum(rhs),rhsMax =   7.76378961120372E-12  1.89147324509941E-01
 cg2d: Sum(rhs),rhsMax =   7.53641593576049E-12  1.93586383482926E-01
 cg2d: Sum(rhs),rhsMax =   7.35622673886382E-12  1.97559628464584E-01
 cg2d: Sum(rhs),rhsMax =   7.20767889816898E-12  2.01074476548226E-01
 cg2d: Sum(rhs),rhsMax =   7.05135949630176E-12  2.04105543600490E-01
 cg2d: Sum(rhs),rhsMax =   6.87350176775681E-12  2.06588018358967E-01
 cg2d: Sum(rhs),rhsMax =   6.69186928092813E-12  2.08706466953100E-01
 cg2d: Sum(rhs),rhsMax =   6.54098997188157E-12  2.10242987913448E-01
 cg2d: Sum(rhs),rhsMax =   6.38433750310696E-12  2.11312476725185E-01
 cg2d: Sum(rhs),rhsMax =   6.25999252434895E-12  2.11904049119070E-01
 cg2d: Sum(rhs),rhsMax =   6.13153972039981E-12  2.12060694814345E-01
 cg2d: Sum(rhs),rhsMax =   6.03606054028205E-12  2.11753325519896E-01
 cg2d: Sum(rhs),rhsMax =   5.93058935294266E-12  2.11038093695237E-01
 cg2d: Sum(rhs),rhsMax =   5.86908299737843E-12  2.09897314360879E-01
 cg2d: Sum(rhs),rhsMax =   5.66879876373605E-12  2.12383540779841E-01
 cg2d: Sum(rhs),rhsMax =   5.46140910273607E-12  2.15884637049256E-01
 cg2d: Sum(rhs),rhsMax =   5.23747711866918E-12  2.18864594200206E-01
 cg2d: Sum(rhs),rhsMax =   5.04063457640314E-12  2.21332014386254E-01
 cg2d: Sum(rhs),rhsMax =   4.87143658745026E-12  2.23265950304225E-01
 cg2d: Sum(rhs),rhsMax =   4.85633755431536E-12  2.24664532877350E-01
 cg2d: Sum(rhs),rhsMax =   4.85944617878431E-12  2.25562472222977E-01
 cg2d: Sum(rhs),rhsMax =   4.88475926374576E-12  2.25930003960133E-01
 cg2d: Sum(rhs),rhsMax =   4.90985030410229E-12  2.25763695847811E-01
 cg2d: Sum(rhs),rhsMax =   4.94781993154447E-12  2.25059427144700E-01
 cg2d: Sum(rhs),rhsMax =   5.02298203031160E-12  2.23859215199458E-01
 cg2d: Sum(rhs),rhsMax =   5.08793007725217E-12  2.22191665991651E-01
 cg2d: Sum(rhs),rhsMax =   5.17652587461725E-12  2.20077346036823E-01
 cg2d: Sum(rhs),rhsMax =   5.28088683893202E-12  2.17505807905909E-01
 cg2d: Sum(rhs),rhsMax =   5.38213917877783E-12  2.14348229997169E-01
 cg2d: Sum(rhs),rhsMax =   5.51447776331315E-12  2.10852234536463E-01
 cg2d: Sum(rhs),rhsMax =   5.64548408021892E-12  2.06960739008340E-01
 cg2d: Sum(rhs),rhsMax =   5.72264458043037E-12  2.02672358713067E-01
 cg2d: Sum(rhs),rhsMax =   5.75661740498390E-12  1.98010680486210E-01
 cg2d: Sum(rhs),rhsMax =   5.76494407766859E-12  1.93029861622228E-01
 cg2d: Sum(rhs),rhsMax =   5.92093041262842E-12  1.87599399917596E-01
 cg2d: Sum(rhs),rhsMax =   6.09323702605025E-12  1.81930972190627E-01
 cg2d: Sum(rhs),rhsMax =   6.25166585166426E-12  1.76147907060214E-01
 cg2d: Sum(rhs),rhsMax =   6.45272724142387E-12  1.69569944654900E-01
 cg2d: Sum(rhs),rhsMax =   6.55564491580662E-12  1.65354494093478E-01
 cg2d: Sum(rhs),rhsMax =   6.49136300268083E-12  1.65249254349882E-01
 cg2d: Sum(rhs),rhsMax =   6.50191012141477E-12  1.65101103234834E-01
 cg2d: Sum(rhs),rhsMax =   6.43729514138158E-12  1.64908488701238E-01
 cg2d: Sum(rhs),rhsMax =   6.40820729813640E-12  1.64671164423180E-01
 cg2d: Sum(rhs),rhsMax =   6.23212592643085E-12  1.68654732682077E-01
 cg2d: Sum(rhs),rhsMax =   6.01474425820925E-12  1.73999832123769E-01
 cg2d: Sum(rhs),rhsMax =   5.81079628858561E-12  1.79077969294996E-01
 cg2d: Sum(rhs),rhsMax =   5.59530199950586E-12  1.83740014308549E-01
 cg2d: Sum(rhs),rhsMax =   5.41788836017076E-12  1.88058267087846E-01
 cg2d: Sum(rhs),rhsMax =   5.26834131875376E-12  1.92015593778594E-01
 cg2d: Sum(rhs),rhsMax =   5.13566966731105E-12  1.95582816476579E-01
 cg2d: Sum(rhs),rhsMax =   5.02620167708301E-12  1.98751076480885E-01
 cg2d: Sum(rhs),rhsMax =   4.92350604730518E-12  2.01558267006274E-01
 cg2d: Sum(rhs),rhsMax =   4.86100049101879E-12  2.03957604519572E-01
 cg2d: Sum(rhs),rhsMax =   4.76740869004288E-12  2.05950986772524E-01
 cg2d: Sum(rhs),rhsMax =   4.69058125673882E-12  2.07411643147250E-01
 cg2d: Sum(rhs),rhsMax =   4.60209648167620E-12  2.08564351838620E-01
 cg2d: Sum(rhs),rhsMax =   4.54969395491389E-12  2.09263639240416E-01
 cg2d: Sum(rhs),rhsMax =   4.48219239501668E-12  2.09571153194309E-01
 cg2d: Sum(rhs),rhsMax =   4.45210535104934E-12  2.09407407005032E-01
 cg2d: Sum(rhs),rhsMax =   4.43090009127900E-12  2.08906763670994E-01
 cg2d: Sum(rhs),rhsMax =   4.40825154157665E-12  2.07921240421218E-01
 cg2d: Sum(rhs),rhsMax =   4.38848957173832E-12  2.06481302766055E-01
 cg2d: Sum(rhs),rhsMax =   4.37794245300438E-12  2.04655947472003E-01
 cg2d: Sum(rhs),rhsMax =   4.36095604072761E-12  2.02395417368631E-01
 cg2d: Sum(rhs),rhsMax =   4.40225633724367E-12  1.99791379678710E-01
 cg2d: Sum(rhs),rhsMax =   4.42534897615587E-12  1.96814103843234E-01
 cg2d: Sum(rhs),rhsMax =   4.45499193091337E-12  1.93469649812028E-01
 cg2d: Sum(rhs),rhsMax =   4.47175629858521E-12  1.89831242968749E-01
 cg2d: Sum(rhs),rhsMax =   4.54558612972278E-12  1.85802298516890E-01
 cg2d: Sum(rhs),rhsMax =   4.62119231769975E-12  1.81449538139612E-01
 cg2d: Sum(rhs),rhsMax =   4.64239757747009E-12  1.78503791977433E-01
 cg2d: Sum(rhs),rhsMax =   4.59388083129397E-12  1.78947699610915E-01
 cg2d: Sum(rhs),rhsMax =   4.56601423337588E-12  1.79250674535923E-01
 cg2d: Sum(rhs),rhsMax =   4.53459492177899E-12  1.79500465315752E-01
 cg2d: Sum(rhs),rhsMax =   4.51116921595940E-12  1.79642343851114E-01
 cg2d: Sum(rhs),rhsMax =   4.46076509064142E-12  1.79699742629369E-01
 cg2d: Sum(rhs),rhsMax =   4.41158221065052E-12  1.79574868495034E-01
 cg2d: Sum(rhs),rhsMax =   4.38649117029399E-12  1.79253689745228E-01
 cg2d: Sum(rhs),rhsMax =   4.37472280623297E-12  1.78854443269202E-01
 cg2d: Sum(rhs),rhsMax =   4.38837854943586E-12  1.78388247844576E-01
 cg2d: Sum(rhs),rhsMax =   4.30955271468747E-12  1.79675686280481E-01
 cg2d: Sum(rhs),rhsMax =   4.25481871957345E-12  1.81446662242700E-01
 cg2d: Sum(rhs),rhsMax =   4.14879242072175E-12  1.83140010263437E-01
 cg2d: Sum(rhs),rhsMax =   4.05686595428278E-12  1.84761193077432E-01
 cg2d: Sum(rhs),rhsMax =   3.97193389289896E-12  1.86308912315385E-01
 cg2d: Sum(rhs),rhsMax =   3.90798504668055E-12  1.87777520725258E-01
 cg2d: Sum(rhs),rhsMax =   3.82849307811739E-12  1.89170211396140E-01
 cg2d: Sum(rhs),rhsMax =   3.71547237421055E-12  1.90480779774528E-01
 cg2d: Sum(rhs),rhsMax =   3.62876395598732E-12  1.91713661189208E-01
 cg2d: Sum(rhs),rhsMax =   3.59201557387223E-12  1.92869244587913E-01
 cg2d: Sum(rhs),rhsMax =   3.62754271066024E-12  1.93945137091988E-01
 cg2d: Sum(rhs),rhsMax =   3.64130947616559E-12  1.94942023132902E-01
 cg2d: Sum(rhs),rhsMax =   3.69693164969931E-12  1.95858928961276E-01
 cg2d: Sum(rhs),rhsMax =   3.69126951227372E-12  1.96697497449487E-01
 cg2d: Sum(rhs),rhsMax =   3.68804986550231E-12  1.97466422127104E-01
 cg2d: Sum(rhs),rhsMax =   3.73778785700551E-12  1.98155858084602E-01
 cg2d: Sum(rhs),rhsMax =   3.76410014268913E-12  1.98768066991951E-01
 cg2d: Sum(rhs),rhsMax =   3.77298192688613E-12  1.99305552121380E-01
 cg2d: Sum(rhs),rhsMax =   3.71769282025980E-12  1.99770435996533E-01
 cg2d: Sum(rhs),rhsMax =   3.62093688366372E-12  2.00164037498907E-01
 cg2d: Sum(rhs),rhsMax =   3.51074724846967E-12  2.00483585837926E-01
 cg2d: Sum(rhs),rhsMax =   3.39689387729436E-12  2.00730117286745E-01
 cg2d: Sum(rhs),rhsMax =   3.30946381410513E-12  2.00908816023953E-01
 cg2d: Sum(rhs),rhsMax =   3.20987680879625E-12  2.01022439439965E-01
(PID.TID 0000.0001)      cg2d_init_res =   9.81013350502730E-02
(PID.TID 0000.0001)      cg2d_iters(min,last) =      -1      29
(PID.TID 0000.0001)      cg2d_last_res =   6.15170337668779E-14
(PID.TID 0000.0001) // =======================================================
(PID.TID 0000.0001) // Begin MONITOR dynamic field statistics
(PID.TID 0000.0001) // =======================================================
(PID.TID 0000.0001) %MON time_tsnumber                =                  3840
(PID.TID 0000.0001) %MON time_secondsf                =   5.7600000000000E+04
(PID.TID 0000.0001) %MON dynstat_eta_max              =   1.1666027005450E-02
(PID.TID 0000.0001) %MON dynstat_eta_min              =  -2.1644824931403E-02
(PID.TID 0000.0001) %MON dynstat_eta_mean             =  -7.2882602007318E-16
(PID.TID 0000.0001) %MON dynstat_eta_sd               =   8.2923057921470E-03
(PID.TID 0000.0001) %MON dynstat_eta_del2             =   2.5206003784345E-04
(PID.TID 0000.0001) %MON dynstat_uvel_max             =   1.5477439097665E+00
(PID.TID 0000.0001) %MON dynstat_uvel_min             =  -7.0875680100896E-01
(PID.TID 0000.0001) %MON dynstat_uvel_mean            =  -1.7304824272244E-04
(PID.TID 0000.0001) %MON dynstat_uvel_sd              =   1.7974379570957E-01
(PID.TID 0000.0001) %MON dynstat_uvel_del2            =   8.6924885344367E-04
(PID.TID 0000.0001) %MON dynstat_vvel_max             =   0.0000000000000E+00
(PID.TID 0000.0001) %MON dynstat_vvel_min             =   0.0000000000000E+00
(PID.TID 0000.0001) %MON dynstat_vvel_mean            =   0.0000000000000E+00
(PID.TID 0000.0001) %MON dynstat_vvel_sd              =   0.0000000000000E+00
(PID.TID 0000.0001) %MON dynstat_vvel_del2            =   0.0000000000000E+00
(PID.TID 0000.0001) %MON dynstat_wvel_max             =   5.2455779163598E-02
(PID.TID 0000.0001) %MON dynstat_wvel_min             =  -3.7775696795018E-02
(PID.TID 0000.0001) %MON dynstat_wvel_mean            =  -6.8860049630419E-20
(PID.TID 0000.0001) %MON dynstat_wvel_sd              =   5.0503680307799E-03
(PID.TID 0000.0001) %MON dynstat_wvel_del2            =   1.0108329942602E-04
(PID.TID 0000.0001) %MON dynstat_theta_max            =   1.5000000000279E+01
(PID.TID 0000.0001) %MON dynstat_theta_min            =   9.9999999999936E+00
(PID.TID 0000.0001) %MON dynstat_theta_mean           =   1.2728628976128E+01
(PID.TID 0000.0001) %MON dynstat_theta_sd             =   2.3582255376158E+00
(PID.TID 0000.0001) %MON dynstat_theta_del2           =   2.3452725832249E-03
(PID.TID 0000.0001) %MON dynstat_salt_max             =   3.5000000000000E+01
(PID.TID 0000.0001) %MON dynstat_salt_min             =   3.5000000000000E+01
(PID.TID 0000.0001) %MON dynstat_salt_mean            =   3.5000000000000E+01
(PID.TID 0000.0001) %MON dynstat_salt_sd              =   1.0658141036402E-13
(PID.TID 0000.0001) %MON dynstat_salt_del2            =   0.0000000000000E+00
(PID.TID 0000.0001) %MON dynstat_sst_max              =   1.5000000000003E+01
(PID.TID 0000.0001) %MON dynstat_sst_min              =   1.4959701960593E+01
(PID.TID 0000.0001) %MON dynstat_sst_mean             =   1.4998630872118E+01
(PID.TID 0000.0001) %MON dynstat_sst_sd               =   4.9893027915468E-03
(PID.TID 0000.0001) %MON dynstat_sst_del2             =   2.4073763897650E-04
(PID.TID 0000.0001) %MON dynstat_sss_max              =   3.5000000000000E+01
(PID.TID 0000.0001) %MON dynstat_sss_min              =   3.5000000000000E+01
(PID.TID 0000.0001) %MON dynstat_sss_mean             =   3.5000000000000E+01
(PID.TID 0000.0001) %MON dynstat_sss_sd               =   4.2632564145606E-14
(PID.TID 0000.0001) %MON dynstat_sss_del2             =   0.0000000000000E+00
(PID.TID 0000.0001) %MON forcing_qnet_max             =   0.0000000000000E+00
(PID.TID 0000.0001) %MON forcing_qnet_min             =   0.0000000000000E+00
(PID.TID 0000.0001) %MON forcing_qnet_mean            =   0.0000000000000E+00
(PID.TID 0000.0001) %MON forcing_qnet_sd              =   0.0000000000000E+00
(PID.TID 0000.0001) %MON forcing_qnet_del2            =   0.0000000000000E+00
(PID.TID 0000.0001) %MON forcing_qsw_max              =   0.0000000000000E+00
(PID.TID 0000.0001) %MON forcing_qsw_min              =   0.0000000000000E+00
(PID.TID 0000.0001) %MON forcing_qsw_mean             =   0.0000000000000E+00
(PID.TID 0000.0001) %MON forcing_qsw_sd               =   0.0000000000000E+00
(PID.TID 0000.0001) %MON forcing_qsw_del2             =   0.0000000000000E+00
(PID.TID 0000.0001) %MON forcing_empmr_max            =   0.0000000000000E+00
(PID.TID 0000.0001) %MON forcing_empmr_min            =   0.0000000000000E+00
(PID.TID 0000.0001) %MON forcing_empmr_mean           =   0.0000000000000E+00
(PID.TID 0000.0001) %MON forcing_empmr_sd             =   0.0000000000000E+00
(PID.TID 0000.0001) %MON forcing_empmr_del2           =   0.0000000000000E+00
(PID.TID 0000.0001) %MON forcing_fu_max               =   0.0000000000000E+00
(PID.TID 0000.0001) %MON forcing_fu_min               =   0.0000000000000E+00
(PID.TID 0000.0001) %MON forcing_fu_mean              =   0.0000000000000E+00
(PID.TID 0000.0001) %MON forcing_fu_sd                =   0.0000000000000E+00
(PID.TID 0000.0001) %MON forcing_fu_del2              =   0.0000000000000E+00
(PID.TID 0000.0001) %MON forcing_fv_max               =   0.0000000000000E+00
(PID.TID 0000.0001) %MON forcing_fv_min               =   0.0000000000000E+00
(PID.TID 0000.0001) %MON forcing_fv_mean              =   0.0000000000000E+00
(PID.TID 0000.0001) %MON forcing_fv_sd                =   0.0000000000000E+00
(PID.TID 0000.0001) %MON forcing_fv_del2              =   0.0000000000000E+00
(PID.TID 0000.0001) %MON advcfl_uvel_max              =   7.7130501055825E-02
(PID.TID 0000.0001) %MON advcfl_vvel_max              =   0.0000000000000E+00
(PID.TID 0000.0001) %MON advcfl_wvel_max              =   4.0024743988246E-01
(PID.TID 0000.0001) %MON advcfl_W_hf_max              =   4.0460189355551E-01
(PID.TID 0000.0001) %MON pe_b_mean                    =   1.9302962830595E-06
(PID.TID 0000.0001) %MON ke_max                       =   7.6074042909881E-01
(PID.TID 0000.0001) %MON ke_mean                      =   1.6332744627443E-02
(PID.TID 0000.0001) %MON ke_vol                       =   8.5338127039305E+10
(PID.TID 0000.0001) %MON vort_r_min                   =   0.0000000000000E+00
(PID.TID 0000.0001) %MON vort_r_max                   =   0.0000000000000E+00
(PID.TID 0000.0001) %MON vort_a_mean                  =   0.0000000000000E+00
(PID.TID 0000.0001) %MON vort_a_sd                    =   0.0000000000000E+00
(PID.TID 0000.0001) %MON vort_p_mean                  =   0.0000000000000E+00
(PID.TID 0000.0001) %MON vort_p_sd                    =   0.0000000000000E+00
(PID.TID 0000.0001) %MON surfExpan_theta_mean         =   4.6852770616658E-09
(PID.TID 0000.0001) %MON surfExpan_salt_mean          =  -4.0603770504499E-18
(PID.TID 0000.0001) // =======================================================
(PID.TID 0000.0001) // End MONITOR dynamic field statistics
(PID.TID 0000.0001) // =======================================================
(PID.TID 0000.0001) // =======================================================
(PID.TID 0000.0001) // Begin OBCS MONITOR field statistics
(PID.TID 0000.0001) // =======================================================
(PID.TID 0000.0001) %MON obc_E_uVel_max               =   0.0000000000000E+00
(PID.TID 0000.0001) %MON obc_E_uVel_min               =   0.0000000000000E+00
(PID.TID 0000.0001) %MON obc_E_uVel_mean              =   0.0000000000000E+00
(PID.TID 0000.0001) %MON obc_E_uVel_sd                =   0.0000000000000E+00
(PID.TID 0000.0001) %MON obc_E_uVel_Int               =   0.0000000000000E+00
(PID.TID 0000.0001) %MON obc_W_uVel_max               =   0.0000000000000E+00
(PID.TID 0000.0001) %MON obc_W_uVel_min               =   0.0000000000000E+00
(PID.TID 0000.0001) %MON obc_W_uVel_mean              =   0.0000000000000E+00
(PID.TID 0000.0001) %MON obc_W_uVel_sd                =   0.0000000000000E+00
(PID.TID 0000.0001) %MON obc_W_uVel_Int               =   0.0000000000000E+00
(PID.TID 0000.0001) // =======================================================
(PID.TID 0000.0001) // End OBCS MONITOR field statistics
(PID.TID 0000.0001) // =======================================================
 cg2d: Sum(rhs),rhsMax =   3.10707015671596E-12  2.01655151927661E-01
 cg2d: Sum(rhs),rhsMax =   3.06837888430778E-12  2.04204822246407E-01
 cg2d: Sum(rhs),rhsMax =   3.08159053830082E-12  2.06323942909881E-01
 cg2d: Sum(rhs),rhsMax =   3.06249470227726E-12  2.08048664479455E-01
 cg2d: Sum(rhs),rhsMax =   3.02879943347989E-12  2.09370142974170E-01
 cg2d: Sum(rhs),rhsMax =   2.95824476026496E-12  2.10246054198981E-01
 cg2d: Sum(rhs),rhsMax =   2.92027513282278E-12  2.10589031321143E-01
 cg2d: Sum(rhs),rhsMax =   2.86753953915309E-12  2.10610921630051E-01
 cg2d: Sum(rhs),rhsMax =   2.82152079478237E-12  2.10203040315548E-01
 cg2d: Sum(rhs),rhsMax =   2.78821410404362E-12  2.09317423965825E-01
 cg2d: Sum(rhs),rhsMax =   2.78299605582788E-12  2.08033789260543E-01
 cg2d: Sum(rhs),rhsMax =   2.75907074964721E-12  2.06377837106647E-01
 cg2d: Sum(rhs),rhsMax =   2.74175127046306E-12  2.04315702994459E-01
 cg2d: Sum(rhs),rhsMax =   2.71199729340310E-12  2.01909267339827E-01
 cg2d: Sum(rhs),rhsMax =   2.68718380880273E-12  1.99124128575195E-01
 cg2d: Sum(rhs),rhsMax =   2.67402766596092E-12  1.95973121272767E-01
 cg2d: Sum(rhs),rhsMax =   2.66225930189989E-12  1.93871364026250E-01
 cg2d: Sum(rhs),rhsMax =   2.62168065034984E-12  1.92960444669604E-01
 cg2d: Sum(rhs),rhsMax =   2.58182364376580E-12  1.92018582224329E-01
 cg2d: Sum(rhs),rhsMax =   2.55084842137876E-12  1.91029301605334E-01
 cg2d: Sum(rhs),rhsMax =   2.55928611636591E-12  1.89987985824790E-01
 cg2d: Sum(rhs),rhsMax =   2.56294985234717E-12  1.88904438229719E-01
 cg2d: Sum(rhs),rhsMax =   2.53719267817587E-12  1.87787663610205E-01
 cg2d: Sum(rhs),rhsMax =   2.54463117244086E-12  1.86631783191245E-01
 cg2d: Sum(rhs),rhsMax =   2.57693866245745E-12  1.85435889136099E-01
 cg2d: Sum(rhs),rhsMax =   2.64888111445316E-12  1.84200530053598E-01
 cg2d: Sum(rhs),rhsMax =   2.71116462613463E-12  1.82926759581281E-01
 cg2d: Sum(rhs),rhsMax =   2.80919731920903E-12  1.81616353286165E-01
 cg2d: Sum(rhs),rhsMax =   2.89746004966673E-12  1.80266806422377E-01
 cg2d: Sum(rhs),rhsMax =   2.97040170238461E-12  1.78879999611306E-01
 cg2d: Sum(rhs),rhsMax =   3.04078984214584E-12  1.77458546768807E-01
 cg2d: Sum(rhs),rhsMax =   3.12028181070900E-12  1.76005935770961E-01
 cg2d: Sum(rhs),rhsMax =   3.18034487634122E-12  1.74526897581834E-01
 cg2d: Sum(rhs),rhsMax =   3.20921067498148E-12  1.73021644794746E-01
 cg2d: Sum(rhs),rhsMax =   3.13427062081928E-12  1.77783717353628E-01
 cg2d: Sum(rhs),rhsMax =   3.03257419176362E-12  1.83318787385251E-01
 cg2d: Sum(rhs),rhsMax =   2.93931545769510E-12  1.88497753992497E-01
 cg2d: Sum(rhs),rhsMax =   2.86481949274275E-12  1.93255396367263E-01
 cg2d: Sum(rhs),rhsMax =   2.79687384363569E-12  1.97618475870419E-01
 cg2d: Sum(rhs),rhsMax =   2.73214784130005E-12  2.01572120318528E-01
 cg2d: Sum(rhs),rhsMax =   2.70505839949919E-12  2.05048966596567E-01
 cg2d: Sum(rhs),rhsMax =   2.66098254542158E-12  2.08200357107140E-01
 cg2d: Sum(rhs),rhsMax =   2.62279087337447E-12  2.10842130517443E-01
 cg2d: Sum(rhs),rhsMax =   2.60030885712581E-12  2.13104280191213E-01
 cg2d: Sum(rhs),rhsMax =   2.59192667328989E-12  2.14990113310846E-01
 cg2d: Sum(rhs),rhsMax =   2.59120502832388E-12  2.16380741719000E-01
 cg2d: Sum(rhs),rhsMax =   2.58287835563920E-12  2.17365693426900E-01
 cg2d: Sum(rhs),rhsMax =   2.57482923871066E-12  2.17839910553341E-01
 cg2d: Sum(rhs),rhsMax =   2.54973819835413E-12  2.17814953823579E-01
 cg2d: Sum(rhs),rhsMax =   2.51898502057202E-12  2.17340637433803E-01
 cg2d: Sum(rhs),rhsMax =   2.51743070833754E-12  2.16372328906403E-01
 cg2d: Sum(rhs),rhsMax =   2.49833487231399E-12  2.14946284341339E-01
 cg2d: Sum(rhs),rhsMax =   2.48756570897513E-12  2.13328738995673E-01
 cg2d: Sum(rhs),rhsMax =   2.48412401759879E-12  2.11213123601912E-01
 cg2d: Sum(rhs),rhsMax =   2.47346587656239E-12  2.08749746329790E-01
 cg2d: Sum(rhs),rhsMax =   2.49256171258594E-12  2.05912432866676E-01
 cg2d: Sum(rhs),rhsMax =   2.47901699168551E-12  2.02628454726749E-01
 cg2d: Sum(rhs),rhsMax =   2.48046028161752E-12  1.99006862643405E-01
 cg2d: Sum(rhs),rhsMax =   2.46258569092106E-12  1.94951652846817E-01
 cg2d: Sum(rhs),rhsMax =   2.45126141606988E-12  1.90800648695648E-01
 cg2d: Sum(rhs),rhsMax =   2.49233966798101E-12  1.86394255108225E-01
 cg2d: Sum(rhs),rhsMax =   2.50188758599279E-12  1.81277460834929E-01
 cg2d: Sum(rhs),rhsMax =   2.59037236105542E-12  1.76224242912023E-01
 cg2d: Sum(rhs),rhsMax =   2.65332200655166E-12  1.71042399131607E-01
 cg2d: Sum(rhs),rhsMax =   2.65831801016247E-12  1.70318701980726E-01
 cg2d: Sum(rhs),rhsMax =   2.65865107706986E-12  1.70377622809533E-01
 cg2d: Sum(rhs),rhsMax =   2.67874611381558E-12  1.70251665985318E-01
 cg2d: Sum(rhs),rhsMax =   2.70339306496226E-12  1.70003264043522E-01
 cg2d: Sum(rhs),rhsMax =   2.70328204265979E-12  1.69646209683706E-01
 cg2d: Sum(rhs),rhsMax =   2.69517741458003E-12  1.69168077135073E-01
 cg2d: Sum(rhs),rhsMax =   2.70683475633859E-12  1.69865743428717E-01
 cg2d: Sum(rhs),rhsMax =   2.68129962677222E-12  1.71423861944374E-01
 cg2d: Sum(rhs),rhsMax =   2.66686672745209E-12  1.72913145352842E-01
 cg2d: Sum(rhs),rhsMax =   2.66042743390926E-12  1.74335122575643E-01
 cg2d: Sum(rhs),rhsMax =   2.60413912656077E-12  1.78950029397643E-01
 cg2d: Sum(rhs),rhsMax =   2.61424215608486E-12  1.83473349236902E-01
 cg2d: Sum(rhs),rhsMax =   2.60402810425830E-12  1.87673949802481E-01
 cg2d: Sum(rhs),rhsMax =   2.58670862507415E-12  1.91483374280480E-01
 cg2d: Sum(rhs),rhsMax =   2.57172061424171E-12  1.94924117455504E-01
 cg2d: Sum(rhs),rhsMax =   2.53086440693551E-12  1.97990068764145E-01
 cg2d: Sum(rhs),rhsMax =   2.55084842137876E-12  2.00678154198049E-01
 cg2d: Sum(rhs),rhsMax =   2.57782684087715E-12  2.02970870551821E-01
 cg2d: Sum(rhs),rhsMax =   2.60302890353614E-12  2.04909548953658E-01
 cg2d: Sum(rhs),rhsMax =   2.61435317838732E-12  2.06394444904413E-01
 cg2d: Sum(rhs),rhsMax =   2.66353605837821E-12  2.07483469990504E-01
 cg2d: Sum(rhs),rhsMax =   2.74935629818174E-12  2.08181757818502E-01
 cg2d: Sum(rhs),rhsMax =   2.85915735531717E-12  2.08442754011541E-01
 cg2d: Sum(rhs),rhsMax =   2.94486657281823E-12  2.08308202745123E-01
 cg2d: Sum(rhs),rhsMax =   3.02435854138139E-12  2.07729807771650E-01
 cg2d: Sum(rhs),rhsMax =   3.15736325973148E-12  2.06722294735827E-01
 cg2d: Sum(rhs),rhsMax =   3.26216831325610E-12  2.05321027354782E-01
 cg2d: Sum(rhs),rhsMax =   3.39273054095202E-12  2.03528498339052E-01
 cg2d: Sum(rhs),rhsMax =   3.54549722914044E-12  2.01458047065478E-01
 cg2d: Sum(rhs),rhsMax =   3.68627350866291E-12  1.98955140051040E-01
 cg2d: Sum(rhs),rhsMax =   3.84803300335079E-12  1.96063082994055E-01
 cg2d: Sum(rhs),rhsMax =   3.95228294536309E-12  1.92758887003335E-01
 cg2d: Sum(rhs),rhsMax =   4.08073574931223E-12  1.89081117145340E-01
 cg2d: Sum(rhs),rhsMax =   4.18221013376296E-12  1.87095121637636E-01
 cg2d: Sum(rhs),rhsMax =   4.26891855198619E-12  1.86647051771573E-01
 cg2d: Sum(rhs),rhsMax =   4.31210622764411E-12  1.86318444408385E-01
 cg2d: Sum(rhs),rhsMax =   4.37261338248618E-12  1.85885324062685E-01
 cg2d: Sum(rhs),rhsMax =   4.42845760062482E-12  1.85364868521718E-01
 cg2d: Sum(rhs),rhsMax =   4.54847270958680E-12  1.84796951396252E-01
 cg2d: Sum(rhs),rhsMax =   4.63118432492138E-12  1.84187878883521E-01
 cg2d: Sum(rhs),rhsMax =   4.69291272509054E-12  1.83530076203810E-01
 cg2d: Sum(rhs),rhsMax =   4.80415707215798E-12  1.82817905225897E-01
 cg2d: Sum(rhs),rhsMax =   4.88253881769651E-12  1.82050871189830E-01
 cg2d: Sum(rhs),rhsMax =   4.98678875970882E-12  1.81234685977652E-01
 cg2d: Sum(rhs),rhsMax =   5.05218089585924E-12  1.80832510881638E-01
 cg2d: Sum(rhs),rhsMax =   4.98068253307338E-12  1.87053098633121E-01
 cg2d: Sum(rhs),rhsMax =   4.85533835359320E-12  1.92998469529928E-01
 cg2d: Sum(rhs),rhsMax =   4.80326889373828E-12  1.98673528117874E-01
 cg2d: Sum(rhs),rhsMax =   4.84612350248881E-12  2.04033506620757E-01
 cg2d: Sum(rhs),rhsMax =   4.72455408129235E-12  2.09059254072634E-01
 cg2d: Sum(rhs),rhsMax =   4.59843274569494E-12  2.13752439002630E-01
 cg2d: Sum(rhs),rhsMax =   4.56767956791282E-12  2.18095519214907E-01
 cg2d: Sum(rhs),rhsMax =   4.53259652033466E-12  2.22047943207163E-01
 cg2d: Sum(rhs),rhsMax =   4.48607817560287E-12  2.25593266920479E-01
 cg2d: Sum(rhs),rhsMax =   4.47064607556058E-12  2.28725180573038E-01
 cg2d: Sum(rhs),rhsMax =   4.44966286039516E-12  2.31317416785478E-01
 cg2d: Sum(rhs),rhsMax =   4.46664927267193E-12  2.33561494887076E-01
 cg2d: Sum(rhs),rhsMax =   4.53292958724205E-12  2.35378065664559E-01
 cg2d: Sum(rhs),rhsMax =   4.55624427075918E-12  2.36734567037206E-01
 cg2d: Sum(rhs),rhsMax =   4.61530813566924E-12  2.37634916514018E-01
 cg2d: Sum(rhs),rhsMax =   4.75541828137693E-12  2.38063420165469E-01
 cg2d: Sum(rhs),rhsMax =   4.92750285019383E-12  2.38024395070375E-01
 cg2d: Sum(rhs),rhsMax =   5.10103070894274E-12  2.37548980190034E-01
 cg2d: Sum(rhs),rhsMax =   5.29298826990043E-12  2.36592838785912E-01
 cg2d: Sum(rhs),rhsMax =   5.50703926904816E-12  2.35226777446686E-01
 cg2d: Sum(rhs),rhsMax =   5.72897285167073E-12  2.33421116265817E-01
 cg2d: Sum(rhs),rhsMax =   5.96556137821835E-12  2.31387494618448E-01
 cg2d: Sum(rhs),rhsMax =   6.20603568535216E-12  2.28856042848403E-01
 cg2d: Sum(rhs),rhsMax =   6.48159304006413E-12  2.25748354114266E-01
 cg2d: Sum(rhs),rhsMax =   6.76370071062138E-12  2.22326635974197E-01
 cg2d: Sum(rhs),rhsMax =   7.05335789774608E-12  2.18229453828756E-01
 cg2d: Sum(rhs),rhsMax =   7.38797911736810E-12  2.14057292532475E-01
 cg2d: Sum(rhs),rhsMax =   7.71127606213895E-12  2.09759511303260E-01
 cg2d: Sum(rhs),rhsMax =   8.08753064518442E-12  2.04389059185040E-01
 cg2d: Sum(rhs),rhsMax =   8.53661585864529E-12  1.98822119714175E-01
 cg2d: Sum(rhs),rhsMax =   8.98436880447662E-12  1.93084563515235E-01
 cg2d: Sum(rhs),rhsMax =   9.53415124627099E-12  1.86194072418463E-01
 cg2d: Sum(rhs),rhsMax =   1.00561781124497E-11  1.79758718956283E-01
 cg2d: Sum(rhs),rhsMax =   1.01235686500445E-11  1.79636614677316E-01
 cg2d: Sum(rhs),rhsMax =   1.01751940206896E-11  1.79588944004468E-01
 cg2d: Sum(rhs),rhsMax =   1.02792219180969E-11  1.79487023467982E-01
 cg2d: Sum(rhs),rhsMax =   1.03548281060739E-11  1.79328450183797E-01
 cg2d: Sum(rhs),rhsMax =   1.05316866338967E-11  1.79113352459774E-01
 cg2d: Sum(rhs),rhsMax =   1.07166497897992E-11  1.78840384287870E-01
 cg2d: Sum(rhs),rhsMax =   1.06420428025444E-11  1.81355283299145E-01
 cg2d: Sum(rhs),rhsMax =   1.03220765268475E-11  1.87592427716748E-01
 cg2d: Sum(rhs),rhsMax =   1.01494368465183E-11  1.93533457843990E-01
 cg2d: Sum(rhs),rhsMax =   1.00111030576500E-11  1.99188269215108E-01
 cg2d: Sum(rhs),rhsMax =   9.89397452855201E-12  2.04509500755242E-01
 cg2d: Sum(rhs),rhsMax =   9.78894743042247E-12  2.09576434512789E-01
 cg2d: Sum(rhs),rhsMax =   9.71989155829078E-12  2.14283530132048E-01
 cg2d: Sum(rhs),rhsMax =   9.67281810204668E-12  2.18624493282793E-01
 cg2d: Sum(rhs),rhsMax =   9.59554657953277E-12  2.22587441044561E-01
 cg2d: Sum(rhs),rhsMax =   9.55424628301671E-12  2.26166776901342E-01
 cg2d: Sum(rhs),rhsMax =   9.56335011181864E-12  2.29023786107743E-01
 cg2d: Sum(rhs),rhsMax =   9.51660972248192E-12  2.31905952006991E-01
 cg2d: Sum(rhs),rhsMax =   9.52260492681489E-12  2.33921657603448E-01
 cg2d: Sum(rhs),rhsMax =   9.54769596717142E-12  2.35587779510303E-01
 cg2d: Sum(rhs),rhsMax =   9.57467438666981E-12  2.36756475891150E-01
 cg2d: Sum(rhs),rhsMax =   9.64428537031381E-12  2.37468180400144E-01
 cg2d: Sum(rhs),rhsMax =   9.68058966321905E-12  2.37830079521851E-01
 cg2d: Sum(rhs),rhsMax =   9.77717906636144E-12  2.37883353811597E-01
 cg2d: Sum(rhs),rhsMax =   9.88553683356486E-12  2.36875850673410E-01
 cg2d: Sum(rhs),rhsMax =   1.00104369238352E-11  2.35748896410304E-01
 cg2d: Sum(rhs),rhsMax =   1.01642028127458E-11  2.34252415051427E-01
 cg2d: Sum(rhs),rhsMax =   1.03836939047142E-11  2.32001362338887E-01
 cg2d: Sum(rhs),rhsMax =   1.06197273197495E-11  2.29699337222049E-01
 cg2d: Sum(rhs),rhsMax =   1.08419939692794E-11  2.26915687891014E-01
 cg2d: Sum(rhs),rhsMax =   1.11457509888169E-11  2.23026747248535E-01
 cg2d: Sum(rhs),rhsMax =   1.14268594586520E-11  2.19548368829404E-01
 cg2d: Sum(rhs),rhsMax =   1.17575948976878E-11  2.14653703667226E-01
 cg2d: Sum(rhs),rhsMax =   1.21394005958564E-11  2.09854097257962E-01
 cg2d: Sum(rhs),rhsMax =   1.26028076863349E-11  2.04589703495768E-01
 cg2d: Sum(rhs),rhsMax =   1.30551125465672E-11  1.98991698987378E-01
 cg2d: Sum(rhs),rhsMax =   1.36112232596020E-11  1.92932123185764E-01
 cg2d: Sum(rhs),rhsMax =   1.41443523560270E-11  1.86640121954172E-01
 cg2d: Sum(rhs),rhsMax =   1.43209888392448E-11  1.85841835336523E-01
 cg2d: Sum(rhs),rhsMax =   1.44275702496088E-11  1.86020950162376E-01
 cg2d: Sum(rhs),rhsMax =   1.44964040771356E-11  1.86179797155518E-01
 cg2d: Sum(rhs),rhsMax =   1.46260781264118E-11  1.86317542787957E-01
 cg2d: Sum(rhs),rhsMax =   1.47358791835472E-11  1.86433589797179E-01
 cg2d: Sum(rhs),rhsMax =   1.47140077899621E-11  1.86527559473073E-01
 cg2d: Sum(rhs),rhsMax =   1.47384326965039E-11  1.86599265788100E-01
 cg2d: Sum(rhs),rhsMax =   1.47806211714396E-11  1.86648685521756E-01
 cg2d: Sum(rhs),rhsMax =   1.48624446083545E-11  1.86675928019851E-01
 cg2d: Sum(rhs),rhsMax =   1.47792889038101E-11  1.86681207264630E-01
 cg2d: Sum(rhs),rhsMax =   1.48814294220756E-11  1.86664817737463E-01
 cg2d: Sum(rhs),rhsMax =   1.49551482309107E-11  1.86627114382392E-01
 cg2d: Sum(rhs),rhsMax =   1.50273127275113E-11  1.86568496056209E-01
 cg2d: Sum(rhs),rhsMax =   1.51030299377908E-11  1.86489391342283E-01
 cg2d: Sum(rhs),rhsMax =   1.51968437833716E-11  1.86390245575135E-01
 cg2d: Sum(rhs),rhsMax =   1.52264867381291E-11  1.86271508322266E-01
 cg2d: Sum(rhs),rhsMax =   1.52580170720285E-11  1.86133621249239E-01
 cg2d: Sum(rhs),rhsMax =   1.53067558628095E-11  1.85977007038312E-01
 cg2d: Sum(rhs),rhsMax =   1.52811097109407E-11  1.85802060612439E-01
 cg2d: Sum(rhs),rhsMax =   1.52715617929289E-11  1.85609144153312E-01
 cg2d: Sum(rhs),rhsMax =   1.52474699532945E-11  1.85951243851643E-01
 cg2d: Sum(rhs),rhsMax =   1.51952894711371E-11  1.86904255627742E-01
 cg2d: Sum(rhs),rhsMax =   1.50816026334155E-11  1.87339031571730E-01
 cg2d: Sum(rhs),rhsMax =   1.50911505514273E-11  1.87584746288623E-01
 cg2d: Sum(rhs),rhsMax =   1.51250123536784E-11  1.86942209008282E-01
 cg2d: Sum(rhs),rhsMax =   1.51975099171864E-11  1.86247309998696E-01
 cg2d: Sum(rhs),rhsMax =   1.52916568296746E-11  1.84913258682496E-01
 cg2d: Sum(rhs),rhsMax =   1.53143053793769E-11  1.84722761089219E-01
 cg2d: Sum(rhs),rhsMax =   1.54554147258068E-11  1.83116557311097E-01
 cg2d: Sum(rhs),rhsMax =   1.55021551151435E-11  1.82762627045021E-01
 cg2d: Sum(rhs),rhsMax =   1.55495616382950E-11  1.82395358092666E-01
 cg2d: Sum(rhs),rhsMax =   1.55782053923303E-11  1.82015526878501E-01
 cg2d: Sum(rhs),rhsMax =   1.56312740529074E-11  1.81623961702170E-01
 cg2d: Sum(rhs),rhsMax =   1.56488155766965E-11  1.81221522530064E-01
 cg2d: Sum(rhs),rhsMax =   1.56585855393132E-11  1.80809077096097E-01
 cg2d: Sum(rhs),rhsMax =   1.56813451113180E-11  1.80387474895115E-01
 cg2d: Sum(rhs),rhsMax =   1.56457069522276E-11  1.79957521184966E-01
 cg2d: Sum(rhs),rhsMax =   1.56814561336205E-11  1.79519953587534E-01
 cg2d: Sum(rhs),rhsMax =   1.57167612258036E-11  1.79075424107851E-01
 cg2d: Sum(rhs),rhsMax =   1.56611390522698E-11  1.78624489189419E-01
 cg2d: Sum(rhs),rhsMax =   1.57928115029904E-11  1.78167609681684E-01
 cg2d: Sum(rhs),rhsMax =   1.58699720032018E-11  1.78155564749695E-01
 cg2d: Sum(rhs),rhsMax =   1.59171564817484E-11  1.78451045138834E-01
 cg2d: Sum(rhs),rhsMax =   1.59039448277554E-11  1.78712162970235E-01
 cg2d: Sum(rhs),rhsMax =   1.58356661117409E-11  1.78937971955241E-01
 cg2d: Sum(rhs),rhsMax =   1.58107971159893E-11  1.79127822145285E-01
 cg2d: Sum(rhs),rhsMax =   1.58258961491242E-11  1.79283240822800E-01
 cg2d: Sum(rhs),rhsMax =   1.58354440671360E-11  1.79405622695692E-01
 cg2d: Sum(rhs),rhsMax =   1.58085766699401E-11  1.79494169157856E-01
 cg2d: Sum(rhs),rhsMax =   1.57821533619540E-11  1.79547688745435E-01
 cg2d: Sum(rhs),rhsMax =   1.58062452015884E-11  1.79564741471373E-01
 cg2d: Sum(rhs),rhsMax =   1.58393298477222E-11  1.79544758346202E-01
 cg2d: Sum(rhs),rhsMax =   1.58492108326413E-11  1.79486931791369E-01
 cg2d: Sum(rhs),rhsMax =   1.58200119670937E-11  1.79390860786973E-01
 cg2d: Sum(rhs),rhsMax =   1.58604240851901E-11  1.79255846237234E-01
 cg2d: Sum(rhs),rhsMax =   1.58367763347655E-11  1.79080591198061E-01
 cg2d: Sum(rhs),rhsMax =   1.58458801635675E-11  1.78864388726556E-01
 cg2d: Sum(rhs),rhsMax =   1.58288937512907E-11  1.78606637687830E-01
 cg2d: Sum(rhs),rhsMax =   1.57691637525659E-11  1.78306556265592E-01
 cg2d: Sum(rhs),rhsMax =   1.57440727122093E-11  1.77963073937184E-01
 cg2d: Sum(rhs),rhsMax =   1.57119872667977E-11  1.77576389597585E-01
 cg2d: Sum(rhs),rhsMax =   1.56162860420750E-11  1.77147135595449E-01
 cg2d: Sum(rhs),rhsMax =   1.55624402253807E-11  1.76676077676564E-01
 cg2d: Sum(rhs),rhsMax =   1.55216950403769E-11  1.76164118540402E-01
 cg2d: Sum(rhs),rhsMax =   1.55067070295445E-11  1.75611053909946E-01
 cg2d: Sum(rhs),rhsMax =   1.54688484244048E-11  1.75016590278228E-01
 cg2d: Sum(rhs),rhsMax =   1.55166990367661E-11  1.74380238002798E-01
 cg2d: Sum(rhs),rhsMax =   1.55381263411414E-11  1.73702702888702E-01
 cg2d: Sum(rhs),rhsMax =   1.56098467485322E-11  1.72984420648187E-01
 cg2d: Sum(rhs),rhsMax =   1.56525903349802E-11  1.72225070932433E-01
 cg2d: Sum(rhs),rhsMax =   1.57259760769080E-11  1.71423711780005E-01
 cg2d: Sum(rhs),rhsMax =   1.57754920238062E-11  1.70579218557882E-01
 cg2d: Sum(rhs),rhsMax =   1.58473234534995E-11  1.69690665352950E-01
 cg2d: Sum(rhs),rhsMax =   1.58942858874411E-11  1.68757127733516E-01
 cg2d: Sum(rhs),rhsMax =   1.59542379307709E-11  1.67777632649125E-01
 cg2d: Sum(rhs),rhsMax =   1.60125246395637E-11  1.66751238960003E-01
 cg2d: Sum(rhs),rhsMax =   1.61034519052805E-11  1.65675500052377E-01
 cg2d: Sum(rhs),rhsMax =   1.61978208623736E-11  1.64549142281122E-01
 cg2d: Sum(rhs),rhsMax =   1.63189461943603E-11  1.63372483313516E-01
 cg2d: Sum(rhs),rhsMax =   1.63759006355235E-11  1.62145270994860E-01
 cg2d: Sum(rhs),rhsMax =   1.64342983666188E-11  1.60867272782809E-01
 cg2d: Sum(rhs),rhsMax =   1.65431002230321E-11  1.59538866511252E-01
 cg2d: Sum(rhs),rhsMax =   1.66022751102446E-11  1.58161344720451E-01
 cg2d: Sum(rhs),rhsMax =   1.65132352236697E-11  1.58474287886928E-01
 cg2d: Sum(rhs),rhsMax =   1.64965818783003E-11  1.58566712165421E-01
 cg2d: Sum(rhs),rhsMax =   1.64693814141970E-11  1.58238675036923E-01
 cg2d: Sum(rhs),rhsMax =   1.65033542387505E-11  1.57549112900125E-01
 cg2d: Sum(rhs),rhsMax =   1.65636393489876E-11  1.56454201330604E-01
 cg2d: Sum(rhs),rhsMax =   1.67263980443977E-11  1.54962376740319E-01
 cg2d: Sum(rhs),rhsMax =   1.69244618319908E-11  1.52930310046364E-01
 cg2d: Sum(rhs),rhsMax =   1.70651270892108E-11  1.51745539948563E-01
 cg2d: Sum(rhs),rhsMax =   1.67991176525106E-11  1.54021454209999E-01
 cg2d: Sum(rhs),rhsMax =   1.65745195346290E-11  1.56241093955041E-01
 cg2d: Sum(rhs),rhsMax =   1.63311586476311E-11  1.58405480200786E-01
 cg2d: Sum(rhs),rhsMax =   1.61406443766055E-11  1.60514556108220E-01
 cg2d: Sum(rhs),rhsMax =   1.59250390652232E-11  1.62567698072204E-01
 cg2d: Sum(rhs),rhsMax =   1.57199808725750E-11  1.64563000489683E-01
 cg2d: Sum(rhs),rhsMax =   1.55806478829845E-11  1.66500096488143E-01
 cg2d: Sum(rhs),rhsMax =   1.54150026077104E-11  1.68379156830810E-01
 cg2d: Sum(rhs),rhsMax =   1.52313717194374E-11  1.70199631187393E-01
 cg2d: Sum(rhs),rhsMax =   1.50671697340954E-11  1.71959680179668E-01
 cg2d: Sum(rhs),rhsMax =   1.49580348107747E-11  1.73659015697802E-01
 cg2d: Sum(rhs),rhsMax =   1.47684087181688E-11  1.75294346031905E-01
 cg2d: Sum(rhs),rhsMax =   1.45684575514338E-11  1.76864720608008E-01
 cg2d: Sum(rhs),rhsMax =   1.43619560688535E-11  1.78369334849671E-01
 cg2d: Sum(rhs),rhsMax =   1.42502676325762E-11  1.79808526530038E-01
 cg2d: Sum(rhs),rhsMax =   1.41859857194504E-11  1.81180536014372E-01
 cg2d: Sum(rhs),rhsMax =   1.41170408696212E-11  1.82484573187996E-01
 cg2d: Sum(rhs),rhsMax =   1.40516487334708E-11  1.83720526727446E-01
 cg2d: Sum(rhs),rhsMax =   1.39763756124012E-11  1.84889165837720E-01
 cg2d: Sum(rhs),rhsMax =   1.39136480115098E-11  1.85995966046780E-01
 cg2d: Sum(rhs),rhsMax =   1.38283828832186E-11  1.87032103265292E-01
 cg2d: Sum(rhs),rhsMax =   1.37574396319451E-11  1.88003495627021E-01
 cg2d: Sum(rhs),rhsMax =   1.38311584407802E-11  1.88913404682965E-01
 cg2d: Sum(rhs),rhsMax =   1.37839739622336E-11  1.89765338865155E-01
 cg2d: Sum(rhs),rhsMax =   1.36710642806293E-11  1.90559752635856E-01
 cg2d: Sum(rhs),rhsMax =   1.35869093753627E-11  1.91298611035726E-01
 cg2d: Sum(rhs),rhsMax =   1.35015332247690E-11  1.91982690159625E-01
 cg2d: Sum(rhs),rhsMax =   1.33959510151271E-11  1.92611849344759E-01
 cg2d: Sum(rhs),rhsMax =   1.32811539543809E-11  1.93186228149077E-01
 cg2d: Sum(rhs),rhsMax =   1.31816779713745E-11  1.93706456141697E-01
 cg2d: Sum(rhs),rhsMax =   1.30666588660233E-11  1.94173534530828E-01
 cg2d: Sum(rhs),rhsMax =   1.29573018980977E-11  1.94588472768734E-01
 cg2d: Sum(rhs),rhsMax =   1.28603794280480E-11  1.94947932507808E-01
 cg2d: Sum(rhs),rhsMax =   1.27942101357803E-11  1.95251634440286E-01
 cg2d: Sum(rhs),rhsMax =   1.27194921262230E-11  1.95499802238192E-01
 cg2d: Sum(rhs),rhsMax =   1.26540999900726E-11  1.95693877057542E-01
 cg2d: Sum(rhs),rhsMax =   1.26028076863349E-11  1.95835120114188E-01
 cg2d: Sum(rhs),rhsMax =   1.25423005314929E-11  1.95924807917455E-01
 cg2d: Sum(rhs),rhsMax =   1.24832366665828E-11  1.95963824645939E-01
 cg2d: Sum(rhs),rhsMax =   1.24420473923692E-11  1.95951528598013E-01
 cg2d: Sum(rhs),rhsMax =   1.24112942145871E-11  1.95888928572249E-01
 cg2d: Sum(rhs),rhsMax =   1.23729915202375E-11  1.95777399723294E-01
 cg2d: Sum(rhs),rhsMax =   1.23183685474260E-11  1.95618438966531E-01
 cg2d: Sum(rhs),rhsMax =   1.22755139386754E-11  1.95413574454911E-01
 cg2d: Sum(rhs),rhsMax =   1.22436505378687E-11  1.95163898085969E-01
 cg2d: Sum(rhs),rhsMax =   1.22094556687102E-11  1.94870829048604E-01
 cg2d: Sum(rhs),rhsMax =   1.21963550370197E-11  1.94535751609088E-01
 cg2d: Sum(rhs),rhsMax =   1.21710419520582E-11  1.94159994914636E-01
 cg2d: Sum(rhs),rhsMax =   1.21842536060512E-11  1.93744426747263E-01
 cg2d: Sum(rhs),rhsMax =   1.22005738845132E-11  1.93289588323655E-01
 cg2d: Sum(rhs),rhsMax =   1.22437615601712E-11  1.92793905072371E-01
 cg2d: Sum(rhs),rhsMax =   1.22578613925839E-11  1.92258712778553E-01
 cg2d: Sum(rhs),rhsMax =   1.22669652213858E-11  1.91681649066618E-01
 cg2d: Sum(rhs),rhsMax =   1.23034915588960E-11  1.91064661853900E-01
 cg2d: Sum(rhs),rhsMax =   1.23379084726594E-11  1.90410786950715E-01
 cg2d: Sum(rhs),rhsMax =   1.23588916878248E-11  1.89723196138082E-01
 cg2d: Sum(rhs),rhsMax =   1.24437127269061E-11  1.89005022783594E-01
 cg2d: Sum(rhs),rhsMax =   1.25125465544329E-11  1.88258357143591E-01
 cg2d: Sum(rhs),rhsMax =   1.26226806784757E-11  1.87476607776973E-01
 cg2d: Sum(rhs),rhsMax =   1.26810784095710E-11  1.86665717387925E-01
 cg2d: Sum(rhs),rhsMax =   1.27441390773697E-11  1.85822036963283E-01
 cg2d: Sum(rhs),rhsMax =   1.28426158596540E-11  1.84951809730411E-01
 cg2d: Sum(rhs),rhsMax =   1.29239952073590E-11  1.84056416218638E-01
 cg2d: Sum(rhs),rhsMax =   1.29982691277064E-11  1.83134991797645E-01
 cg2d: Sum(rhs),rhsMax =   1.30467858738825E-11  1.82186267641936E-01
 cg2d: Sum(rhs),rhsMax =   1.30705446466095E-11  1.81208165065064E-01
 cg2d: Sum(rhs),rhsMax =   1.31310518014516E-11  1.80201192035367E-01
 cg2d: Sum(rhs),rhsMax =   1.32015509635153E-11  1.79163323508152E-01
 cg2d: Sum(rhs),rhsMax =   1.32690525234125E-11  1.78100459872355E-01
 cg2d: Sum(rhs),rhsMax =   1.33348887487728E-11  1.77030210002545E-01
 cg2d: Sum(rhs),rhsMax =   1.34001698626207E-11  1.75902270487603E-01
 cg2d: Sum(rhs),rhsMax =   1.34746658275731E-11  1.74735509295189E-01
 cg2d: Sum(rhs),rhsMax =   1.35825795055666E-11  1.73544715868037E-01
 cg2d: Sum(rhs),rhsMax =   1.36715083698391E-11  1.72328755774320E-01
 cg2d: Sum(rhs),rhsMax =   1.37474476247235E-11  1.71083661863198E-01
 cg2d: Sum(rhs),rhsMax =   1.38281608386137E-11  1.69808068567975E-01
 cg2d: Sum(rhs),rhsMax =   1.39311895352989E-11  1.68503394799776E-01
 cg2d: Sum(rhs),rhsMax =   1.40109035484670E-11  1.67172680513148E-01
 cg2d: Sum(rhs),rhsMax =   1.40881750709809E-11  1.65818211256791E-01
 cg2d: Sum(rhs),rhsMax =   1.41963107935794E-11  1.64442187002074E-01
 cg2d: Sum(rhs),rhsMax =   1.42931222413267E-11  1.63045302601074E-01
 cg2d: Sum(rhs),rhsMax =   1.44004808078080E-11  1.61629296749853E-01
 cg2d: Sum(rhs),rhsMax =   1.44900758058952E-11  1.60193242466903E-01
 cg2d: Sum(rhs),rhsMax =   1.46113121601843E-11  1.58739326959913E-01
 cg2d: Sum(rhs),rhsMax =   1.47288847784921E-11  1.57263728660442E-01
 cg2d: Sum(rhs),rhsMax =   1.48480117090344E-11  1.55764242433694E-01
 cg2d: Sum(rhs),rhsMax =   1.49528167625590E-11  1.54242437293303E-01
 cg2d: Sum(rhs),rhsMax =   1.50973678003652E-11  1.52704501204937E-01
 cg2d: Sum(rhs),rhsMax =   1.52218238014257E-11  1.51151308705703E-01
 cg2d: Sum(rhs),rhsMax =   1.53802526270397E-11  1.49581506730833E-01
 cg2d: Sum(rhs),rhsMax =   1.54736223834107E-11  1.48395709472799E-01
 cg2d: Sum(rhs),rhsMax =   1.55663260059669E-11  1.47440687242887E-01
 cg2d: Sum(rhs),rhsMax =   1.55673252066890E-11  1.47419178670337E-01
 cg2d: Sum(rhs),rhsMax =   1.53350665499374E-11  1.49378931147475E-01
 cg2d: Sum(rhs),rhsMax =   1.51170187479011E-11  1.51232025663360E-01
 cg2d: Sum(rhs),rhsMax =   1.48989709458647E-11  1.53058013545269E-01
 cg2d: Sum(rhs),rhsMax =   1.46886947050007E-11  1.54813273121250E-01
 cg2d: Sum(rhs),rhsMax =   1.44452227957004E-11  1.56509126751492E-01
 cg2d: Sum(rhs),rhsMax =   1.42199585440039E-11  1.58136252038086E-01
 cg2d: Sum(rhs),rhsMax =   1.40162326189852E-11  1.59704802867147E-01
 cg2d: Sum(rhs),rhsMax =   1.38050681997015E-11  1.61133038065463E-01
 cg2d: Sum(rhs),rhsMax =   1.35881306206898E-11  1.62574129221744E-01
 cg2d: Sum(rhs),rhsMax =   1.33852928740907E-11  1.63958105159984E-01
 cg2d: Sum(rhs),rhsMax =   1.31893385102444E-11  1.65264278618865E-01
 cg2d: Sum(rhs),rhsMax =   1.29447563779195E-11  1.66503111363090E-01
 cg2d: Sum(rhs),rhsMax =   1.28047572545142E-11  1.67681406272371E-01
 cg2d: Sum(rhs),rhsMax =   1.26764154728676E-11  1.68793066765459E-01
 cg2d: Sum(rhs),rhsMax =   1.25340848811106E-11  1.69831856986351E-01
 cg2d: Sum(rhs),rhsMax =   1.23583365763125E-11  1.70802947508215E-01
 cg2d: Sum(rhs),rhsMax =   1.21883614312424E-11  1.71706677444935E-01
 cg2d: Sum(rhs),rhsMax =   1.19939613796305E-11  1.72541114220505E-01
 cg2d: Sum(rhs),rhsMax =   1.18340892640845E-11  1.73302998509967E-01
 cg2d: Sum(rhs),rhsMax =   1.16835430219453E-11  1.73994905207944E-01
 cg2d: Sum(rhs),rhsMax =   1.15593090654897E-11  1.74620653287781E-01
 cg2d: Sum(rhs),rhsMax =   1.14568354803168E-11  1.75181451113538E-01
 cg2d: Sum(rhs),rhsMax =   1.13310472116268E-11  1.75677294159743E-01
 cg2d: Sum(rhs),rhsMax =   1.11813891479073E-11  1.76094751820583E-01
 cg2d: Sum(rhs),rhsMax =   1.10279563259041E-11  1.76847893164445E-01
 cg2d: Sum(rhs),rhsMax =   1.08452136160508E-11  1.78054930119100E-01
 cg2d: Sum(rhs),rhsMax =   1.06430420032666E-11  1.79206309531669E-01
 cg2d: Sum(rhs),rhsMax =   1.04778408172024E-11  1.80301866551568E-01
 cg2d: Sum(rhs),rhsMax =   1.03212993707302E-11  1.81341907819410E-01
 cg2d: Sum(rhs),rhsMax =   1.02118313805022E-11  1.82327029775066E-01
 cg2d: Sum(rhs),rhsMax =   1.00452979268084E-11  1.83257035634581E-01
 cg2d: Sum(rhs),rhsMax =   9.95958870930735E-12  1.84133225428043E-01
 cg2d: Sum(rhs),rhsMax =   9.86788428747332E-12  1.84956901667147E-01
 cg2d: Sum(rhs),rhsMax =   9.81514869380362E-12  1.85730859206399E-01
 cg2d: Sum(rhs),rhsMax =   9.76341230085609E-12  1.86454416174658E-01
 cg2d: Sum(rhs),rhsMax =   9.72055769210556E-12  1.87127452513696E-01
 cg2d: Sum(rhs),rhsMax =   9.66760005383094E-12  1.87748762196661E-01
 cg2d: Sum(rhs),rhsMax =   9.60242996228544E-12  1.88317868347928E-01
 cg2d: Sum(rhs),rhsMax =   9.55968637583737E-12  1.88834584616805E-01
 cg2d: Sum(rhs),rhsMax =   9.51239087498834E-12  1.89299462683570E-01
 cg2d: Sum(rhs),rhsMax =   9.47530942596586E-12  1.89713403251729E-01
 cg2d: Sum(rhs),rhsMax =   9.44766487265269E-12  1.90076092425574E-01
 cg2d: Sum(rhs),rhsMax =   9.41524636033364E-12  1.90386095874516E-01
 cg2d: Sum(rhs),rhsMax =   9.39204269911897E-12  1.90642184756512E-01
 cg2d: Sum(rhs),rhsMax =   9.37316890770035E-12  1.90844844462901E-01
 cg2d: Sum(rhs),rhsMax =   9.35096444720784E-12  1.90994737668647E-01
 cg2d: Sum(rhs),rhsMax =   9.31221766364843E-12  1.91094251271156E-01
 cg2d: Sum(rhs),rhsMax =   9.32398602770945E-12  1.91145774725521E-01
 cg2d: Sum(rhs),rhsMax =   9.31776877877155E-12  1.91151052800988E-01
 cg2d: Sum(rhs),rhsMax =   9.32010024712326E-12  1.91109815635439E-01
 cg2d: Sum(rhs),rhsMax =   9.34530230978226E-12  1.91019194008412E-01
 cg2d: Sum(rhs),rhsMax =   9.34163857380099E-12  1.90875806653810E-01
 cg2d: Sum(rhs),rhsMax =   9.35795885226298E-12  1.90679368415066E-01
 cg2d: Sum(rhs),rhsMax =   9.35573840621373E-12  1.90431468251124E-01
 cg2d: Sum(rhs),rhsMax =   9.37194766237326E-12  1.90134449177691E-01
 cg2d: Sum(rhs),rhsMax =   9.41025035672283E-12  1.89790118753104E-01
 cg2d: Sum(rhs),rhsMax =   9.38027433505795E-12  1.89401033640077E-01
 cg2d: Sum(rhs),rhsMax =   9.38871203004510E-12  1.88969543513788E-01
 cg2d: Sum(rhs),rhsMax =   9.38971123076726E-12  1.88497173493729E-01
 cg2d: Sum(rhs),rhsMax =   9.40381106318000E-12  1.87982489448582E-01
 cg2d: Sum(rhs),rhsMax =   9.42002031933953E-12  1.87422847927289E-01
 cg2d: Sum(rhs),rhsMax =   9.38638056169339E-12  1.86818391491495E-01
 cg2d: Sum(rhs),rhsMax =   9.41624556105580E-12  1.86171563553853E-01
 cg2d: Sum(rhs),rhsMax =   9.41369204809916E-12  1.85484943025966E-01
 cg2d: Sum(rhs),rhsMax =   9.38893407465002E-12  1.84759638416048E-01
 cg2d: Sum(rhs),rhsMax =   9.36606348034275E-12  1.83992727792020E-01
 cg2d: Sum(rhs),rhsMax =   9.34241572991823E-12  1.83180794711819E-01
 cg2d: Sum(rhs),rhsMax =   9.31332788667305E-12  1.82322048273297E-01
 cg2d: Sum(rhs),rhsMax =   9.33408905723354E-12  1.81417966423961E-01
 cg2d: Sum(rhs),rhsMax =   9.43745082082614E-12  1.80471836641531E-01
 cg2d: Sum(rhs),rhsMax =   9.56468237944819E-12  1.79488027841236E-01
 cg2d: Sum(rhs),rhsMax =   9.68281010926830E-12  1.78470693117597E-01
 cg2d: Sum(rhs),rhsMax =   9.78284120378703E-12  1.77422801089421E-01
 cg2d: Sum(rhs),rhsMax =   9.88009674074419E-12  1.76347484708454E-01
 cg2d: Sum(rhs),rhsMax =   1.00139896375140E-11  1.75240887836814E-01
 cg2d: Sum(rhs),rhsMax =   1.01100239291441E-11  1.74107764753009E-01
 cg2d: Sum(rhs),rhsMax =   1.02101660459653E-11  1.72951663942216E-01
 cg2d: Sum(rhs),rhsMax =   1.03254071959213E-11  1.71774873703951E-01
 cg2d: Sum(rhs),rhsMax =   1.04541930667779E-11  1.70579367359901E-01
 cg2d: Sum(rhs),rhsMax =   1.01112451744712E-11  1.76954665740471E-01
 cg2d: Sum(rhs),rhsMax =   9.79061276495941E-12  1.83786485661238E-01
 cg2d: Sum(rhs),rhsMax =   9.52149470379027E-12  1.90186690240903E-01
 cg2d: Sum(rhs),rhsMax =   9.28901400243376E-12  1.95876470565433E-01
 cg2d: Sum(rhs),rhsMax =   9.05509001114524E-12  2.01423561791823E-01
 cg2d: Sum(rhs),rhsMax =   8.88755735672930E-12  2.06101874069744E-01
 cg2d: Sum(rhs),rhsMax =   8.78319639241454E-12  2.10241400154220E-01
 cg2d: Sum(rhs),rhsMax =   8.69393446123468E-12  2.13973998072491E-01
 cg2d: Sum(rhs),rhsMax =   8.62987459271380E-12  2.16843655150048E-01
 cg2d: Sum(rhs),rhsMax =   8.57902637818597E-12  2.19224056909071E-01
 cg2d: Sum(rhs),rhsMax =   8.51541059887495E-12  2.21001758215012E-01
 cg2d: Sum(rhs),rhsMax =   8.42537151157785E-12  2.22329636818651E-01
 cg2d: Sum(rhs),rhsMax =   8.36508640134070E-12  2.22953236577775E-01
 cg2d: Sum(rhs),rhsMax =   8.28626056659232E-12  2.23050102873855E-01
 cg2d: Sum(rhs),rhsMax =   8.23763279811374E-12  2.22564364489481E-01
 cg2d: Sum(rhs),rhsMax =   8.20843393256609E-12  2.21536696815734E-01
 cg2d: Sum(rhs),rhsMax =   8.22730772398472E-12  2.19954747259014E-01
 cg2d: Sum(rhs),rhsMax =   8.24218471251470E-12  2.17886455501604E-01
 cg2d: Sum(rhs),rhsMax =   8.28759283422187E-12  2.15331325018432E-01
 cg2d: Sum(rhs),rhsMax =   8.32656166238621E-12  2.12273902461892E-01
 cg2d: Sum(rhs),rhsMax =   8.50652881467795E-12  2.08702076652538E-01
 cg2d: Sum(rhs),rhsMax =   8.72935057572022E-12  2.04651215583443E-01
 cg2d: Sum(rhs),rhsMax =   9.01223540239471E-12  1.99895676521100E-01
 cg2d: Sum(rhs),rhsMax =   9.36406507889842E-12  1.94816985797537E-01
 cg2d: Sum(rhs),rhsMax =   9.72633085183361E-12  1.89395937173143E-01
 cg2d: Sum(rhs),rhsMax =   1.01143537989401E-11  1.84119745451904E-01
 cg2d: Sum(rhs),rhsMax =   1.05488950907784E-11  1.77783704746432E-01
 cg2d: Sum(rhs),rhsMax =   1.10486064741622E-11  1.71406710554690E-01
 cg2d: Sum(rhs),rhsMax =   1.14027676190176E-11  1.67255914820217E-01
 cg2d: Sum(rhs),rhsMax =   1.15044640480733E-11  1.67126176521563E-01
 cg2d: Sum(rhs),rhsMax =   1.15951692691851E-11  1.66957999956722E-01
 cg2d: Sum(rhs),rhsMax =   1.17447163106021E-11  1.66750408617222E-01
 cg2d: Sum(rhs),rhsMax =   1.18494103418243E-11  1.66502981309150E-01
 cg2d: Sum(rhs),rhsMax =   1.19297904888072E-11  1.66215890446947E-01
 cg2d: Sum(rhs),rhsMax =   1.20371490552884E-11  1.65889286177500E-01
 cg2d: Sum(rhs),rhsMax =   1.21448406886770E-11  1.65523164721078E-01
 cg2d: Sum(rhs),rhsMax =   1.21355148152702E-11  1.66789588973166E-01
(PID.TID 0000.0001)      cg2d_init_res =   1.13663156173469E-01
(PID.TID 0000.0001)      cg2d_iters(min,last) =      -1      29
(PID.TID 0000.0001)      cg2d_last_res =   8.19412838122368E-14
(PID.TID 0000.0001) // =======================================================
(PID.TID 0000.0001) // Begin MONITOR dynamic field statistics
(PID.TID 0000.0001) // =======================================================
(PID.TID 0000.0001) %MON time_tsnumber                =                  4320
(PID.TID 0000.0001) %MON time_secondsf                =   6.4800000000000E+04
(PID.TID 0000.0001) %MON dynstat_eta_max              =   1.7822237557079E-02
(PID.TID 0000.0001) %MON dynstat_eta_min              =  -2.0446649731557E-02
(PID.TID 0000.0001) %MON dynstat_eta_mean             =  -2.3472717275543E-15
(PID.TID 0000.0001) %MON dynstat_eta_sd               =   1.0815041048106E-02
(PID.TID 0000.0001) %MON dynstat_eta_del2             =   2.4820215701880E-04
(PID.TID 0000.0001) %MON dynstat_uvel_max             =   2.0178494895878E+00
(PID.TID 0000.0001) %MON dynstat_uvel_min             =  -7.0153591391990E-01
(PID.TID 0000.0001) %MON dynstat_uvel_mean            =   4.7938485606490E-04
(PID.TID 0000.0001) %MON dynstat_uvel_sd              =   1.9233161547605E-01
(PID.TID 0000.0001) %MON dynstat_uvel_del2            =   8.6836425590119E-04
(PID.TID 0000.0001) %MON dynstat_vvel_max             =   0.0000000000000E+00
(PID.TID 0000.0001) %MON dynstat_vvel_min             =   0.0000000000000E+00
(PID.TID 0000.0001) %MON dynstat_vvel_mean            =   0.0000000000000E+00
(PID.TID 0000.0001) %MON dynstat_vvel_sd              =   0.0000000000000E+00
(PID.TID 0000.0001) %MON dynstat_vvel_del2            =   0.0000000000000E+00
(PID.TID 0000.0001) %MON dynstat_wvel_max             =   4.3023276283911E-02
(PID.TID 0000.0001) %MON dynstat_wvel_min             =  -4.6443095176818E-02
(PID.TID 0000.0001) %MON dynstat_wvel_mean            =  -1.0748101128266E-19
(PID.TID 0000.0001) %MON dynstat_wvel_sd              =   4.9326399648547E-03
(PID.TID 0000.0001) %MON dynstat_wvel_del2            =   9.7876028147957E-05
(PID.TID 0000.0001) %MON dynstat_theta_max            =   1.5000000000383E+01
(PID.TID 0000.0001) %MON dynstat_theta_min            =   9.9999999999928E+00
(PID.TID 0000.0001) %MON dynstat_theta_mean           =   1.2728618497459E+01
(PID.TID 0000.0001) %MON dynstat_theta_sd             =   2.3419365914511E+00
(PID.TID 0000.0001) %MON dynstat_theta_del2           =   2.3747494433546E-03
(PID.TID 0000.0001) %MON dynstat_salt_max             =   3.5000000000000E+01
(PID.TID 0000.0001) %MON dynstat_salt_min             =   3.5000000000000E+01
(PID.TID 0000.0001) %MON dynstat_salt_mean            =   3.5000000000000E+01
(PID.TID 0000.0001) %MON dynstat_salt_sd              =   1.0658141036402E-13
(PID.TID 0000.0001) %MON dynstat_salt_del2            =   0.0000000000000E+00
(PID.TID 0000.0001) %MON dynstat_sst_max              =   1.5000000000003E+01
(PID.TID 0000.0001) %MON dynstat_sst_min              =   1.4964540892377E+01
(PID.TID 0000.0001) %MON dynstat_sst_mean             =   1.4998498185395E+01
(PID.TID 0000.0001) %MON dynstat_sst_sd               =   4.9498844314648E-03
(PID.TID 0000.0001) %MON dynstat_sst_del2             =   1.5257317442574E-04
(PID.TID 0000.0001) %MON dynstat_sss_max              =   3.5000000000000E+01
(PID.TID 0000.0001) %MON dynstat_sss_min              =   3.5000000000000E+01
(PID.TID 0000.0001) %MON dynstat_sss_mean             =   3.5000000000000E+01
(PID.TID 0000.0001) %MON dynstat_sss_sd               =   4.2632564145606E-14
(PID.TID 0000.0001) %MON dynstat_sss_del2             =   0.0000000000000E+00
(PID.TID 0000.0001) %MON forcing_qnet_max             =   0.0000000000000E+00
(PID.TID 0000.0001) %MON forcing_qnet_min             =   0.0000000000000E+00
(PID.TID 0000.0001) %MON forcing_qnet_mean            =   0.0000000000000E+00
(PID.TID 0000.0001) %MON forcing_qnet_sd              =   0.0000000000000E+00
(PID.TID 0000.0001) %MON forcing_qnet_del2            =   0.0000000000000E+00
(PID.TID 0000.0001) %MON forcing_qsw_max              =   0.0000000000000E+00
(PID.TID 0000.0001) %MON forcing_qsw_min              =   0.0000000000000E+00
(PID.TID 0000.0001) %MON forcing_qsw_mean             =   0.0000000000000E+00
(PID.TID 0000.0001) %MON forcing_qsw_sd               =   0.0000000000000E+00
(PID.TID 0000.0001) %MON forcing_qsw_del2             =   0.0000000000000E+00
(PID.TID 0000.0001) %MON forcing_empmr_max            =   0.0000000000000E+00
(PID.TID 0000.0001) %MON forcing_empmr_min            =   0.0000000000000E+00
(PID.TID 0000.0001) %MON forcing_empmr_mean           =   0.0000000000000E+00
(PID.TID 0000.0001) %MON forcing_empmr_sd             =   0.0000000000000E+00
(PID.TID 0000.0001) %MON forcing_empmr_del2           =   0.0000000000000E+00
(PID.TID 0000.0001) %MON forcing_fu_max               =   0.0000000000000E+00
(PID.TID 0000.0001) %MON forcing_fu_min               =   0.0000000000000E+00
(PID.TID 0000.0001) %MON forcing_fu_mean              =   0.0000000000000E+00
(PID.TID 0000.0001) %MON forcing_fu_sd                =   0.0000000000000E+00
(PID.TID 0000.0001) %MON forcing_fu_del2              =   0.0000000000000E+00
(PID.TID 0000.0001) %MON forcing_fv_max               =   0.0000000000000E+00
(PID.TID 0000.0001) %MON forcing_fv_min               =   0.0000000000000E+00
(PID.TID 0000.0001) %MON forcing_fv_mean              =   0.0000000000000E+00
(PID.TID 0000.0001) %MON forcing_fv_sd                =   0.0000000000000E+00
(PID.TID 0000.0001) %MON forcing_fv_del2              =   0.0000000000000E+00
(PID.TID 0000.0001) %MON advcfl_uvel_max              =   9.1929688417891E-02
(PID.TID 0000.0001) %MON advcfl_vvel_max              =   0.0000000000000E+00
(PID.TID 0000.0001) %MON advcfl_wvel_max              =   3.5508166347244E-01
(PID.TID 0000.0001) %MON advcfl_W_hf_max              =   3.5932971567125E-01
(PID.TID 0000.0001) %MON pe_b_mean                    =   3.2834446572259E-06
(PID.TID 0000.0001) %MON ke_max                       =   1.0285397281348E+00
(PID.TID 0000.0001) %MON ke_mean                      =   1.8700577091195E-02
(PID.TID 0000.0001) %MON ke_vol                       =   8.5338127039305E+10
(PID.TID 0000.0001) %MON vort_r_min                   =   0.0000000000000E+00
(PID.TID 0000.0001) %MON vort_r_max                   =   0.0000000000000E+00
(PID.TID 0000.0001) %MON vort_a_mean                  =   0.0000000000000E+00
(PID.TID 0000.0001) %MON vort_a_sd                    =   0.0000000000000E+00
(PID.TID 0000.0001) %MON vort_p_mean                  =   0.0000000000000E+00
(PID.TID 0000.0001) %MON vort_p_sd                    =   0.0000000000000E+00
(PID.TID 0000.0001) %MON surfExpan_theta_mean         =  -2.0218655079448E-09
(PID.TID 0000.0001) %MON surfExpan_salt_mean          =  -8.4422137108789E-18
(PID.TID 0000.0001) // =======================================================
(PID.TID 0000.0001) // End MONITOR dynamic field statistics
(PID.TID 0000.0001) // =======================================================
(PID.TID 0000.0001) // =======================================================
(PID.TID 0000.0001) // Begin OBCS MONITOR field statistics
(PID.TID 0000.0001) // =======================================================
(PID.TID 0000.0001) %MON obc_E_uVel_max               =   0.0000000000000E+00
(PID.TID 0000.0001) %MON obc_E_uVel_min               =   0.0000000000000E+00
(PID.TID 0000.0001) %MON obc_E_uVel_mean              =   0.0000000000000E+00
(PID.TID 0000.0001) %MON obc_E_uVel_sd                =   0.0000000000000E+00
(PID.TID 0000.0001) %MON obc_E_uVel_Int               =   0.0000000000000E+00
(PID.TID 0000.0001) %MON obc_W_uVel_max               =   0.0000000000000E+00
(PID.TID 0000.0001) %MON obc_W_uVel_min               =   0.0000000000000E+00
(PID.TID 0000.0001) %MON obc_W_uVel_mean              =   0.0000000000000E+00
(PID.TID 0000.0001) %MON obc_W_uVel_sd                =   0.0000000000000E+00
(PID.TID 0000.0001) %MON obc_W_uVel_Int               =   0.0000000000000E+00
(PID.TID 0000.0001) // =======================================================
(PID.TID 0000.0001) // End OBCS MONITOR field statistics
(PID.TID 0000.0001) // =======================================================
(PID.TID 0000.0001) %CHECKPOINT      4320 0000004320
 cg2d: Sum(rhs),rhsMax =   1.16906484493029E-11  1.74151929633376E-01
 cg2d: Sum(rhs),rhsMax =   1.12833076215679E-11  1.81093026740434E-01
 cg2d: Sum(rhs),rhsMax =   1.09748876653271E-11  1.87592348586037E-01
 cg2d: Sum(rhs),rhsMax =   1.06697983781601E-11  1.93626545040129E-01
 cg2d: Sum(rhs),rhsMax =   1.04160013947308E-11  1.99296879488171E-01
 cg2d: Sum(rhs),rhsMax =   1.01869623847506E-11  2.04483562362544E-01
 cg2d: Sum(rhs),rhsMax =   1.00156549720509E-11  2.09106418857444E-01
 cg2d: Sum(rhs),rhsMax =   9.87498971483092E-12  2.13190165013988E-01
 cg2d: Sum(rhs),rhsMax =   9.73132685544442E-12  2.16792767334090E-01
 cg2d: Sum(rhs),rhsMax =   9.65627577897976E-12  2.19911715322917E-01
 cg2d: Sum(rhs),rhsMax =   9.57400825285504E-12  2.22414169706508E-01
 cg2d: Sum(rhs),rhsMax =   9.57101065068855E-12  2.24596179695282E-01
 cg2d: Sum(rhs),rhsMax =   9.55180379236253E-12  2.25960727830462E-01
 cg2d: Sum(rhs),rhsMax =   9.56246193339894E-12  2.26850294110377E-01
 cg2d: Sum(rhs),rhsMax =   9.59254897736628E-12  2.27189518175715E-01
 cg2d: Sum(rhs),rhsMax =   9.64428537031381E-12  2.26978992446814E-01
 cg2d: Sum(rhs),rhsMax =   9.72821823097547E-12  2.26301038484284E-01
 cg2d: Sum(rhs),rhsMax =   9.80682202111893E-12  2.25038313950636E-01
 cg2d: Sum(rhs),rhsMax =   9.84490267086358E-12  2.23298939055279E-01
 cg2d: Sum(rhs),rhsMax =   9.84012871185769E-12  2.21085457984748E-01
 cg2d: Sum(rhs),rhsMax =   9.90973969550168E-12  2.18412549908072E-01
 cg2d: Sum(rhs),rhsMax =   1.00597308261285E-11  2.15310151233857E-01
 cg2d: Sum(rhs),rhsMax =   1.02050590200520E-11  2.11971793359570E-01
 cg2d: Sum(rhs),rhsMax =   1.03882458191151E-11  2.07923576626054E-01
 cg2d: Sum(rhs),rhsMax =   1.06158415391633E-11  2.03555429056311E-01
 cg2d: Sum(rhs),rhsMax =   1.08236752893731E-11  1.98906409790377E-01
 cg2d: Sum(rhs),rhsMax =   1.10900177929807E-11  1.93888328546934E-01
 cg2d: Sum(rhs),rhsMax =   1.13353770814228E-11  1.88555112255048E-01
 cg2d: Sum(rhs),rhsMax =   1.16711085240695E-11  1.82884424360835E-01
 cg2d: Sum(rhs),rhsMax =   1.20146115278885E-11  1.77297777959801E-01
 cg2d: Sum(rhs),rhsMax =   1.19790843911005E-11  1.77623776356700E-01
 cg2d: Sum(rhs),rhsMax =   1.19797505249153E-11  1.77939842725040E-01
 cg2d: Sum(rhs),rhsMax =   1.19709797630208E-11  1.78246371966448E-01
 cg2d: Sum(rhs),rhsMax =   1.19890763983221E-11  1.78543835796775E-01
 cg2d: Sum(rhs),rhsMax =   1.20334853193071E-11  1.78832751252358E-01
 cg2d: Sum(rhs),rhsMax =   1.21112009310309E-11  1.79113642770613E-01
 cg2d: Sum(rhs),rhsMax =   1.21220811166722E-11  1.79387000932020E-01
 cg2d: Sum(rhs),rhsMax =   1.21369581052022E-11  1.79653241288420E-01
 cg2d: Sum(rhs),rhsMax =   1.21676002606819E-11  1.79912666740762E-01
 cg2d: Sum(rhs),rhsMax =   1.21604948333243E-11  1.80165436655222E-01
 cg2d: Sum(rhs),rhsMax =   1.21602727887193E-11  1.80411545333784E-01
 cg2d: Sum(rhs),rhsMax =   1.21382903728318E-11  1.80650811631524E-01
 cg2d: Sum(rhs),rhsMax =   1.21356258375727E-11  1.80882880520042E-01
 cg2d: Sum(rhs),rhsMax =   1.21520571383371E-11  1.81107236344950E-01
 cg2d: Sum(rhs),rhsMax =   1.21720411527804E-11  1.81323226538390E-01
 cg2d: Sum(rhs),rhsMax =   1.22750698494656E-11  1.81530093740643E-01
 cg2d: Sum(rhs),rhsMax =   1.22692966897375E-11  1.81727013743840E-01
 cg2d: Sum(rhs),rhsMax =   1.22497567645041E-11  1.81913136434125E-01
 cg2d: Sum(rhs),rhsMax =   1.23216992164998E-11  1.82087626960393E-01
 cg2d: Sum(rhs),rhsMax =   1.24242838239752E-11  1.82249704633021E-01
 cg2d: Sum(rhs),rhsMax =   1.24713572802193E-11  1.82398677460159E-01
 cg2d: Sum(rhs),rhsMax =   1.24822374658606E-11  1.82533970663900E-01
 cg2d: Sum(rhs),rhsMax =   1.24771304399474E-11  1.82655147911038E-01
 cg2d: Sum(rhs),rhsMax =   1.24926735622921E-11  1.82761924314811E-01
 cg2d: Sum(rhs),rhsMax =   1.24740218154784E-11  1.82854170537525E-01
 cg2d: Sum(rhs),rhsMax =   1.24693588787750E-11  1.82931907610741E-01
 cg2d: Sum(rhs),rhsMax =   1.24993349004399E-11  1.82995292464567E-01
 cg2d: Sum(rhs),rhsMax =   1.25452981336593E-11  1.83044594675953E-01
 cg2d: Sum(rhs),rhsMax =   1.25937038575330E-11  1.83080165614863E-01
 cg2d: Sum(rhs),rhsMax =   1.25471855128012E-11  1.83102401929966E-01
 cg2d: Sum(rhs),rhsMax =   1.24968924097857E-11  1.83111706054675E-01
 cg2d: Sum(rhs),rhsMax =   1.24296128944934E-11  1.83108446974885E-01
 cg2d: Sum(rhs),rhsMax =   1.24140697721487E-11  1.83092924726139E-01
 cg2d: Sum(rhs),rhsMax =   1.22990506667975E-11  1.83065341866190E-01
 cg2d: Sum(rhs),rhsMax =   1.22986065775876E-11  1.83025784462114E-01
 cg2d: Sum(rhs),rhsMax =   1.22353238651840E-11  1.82974213999521E-01
 cg2d: Sum(rhs),rhsMax =   1.21953558362975E-11  1.82910470220769E-01
 cg2d: Sum(rhs),rhsMax =   1.21289644994249E-11  1.82834283456038E-01
 cg2d: Sum(rhs),rhsMax =   1.20993215446674E-11  1.82745293781556E-01
 cg2d: Sum(rhs),rhsMax =   1.20427001704115E-11  1.82643073555504E-01
 cg2d: Sum(rhs),rhsMax =   1.19770859896562E-11  1.82527149703179E-01
 cg2d: Sum(rhs),rhsMax =   1.19464438341765E-11  1.82397022596597E-01
 cg2d: Sum(rhs),rhsMax =   1.18998144671423E-11  1.82252179420017E-01
 cg2d: Sum(rhs),rhsMax =   1.18713927577119E-11  1.82092101335282E-01
 cg2d: Sum(rhs),rhsMax =   1.18000054172285E-11  1.81916265281713E-01
 cg2d: Sum(rhs),rhsMax =   1.17759135775941E-11  1.81724142561281E-01
 cg2d: Sum(rhs),rhsMax =   1.17434950652751E-11  1.81515197205169E-01
 cg2d: Sum(rhs),rhsMax =   1.17046372594132E-11  1.81288887321380E-01
 cg2d: Sum(rhs),rhsMax =   1.16457954391080E-11  1.81044672145987E-01
 cg2d: Sum(rhs),rhsMax =   1.16262555138746E-11  1.80782026465067E-01
 cg2d: Sum(rhs),rhsMax =   1.15569775971380E-11  1.80500462660790E-01
 cg2d: Sum(rhs),rhsMax =   1.15132348099678E-11  1.80199559151705E-01
 cg2d: Sum(rhs),rhsMax =   1.14823706098832E-11  1.79878992735427E-01
 cg2d: Sum(rhs),rhsMax =   1.14461773392804E-11  1.79538571532527E-01
 cg2d: Sum(rhs),rhsMax =   1.14566134357119E-11  1.79178264996606E-01
 cg2d: Sum(rhs),rhsMax =   1.14108722470974E-11  1.78798227794462E-01
 cg2d: Sum(rhs),rhsMax =   1.14031006859250E-11  1.78398815155299E-01
 cg2d: Sum(rhs),rhsMax =   1.13946629909378E-11  1.77980588346964E-01
 cg2d: Sum(rhs),rhsMax =   1.14263043471396E-11  1.77659028299540E-01
 cg2d: Sum(rhs),rhsMax =   1.14863674127719E-11  1.77607258892609E-01
 cg2d: Sum(rhs),rhsMax =   1.14966924869009E-11  1.77525921148802E-01
 cg2d: Sum(rhs),rhsMax =   1.15500942143854E-11  1.77415248124585E-01
 cg2d: Sum(rhs),rhsMax =   1.15365494934849E-11  1.77275041541097E-01
 cg2d: Sum(rhs),rhsMax =   1.15348841589480E-11  1.77104531884962E-01
 cg2d: Sum(rhs),rhsMax =   1.15473186568238E-11  1.76903186933772E-01
 cg2d: Sum(rhs),rhsMax =   1.15510934151075E-11  1.76671102969598E-01
 cg2d: Sum(rhs),rhsMax =   1.16568976693543E-11  1.76408610424747E-01
 cg2d: Sum(rhs),rhsMax =   1.16248122239426E-11  1.76116606880340E-01
 cg2d: Sum(rhs),rhsMax =   1.15505383035952E-11  1.75796356259752E-01
 cg2d: Sum(rhs),rhsMax =   1.14789289185069E-11  1.75448726150609E-01
 cg2d: Sum(rhs),rhsMax =   1.14335207967997E-11  1.75074064500313E-01
 cg2d: Sum(rhs),rhsMax =   1.13391518397066E-11  1.74671969363615E-01
 cg2d: Sum(rhs),rhsMax =   1.13203890705904E-11  1.74241614790016E-01
 cg2d: Sum(rhs),rhsMax =   1.12734266366488E-11  1.73780983492038E-01
 cg2d: Sum(rhs),rhsMax =   1.12961862086536E-11  1.73288411262933E-01
 cg2d: Sum(rhs),rhsMax =   1.12774234395374E-11  1.72762131994605E-01
 cg2d: Sum(rhs),rhsMax =   1.12793108186793E-11  1.72201024956734E-01
 cg2d: Sum(rhs),rhsMax =   1.12457820833356E-11  1.71603919101351E-01
 cg2d: Sum(rhs),rhsMax =   1.12245768235653E-11  1.70970122422130E-01
 cg2d: Sum(rhs),rhsMax =   1.12143627717387E-11  1.70299776176775E-01
 cg2d: Sum(rhs),rhsMax =   1.11884945752649E-11  1.69593170322919E-01
 cg2d: Sum(rhs),rhsMax =   1.11819442594197E-11  1.68850674396189E-01
 cg2d: Sum(rhs),rhsMax =   1.11916031997339E-11  1.68073263519438E-01
 cg2d: Sum(rhs),rhsMax =   1.11841647054689E-11  1.67262209041854E-01
 cg2d: Sum(rhs),rhsMax =   1.12178044631150E-11  1.66418771191376E-01
 cg2d: Sum(rhs),rhsMax =   1.12021503184678E-11  1.65543787713056E-01
 cg2d: Sum(rhs),rhsMax =   1.12306830502007E-11  1.64638098396150E-01
 cg2d: Sum(rhs),rhsMax =   1.12678755215256E-11  1.63701685398371E-01
 cg2d: Sum(rhs),rhsMax =   1.12971854093757E-11  1.62734233020455E-01
 cg2d: Sum(rhs),rhsMax =   1.12809761532162E-11  1.61734982857540E-01
 cg2d: Sum(rhs),rhsMax =   1.12957421194437E-11  1.60705884718721E-01
 cg2d: Sum(rhs),rhsMax =   1.13165032900042E-11  1.59643442806479E-01
 cg2d: Sum(rhs),rhsMax =   1.13303810778120E-11  1.58546481313015E-01
 cg2d: Sum(rhs),rhsMax =   1.13811182700374E-11  1.57728690871644E-01
 cg2d: Sum(rhs),rhsMax =   1.13493658915331E-11  1.57059874673642E-01
 cg2d: Sum(rhs),rhsMax =   1.13669074153222E-11  1.56386119181430E-01
 cg2d: Sum(rhs),rhsMax =   1.13558051850760E-11  1.55708367076301E-01
 cg2d: Sum(rhs),rhsMax =   1.13495879361381E-11  1.55027537040651E-01
 cg2d: Sum(rhs),rhsMax =   1.10915721052152E-11  1.57634380074948E-01
 cg2d: Sum(rhs),rhsMax =   1.08340003635021E-11  1.60809150693026E-01
 cg2d: Sum(rhs),rhsMax =   1.05849773390787E-11  1.63634472325534E-01
 cg2d: Sum(rhs),rhsMax =   1.03874686629979E-11  1.66118257145060E-01
 cg2d: Sum(rhs),rhsMax =   1.01961772358550E-11  1.68262683138672E-01
 cg2d: Sum(rhs),rhsMax =   1.00909280931205E-11  1.70040159431575E-01
 cg2d: Sum(rhs),rhsMax =   9.90363346886625E-12  1.71392143211164E-01
 cg2d: Sum(rhs),rhsMax =   9.79094583186679E-12  1.72359582302252E-01
 cg2d: Sum(rhs),rhsMax =   9.69269109418747E-12  1.72911616614572E-01
 cg2d: Sum(rhs),rhsMax =   9.57711687732399E-12  1.73115014891670E-01
 cg2d: Sum(rhs),rhsMax =   9.46287492809006E-12  1.72911277469352E-01
 cg2d: Sum(rhs),rhsMax =   9.37394606381758E-12  1.72390454921944E-01
 cg2d: Sum(rhs),rhsMax =   9.26236864984276E-12  1.71522406165546E-01
 cg2d: Sum(rhs),rhsMax =   9.27813381679243E-12  1.70303907160697E-01
 cg2d: Sum(rhs),rhsMax =   9.34219368531330E-12  1.68894750093196E-01
 cg2d: Sum(rhs),rhsMax =   9.42779188051190E-12  1.66934807366123E-01
 cg2d: Sum(rhs),rhsMax =   9.50040046632239E-12  1.64673367196448E-01
 cg2d: Sum(rhs),rhsMax =   9.62085966449422E-12  1.62101974593974E-01
 cg2d: Sum(rhs),rhsMax =   9.71711600072922E-12  1.59207362471149E-01
 cg2d: Sum(rhs),rhsMax =   9.87476767022599E-12  1.56003029268616E-01
 cg2d: Sum(rhs),rhsMax =   9.96569493594279E-12  1.53883177034520E-01
 cg2d: Sum(rhs),rhsMax =   9.81492664919870E-12  1.55258066071177E-01
 cg2d: Sum(rhs),rhsMax =   9.65316715451081E-12  1.56593707383060E-01
 cg2d: Sum(rhs),rhsMax =   9.54114565132613E-12  1.57889753383636E-01
 cg2d: Sum(rhs),rhsMax =   9.42179667617893E-12  1.59145832343093E-01
 cg2d: Sum(rhs),rhsMax =   9.30888699457455E-12  1.60361468495702E-01
 cg2d: Sum(rhs),rhsMax =   9.17776965536632E-12  1.61535305969107E-01
 cg2d: Sum(rhs),rhsMax =   9.07529607019342E-12  1.62666923922291E-01
 cg2d: Sum(rhs),rhsMax =   8.95739038497823E-12  1.63755228557587E-01
 cg2d: Sum(rhs),rhsMax =   8.83393358463991E-12  1.64800167784273E-01
 cg2d: Sum(rhs),rhsMax =   8.69793126412333E-12  1.65801951023996E-01
 cg2d: Sum(rhs),rhsMax =   8.63520366323201E-12  1.66759845357385E-01
 cg2d: Sum(rhs),rhsMax =   8.52995452049754E-12  1.67674672927962E-01
 cg2d: Sum(rhs),rhsMax =   8.46023251455108E-12  1.68546462288748E-01
 cg2d: Sum(rhs),rhsMax =   8.36852809271704E-12  1.69376013206655E-01
 cg2d: Sum(rhs),rhsMax =   8.27715673779039E-12  1.70163289908983E-01
 cg2d: Sum(rhs),rhsMax =   8.15580936119886E-12  1.70909334841597E-01
 cg2d: Sum(rhs),rhsMax =   8.03057620402114E-12  1.72999548543590E-01
 cg2d: Sum(rhs),rhsMax =   7.80187026094836E-12  1.77203088592240E-01
 cg2d: Sum(rhs),rhsMax =   7.55007167896338E-12  1.80962037997936E-01
 cg2d: Sum(rhs),rhsMax =   7.37832017705387E-12  1.84460099178166E-01
 cg2d: Sum(rhs),rhsMax =   7.23043847017379E-12  1.87462734300775E-01
 cg2d: Sum(rhs),rhsMax =   7.08921810144147E-12  1.90148789118777E-01
 cg2d: Sum(rhs),rhsMax =   6.94122537225894E-12  1.92443660152577E-01
 cg2d: Sum(rhs),rhsMax =   6.84052814392544E-12  1.94336614163999E-01
 cg2d: Sum(rhs),rhsMax =   6.78868072867544E-12  1.95853018369666E-01
 cg2d: Sum(rhs),rhsMax =   6.73261446593187E-12  1.96981675544526E-01
 cg2d: Sum(rhs),rhsMax =   6.67210731108980E-12  1.97997426678177E-01
 cg2d: Sum(rhs),rhsMax =   6.61593002604377E-12  1.98342293673104E-01
 cg2d: Sum(rhs),rhsMax =   6.55631104962140E-12  1.98321851254299E-01
 cg2d: Sum(rhs),rhsMax =   6.52222720276541E-12  1.97928866199444E-01
 cg2d: Sum(rhs),rhsMax =   6.48259224078629E-12  1.97151947718508E-01
 cg2d: Sum(rhs),rhsMax =   6.44162501117762E-12  1.95978146113085E-01
 cg2d: Sum(rhs),rhsMax =   6.45816733424454E-12  1.94480371761502E-01
 cg2d: Sum(rhs),rhsMax =   6.47160103284250E-12  1.92614267280772E-01
 cg2d: Sum(rhs),rhsMax =   6.51079190561177E-12  1.90427772253766E-01
 cg2d: Sum(rhs),rhsMax =   6.58473275905180E-12  1.87941618209074E-01
 cg2d: Sum(rhs),rhsMax =   6.70130617663744E-12  1.85178810079343E-01
 cg2d: Sum(rhs),rhsMax =   6.87772061525038E-12  1.82133523505515E-01
 cg2d: Sum(rhs),rhsMax =   7.01105840050786E-12  1.78835881332909E-01
 cg2d: Sum(rhs),rhsMax =   6.92601531682158E-12  1.78278044556475E-01
 cg2d: Sum(rhs),rhsMax =   6.81588119277876E-12  1.78204680626369E-01
 cg2d: Sum(rhs),rhsMax =   6.71140920616153E-12  1.78103151519187E-01
 cg2d: Sum(rhs),rhsMax =   6.61326549078467E-12  1.77973765435365E-01
 cg2d: Sum(rhs),rhsMax =   6.52011777901862E-12  1.77816874554920E-01
 cg2d: Sum(rhs),rhsMax =   6.41842134996295E-12  1.77633110163545E-01
 cg2d: Sum(rhs),rhsMax =   6.38489261461928E-12  1.77422965721346E-01
 cg2d: Sum(rhs),rhsMax =   6.26931839775580E-12  1.77186350833624E-01
 cg2d: Sum(rhs),rhsMax =   6.24855722719531E-12  1.76924508557897E-01
 cg2d: Sum(rhs),rhsMax =   6.23623375162197E-12  1.76638088211597E-01
 cg2d: Sum(rhs),rhsMax =   6.20126172634627E-12  1.76327135022683E-01
 cg2d: Sum(rhs),rhsMax =   6.12010442324618E-12  1.75992271400636E-01
 cg2d: Sum(rhs),rhsMax =   6.02162764096192E-12  1.75634931985501E-01
 cg2d: Sum(rhs),rhsMax =   5.87740967006312E-12  1.79113557845026E-01
 cg2d: Sum(rhs),rhsMax =   5.62316859742396E-12  1.85314947858604E-01
 cg2d: Sum(rhs),rhsMax =   5.36204414203212E-12  1.91321872905185E-01
 cg2d: Sum(rhs),rhsMax =   5.20061771425162E-12  1.97024449342616E-01
 cg2d: Sum(rhs),rhsMax =   5.12012654496630E-12  2.02442639882853E-01
 cg2d: Sum(rhs),rhsMax =   4.99944530218954E-12  2.07530289458523E-01
 cg2d: Sum(rhs),rhsMax =   4.84001727585337E-12  2.12274016946251E-01
 cg2d: Sum(rhs),rhsMax =   4.80271378222596E-12  2.16746779810533E-01
 cg2d: Sum(rhs),rhsMax =   4.76890749112613E-12  2.20888659076490E-01
 cg2d: Sum(rhs),rhsMax =   4.74165151587158E-12  2.24683663945323E-01
 cg2d: Sum(rhs),rhsMax =   4.74448258458438E-12  2.28159326384510E-01
 cg2d: Sum(rhs),rhsMax =   4.73499017772383E-12  2.31289595196480E-01
 cg2d: Sum(rhs),rhsMax =   4.68186600599552E-12  2.34049653284848E-01
 cg2d: Sum(rhs),rhsMax =   4.60625981801854E-12  2.36442035148844E-01
 cg2d: Sum(rhs),rhsMax =   4.55679938227149E-12  2.38465653418982E-01
 cg2d: Sum(rhs),rhsMax =   4.60659288492593E-12  2.40092981217621E-01
 cg2d: Sum(rhs),rhsMax =   4.50184334255255E-12  2.41399340487056E-01
 cg2d: Sum(rhs),rhsMax =   4.44377867836465E-12  2.42357044556507E-01
 cg2d: Sum(rhs),rhsMax =   4.42357261931647E-12  2.43010030400886E-01
 cg2d: Sum(rhs),rhsMax =   4.45421477479613E-12  2.43319545257200E-01
 cg2d: Sum(rhs),rhsMax =   4.45754544387000E-12  2.43225164729351E-01
 cg2d: Sum(rhs),rhsMax =   4.49851267347867E-12  2.42693287416189E-01
 cg2d: Sum(rhs),rhsMax =   4.50811610264168E-12  2.42150803803363E-01
 cg2d: Sum(rhs),rhsMax =   4.52099468972733E-12  2.40787806543514E-01
 cg2d: Sum(rhs),rhsMax =   4.53531656674500E-12  2.39341540281423E-01
 cg2d: Sum(rhs),rhsMax =   4.56157334127738E-12  2.37666864409369E-01
 cg2d: Sum(rhs),rhsMax =   4.59376980899151E-12  2.35751845373964E-01
 cg2d: Sum(rhs),rhsMax =   4.65277816275034E-12  2.33554881164111E-01
 cg2d: Sum(rhs),rhsMax =   4.73476813311891E-12  2.31062445270954E-01
 cg2d: Sum(rhs),rhsMax =   4.81292783405252E-12  2.28293059529536E-01
 cg2d: Sum(rhs),rhsMax =   4.91129359403430E-12  2.25239282208990E-01
 cg2d: Sum(rhs),rhsMax =   5.00699481875699E-12  2.21634712132128E-01
 cg2d: Sum(rhs),rhsMax =   5.11657383128750E-12  2.18361496912924E-01
 cg2d: Sum(rhs),rhsMax =   5.24197352191891E-12  2.14195565944839E-01
 cg2d: Sum(rhs),rhsMax =   5.38391553561723E-12  2.09983596822996E-01
 cg2d: Sum(rhs),rhsMax =   5.52469181513970E-12  2.05593979611454E-01
 cg2d: Sum(rhs),rhsMax =   5.68511904219804E-12  2.00963728911077E-01
 cg2d: Sum(rhs),rhsMax =   5.89694959529652E-12  1.96131887329532E-01
 cg2d: Sum(rhs),rhsMax =   6.10989037141962E-12  1.91137086259255E-01
 cg2d: Sum(rhs),rhsMax =   6.30440144533395E-12  1.85972776042614E-01
 cg2d: Sum(rhs),rhsMax =   6.55520082659677E-12  1.80715996796658E-01
 cg2d: Sum(rhs),rhsMax =   6.58550991516904E-12  1.81253256324768E-01
 cg2d: Sum(rhs),rhsMax =   6.33726404686286E-12  1.89461886177671E-01
 cg2d: Sum(rhs),rhsMax =   6.14053252689928E-12  1.97468004428018E-01
 cg2d: Sum(rhs),rhsMax =   5.95157256810808E-12  2.05244095880002E-01
 cg2d: Sum(rhs),rhsMax =   5.82589532172051E-12  2.12728517517416E-01
 cg2d: Sum(rhs),rhsMax =   5.70543612354868E-12  2.19971938879007E-01
 cg2d: Sum(rhs),rhsMax =   5.59152724122214E-12  2.26899750879881E-01
 cg2d: Sum(rhs),rhsMax =   5.49799095139747E-12  2.33523733733313E-01
 cg2d: Sum(rhs),rhsMax =   5.40367750545556E-12  2.39826389351249E-01
 cg2d: Sum(rhs),rhsMax =   5.33273425418201E-12  2.45759565474921E-01
 cg2d: Sum(rhs),rhsMax =   5.26673149536805E-12  2.51347793242621E-01
 cg2d: Sum(rhs),rhsMax =   5.18568521457041E-12  2.56602836211758E-01
 cg2d: Sum(rhs),rhsMax =   5.13894482523369E-12  2.61462167538800E-01
 cg2d: Sum(rhs),rhsMax =   5.03208585911352E-12  2.65914787661334E-01
 cg2d: Sum(rhs),rhsMax =   4.92111906780224E-12  2.69963249529918E-01
 cg2d: Sum(rhs),rhsMax =   4.82319739703030E-12  2.73537333109368E-01
 cg2d: Sum(rhs),rhsMax =   4.69801975100381E-12  2.76649421100217E-01
 cg2d: Sum(rhs),rhsMax =   4.60881333097518E-12  2.79294625532371E-01
 cg2d: Sum(rhs),rhsMax =   4.51594317496529E-12  2.81464234303980E-01
 cg2d: Sum(rhs),rhsMax =   4.46453984892514E-12  2.83046221866697E-01
 cg2d: Sum(rhs),rhsMax =   4.47752945831326E-12  2.84140930616330E-01
 cg2d: Sum(rhs),rhsMax =   4.49978942995699E-12  2.84877770856079E-01
 cg2d: Sum(rhs),rhsMax =   4.54031257035581E-12  2.85051754751491E-01
 cg2d: Sum(rhs),rhsMax =   4.59643434425061E-12  2.84694952947727E-01
 cg2d: Sum(rhs),rhsMax =   4.65744109945376E-12  2.83814725003739E-01
 cg2d: Sum(rhs),rhsMax =   4.71617189745643E-12  2.82409771465762E-01
 cg2d: Sum(rhs),rhsMax =   4.77184958214139E-12  2.80438666112820E-01
 cg2d: Sum(rhs),rhsMax =   4.87215823241627E-12  2.77908970433933E-01
 cg2d: Sum(rhs),rhsMax =   4.95298246860898E-12  2.74951486202877E-01
 cg2d: Sum(rhs),rhsMax =   5.06944486389216E-12  2.71642694518234E-01
 cg2d: Sum(rhs),rhsMax =   5.19673193366543E-12  2.67706020993771E-01
 cg2d: Sum(rhs),rhsMax =   5.33684207937313E-12  2.63301854215367E-01
 cg2d: Sum(rhs),rhsMax =   5.47684120277836E-12  2.58388582762282E-01
 cg2d: Sum(rhs),rhsMax =   5.62638824419537E-12  2.53049714763949E-01
 cg2d: Sum(rhs),rhsMax =   5.79852832416350E-12  2.47232280233888E-01
 cg2d: Sum(rhs),rhsMax =   6.01035887726198E-12  2.41004957190487E-01
 cg2d: Sum(rhs),rhsMax =   6.20992146593835E-12  2.34462601217289E-01
 cg2d: Sum(rhs),rhsMax =   6.41542374779647E-12  2.27528679995541E-01
 cg2d: Sum(rhs),rhsMax =   6.69253541474291E-12  2.20220830288304E-01
 cg2d: Sum(rhs),rhsMax =   6.98907598462029E-12  2.12559907086599E-01
 cg2d: Sum(rhs),rhsMax =   7.32647276180387E-12  2.04552874469196E-01
 cg2d: Sum(rhs),rhsMax =   7.70772334846015E-12  1.96243605199648E-01
 cg2d: Sum(rhs),rhsMax =   7.70605801392321E-12  1.97690044401193E-01
 cg2d: Sum(rhs),rhsMax =   7.46780415283865E-12  2.05398650714171E-01
 cg2d: Sum(rhs),rhsMax =   7.25364213138846E-12  2.12835619228102E-01
 cg2d: Sum(rhs),rhsMax =   6.99262869829909E-12  2.19921554392155E-01
 cg2d: Sum(rhs),rhsMax =   6.83419987268508E-12  2.26732558422138E-01
 cg2d: Sum(rhs),rhsMax =   6.69952981979804E-12  2.32987226000894E-01
 cg2d: Sum(rhs),rhsMax =   6.62492283254323E-12  2.39166791524597E-01
 cg2d: Sum(rhs),rhsMax =   6.55764331725095E-12  2.44811101638954E-01
 cg2d: Sum(rhs),rhsMax =   6.51556586461766E-12  2.49903971206578E-01
 cg2d: Sum(rhs),rhsMax =   6.47371045658929E-12  2.54509186762818E-01
 cg2d: Sum(rhs),rhsMax =   6.44229114499240E-12  2.58562053867277E-01
 cg2d: Sum(rhs),rhsMax =   6.43146647050230E-12  2.62155038968364E-01
 cg2d: Sum(rhs),rhsMax =   6.41964259529004E-12  2.65181838055851E-01
 cg2d: Sum(rhs),rhsMax =   6.41525721434277E-12  2.67632615890707E-01
 cg2d: Sum(rhs),rhsMax =   6.41392494671322E-12  2.69476074728262E-01
 cg2d: Sum(rhs),rhsMax =   6.46388498282136E-12  2.70758943398132E-01
 cg2d: Sum(rhs),rhsMax =   6.51323439626594E-12  2.71434268142475E-01
 cg2d: Sum(rhs),rhsMax =   6.58351151372472E-12  2.71503116603358E-01
 cg2d: Sum(rhs),rhsMax =   6.64135413330769E-12  2.71043380697119E-01
 cg2d: Sum(rhs),rhsMax =   6.72040201266100E-12  2.70000923620092E-01
 cg2d: Sum(rhs),rhsMax =   6.80183687151725E-12  2.68437123103663E-01
 cg2d: Sum(rhs),rhsMax =   6.90225654409460E-12  2.67121850937628E-01
 cg2d: Sum(rhs),rhsMax =   7.01072533360048E-12  2.65092048427998E-01
 cg2d: Sum(rhs),rhsMax =   7.15083547930817E-12  2.62432006523039E-01
 cg2d: Sum(rhs),rhsMax =   7.32991445318021E-12  2.58943790190891E-01
 cg2d: Sum(rhs),rhsMax =   7.51920747887880E-12  2.55050708870903E-01
 cg2d: Sum(rhs),rhsMax =   7.75490782700672E-12  2.50146669264795E-01
 cg2d: Sum(rhs),rhsMax =   8.00048916005380E-12  2.45113095094341E-01
 cg2d: Sum(rhs),rhsMax =   8.24218471251470E-12  2.39481795191280E-01
 cg2d: Sum(rhs),rhsMax =   8.57380832997023E-12  2.32702211681406E-01
 cg2d: Sum(rhs),rhsMax =   8.90720830426517E-12  2.25809408084703E-01
 cg2d: Sum(rhs),rhsMax =   9.26603238582402E-12  2.18478157608499E-01
 cg2d: Sum(rhs),rhsMax =   9.64617274945567E-12  2.11677805724027E-01
 cg2d: Sum(rhs),rhsMax =   1.01190167356435E-11  2.03418410275556E-01
 cg2d: Sum(rhs),rhsMax =   1.05569997188582E-11  1.96138685062412E-01
 cg2d: Sum(rhs),rhsMax =   1.09349196364406E-11  1.88371670255156E-01
 cg2d: Sum(rhs),rhsMax =   1.15983889159565E-11  1.77026281148098E-01
 cg2d: Sum(rhs),rhsMax =   1.17449383552071E-11  1.73810028494503E-01
 cg2d: Sum(rhs),rhsMax =   1.13662412815074E-11  1.79038198829793E-01
 cg2d: Sum(rhs),rhsMax =   1.09722231300680E-11  1.84408072996079E-01
 cg2d: Sum(rhs),rhsMax =   1.07180930797313E-11  1.89363148441804E-01
 cg2d: Sum(rhs),rhsMax =   1.05122577309658E-11  1.93943274066513E-01
 cg2d: Sum(rhs),rhsMax =   1.03324016009765E-11  1.98145664727599E-01
 cg2d: Sum(rhs),rhsMax =   1.01494368465183E-11  2.01985537174295E-01
 cg2d: Sum(rhs),rhsMax =   1.00087715892982E-11  2.05457651276004E-01
 cg2d: Sum(rhs),rhsMax =   9.85478365578274E-12  2.08571724479628E-01
 cg2d: Sum(rhs),rhsMax =   9.79971659376133E-12  2.11288124283412E-01
 cg2d: Sum(rhs),rhsMax =   9.72011360289571E-12  2.13432149076321E-01
 cg2d: Sum(rhs),rhsMax =   9.68058966321905E-12  2.15103846913627E-01
 cg2d: Sum(rhs),rhsMax =   9.68802815748404E-12  2.16341899037959E-01
 cg2d: Sum(rhs),rhsMax =   9.72499858420406E-12  2.17009092884867E-01
 cg2d: Sum(rhs),rhsMax =   9.80471259737214E-12  2.17382236695902E-01
 cg2d: Sum(rhs),rhsMax =   9.87854242850972E-12  2.17096813885266E-01
 cg2d: Sum(rhs),rhsMax =   1.00044417195022E-11  2.16513631840264E-01
 cg2d: Sum(rhs),rhsMax =   1.01142427766376E-11  2.15605032388259E-01
 cg2d: Sum(rhs),rhsMax =   1.03053121591756E-11  2.13527688724270E-01
 cg2d: Sum(rhs),rhsMax =   1.04618536056478E-11  2.11075158279802E-01
 cg2d: Sum(rhs),rhsMax =   1.06454844939208E-11  2.08782495759518E-01
 cg2d: Sum(rhs),rhsMax =   1.08464348613779E-11  2.05565928224050E-01
 cg2d: Sum(rhs),rhsMax =   1.10889075699561E-11  2.02261841387381E-01
 cg2d: Sum(rhs),rhsMax =   1.12887477143886E-11  1.98851766977191E-01
 cg2d: Sum(rhs),rhsMax =   1.16198162203318E-11  1.94062612499119E-01
 cg2d: Sum(rhs),rhsMax =   1.18665077764035E-11  1.90064501328554E-01
 cg2d: Sum(rhs),rhsMax =   1.24759091946203E-11  1.81270445480865E-01
 cg2d: Sum(rhs),rhsMax =   1.27643451364179E-11  1.77656021637875E-01
 cg2d: Sum(rhs),rhsMax =   1.31172850359462E-11  1.73393521554384E-01
 cg2d: Sum(rhs),rhsMax =   1.34722233369189E-11  1.69285186800327E-01
 cg2d: Sum(rhs),rhsMax =   1.35019773139788E-11  1.69270193209770E-01
 cg2d: Sum(rhs),rhsMax =   1.35356170716250E-11  1.69225888746658E-01
 cg2d: Sum(rhs),rhsMax =   1.36118893934167E-11  1.69151779996738E-01
 cg2d: Sum(rhs),rhsMax =   1.36564093367042E-11  1.69047268388326E-01
 cg2d: Sum(rhs),rhsMax =   1.37018174584114E-11  1.68911943714132E-01
 cg2d: Sum(rhs),rhsMax =   1.37754252449440E-11  1.68745391455359E-01
 cg2d: Sum(rhs),rhsMax =   1.38810074545859E-11  1.68546736552377E-01
 cg2d: Sum(rhs),rhsMax =   1.39206424165650E-11  1.68315552390540E-01
 cg2d: Sum(rhs),rhsMax =   1.39823708167341E-11  1.68051333088452E-01
 cg2d: Sum(rhs),rhsMax =   1.40609746068776E-11  1.67753498496562E-01
 cg2d: Sum(rhs),rhsMax =   1.41120448660104E-11  1.67421242520414E-01
 cg2d: Sum(rhs),rhsMax =   1.41889833216169E-11  1.67053430219882E-01
 cg2d: Sum(rhs),rhsMax =   1.42987843787523E-11  1.66648922180487E-01
 cg2d: Sum(rhs),rhsMax =   1.43871581315125E-11  1.66419101893634E-01
 cg2d: Sum(rhs),rhsMax =   1.44159129078503E-11  1.66805216935585E-01
 cg2d: Sum(rhs),rhsMax =   1.44388945244600E-11  1.67187430205852E-01
 cg2d: Sum(rhs),rhsMax =   1.44795286871613E-11  1.67565840766746E-01
 cg2d: Sum(rhs),rhsMax =   1.45061740397523E-11  1.67940440620914E-01
 cg2d: Sum(rhs),rhsMax =   1.45644607485451E-11  1.68311135095825E-01
 cg2d: Sum(rhs),rhsMax =   1.46025413982898E-11  1.68677771580622E-01
 cg2d: Sum(rhs),rhsMax =   1.46402889811270E-11  1.69040172064348E-01
 cg2d: Sum(rhs),rhsMax =   1.47286627338872E-11  1.69398164817463E-01
 cg2d: Sum(rhs),rhsMax =   1.47775125469707E-11  1.69751611089696E-01
 cg2d: Sum(rhs),rhsMax =   1.48747680839278E-11  1.70100423726999E-01
 cg2d: Sum(rhs),rhsMax =   1.48645540321013E-11  1.70444575936333E-01
 cg2d: Sum(rhs),rhsMax =   1.49205092725424E-11  1.70784099825469E-01
 cg2d: Sum(rhs),rhsMax =   1.49948942151923E-11  1.71119075611277E-01
 cg2d: Sum(rhs),rhsMax =   1.50388590469674E-11  1.71449613372474E-01
 cg2d: Sum(rhs),rhsMax =   1.50848222801869E-11  1.71775829842031E-01
 cg2d: Sum(rhs),rhsMax =   1.51583190444171E-11  1.72097822984688E-01
 cg2d: Sum(rhs),rhsMax =   1.52003964970504E-11  1.72415647038934E-01
 cg2d: Sum(rhs),rhsMax =   1.51851864416130E-11  1.72729290404797E-01
 cg2d: Sum(rhs),rhsMax =   1.51962886718593E-11  1.73038658314698E-01
 cg2d: Sum(rhs),rhsMax =   1.52222678906355E-11  1.73343561698686E-01
 cg2d: Sum(rhs),rhsMax =   1.52149404186730E-11  1.73643713079225E-01
 cg2d: Sum(rhs),rhsMax =   1.51918477797608E-11  1.73938729710746E-01
 cg2d: Sum(rhs),rhsMax =   1.51478829479856E-11  1.74228143515233E-01
 cg2d: Sum(rhs),rhsMax =   1.51315626695236E-11  1.74511416675567E-01
 cg2d: Sum(rhs),rhsMax =   1.50541801247073E-11  1.74787961089046E-01
 cg2d: Sum(rhs),rhsMax =   1.50346401994739E-11  1.75057159350766E-01
 cg2d: Sum(rhs),rhsMax =   1.50515155894482E-11  1.75318384651598E-01
 cg2d: Sum(rhs),rhsMax =   1.50360834894059E-11  1.75571017050855E-01
 cg2d: Sum(rhs),rhsMax =   1.50088830253026E-11  1.75814454082816E-01
 cg2d: Sum(rhs),rhsMax =   1.49718015762801E-11  1.76048114559112E-01
 cg2d: Sum(rhs),rhsMax =   1.49569245877501E-11  1.76271435617286E-01
 cg2d: Sum(rhs),rhsMax =   1.50306433965852E-11  1.76483864335543E-01
 cg2d: Sum(rhs),rhsMax =   1.49680268179964E-11  1.76684846334852E-01
 cg2d: Sum(rhs),rhsMax =   1.49296131013443E-11  1.76873814484549E-01
 cg2d: Sum(rhs),rhsMax =   1.49160683804439E-11  1.77050180952781E-01
 cg2d: Sum(rhs),rhsMax =   1.49131818005799E-11  1.77213335354998E-01
 cg2d: Sum(rhs),rhsMax =   1.49316115027887E-11  1.77362650746477E-01
 cg2d: Sum(rhs),rhsMax =   1.48885348494332E-11  1.77497497891569E-01
 cg2d: Sum(rhs),rhsMax =   1.48827616897051E-11  1.77617266903012E-01
 cg2d: Sum(rhs),rhsMax =   1.48874246264086E-11  1.77721394255396E-01
 cg2d: Sum(rhs),rhsMax =   1.48681067457801E-11  1.77809392539403E-01
 cg2d: Sum(rhs),rhsMax =   1.48450141068679E-11  1.77880880214409E-01
 cg2d: Sum(rhs),rhsMax =   1.48441259284482E-11  1.77935608973688E-01
 cg2d: Sum(rhs),rhsMax =   1.48330236982019E-11  1.77973486981359E-01
 cg2d: Sum(rhs),rhsMax =   1.47705181419155E-11  1.77994596938733E-01
 cg2d: Sum(rhs),rhsMax =   1.47388767857137E-11  1.77999208470283E-01
 cg2d: Sum(rhs),rhsMax =   1.47482026591206E-11  1.77987784547389E-01
 cg2d: Sum(rhs),rhsMax =   1.47113432547030E-11  1.77960981572792E-01
 cg2d: Sum(rhs),rhsMax =   1.46815892776431E-11  1.77919642434383E-01
 cg2d: Sum(rhs),rhsMax =   1.46682666013476E-11  1.77864781494754E-01
 cg2d: Sum(rhs),rhsMax =   1.46508360998610E-11  1.77797560331644E-01
 cg2d: Sum(rhs),rhsMax =   1.46180845206345E-11  1.77719253261872E-01
 cg2d: Sum(rhs),rhsMax =   1.45524703398792E-11  1.77631202350360E-01
 cg2d: Sum(rhs),rhsMax =   1.45163880915788E-11  1.77534762685713E-01
 cg2d: Sum(rhs),rhsMax =   1.44646516986313E-11  1.77431240036640E-01
 cg2d: Sum(rhs),rhsMax =   1.44768641519022E-11  1.77321824349507E-01
 cg2d: Sum(rhs),rhsMax =   1.45241596527512E-11  1.77207523640684E-01
 cg2d: Sum(rhs),rhsMax =   1.45305989462940E-11  1.77089103445186E-01
 cg2d: Sum(rhs),rhsMax =   1.45311540578064E-11  1.76967036956286E-01
 cg2d: Sum(rhs),rhsMax =   1.44582124050885E-11  1.76841470293867E-01
 cg2d: Sum(rhs),rhsMax =   1.44106948596345E-11  1.76712206056288E-01
 cg2d: Sum(rhs),rhsMax =   1.44035894322769E-11  1.76578706626084E-01
 cg2d: Sum(rhs),rhsMax =   1.43907108451913E-11  1.76440116861736E-01
 cg2d: Sum(rhs),rhsMax =   1.43749456782416E-11  1.76295304079075E-01
 cg2d: Sum(rhs),rhsMax =   1.43360878723797E-11  1.76142911836439E-01
 cg2d: Sum(rhs),rhsMax =   1.43471901026260E-11  1.75981423145229E-01
 cg2d: Sum(rhs),rhsMax =   1.43312028910714E-11  1.75809228395657E-01
 cg2d: Sum(rhs),rhsMax =   1.43027811816410E-11  1.75624693484044E-01
 cg2d: Sum(rhs),rhsMax =   1.42725831153712E-11  1.75426224243422E-01
 cg2d: Sum(rhs),rhsMax =   1.42738043606983E-11  1.75212324157517E-01
 cg2d: Sum(rhs),rhsMax =   1.42175160533498E-11  1.74981643313805E-01
 cg2d: Sum(rhs),rhsMax =   1.42006406633755E-11  1.74733017481072E-01
 cg2d: Sum(rhs),rhsMax =   1.41728850877598E-11  1.74465496980745E-01
 cg2d: Sum(rhs),rhsMax =   1.41190392710655E-11  1.74178365610287E-01
 cg2d: Sum(rhs),rhsMax =   1.40825129335553E-11  1.73871150267796E-01
 cg2d: Sum(rhs),rhsMax =   1.40509825996560E-11  1.73543622149223E-01
 cg2d: Sum(rhs),rhsMax =   1.40337741427743E-11  1.73195790490129E-01
 cg2d: Sum(rhs),rhsMax =   1.40089051470227E-11  1.72827889852409E-01
 cg2d: Sum(rhs),rhsMax =   1.39481759475757E-11  1.72913302196348E-01
 cg2d: Sum(rhs),rhsMax =   1.39109834762507E-11  1.73041602935970E-01
 cg2d: Sum(rhs),rhsMax =   1.38834499452400E-11  1.73150236661924E-01
 cg2d: Sum(rhs),rhsMax =   1.38472566746373E-11  1.73238715367695E-01
 cg2d: Sum(rhs),rhsMax =   1.38365985336009E-11  1.73306543513924E-01
 cg2d: Sum(rhs),rhsMax =   1.38089539802877E-11  1.73353240156545E-01
 cg2d: Sum(rhs),rhsMax =   1.37909683672888E-11  1.73378305659650E-01
 cg2d: Sum(rhs),rhsMax =   1.37989619730661E-11  1.73381560796037E-01
 cg2d: Sum(rhs),rhsMax =   1.38439260055634E-11  1.73362829357439E-01
 cg2d: Sum(rhs),rhsMax =   1.39002143129119E-11  1.73321629687600E-01
 cg2d: Sum(rhs),rhsMax =   1.40014666527577E-11  1.73256989190029E-01
 cg2d: Sum(rhs),rhsMax =   1.40832900896726E-11  1.73167958772271E-01
 cg2d: Sum(rhs),rhsMax =   1.41673339726367E-11  1.73053837981326E-01
 cg2d: Sum(rhs),rhsMax =   1.41873179870800E-11  1.72913843159289E-01
 cg2d: Sum(rhs),rhsMax =   1.41984202173262E-11  1.72747322867142E-01
 cg2d: Sum(rhs),rhsMax =   1.41910927453637E-11  1.72553869410793E-01
 cg2d: Sum(rhs),rhsMax =   1.41745504222968E-11  1.72333320534912E-01
 cg2d: Sum(rhs),rhsMax =   1.41665568165195E-11  1.72085451645903E-01
 cg2d: Sum(rhs),rhsMax =   1.41433531553048E-11  1.71809516889925E-01
 cg2d: Sum(rhs),rhsMax =   1.41545664078535E-11  1.71503984341797E-01
 cg2d: Sum(rhs),rhsMax =   1.41586742330446E-11  1.71167296443473E-01
 cg2d: Sum(rhs),rhsMax =   1.41736622438771E-11  1.70797756579842E-01
 cg2d: Sum(rhs),rhsMax =   1.41474609804959E-11  1.70394773233169E-01
 cg2d: Sum(rhs),rhsMax =   1.41544553855510E-11  1.69959078310529E-01
 cg2d: Sum(rhs),rhsMax =   1.41379130624841E-11  1.69492530694240E-01
 cg2d: Sum(rhs),rhsMax =   1.41591183222545E-11  1.68997259055232E-01
 cg2d: Sum(rhs),rhsMax =   1.41596734337668E-11  1.68474436995482E-01
 cg2d: Sum(rhs),rhsMax =   1.41787692697903E-11  1.67923875186964E-01
 cg2d: Sum(rhs),rhsMax =   1.41915368345735E-11  1.67344491380297E-01
 cg2d: Sum(rhs),rhsMax =   1.41894274108267E-11  1.66734976820156E-01
 cg2d: Sum(rhs),rhsMax =   1.41958667043696E-11  1.66094183170027E-01
 cg2d: Sum(rhs),rhsMax =   1.42016398640976E-11  1.65421245771551E-01
 cg2d: Sum(rhs),rhsMax =   1.42204026332138E-11  1.64715832437428E-01
 cg2d: Sum(rhs),rhsMax =   1.42452716289654E-11  1.63977831741650E-01
 cg2d: Sum(rhs),rhsMax =   1.42638123534766E-11  1.63207367845837E-01
 cg2d: Sum(rhs),rhsMax =   1.42729161822785E-11  1.62404849338683E-01
 cg2d: Sum(rhs),rhsMax =   1.43424161436201E-11  1.61570825871580E-01
(PID.TID 0000.0001)      cg2d_init_res =   1.33817262875741E-01
(PID.TID 0000.0001)      cg2d_iters(min,last) =      -1      29
(PID.TID 0000.0001)      cg2d_last_res =   6.74548417673940E-14
(PID.TID 0000.0001) // =======================================================
(PID.TID 0000.0001) // Begin MONITOR dynamic field statistics
(PID.TID 0000.0001) // =======================================================
(PID.TID 0000.0001) %MON time_tsnumber                =                  4800
(PID.TID 0000.0001) %MON time_secondsf                =   7.2000000000000E+04
(PID.TID 0000.0001) %MON dynstat_eta_max              =   1.6689848214560E-02
(PID.TID 0000.0001) %MON dynstat_eta_min              =  -1.2527583119429E-02
(PID.TID 0000.0001) %MON dynstat_eta_mean             =  -2.6936342463205E-15
(PID.TID 0000.0001) %MON dynstat_eta_sd               =   9.3585950436061E-03
(PID.TID 0000.0001) %MON dynstat_eta_del2             =   2.2396003108449E-04
(PID.TID 0000.0001) %MON dynstat_uvel_max             =   1.4629562841818E+00
(PID.TID 0000.0001) %MON dynstat_uvel_min             =  -6.8117647943199E-01
(PID.TID 0000.0001) %MON dynstat_uvel_mean            =  -5.2309326478030E-04
(PID.TID 0000.0001) %MON dynstat_uvel_sd              =   2.0711952978627E-01
(PID.TID 0000.0001) %MON dynstat_uvel_del2            =   8.2124292185176E-04
(PID.TID 0000.0001) %MON dynstat_vvel_max             =   0.0000000000000E+00
(PID.TID 0000.0001) %MON dynstat_vvel_min             =   0.0000000000000E+00
(PID.TID 0000.0001) %MON dynstat_vvel_mean            =   0.0000000000000E+00
(PID.TID 0000.0001) %MON dynstat_vvel_sd              =   0.0000000000000E+00
(PID.TID 0000.0001) %MON dynstat_vvel_del2            =   0.0000000000000E+00
(PID.TID 0000.0001) %MON dynstat_wvel_max             =   3.8311421602318E-02
(PID.TID 0000.0001) %MON dynstat_wvel_min             =  -3.2991538136245E-02
(PID.TID 0000.0001) %MON dynstat_wvel_mean            =   2.6039778485725E-19
(PID.TID 0000.0001) %MON dynstat_wvel_sd              =   4.4052110252455E-03
(PID.TID 0000.0001) %MON dynstat_wvel_del2            =   8.9339634162148E-05
(PID.TID 0000.0001) %MON dynstat_theta_max            =   1.5000000000367E+01
(PID.TID 0000.0001) %MON dynstat_theta_min            =   9.9999999999933E+00
(PID.TID 0000.0001) %MON dynstat_theta_mean           =   1.2728607154706E+01
(PID.TID 0000.0001) %MON dynstat_theta_sd             =   2.3262371582497E+00
(PID.TID 0000.0001) %MON dynstat_theta_del2           =   2.3073384060900E-03
(PID.TID 0000.0001) %MON dynstat_salt_max             =   3.5000000000000E+01
(PID.TID 0000.0001) %MON dynstat_salt_min             =   3.5000000000000E+01
(PID.TID 0000.0001) %MON dynstat_salt_mean            =   3.5000000000000E+01
(PID.TID 0000.0001) %MON dynstat_salt_sd              =   1.0658141036402E-13
(PID.TID 0000.0001) %MON dynstat_salt_del2            =   0.0000000000000E+00
(PID.TID 0000.0001) %MON dynstat_sst_max              =   1.5000000000002E+01
(PID.TID 0000.0001) %MON dynstat_sst_min              =   1.4967912830638E+01
(PID.TID 0000.0001) %MON dynstat_sst_mean             =   1.4998050567012E+01
(PID.TID 0000.0001) %MON dynstat_sst_sd               =   5.4536924189288E-03
(PID.TID 0000.0001) %MON dynstat_sst_del2             =   1.2909348985935E-04
(PID.TID 0000.0001) %MON dynstat_sss_max              =   3.5000000000000E+01
(PID.TID 0000.0001) %MON dynstat_sss_min              =   3.5000000000000E+01
(PID.TID 0000.0001) %MON dynstat_sss_mean             =   3.5000000000000E+01
(PID.TID 0000.0001) %MON dynstat_sss_sd               =   4.2632564145606E-14
(PID.TID 0000.0001) %MON dynstat_sss_del2             =   0.0000000000000E+00
(PID.TID 0000.0001) %MON forcing_qnet_max             =   0.0000000000000E+00
(PID.TID 0000.0001) %MON forcing_qnet_min             =   0.0000000000000E+00
(PID.TID 0000.0001) %MON forcing_qnet_mean            =   0.0000000000000E+00
(PID.TID 0000.0001) %MON forcing_qnet_sd              =   0.0000000000000E+00
(PID.TID 0000.0001) %MON forcing_qnet_del2            =   0.0000000000000E+00
(PID.TID 0000.0001) %MON forcing_qsw_max              =   0.0000000000000E+00
(PID.TID 0000.0001) %MON forcing_qsw_min              =   0.0000000000000E+00
(PID.TID 0000.0001) %MON forcing_qsw_mean             =   0.0000000000000E+00
(PID.TID 0000.0001) %MON forcing_qsw_sd               =   0.0000000000000E+00
(PID.TID 0000.0001) %MON forcing_qsw_del2             =   0.0000000000000E+00
(PID.TID 0000.0001) %MON forcing_empmr_max            =   0.0000000000000E+00
(PID.TID 0000.0001) %MON forcing_empmr_min            =   0.0000000000000E+00
(PID.TID 0000.0001) %MON forcing_empmr_mean           =   0.0000000000000E+00
(PID.TID 0000.0001) %MON forcing_empmr_sd             =   0.0000000000000E+00
(PID.TID 0000.0001) %MON forcing_empmr_del2           =   0.0000000000000E+00
(PID.TID 0000.0001) %MON forcing_fu_max               =   0.0000000000000E+00
(PID.TID 0000.0001) %MON forcing_fu_min               =   0.0000000000000E+00
(PID.TID 0000.0001) %MON forcing_fu_mean              =   0.0000000000000E+00
(PID.TID 0000.0001) %MON forcing_fu_sd                =   0.0000000000000E+00
(PID.TID 0000.0001) %MON forcing_fu_del2              =   0.0000000000000E+00
(PID.TID 0000.0001) %MON forcing_fv_max               =   0.0000000000000E+00
(PID.TID 0000.0001) %MON forcing_fv_min               =   0.0000000000000E+00
(PID.TID 0000.0001) %MON forcing_fv_mean              =   0.0000000000000E+00
(PID.TID 0000.0001) %MON forcing_fv_sd                =   0.0000000000000E+00
(PID.TID 0000.0001) %MON forcing_fv_del2              =   0.0000000000000E+00
(PID.TID 0000.0001) %MON advcfl_uvel_max              =   8.8042719453418E-02
(PID.TID 0000.0001) %MON advcfl_vvel_max              =   0.0000000000000E+00
(PID.TID 0000.0001) %MON advcfl_wvel_max              =   3.3575877302386E-01
(PID.TID 0000.0001) %MON advcfl_W_hf_max              =   3.4161242570505E-01
(PID.TID 0000.0001) %MON pe_b_mean                    =   2.4586384375087E-06
(PID.TID 0000.0001) %MON ke_max                       =   7.3960722759425E-01
(PID.TID 0000.0001) %MON ke_mean                      =   2.1686817510316E-02
(PID.TID 0000.0001) %MON ke_vol                       =   8.5338127039305E+10
(PID.TID 0000.0001) %MON vort_r_min                   =   0.0000000000000E+00
(PID.TID 0000.0001) %MON vort_r_max                   =   0.0000000000000E+00
(PID.TID 0000.0001) %MON vort_a_mean                  =   0.0000000000000E+00
(PID.TID 0000.0001) %MON vort_a_sd                    =   0.0000000000000E+00
(PID.TID 0000.0001) %MON vort_p_mean                  =   0.0000000000000E+00
(PID.TID 0000.0001) %MON vort_p_sd                    =   0.0000000000000E+00
(PID.TID 0000.0001) %MON surfExpan_theta_mean         =   1.6346695141667E-09
(PID.TID 0000.0001) %MON surfExpan_salt_mean          =   1.1509697230289E-17
(PID.TID 0000.0001) // =======================================================
(PID.TID 0000.0001) // End MONITOR dynamic field statistics
(PID.TID 0000.0001) // =======================================================
(PID.TID 0000.0001) // =======================================================
(PID.TID 0000.0001) // Begin OBCS MONITOR field statistics
(PID.TID 0000.0001) // =======================================================
(PID.TID 0000.0001) %MON obc_E_uVel_max               =   0.0000000000000E+00
(PID.TID 0000.0001) %MON obc_E_uVel_min               =   0.0000000000000E+00
(PID.TID 0000.0001) %MON obc_E_uVel_mean              =   0.0000000000000E+00
(PID.TID 0000.0001) %MON obc_E_uVel_sd                =   0.0000000000000E+00
(PID.TID 0000.0001) %MON obc_E_uVel_Int               =   0.0000000000000E+00
(PID.TID 0000.0001) %MON obc_W_uVel_max               =   0.0000000000000E+00
(PID.TID 0000.0001) %MON obc_W_uVel_min               =   0.0000000000000E+00
(PID.TID 0000.0001) %MON obc_W_uVel_mean              =   0.0000000000000E+00
(PID.TID 0000.0001) %MON obc_W_uVel_sd                =   0.0000000000000E+00
(PID.TID 0000.0001) %MON obc_W_uVel_Int               =   0.0000000000000E+00
(PID.TID 0000.0001) // =======================================================
(PID.TID 0000.0001) // End OBCS MONITOR field statistics
(PID.TID 0000.0001) // =======================================================
 cg2d: Sum(rhs),rhsMax =   1.44971812332528E-11  1.60705588921302E-01
 cg2d: Sum(rhs),rhsMax =   1.46261891487143E-11  1.59808849324581E-01
 cg2d: Sum(rhs),rhsMax =   1.47096779201661E-11  1.58880148929767E-01
 cg2d: Sum(rhs),rhsMax =   1.48152601298079E-11  1.57919182580597E-01
 cg2d: Sum(rhs),rhsMax =   1.49040779717780E-11  1.56925692845061E-01
 cg2d: Sum(rhs),rhsMax =   1.49948942151923E-11  1.55899732240128E-01
 cg2d: Sum(rhs),rhsMax =   1.51566537098802E-11  1.54841833255996E-01
 cg2d: Sum(rhs),rhsMax =   1.53033141714332E-11  1.53752993874938E-01
 cg2d: Sum(rhs),rhsMax =   1.53089763088587E-11  1.52634365036834E-01
 cg2d: Sum(rhs),rhsMax =   1.53607127018063E-11  1.51486888775276E-01
 cg2d: Sum(rhs),rhsMax =   1.54632973092816E-11  1.50310817344468E-01
 cg2d: Sum(rhs),rhsMax =   1.55767621023983E-11  1.49105394336493E-01
 cg2d: Sum(rhs),rhsMax =   1.52415857712640E-11  1.52311810476558E-01
 cg2d: Sum(rhs),rhsMax =   1.45640166593353E-11  1.59320336704260E-01
 cg2d: Sum(rhs),rhsMax =   1.39998013182208E-11  1.65542472163816E-01
 cg2d: Sum(rhs),rhsMax =   1.34805500096036E-11  1.71468981879580E-01
 cg2d: Sum(rhs),rhsMax =   1.30139232723536E-11  1.77031062418168E-01
 cg2d: Sum(rhs),rhsMax =   1.25846000287311E-11  1.82152622083695E-01
 cg2d: Sum(rhs),rhsMax =   1.22439836047761E-11  1.86812267562274E-01
 cg2d: Sum(rhs),rhsMax =   1.19476650795036E-11  1.91001069086738E-01
 cg2d: Sum(rhs),rhsMax =   1.16816556428034E-11  1.94699496548235E-01
 cg2d: Sum(rhs),rhsMax =   1.14376286219908E-11  1.97895891586379E-01
 cg2d: Sum(rhs),rhsMax =   1.12176934408126E-11  2.00574463855118E-01
 cg2d: Sum(rhs),rhsMax =   1.10216280546638E-11  2.02751128855886E-01
 cg2d: Sum(rhs),rhsMax =   1.08524300657109E-11  2.04389202391856E-01
 cg2d: Sum(rhs),rhsMax =   1.07222009049224E-11  2.05487900845369E-01
 cg2d: Sum(rhs),rhsMax =   1.06202824312618E-11  2.06098824720805E-01
 cg2d: Sum(rhs),rhsMax =   1.05122577309658E-11  2.06355881358977E-01
 cg2d: Sum(rhs),rhsMax =   1.04772857056901E-11  2.05965888784860E-01
 cg2d: Sum(rhs),rhsMax =   1.04428687919267E-11  2.04968852909305E-01
 cg2d: Sum(rhs),rhsMax =   1.04426467473218E-11  2.03404347508716E-01
 cg2d: Sum(rhs),rhsMax =   1.04350972307543E-11  2.01782281488343E-01
 cg2d: Sum(rhs),rhsMax =   1.05336850353410E-11  1.99165728738989E-01
 cg2d: Sum(rhs),rhsMax =   1.06279429701317E-11  1.95983896289841E-01
 cg2d: Sum(rhs),rhsMax =   1.08061337655840E-11  1.92075156990415E-01
 cg2d: Sum(rhs),rhsMax =   1.09143805104850E-11  1.89183982364161E-01
 cg2d: Sum(rhs),rhsMax =   1.12143627717387E-11  1.83609980206128E-01
 cg2d: Sum(rhs),rhsMax =   1.15040199588634E-11  1.78533498715633E-01
 cg2d: Sum(rhs),rhsMax =   1.13692388836739E-11  1.80654150725920E-01
 cg2d: Sum(rhs),rhsMax =   1.12034825860974E-11  1.82039241802151E-01
 cg2d: Sum(rhs),rhsMax =   1.11722853191054E-11  1.82656291285845E-01
 cg2d: Sum(rhs),rhsMax =   1.11918252443388E-11  1.82545256819448E-01
 cg2d: Sum(rhs),rhsMax =   1.12757581050005E-11  1.81717757680426E-01
 cg2d: Sum(rhs),rhsMax =   1.13697939951862E-11  1.79912065099654E-01
 cg2d: Sum(rhs),rhsMax =   1.14847020782349E-11  1.77489508668147E-01
 cg2d: Sum(rhs),rhsMax =   1.16604503830331E-11  1.74416585478388E-01
 cg2d: Sum(rhs),rhsMax =   1.18546283900400E-11  1.70710613702935E-01
 cg2d: Sum(rhs),rhsMax =   1.16717746578843E-11  1.73047042380685E-01
 cg2d: Sum(rhs),rhsMax =   1.11336495578485E-11  1.80701427828058E-01
 cg2d: Sum(rhs),rhsMax =   1.06625819285000E-11  1.87955526580084E-01
 cg2d: Sum(rhs),rhsMax =   1.02591268813512E-11  1.94774226856751E-01
 cg2d: Sum(rhs),rhsMax =   9.91862147969869E-12  2.01169890866573E-01
 cg2d: Sum(rhs),rhsMax =   9.59210488815643E-12  2.06999460551405E-01
 cg2d: Sum(rhs),rhsMax =   9.26925203259543E-12  2.12333092743673E-01
 cg2d: Sum(rhs),rhsMax =   9.03421781828229E-12  2.17062806758858E-01
 cg2d: Sum(rhs),rhsMax =   8.80662209823413E-12  2.21230160516163E-01
 cg2d: Sum(rhs),rhsMax =   8.64308624670684E-12  2.24781540586381E-01
 cg2d: Sum(rhs),rhsMax =   8.45512548863780E-12  2.28492785978723E-01
 cg2d: Sum(rhs),rhsMax =   8.33899616026201E-12  2.30696492689324E-01
 cg2d: Sum(rhs),rhsMax =   8.26727575287123E-12  2.32135475875808E-01
 cg2d: Sum(rhs),rhsMax =   8.25073342980431E-12  2.32972097756187E-01
 cg2d: Sum(rhs),rhsMax =   8.20654655342423E-12  2.33152335161956E-01
 cg2d: Sum(rhs),rhsMax =   8.16735568065496E-12  2.32663809973406E-01
 cg2d: Sum(rhs),rhsMax =   8.13094036544726E-12  2.31738800679120E-01
 cg2d: Sum(rhs),rhsMax =   8.13549227984822E-12  2.30061527693549E-01
 cg2d: Sum(rhs),rhsMax =   8.16924305979683E-12  2.27316045578496E-01
 cg2d: Sum(rhs),rhsMax =   8.20121748290603E-12  2.24653838027253E-01
 cg2d: Sum(rhs),rhsMax =   8.29580848460409E-12  2.21334351129490E-01
 cg2d: Sum(rhs),rhsMax =   8.42304004322614E-12  2.17457953831305E-01
 cg2d: Sum(rhs),rhsMax =   8.56459347886585E-12  2.13006964878293E-01
 cg2d: Sum(rhs),rhsMax =   8.70670202601787E-12  2.08438302692355E-01
 cg2d: Sum(rhs),rhsMax =   8.90698625966024E-12  2.03008044560741E-01
 cg2d: Sum(rhs),rhsMax =   9.11815067894395E-12  1.97572911185330E-01
 cg2d: Sum(rhs),rhsMax =   9.16844378195947E-12  1.95701781021314E-01
 cg2d: Sum(rhs),rhsMax =   9.25759469083687E-12  1.93072095031029E-01
 cg2d: Sum(rhs),rhsMax =   9.38882305234756E-12  1.89736656376934E-01
 cg2d: Sum(rhs),rhsMax =   9.54547552112217E-12  1.85718437695833E-01
 cg2d: Sum(rhs),rhsMax =   9.73832126049956E-12  1.81039716064245E-01
 cg2d: Sum(rhs),rhsMax =   9.96980276113391E-12  1.75760145720861E-01
 cg2d: Sum(rhs),rhsMax =   1.02556851899749E-11  1.69903775136531E-01
 cg2d: Sum(rhs),rhsMax =   1.03544950391665E-11  1.67417366372969E-01
 cg2d: Sum(rhs),rhsMax =   1.03319575117666E-11  1.67155026789911E-01
 cg2d: Sum(rhs),rhsMax =   1.03141939433726E-11  1.66860922724813E-01
 cg2d: Sum(rhs),rhsMax =   1.03160813225145E-11  1.66533080441445E-01
 cg2d: Sum(rhs),rhsMax =   1.03146380325825E-11  1.66176196191240E-01
 cg2d: Sum(rhs),rhsMax =   1.02658992418014E-11  1.65794861108134E-01
 cg2d: Sum(rhs),rhsMax =   1.02320374395504E-11  1.65389797553744E-01
 cg2d: Sum(rhs),rhsMax =   1.02218233877238E-11  1.64958752725518E-01
 cg2d: Sum(rhs),rhsMax =   1.00657260304615E-11  1.66229667323087E-01
 cg2d: Sum(rhs),rhsMax =   9.70912239495192E-12  1.71020687537833E-01
 cg2d: Sum(rhs),rhsMax =   9.47186773458952E-12  1.75287143853184E-01
 cg2d: Sum(rhs),rhsMax =   9.23228160587541E-12  1.79094457626928E-01
 cg2d: Sum(rhs),rhsMax =   8.99880170379674E-12  1.82569206417836E-01
 cg2d: Sum(rhs),rhsMax =   8.78530581616133E-12  1.85614700217463E-01
 cg2d: Sum(rhs),rhsMax =   8.59978754874646E-12  1.88287216800634E-01
 cg2d: Sum(rhs),rhsMax =   8.41171576837496E-12  1.90561324942801E-01
 cg2d: Sum(rhs),rhsMax =   8.26994028813033E-12  1.92294403113161E-01
 cg2d: Sum(rhs),rhsMax =   8.15503220508162E-12  1.93627667225851E-01
 cg2d: Sum(rhs),rhsMax =   8.02358179896601E-12  1.94521285699528E-01
 cg2d: Sum(rhs),rhsMax =   7.93731746995263E-12  1.94982936767023E-01
 cg2d: Sum(rhs),rhsMax =   7.84339260206934E-12  1.95021096887769E-01
 cg2d: Sum(rhs),rhsMax =   7.79110109760950E-12  1.94588368542697E-01
 cg2d: Sum(rhs),rhsMax =   7.74968977879098E-12  1.93785512652037E-01
 cg2d: Sum(rhs),rhsMax =   7.73880959314965E-12  1.92578640818443E-01
 cg2d: Sum(rhs),rhsMax =   7.73292541111914E-12  1.90988784821687E-01
 cg2d: Sum(rhs),rhsMax =   7.75324249246978E-12  1.89009952427556E-01
 cg2d: Sum(rhs),rhsMax =   7.80431275160254E-12  1.86646913094617E-01
 cg2d: Sum(rhs),rhsMax =   7.88102916260414E-12  1.83948652067436E-01
 cg2d: Sum(rhs),rhsMax =   7.92865773036056E-12  1.80703209749620E-01
 cg2d: Sum(rhs),rhsMax =   8.00692845359663E-12  1.77121173540267E-01
 cg2d: Sum(rhs),rhsMax =   8.13216161077435E-12  1.73196985556014E-01
 cg2d: Sum(rhs),rhsMax =   8.23918711034821E-12  1.68957070776778E-01
 cg2d: Sum(rhs),rhsMax =   8.40627567555430E-12  1.64181377722175E-01
 cg2d: Sum(rhs),rhsMax =   8.61821725095524E-12  1.59309889606340E-01
 cg2d: Sum(rhs),rhsMax =   8.86613005235404E-12  1.54232666593969E-01
 cg2d: Sum(rhs),rhsMax =   9.12869779767789E-12  1.48912778984966E-01
 cg2d: Sum(rhs),rhsMax =   9.44200273522711E-12  1.43258719580774E-01
 cg2d: Sum(rhs),rhsMax =   9.50761691598245E-12  1.41652745318473E-01
 cg2d: Sum(rhs),rhsMax =   9.52471435056168E-12  1.40620304235571E-01
 cg2d: Sum(rhs),rhsMax =   9.54369916428277E-12  1.39579726411830E-01
 cg2d: Sum(rhs),rhsMax =   9.52371514983952E-12  1.38531889151788E-01
 cg2d: Sum(rhs),rhsMax =   9.47619760438556E-12  1.37988952854665E-01
 cg2d: Sum(rhs),rhsMax =   9.42623756827743E-12  1.37666373246343E-01
 cg2d: Sum(rhs),rhsMax =   9.43067846037593E-12  1.37320071800719E-01
 cg2d: Sum(rhs),rhsMax =   9.47197875689199E-12  1.36949967243484E-01
 cg2d: Sum(rhs),rhsMax =   9.47786293892250E-12  1.36556202298477E-01
 cg2d: Sum(rhs),rhsMax =   9.48352507634809E-12  1.36138758522925E-01
 cg2d: Sum(rhs),rhsMax =   9.46176470506543E-12  1.35697524457333E-01
 cg2d: Sum(rhs),rhsMax =   9.44633260502314E-12  1.35232364525519E-01
 cg2d: Sum(rhs),rhsMax =   9.48197076411361E-12  1.34743084619809E-01
 cg2d: Sum(rhs),rhsMax =   9.47186773458952E-12  1.34229785240128E-01
 cg2d: Sum(rhs),rhsMax =   9.50339806848888E-12  1.33692679533043E-01
 cg2d: Sum(rhs),rhsMax =   9.46143163815805E-12  1.33131751761151E-01
 cg2d: Sum(rhs),rhsMax =   9.41713373947550E-12  1.32547090048180E-01
 cg2d: Sum(rhs),rhsMax =   9.37061539474371E-12  1.31938831121090E-01
 cg2d: Sum(rhs),rhsMax =   9.34385901985024E-12  1.31307089254974E-01
 cg2d: Sum(rhs),rhsMax =   9.29956112116770E-12  1.30651878332513E-01
 cg2d: Sum(rhs),rhsMax =   9.27202759015699E-12  1.29972943990139E-01
 cg2d: Sum(rhs),rhsMax =   9.24904597354725E-12  1.29269601264202E-01
 cg2d: Sum(rhs),rhsMax =   9.18243259206974E-12  1.28659097758481E-01
 cg2d: Sum(rhs),rhsMax =   8.94639917703444E-12  1.30801010778478E-01
 cg2d: Sum(rhs),rhsMax =   8.71769323396165E-12  1.32634238624359E-01
 cg2d: Sum(rhs),rhsMax =   8.58069171272291E-12  1.33828618789974E-01
 cg2d: Sum(rhs),rhsMax =   8.54616377665707E-12  1.34396248670700E-01
 cg2d: Sum(rhs),rhsMax =   8.57047766089636E-12  1.34327345038316E-01
 cg2d: Sum(rhs),rhsMax =   8.64697202729303E-12  1.33362421656233E-01
 cg2d: Sum(rhs),rhsMax =   8.66950955469292E-12  1.33510778561366E-01
 cg2d: Sum(rhs),rhsMax =   8.61521964878875E-12  1.34689134155980E-01
 cg2d: Sum(rhs),rhsMax =   8.54405435291028E-12  1.35829477815204E-01
 cg2d: Sum(rhs),rhsMax =   8.51430037585033E-12  1.36930540596068E-01
 cg2d: Sum(rhs),rhsMax =   8.44269099076200E-12  1.37991856399522E-01
 cg2d: Sum(rhs),rhsMax =   8.38629166111104E-12  1.39010512972310E-01
 cg2d: Sum(rhs),rhsMax =   8.36064550924220E-12  1.39984152534849E-01
 cg2d: Sum(rhs),rhsMax =   8.23396906213247E-12  1.42106687109757E-01
 cg2d: Sum(rhs),rhsMax =   8.13993317194672E-12  1.43796418478891E-01
 cg2d: Sum(rhs),rhsMax =   8.10274070062178E-12  1.44795595971627E-01
 cg2d: Sum(rhs),rhsMax =   8.12161449204041E-12  1.45207009097308E-01
 cg2d: Sum(rhs),rhsMax =   8.12694356255861E-12  1.45116891370998E-01
 cg2d: Sum(rhs),rhsMax =   8.13860090431717E-12  1.44932090907934E-01
 cg2d: Sum(rhs),rhsMax =   8.11717359994191E-12  1.45612166296601E-01
 cg2d: Sum(rhs),rhsMax =   8.10751465962767E-12  1.46255884924296E-01
 cg2d: Sum(rhs),rhsMax =   8.06077427029095E-12  1.46864402435669E-01
 cg2d: Sum(rhs),rhsMax =   8.03945798821815E-12  1.47635802590197E-01
 cg2d: Sum(rhs),rhsMax =   7.86593012946923E-12  1.49804597900660E-01
 cg2d: Sum(rhs),rhsMax =   7.68896057934398E-12  1.51585183404415E-01
 cg2d: Sum(rhs),rhsMax =   7.56017470848747E-12  1.52889338914242E-01
 cg2d: Sum(rhs),rhsMax =   7.57549578622729E-12  1.53759939509783E-01
 cg2d: Sum(rhs),rhsMax =   7.62323537628617E-12  1.54177128253308E-01
 cg2d: Sum(rhs),rhsMax =   7.71593899884238E-12  1.54143515286238E-01
 cg2d: Sum(rhs),rhsMax =   7.81252840198476E-12  1.53646650845563E-01
 cg2d: Sum(rhs),rhsMax =   7.91933185695370E-12  1.52686005061163E-01
 cg2d: Sum(rhs),rhsMax =   8.06621436311161E-12  1.51228318817740E-01
 cg2d: Sum(rhs),rhsMax =   8.11128941791139E-12  1.51304212321208E-01
 cg2d: Sum(rhs),rhsMax =   8.16668954684019E-12  1.51500009033513E-01
 cg2d: Sum(rhs),rhsMax =   8.24329493553932E-12  1.51661477860823E-01
 cg2d: Sum(rhs),rhsMax =   8.31246182997347E-12  1.51788501964892E-01
 cg2d: Sum(rhs),rhsMax =   8.34043945019403E-12  1.51881064647633E-01
 cg2d: Sum(rhs),rhsMax =   8.26372303919243E-12  1.54146764321753E-01
 cg2d: Sum(rhs),rhsMax =   7.99538213414053E-12  1.60466731593305E-01
 cg2d: Sum(rhs),rhsMax =   7.77478081914751E-12  1.66118129908350E-01
 cg2d: Sum(rhs),rhsMax =   7.59770024671980E-12  1.70840901793466E-01
 cg2d: Sum(rhs),rhsMax =   7.48179296294893E-12  1.74834026803816E-01
 cg2d: Sum(rhs),rhsMax =   7.41595673758866E-12  1.77602852588851E-01
 cg2d: Sum(rhs),rhsMax =   7.36677385759776E-12  1.79988624064715E-01
 cg2d: Sum(rhs),rhsMax =   7.32125471358813E-12  1.81536905659272E-01
 cg2d: Sum(rhs),rhsMax =   7.32958138627282E-12  1.82324811546127E-01
 cg2d: Sum(rhs),rhsMax =   7.39563965623802E-12  1.82205249868044E-01
 cg2d: Sum(rhs),rhsMax =   7.43838324268609E-12  1.81347727411388E-01
 cg2d: Sum(rhs),rhsMax =   7.54984963435845E-12  1.79761563401838E-01
 cg2d: Sum(rhs),rhsMax =   7.69706520742375E-12  1.77557448438203E-01
 cg2d: Sum(rhs),rhsMax =   7.87936382806720E-12  1.74434240656577E-01
 cg2d: Sum(rhs),rhsMax =   8.07320876816675E-12  1.70665441144591E-01
 cg2d: Sum(rhs),rhsMax =   8.35609359484124E-12  1.66046960665928E-01
 cg2d: Sum(rhs),rhsMax =   8.65119087478661E-12  1.60859556481992E-01
 cg2d: Sum(rhs),rhsMax =   8.98525698289632E-12  1.56250195102775E-01
 cg2d: Sum(rhs),rhsMax =   8.96305252240381E-12  1.57739442984563E-01
 cg2d: Sum(rhs),rhsMax =   8.96505092384814E-12  1.58709316915816E-01
 cg2d: Sum(rhs),rhsMax =   8.96194229937919E-12  1.59338242629711E-01
 cg2d: Sum(rhs),rhsMax =   9.04454289241130E-12  1.59669029516212E-01
 cg2d: Sum(rhs),rhsMax =   9.07596220400819E-12  1.59684925633733E-01
 cg2d: Sum(rhs),rhsMax =   9.13813469338720E-12  1.59233749638631E-01
 cg2d: Sum(rhs),rhsMax =   9.23461307422713E-12  1.58530142927018E-01
 cg2d: Sum(rhs),rhsMax =   9.31799082337648E-12  1.58501250749615E-01
 cg2d: Sum(rhs),rhsMax =   9.35140853641769E-12  1.59283192539631E-01
 cg2d: Sum(rhs),rhsMax =   9.34596844359703E-12  1.60052914505595E-01
 cg2d: Sum(rhs),rhsMax =   9.36939414941662E-12  1.60809932328347E-01
 cg2d: Sum(rhs),rhsMax =   9.38482624945891E-12  1.61553561011668E-01
 cg2d: Sum(rhs),rhsMax =   9.42712574669713E-12  1.62282879483856E-01
 cg2d: Sum(rhs),rhsMax =   9.08928488030369E-12  1.69357490254434E-01
 cg2d: Sum(rhs),rhsMax =   8.78097594636529E-12  1.76363989582047E-01
 cg2d: Sum(rhs),rhsMax =   8.50919334993705E-12  1.82898593167158E-01
 cg2d: Sum(rhs),rhsMax =   8.29458723927701E-12  1.88665071954683E-01
 cg2d: Sum(rhs),rhsMax =   8.14215361799597E-12  1.93662251975242E-01
 cg2d: Sum(rhs),rhsMax =   8.08875189051150E-12  1.97840462487941E-01
 cg2d: Sum(rhs),rhsMax =   8.09030620274598E-12  2.01198368586981E-01
 cg2d: Sum(rhs),rhsMax =   8.09108335886322E-12  2.03716603153371E-01
 cg2d: Sum(rhs),rhsMax =   8.13193956616942E-12  2.05445915019278E-01
 cg2d: Sum(rhs),rhsMax =   8.22109047504682E-12  2.06368393710907E-01
 cg2d: Sum(rhs),rhsMax =   8.35043145741565E-12  2.06478966327645E-01
 cg2d: Sum(rhs),rhsMax =   8.47666381531553E-12  2.05784426623978E-01
 cg2d: Sum(rhs),rhsMax =   8.63908944381819E-12  2.04295079486472E-01
 cg2d: Sum(rhs),rhsMax =   8.87023787754515E-12  2.02007846598717E-01
 cg2d: Sum(rhs),rhsMax =   9.11137831849373E-12  1.98906187644937E-01
 cg2d: Sum(rhs),rhsMax =   9.41580147184595E-12  1.95070591092483E-01
 cg2d: Sum(rhs),rhsMax =   9.72666391874100E-12  1.90514441442812E-01
 cg2d: Sum(rhs),rhsMax =   1.00741637254487E-11  1.85208972744071E-01
 cg2d: Sum(rhs),rhsMax =   1.04672936984684E-11  1.79232546919247E-01
 cg2d: Sum(rhs),rhsMax =   1.09224851385648E-11  1.72888020738807E-01
 cg2d: Sum(rhs),rhsMax =   1.09373621270947E-11  1.73185450289240E-01
 cg2d: Sum(rhs),rhsMax =   1.09865450070856E-11  1.73459138396209E-01
 cg2d: Sum(rhs),rhsMax =   1.10322861957002E-11  1.73709019056111E-01
 cg2d: Sum(rhs),rhsMax =   1.11267661750958E-11  1.73934727305505E-01
 cg2d: Sum(rhs),rhsMax =   1.12052589429368E-11  1.74135818392458E-01
 cg2d: Sum(rhs),rhsMax =   1.13007381230545E-11  1.74311900365052E-01
 cg2d: Sum(rhs),rhsMax =   1.14114273586097E-11  1.74462283845660E-01
 cg2d: Sum(rhs),rhsMax =   1.15358833596702E-11  1.74586293492426E-01
 cg2d: Sum(rhs),rhsMax =   1.16591181154035E-11  1.74683284274995E-01
 cg2d: Sum(rhs),rhsMax =   1.17613696559715E-11  1.74752835224759E-01
 cg2d: Sum(rhs),rhsMax =   1.18729470699463E-11  1.74794751813747E-01
 cg2d: Sum(rhs),rhsMax =   1.20001786285684E-11  1.74808783903614E-01
 cg2d: Sum(rhs),rhsMax =   1.21106458195186E-11  1.74794810738978E-01
 cg2d: Sum(rhs),rhsMax =   1.22580834371888E-11  1.74752693251795E-01
 cg2d: Sum(rhs),rhsMax =   1.23696608511636E-11  1.74682192983157E-01
 cg2d: Sum(rhs),rhsMax =   1.25321975019688E-11  1.74582998178315E-01
 cg2d: Sum(rhs),rhsMax =   1.26376686893082E-11  1.74454993437978E-01
 cg2d: Sum(rhs),rhsMax =   1.26390009569377E-11  1.74297965456577E-01
 cg2d: Sum(rhs),rhsMax =   1.25255361638210E-11  1.76727174617584E-01
 cg2d: Sum(rhs),rhsMax =   1.23073773394822E-11  1.81076757691192E-01
 cg2d: Sum(rhs),rhsMax =   1.21750387549469E-11  1.84695625485283E-01
 cg2d: Sum(rhs),rhsMax =   1.20667920100459E-11  1.87557500055009E-01
 cg2d: Sum(rhs),rhsMax =   1.20379262114056E-11  1.89686539195209E-01
 cg2d: Sum(rhs),rhsMax =   1.20543575121701E-11  1.91088110637916E-01
 cg2d: Sum(rhs),rhsMax =   1.21382903728318E-11  1.91726872768586E-01
 cg2d: Sum(rhs),rhsMax =   1.21336274361283E-11  1.91619695728318E-01
 cg2d: Sum(rhs),rhsMax =   1.22724053142065E-11  1.90823855282740E-01
 cg2d: Sum(rhs),rhsMax =   1.24987797889275E-11  1.89244676249246E-01
 cg2d: Sum(rhs),rhsMax =   1.26360033547712E-11  1.87790854263951E-01
 cg2d: Sum(rhs),rhsMax =   1.29453114894318E-11  1.84547361054350E-01
 cg2d: Sum(rhs),rhsMax =   1.33452138229018E-11  1.80613886371670E-01
 cg2d: Sum(rhs),rhsMax =   1.35709221638081E-11  1.78057994062739E-01
 cg2d: Sum(rhs),rhsMax =   1.35625954911234E-11  1.78289335085943E-01
 cg2d: Sum(rhs),rhsMax =   1.35589317551421E-11  1.78506967008590E-01
 cg2d: Sum(rhs),rhsMax =   1.35638167364505E-11  1.78710492719558E-01
 cg2d: Sum(rhs),rhsMax =   1.35652600263825E-11  1.78899537198217E-01
 cg2d: Sum(rhs),rhsMax =   1.35824684832642E-11  1.79073760416517E-01
 cg2d: Sum(rhs),rhsMax =   1.35635946918455E-11  1.79232866724177E-01
 cg2d: Sum(rhs),rhsMax =   1.35851330185233E-11  1.79376610261148E-01
 cg2d: Sum(rhs),rhsMax =   1.36183286869596E-11  1.80557137478767E-01
 cg2d: Sum(rhs),rhsMax =   1.36304301179280E-11  1.81277951002054E-01
 cg2d: Sum(rhs),rhsMax =   1.36922695403996E-11  1.81419188510798E-01
 cg2d: Sum(rhs),rhsMax =   1.37436728664397E-11  1.80980420313424E-01
 cg2d: Sum(rhs),rhsMax =   1.38572486818589E-11  1.79981413861051E-01
 cg2d: Sum(rhs),rhsMax =   1.38729028265061E-11  1.79908677665256E-01
 cg2d: Sum(rhs),rhsMax =   1.38706823804569E-11  1.79941761708564E-01
 cg2d: Sum(rhs),rhsMax =   1.39057654280350E-11  1.79958943790597E-01
 cg2d: Sum(rhs),rhsMax =   1.39673828059017E-11  1.79960238584181E-01
 cg2d: Sum(rhs),rhsMax =   1.40585321162234E-11  1.79945663551284E-01
 cg2d: Sum(rhs),rhsMax =   1.41263667430280E-11  1.79915239717712E-01
 cg2d: Sum(rhs),rhsMax =   1.42211797893310E-11  1.79868994703087E-01
 cg2d: Sum(rhs),rhsMax =   1.42801326319386E-11  1.79806967559761E-01
 cg2d: Sum(rhs),rhsMax =   1.43125511442577E-11  1.79729214734760E-01
 cg2d: Sum(rhs),rhsMax =   1.43902667559814E-11  1.79635816325692E-01
 cg2d: Sum(rhs),rhsMax =   1.44875222929386E-11  1.79526881803435E-01
 cg2d: Sum(rhs),rhsMax =   1.45760070680012E-11  1.79402554548402E-01
 cg2d: Sum(rhs),rhsMax =   1.46233025688502E-11  1.79263014883277E-01
 cg2d: Sum(rhs),rhsMax =   1.46961331992657E-11  1.79108481727500E-01
 cg2d: Sum(rhs),rhsMax =   1.47015732920863E-11  1.78939213446871E-01
 cg2d: Sum(rhs),rhsMax =   1.46949119539386E-11  1.78755508795635E-01
 cg2d: Sum(rhs),rhsMax =   1.47379886072940E-11  1.78557708920020E-01
 cg2d: Sum(rhs),rhsMax =   1.47438727893245E-11  1.78346201124448E-01
 cg2d: Sum(rhs),rhsMax =   1.47780676584830E-11  1.78121424488932E-01
 cg2d: Sum(rhs),rhsMax =   1.47908352232662E-11  1.77883876567171E-01
 cg2d: Sum(rhs),rhsMax =   1.48476786421270E-11  1.77634119487371E-01
 cg2d: Sum(rhs),rhsMax =   1.48614454076323E-11  1.77372783078368E-01
 cg2d: Sum(rhs),rhsMax =   1.48838719127298E-11  1.77100562399527E-01
 cg2d: Sum(rhs),rhsMax =   1.49067425070371E-11  1.76818207425534E-01
 cg2d: Sum(rhs),rhsMax =   1.49693590856259E-11  1.76526503641846E-01
 cg2d: Sum(rhs),rhsMax =   1.49873446986248E-11  1.76226243791347E-01
 cg2d: Sum(rhs),rhsMax =   1.49809054050820E-11  1.75918192686955E-01
 cg2d: Sum(rhs),rhsMax =   1.50284229505360E-11  1.75603048510421E-01
 cg2d: Sum(rhs),rhsMax =   1.50516266117506E-11  1.75281405021647E-01
 cg2d: Sum(rhs),rhsMax =   1.51216816846045E-11  1.74953719383450E-01
 cg2d: Sum(rhs),rhsMax =   1.51612056242811E-11  1.74620289804476E-01
 cg2d: Sum(rhs),rhsMax =   1.51826329286564E-11  1.74281246026251E-01
 cg2d: Sum(rhs),rhsMax =   1.52569068490038E-11  1.73936554066386E-01
 cg2d: Sum(rhs),rhsMax =   1.52666768116205E-11  1.73586034877738E-01
 cg2d: Sum(rhs),rhsMax =   1.52559076482817E-11  1.73229394981605E-01
 cg2d: Sum(rhs),rhsMax =   1.52406975928443E-11  1.72866265904511E-01
 cg2d: Sum(rhs),rhsMax =   1.52460266633625E-11  1.72496248519915E-01
 cg2d: Sum(rhs),rhsMax =   1.52562407151891E-11  1.72118958199274E-01
 cg2d: Sum(rhs),rhsMax =   1.53250745427158E-11  1.71734066963985E-01
 cg2d: Sum(rhs),rhsMax =   1.53943524594524E-11  1.71341339501250E-01
 cg2d: Sum(rhs),rhsMax =   1.54263268825616E-11  1.70940660834337E-01
 cg2d: Sum(rhs),rhsMax =   1.54496415660788E-11  1.70532054480829E-01
 cg2d: Sum(rhs),rhsMax =   1.54872781266135E-11  1.70115690951435E-01
 cg2d: Sum(rhs),rhsMax =   1.55329082929256E-11  1.69691887308294E-01
 cg2d: Sum(rhs),rhsMax =   1.55485624375729E-11  1.69261099111765E-01
 cg2d: Sum(rhs),rhsMax =   1.55826462844288E-11  1.68823906375167E-01
 cg2d: Sum(rhs),rhsMax =   1.56683555019299E-11  1.68380995109118E-01
 cg2d: Sum(rhs),rhsMax =   1.57820423396515E-11  1.67933135723743E-01
 cg2d: Sum(rhs),rhsMax =   1.58544288808571E-11  1.67481159076916E-01
 cg2d: Sum(rhs),rhsMax =   1.59454671688763E-11  1.67025930455360E-01
 cg2d: Sum(rhs),rhsMax =   1.59465773919010E-11  1.66568321404724E-01
 cg2d: Sum(rhs),rhsMax =   1.59123825227425E-11  1.66827594397795E-01
 cg2d: Sum(rhs),rhsMax =   1.58064672461933E-11  1.67906706799446E-01
 cg2d: Sum(rhs),rhsMax =   1.57260870992104E-11  1.68547120812328E-01
 cg2d: Sum(rhs),rhsMax =   1.56415991270364E-11  1.68714156494394E-01
 cg2d: Sum(rhs),rhsMax =   1.56471502421596E-11  1.68387417450024E-01
 cg2d: Sum(rhs),rhsMax =   1.56740176393555E-11  1.67702708364165E-01
 cg2d: Sum(rhs),rhsMax =   1.57462931582586E-11  1.66533562303641E-01
 cg2d: Sum(rhs),rhsMax =   1.58413282491665E-11  1.65009039551871E-01
 cg2d: Sum(rhs),rhsMax =   1.57778234921579E-11  1.65065657132574E-01
 cg2d: Sum(rhs),rhsMax =   1.57367452402468E-11  1.65110940073313E-01
 cg2d: Sum(rhs),rhsMax =   1.57078794416066E-11  1.65144576898254E-01
 cg2d: Sum(rhs),rhsMax =   1.56683555019299E-11  1.65166531092475E-01
 cg2d: Sum(rhs),rhsMax =   1.55735424556269E-11  1.65176984610498E-01
 cg2d: Sum(rhs),rhsMax =   1.55244705979385E-11  1.65176332914002E-01
 cg2d: Sum(rhs),rhsMax =   1.54737334057131E-11  1.65164916759410E-01
 cg2d: Sum(rhs),rhsMax =   1.54379842243202E-11  1.65142793412410E-01
 cg2d: Sum(rhs),rhsMax =   1.53844714745333E-11  1.65109768622178E-01
 cg2d: Sum(rhs),rhsMax =   1.53296264571168E-11  1.65065411550821E-01
 cg2d: Sum(rhs),rhsMax =   1.52678980569476E-11  1.65009180809377E-01
 cg2d: Sum(rhs),rhsMax =   1.52482471094117E-11  1.64940630533809E-01
 cg2d: Sum(rhs),rhsMax =   1.51721968322249E-11  1.64859367603787E-01
 cg2d: Sum(rhs),rhsMax =   1.51655354940772E-11  1.64764967429658E-01
 cg2d: Sum(rhs),rhsMax =   1.51368917400418E-11  1.64656837291230E-01
 cg2d: Sum(rhs),rhsMax =   1.51400003645108E-11  1.64534378530037E-01
 cg2d: Sum(rhs),rhsMax =   1.51210155507897E-11  1.64396812181236E-01
 cg2d: Sum(rhs),rhsMax =   1.50732759607308E-11  1.64243362660927E-01
 cg2d: Sum(rhs),rhsMax =   1.50215395677833E-11  1.64073620370782E-01
 cg2d: Sum(rhs),rhsMax =   1.50284229505360E-11  1.63887331555727E-01
 cg2d: Sum(rhs),rhsMax =   1.50089940476050E-11  1.63684333511848E-01
 cg2d: Sum(rhs),rhsMax =   1.49780188252180E-11  1.63464426919751E-01
 cg2d: Sum(rhs),rhsMax =   1.49574796992624E-11  1.63227491354077E-01
 cg2d: Sum(rhs),rhsMax =   1.49197321164252E-11  1.62973271620344E-01
 cg2d: Sum(rhs),rhsMax =   1.48843160019396E-11  1.62701400564951E-01
 cg2d: Sum(rhs),rhsMax =   1.48712153702490E-11  1.62411673928550E-01
 cg2d: Sum(rhs),rhsMax =   1.48597800730954E-11  1.62104001995927E-01
 cg2d: Sum(rhs),rhsMax =   1.48309142744552E-11  1.61778239392005E-01
 cg2d: Sum(rhs),rhsMax =   1.47490908375403E-11  1.61434102593010E-01
 cg2d: Sum(rhs),rhsMax =   1.46838097236923E-11  1.61071189849931E-01
 cg2d: Sum(rhs),rhsMax =   1.46564982372865E-11  1.60688881111688E-01
 cg2d: Sum(rhs),rhsMax =   1.46919143517721E-11  1.60286752131706E-01
 cg2d: Sum(rhs),rhsMax =   1.47581946663422E-11  1.59864399512608E-01
 cg2d: Sum(rhs),rhsMax =   1.48524526011329E-11  1.59421227331039E-01
 cg2d: Sum(rhs),rhsMax =   1.48761003515574E-11  1.58956518358529E-01
 cg2d: Sum(rhs),rhsMax =   1.49001921911918E-11  1.58469369255469E-01
 cg2d: Sum(rhs),rhsMax =   1.46990197791297E-11  1.60237919935072E-01
 cg2d: Sum(rhs),rhsMax =   1.45055079059375E-11  1.62116240100740E-01
 cg2d: Sum(rhs),rhsMax =   1.43293155119295E-11  1.63798940083234E-01
 cg2d: Sum(rhs),rhsMax =   1.41717748647352E-11  1.65279084664286E-01
 cg2d: Sum(rhs),rhsMax =   1.40234490686453E-11  1.66527042035095E-01
 cg2d: Sum(rhs),rhsMax =   1.38874467481287E-11  1.67568058679747E-01
 cg2d: Sum(rhs),rhsMax =   1.37939659694553E-11  1.68366233507225E-01
 cg2d: Sum(rhs),rhsMax =   1.37282407663974E-11  1.68994521268678E-01
 cg2d: Sum(rhs),rhsMax =   1.36592959165682E-11  1.69431225821746E-01
 cg2d: Sum(rhs),rhsMax =   1.36366473668659E-11  1.69637076187523E-01
 cg2d: Sum(rhs),rhsMax =   1.36129996164414E-11  1.69609659003171E-01
 cg2d: Sum(rhs),rhsMax =   1.36334277200945E-11  1.69315850123940E-01
 cg2d: Sum(rhs),rhsMax =   1.36461952848776E-11  1.68851866735243E-01
 cg2d: Sum(rhs),rhsMax =   1.36832767339001E-11  1.68162002265483E-01
 cg2d: Sum(rhs),rhsMax =   1.37226896512743E-11  1.67256093484560E-01
 cg2d: Sum(rhs),rhsMax =   1.37907463226838E-11  1.66034202157098E-01
 cg2d: Sum(rhs),rhsMax =   1.38942191085789E-11  1.64663930827250E-01
 cg2d: Sum(rhs),rhsMax =   1.40144562621458E-11  1.63020544041966E-01
 cg2d: Sum(rhs),rhsMax =   1.41801015374199E-11  1.61177743069475E-01
 cg2d: Sum(rhs),rhsMax =   1.43398626306634E-11  1.59146215014079E-01
 cg2d: Sum(rhs),rhsMax =   1.45222722736094E-11  1.56901467238633E-01
 cg2d: Sum(rhs),rhsMax =   1.47958312268770E-11  1.54436207159210E-01
 cg2d: Sum(rhs),rhsMax =   1.49938950144701E-11  1.51780249293329E-01
 cg2d: Sum(rhs),rhsMax =   1.52480250648068E-11  1.48969848327786E-01
 cg2d: Sum(rhs),rhsMax =   1.55087054309888E-11  1.45977396592784E-01
 cg2d: Sum(rhs),rhsMax =   1.58302260189203E-11  1.42868651642883E-01
 cg2d: Sum(rhs),rhsMax =   1.61750612903688E-11  1.39876676242469E-01
 cg2d: Sum(rhs),rhsMax =   1.65216729186568E-11  1.36664803334574E-01
 cg2d: Sum(rhs),rhsMax =   1.66110458721391E-11  1.35452992346105E-01
 cg2d: Sum(rhs),rhsMax =   1.66404667822917E-11  1.34967804280753E-01
 cg2d: Sum(rhs),rhsMax =   1.65054636624973E-11  1.35581501339142E-01
 cg2d: Sum(rhs),rhsMax =   1.64459557083774E-11  1.35900848053716E-01
 cg2d: Sum(rhs),rhsMax =   1.63992153190406E-11  1.35897634126987E-01
 cg2d: Sum(rhs),rhsMax =   1.63945523823372E-11  1.35499501414807E-01
 cg2d: Sum(rhs),rhsMax =   1.64985802797446E-11  1.34393906612625E-01
 cg2d: Sum(rhs),rhsMax =   1.63663527175117E-11  1.35266621926039E-01
 cg2d: Sum(rhs),rhsMax =   1.60146340633105E-11  1.37993520191576E-01
 cg2d: Sum(rhs),rhsMax =   1.57207580286922E-11  1.40464877269420E-01
 cg2d: Sum(rhs),rhsMax =   1.54372070682030E-11  1.42738160837986E-01
 cg2d: Sum(rhs),rhsMax =   1.51917367574583E-11  1.44941198507901E-01
 cg2d: Sum(rhs),rhsMax =   1.49366075063995E-11  1.46871453209924E-01
 cg2d: Sum(rhs),rhsMax =   1.46876955042785E-11  1.48589110370112E-01
 cg2d: Sum(rhs),rhsMax =   1.45146117347394E-11  1.49990799905762E-01
 cg2d: Sum(rhs),rhsMax =   1.43136613672823E-11  1.51308011054264E-01
 cg2d: Sum(rhs),rhsMax =   1.42049705331715E-11  1.51716924124425E-01
 cg2d: Sum(rhs),rhsMax =   1.41101574868685E-11  1.52354013836964E-01
 cg2d: Sum(rhs),rhsMax =   1.40136791060286E-11  1.53081595582834E-01
 cg2d: Sum(rhs),rhsMax =   1.39489531036929E-11  1.53492628935654E-01
 cg2d: Sum(rhs),rhsMax =   1.39060984949424E-11  1.53723550247530E-01
 cg2d: Sum(rhs),rhsMax =   1.39035449819858E-11  1.53447933604159E-01
 cg2d: Sum(rhs),rhsMax =   1.39416256317304E-11  1.52892898668155E-01
 cg2d: Sum(rhs),rhsMax =   1.40036870988069E-11  1.52236152372955E-01
 cg2d: Sum(rhs),rhsMax =   1.41434641776073E-11  1.50377915420349E-01
 cg2d: Sum(rhs),rhsMax =   1.41608946790939E-11  1.50057831931418E-01
 cg2d: Sum(rhs),rhsMax =   1.40565337147791E-11  1.51106970871451E-01
 cg2d: Sum(rhs),rhsMax =   1.39530609288840E-11  1.52122157902717E-01
 cg2d: Sum(rhs),rhsMax =   1.38202782551389E-11  1.53103172245876E-01
 cg2d: Sum(rhs),rhsMax =   1.37415634426930E-11  1.54050080206595E-01
 cg2d: Sum(rhs),rhsMax =   1.36788358418016E-11  1.54962799373081E-01
 cg2d: Sum(rhs),rhsMax =   1.35926825350907E-11  1.55841298339997E-01
 cg2d: Sum(rhs),rhsMax =   1.35227384845393E-11  1.56685343528926E-01
 cg2d: Sum(rhs),rhsMax =   1.34171562748975E-11  1.57494967269186E-01
 cg2d: Sum(rhs),rhsMax =   1.33281163883225E-11  1.58270260165800E-01
 cg2d: Sum(rhs),rhsMax =   1.31712418749430E-11  1.59010968345720E-01
 cg2d: Sum(rhs),rhsMax =   1.31098465416812E-11  1.59716579403745E-01
 cg2d: Sum(rhs),rhsMax =   1.30647714868815E-11  1.60386615836087E-01
 cg2d: Sum(rhs),rhsMax =   1.30545574350549E-11  1.61021030586218E-01
 cg2d: Sum(rhs),rhsMax =   1.30369048889634E-11  1.61619919569852E-01
 cg2d: Sum(rhs),rhsMax =   1.30131461162364E-11  1.62183537141728E-01
 cg2d: Sum(rhs),rhsMax =   1.29596333664495E-11  1.62711852403331E-01
 cg2d: Sum(rhs),rhsMax =   1.29420918426604E-11  1.63204746461852E-01
 cg2d: Sum(rhs),rhsMax =   1.29113386648783E-11  1.63662213201676E-01
 cg2d: Sum(rhs),rhsMax =   1.28712596136893E-11  1.64083952584258E-01
 cg2d: Sum(rhs),rhsMax =   1.28264066034944E-11  1.64469257038637E-01
 cg2d: Sum(rhs),rhsMax =   1.27672317162819E-11  1.64817553004362E-01
 cg2d: Sum(rhs),rhsMax =   1.26584298598686E-11  1.65128779553768E-01
 cg2d: Sum(rhs),rhsMax =   1.25535137840416E-11  1.65403661714103E-01
 cg2d: Sum(rhs),rhsMax =   1.24502630427514E-11  1.65643452950334E-01
 cg2d: Sum(rhs),rhsMax =   1.23722143641203E-11  1.65851238690384E-01
 cg2d: Sum(rhs),rhsMax =   1.23140386776299E-11  1.66030638777253E-01
 cg2d: Sum(rhs),rhsMax =   1.22579724148864E-11  1.66183441402602E-01
 cg2d: Sum(rhs),rhsMax =   1.22180043859998E-11  1.66305794881425E-01
 cg2d: Sum(rhs),rhsMax =   1.21668231045646E-11  1.66393753050433E-01
 cg2d: Sum(rhs),rhsMax =   1.20237153566904E-11  1.66443967513531E-01
 cg2d: Sum(rhs),rhsMax =   1.19865228853655E-11  1.66456084493455E-01
 cg2d: Sum(rhs),rhsMax =   1.19804166587301E-11  1.66432645984506E-01
 cg2d: Sum(rhs),rhsMax =   1.19225740391471E-11  1.66377649647492E-01
 cg2d: Sum(rhs),rhsMax =   1.18501874979415E-11  1.66294902736878E-01
 cg2d: Sum(rhs),rhsMax =   1.17905685215192E-11  1.66186525085744E-01
 cg2d: Sum(rhs),rhsMax =   1.17398313292938E-11  1.66053164500927E-01
 cg2d: Sum(rhs),rhsMax =   1.16536780225829E-11  1.65894592814256E-01
 cg2d: Sum(rhs),rhsMax =   1.15567555525331E-11  1.65710131729660E-01
 cg2d: Sum(rhs),rhsMax =   1.15769616115813E-11  1.65498511330045E-01
 cg2d: Sum(rhs),rhsMax =   1.16273657368993E-11  1.65258829185437E-01
 cg2d: Sum(rhs),rhsMax =   1.16873177802290E-11  1.64991097876247E-01
 cg2d: Sum(rhs),rhsMax =   1.17289511436525E-11  1.64696499450111E-01
 cg2d: Sum(rhs),rhsMax =   1.17752474437793E-11  1.64376287516422E-01
 cg2d: Sum(rhs),rhsMax =   1.18329790410598E-11  1.64030788760863E-01
 cg2d: Sum(rhs),rhsMax =   1.19134702103452E-11  1.63660160978893E-01
 cg2d: Sum(rhs),rhsMax =   1.19571019752129E-11  1.63264834669059E-01
 cg2d: Sum(rhs),rhsMax =   1.20448095941583E-11  1.62845263553564E-01
 cg2d: Sum(rhs),rhsMax =   1.20796705971316E-11  1.62402657745949E-01
 cg2d: Sum(rhs),rhsMax =   1.21052057266979E-11  1.61938304928751E-01
 cg2d: Sum(rhs),rhsMax =   1.21477272685411E-11  1.61453159282454E-01
 cg2d: Sum(rhs),rhsMax =   1.21819221376995E-11  1.60947600395502E-01
 cg2d: Sum(rhs),rhsMax =   1.22100107802225E-11  1.60421403893796E-01
 cg2d: Sum(rhs),rhsMax =   1.22056809104265E-11  1.59874330656463E-01
 cg2d: Sum(rhs),rhsMax =   1.21838095168414E-11  1.59306643986829E-01
 cg2d: Sum(rhs),rhsMax =   1.21792576024404E-11  1.58719115404402E-01
 cg2d: Sum(rhs),rhsMax =   1.22155618953457E-11  1.58112364541238E-01
 cg2d: Sum(rhs),rhsMax =   1.22305499061781E-11  1.57487825130351E-01
 cg2d: Sum(rhs),rhsMax =   1.22489796083869E-11  1.56848111213194E-01
 cg2d: Sum(rhs),rhsMax =   1.23093757409265E-11  1.56195096245583E-01
(PID.TID 0000.0001)      cg2d_init_res =   1.04786866114794E-01
(PID.TID 0000.0001)      cg2d_iters(min,last) =      -1      29
(PID.TID 0000.0001)      cg2d_last_res =   7.40108444650324E-14
(PID.TID 0000.0001) // =======================================================
(PID.TID 0000.0001) // Begin MONITOR dynamic field statistics
(PID.TID 0000.0001) // =======================================================
(PID.TID 0000.0001) %MON time_tsnumber                =                  5280
(PID.TID 0000.0001) %MON time_secondsf                =   7.9200000000000E+04
(PID.TID 0000.0001) %MON dynstat_eta_max              =   1.2949199036803E-02
(PID.TID 0000.0001) %MON dynstat_eta_min              =  -1.8985988506099E-02
(PID.TID 0000.0001) %MON dynstat_eta_mean             =  -2.2282691674594E-15
(PID.TID 0000.0001) %MON dynstat_eta_sd               =   7.9961367295040E-03
(PID.TID 0000.0001) %MON dynstat_eta_del2             =   2.0775490821375E-04
(PID.TID 0000.0001) %MON dynstat_uvel_max             =   2.0071565882552E+00
(PID.TID 0000.0001) %MON dynstat_uvel_min             =  -6.4666820263019E-01
(PID.TID 0000.0001) %MON dynstat_uvel_mean            =   2.0121787331861E-04
(PID.TID 0000.0001) %MON dynstat_uvel_sd              =   2.2310772052506E-01
(PID.TID 0000.0001) %MON dynstat_uvel_del2            =   8.5341435358280E-04
(PID.TID 0000.0001) %MON dynstat_vvel_max             =   0.0000000000000E+00
(PID.TID 0000.0001) %MON dynstat_vvel_min             =   0.0000000000000E+00
(PID.TID 0000.0001) %MON dynstat_vvel_mean            =   0.0000000000000E+00
(PID.TID 0000.0001) %MON dynstat_vvel_sd              =   0.0000000000000E+00
(PID.TID 0000.0001) %MON dynstat_vvel_del2            =   0.0000000000000E+00
(PID.TID 0000.0001) %MON dynstat_wvel_max             =   3.6947502030786E-02
(PID.TID 0000.0001) %MON dynstat_wvel_min             =  -3.0503145200654E-02
(PID.TID 0000.0001) %MON dynstat_wvel_mean            =   1.7336711133565E-19
(PID.TID 0000.0001) %MON dynstat_wvel_sd              =   4.2955781623093E-03
(PID.TID 0000.0001) %MON dynstat_wvel_del2            =   7.7267853309223E-05
(PID.TID 0000.0001) %MON dynstat_theta_max            =   1.5000000000183E+01
(PID.TID 0000.0001) %MON dynstat_theta_min            =   9.9999999999954E+00
(PID.TID 0000.0001) %MON dynstat_theta_mean           =   1.2728377568230E+01
(PID.TID 0000.0001) %MON dynstat_theta_sd             =   2.3092156415714E+00
(PID.TID 0000.0001) %MON dynstat_theta_del2           =   2.2197533600657E-03
(PID.TID 0000.0001) %MON dynstat_salt_max             =   3.5000000000000E+01
(PID.TID 0000.0001) %MON dynstat_salt_min             =   3.5000000000000E+01
(PID.TID 0000.0001) %MON dynstat_salt_mean            =   3.5000000000000E+01
(PID.TID 0000.0001) %MON dynstat_salt_sd              =   1.0658141036402E-13
(PID.TID 0000.0001) %MON dynstat_salt_del2            =   0.0000000000000E+00
(PID.TID 0000.0001) %MON dynstat_sst_max              =   1.5000000000003E+01
(PID.TID 0000.0001) %MON dynstat_sst_min              =   1.4967966683838E+01
(PID.TID 0000.0001) %MON dynstat_sst_mean             =   1.4997874610890E+01
(PID.TID 0000.0001) %MON dynstat_sst_sd               =   5.8992018768359E-03
(PID.TID 0000.0001) %MON dynstat_sst_del2             =   1.2304663690118E-04
(PID.TID 0000.0001) %MON dynstat_sss_max              =   3.5000000000000E+01
(PID.TID 0000.0001) %MON dynstat_sss_min              =   3.5000000000000E+01
(PID.TID 0000.0001) %MON dynstat_sss_mean             =   3.5000000000000E+01
(PID.TID 0000.0001) %MON dynstat_sss_sd               =   4.2632564145606E-14
(PID.TID 0000.0001) %MON dynstat_sss_del2             =   0.0000000000000E+00
(PID.TID 0000.0001) %MON forcing_qnet_max             =   0.0000000000000E+00
(PID.TID 0000.0001) %MON forcing_qnet_min             =   0.0000000000000E+00
(PID.TID 0000.0001) %MON forcing_qnet_mean            =   0.0000000000000E+00
(PID.TID 0000.0001) %MON forcing_qnet_sd              =   0.0000000000000E+00
(PID.TID 0000.0001) %MON forcing_qnet_del2            =   0.0000000000000E+00
(PID.TID 0000.0001) %MON forcing_qsw_max              =   0.0000000000000E+00
(PID.TID 0000.0001) %MON forcing_qsw_min              =   0.0000000000000E+00
(PID.TID 0000.0001) %MON forcing_qsw_mean             =   0.0000000000000E+00
(PID.TID 0000.0001) %MON forcing_qsw_sd               =   0.0000000000000E+00
(PID.TID 0000.0001) %MON forcing_qsw_del2             =   0.0000000000000E+00
(PID.TID 0000.0001) %MON forcing_empmr_max            =   0.0000000000000E+00
(PID.TID 0000.0001) %MON forcing_empmr_min            =   0.0000000000000E+00
(PID.TID 0000.0001) %MON forcing_empmr_mean           =   0.0000000000000E+00
(PID.TID 0000.0001) %MON forcing_empmr_sd             =   0.0000000000000E+00
(PID.TID 0000.0001) %MON forcing_empmr_del2           =   0.0000000000000E+00
(PID.TID 0000.0001) %MON forcing_fu_max               =   0.0000000000000E+00
(PID.TID 0000.0001) %MON forcing_fu_min               =   0.0000000000000E+00
(PID.TID 0000.0001) %MON forcing_fu_mean              =   0.0000000000000E+00
(PID.TID 0000.0001) %MON forcing_fu_sd                =   0.0000000000000E+00
(PID.TID 0000.0001) %MON forcing_fu_del2              =   0.0000000000000E+00
(PID.TID 0000.0001) %MON forcing_fv_max               =   0.0000000000000E+00
(PID.TID 0000.0001) %MON forcing_fv_min               =   0.0000000000000E+00
(PID.TID 0000.0001) %MON forcing_fv_mean              =   0.0000000000000E+00
(PID.TID 0000.0001) %MON forcing_fv_sd                =   0.0000000000000E+00
(PID.TID 0000.0001) %MON forcing_fv_del2              =   0.0000000000000E+00
(PID.TID 0000.0001) %MON advcfl_uvel_max              =   8.9575130084284E-02
(PID.TID 0000.0001) %MON advcfl_vvel_max              =   0.0000000000000E+00
(PID.TID 0000.0001) %MON advcfl_wvel_max              =   2.6403890090194E-01
(PID.TID 0000.0001) %MON advcfl_W_hf_max              =   2.6691148682578E-01
(PID.TID 0000.0001) %MON pe_b_mean                    =   1.7948732280439E-06
(PID.TID 0000.0001) %MON ke_max                       =   1.0176678235393E+00
(PID.TID 0000.0001) %MON ke_mean                      =   2.5164047907985E-02
(PID.TID 0000.0001) %MON ke_vol                       =   8.5338127039305E+10
(PID.TID 0000.0001) %MON vort_r_min                   =   0.0000000000000E+00
(PID.TID 0000.0001) %MON vort_r_max                   =   0.0000000000000E+00
(PID.TID 0000.0001) %MON vort_a_mean                  =   0.0000000000000E+00
(PID.TID 0000.0001) %MON vort_a_sd                    =   0.0000000000000E+00
(PID.TID 0000.0001) %MON vort_p_mean                  =   0.0000000000000E+00
(PID.TID 0000.0001) %MON vort_p_sd                    =   0.0000000000000E+00
(PID.TID 0000.0001) %MON surfExpan_theta_mean         =  -5.7365404928331E-09
(PID.TID 0000.0001) %MON surfExpan_salt_mean          =   6.8720429656839E-18
(PID.TID 0000.0001) // =======================================================
(PID.TID 0000.0001) // End MONITOR dynamic field statistics
(PID.TID 0000.0001) // =======================================================
(PID.TID 0000.0001) // =======================================================
(PID.TID 0000.0001) // Begin OBCS MONITOR field statistics
(PID.TID 0000.0001) // =======================================================
(PID.TID 0000.0001) %MON obc_E_uVel_max               =   0.0000000000000E+00
(PID.TID 0000.0001) %MON obc_E_uVel_min               =   0.0000000000000E+00
(PID.TID 0000.0001) %MON obc_E_uVel_mean              =   0.0000000000000E+00
(PID.TID 0000.0001) %MON obc_E_uVel_sd                =   0.0000000000000E+00
(PID.TID 0000.0001) %MON obc_E_uVel_Int               =   0.0000000000000E+00
(PID.TID 0000.0001) %MON obc_W_uVel_max               =   0.0000000000000E+00
(PID.TID 0000.0001) %MON obc_W_uVel_min               =   0.0000000000000E+00
(PID.TID 0000.0001) %MON obc_W_uVel_mean              =   0.0000000000000E+00
(PID.TID 0000.0001) %MON obc_W_uVel_sd                =   0.0000000000000E+00
(PID.TID 0000.0001) %MON obc_W_uVel_Int               =   0.0000000000000E+00
(PID.TID 0000.0001) // =======================================================
(PID.TID 0000.0001) // End OBCS MONITOR field statistics
(PID.TID 0000.0001) // =======================================================
 cg2d: Sum(rhs),rhsMax =   1.23900889548167E-11  1.55528081436540E-01
 cg2d: Sum(rhs),rhsMax =   1.24971144543906E-11  1.54844886511350E-01
 cg2d: Sum(rhs),rhsMax =   1.25890409208296E-11  1.54143415676111E-01
 cg2d: Sum(rhs),rhsMax =   1.26960664204034E-11  1.53422965761431E-01
 cg2d: Sum(rhs),rhsMax =   1.28274058042166E-11  1.52684482307528E-01
 cg2d: Sum(rhs),rhsMax =   1.29907196111390E-11  1.51929816481570E-01
 cg2d: Sum(rhs),rhsMax =   1.31028521366261E-11  1.51160346065257E-01
 cg2d: Sum(rhs),rhsMax =   1.32526212226480E-11  1.50375910592070E-01
 cg2d: Sum(rhs),rhsMax =   1.33881794539548E-11  1.49575199785170E-01
 cg2d: Sum(rhs),rhsMax =   1.34980915333927E-11  1.48756446078089E-01
 cg2d: Sum(rhs),rhsMax =   1.36425315488964E-11  1.47917838730038E-01
 cg2d: Sum(rhs),rhsMax =   1.37823086276967E-11  1.47057901997190E-01
 cg2d: Sum(rhs),rhsMax =   1.39269706878054E-11  1.46175742088540E-01
 cg2d: Sum(rhs),rhsMax =   1.40877309817711E-11  1.45270904952566E-01
 cg2d: Sum(rhs),rhsMax =   1.41240352746763E-11  1.45144482358243E-01
 cg2d: Sum(rhs),rhsMax =   1.40818467997406E-11  1.45348264487770E-01
 cg2d: Sum(rhs),rhsMax =   1.41922029683883E-11  1.45548087420284E-01
 cg2d: Sum(rhs),rhsMax =   1.42190703655842E-11  1.45743830990439E-01
 cg2d: Sum(rhs),rhsMax =   1.42488243426442E-11  1.45934437416283E-01
 cg2d: Sum(rhs),rhsMax =   1.42454936735703E-11  1.46118238320186E-01
 cg2d: Sum(rhs),rhsMax =   1.43174361255660E-11  1.46293457513075E-01
 cg2d: Sum(rhs),rhsMax =   1.43488554371629E-11  1.46459244031356E-01
 cg2d: Sum(rhs),rhsMax =   1.44285694503310E-11  1.46616236866540E-01
 cg2d: Sum(rhs),rhsMax =   1.44992906569996E-11  1.46765546208391E-01
 cg2d: Sum(rhs),rhsMax =   1.45475853585708E-11  1.46907999437366E-01
 cg2d: Sum(rhs),rhsMax =   1.46129774947212E-11  1.47042986238798E-01
 cg2d: Sum(rhs),rhsMax =   1.46607170847801E-11  1.47168195753633E-01
 cg2d: Sum(rhs),rhsMax =   1.47326595367758E-11  1.47280139496474E-01
 cg2d: Sum(rhs),rhsMax =   1.47938328254327E-11  1.47375320800264E-01
 cg2d: Sum(rhs),rhsMax =   1.48303591629428E-11  1.47450879180921E-01
 cg2d: Sum(rhs),rhsMax =   1.48688839018973E-11  1.47504808459277E-01
 cg2d: Sum(rhs),rhsMax =   1.49631418366880E-11  1.47536083942083E-01
 cg2d: Sum(rhs),rhsMax =   1.50213175231784E-11  1.47544319567787E-01
 cg2d: Sum(rhs),rhsMax =   1.50925938413593E-11  1.47529528088210E-01
 cg2d: Sum(rhs),rhsMax =   1.51663126501944E-11  1.47491626992842E-01
 cg2d: Sum(rhs),rhsMax =   1.52183821100493E-11  1.47430290156408E-01
 cg2d: Sum(rhs),rhsMax =   1.51841872408909E-11  1.47345105542965E-01
 cg2d: Sum(rhs),rhsMax =   1.52049484114514E-11  1.47235922842649E-01
 cg2d: Sum(rhs),rhsMax =   1.52654555662934E-11  1.47102351401532E-01
 cg2d: Sum(rhs),rhsMax =   1.53025370153159E-11  1.46944157898998E-01
 cg2d: Sum(rhs),rhsMax =   1.52895474059278E-11  1.46761106633735E-01
 cg2d: Sum(rhs),rhsMax =   1.52567958267014E-11  1.46552957417729E-01
 cg2d: Sum(rhs),rhsMax =   1.52654555662934E-11  1.46319298416589E-01
 cg2d: Sum(rhs),rhsMax =   1.53035362160381E-11  1.46059445365183E-01
 cg2d: Sum(rhs),rhsMax =   1.53248524981109E-11  1.45772798236003E-01
 cg2d: Sum(rhs),rhsMax =   1.53165258254262E-11  1.45458330818570E-01
 cg2d: Sum(rhs),rhsMax =   1.53774770694781E-11  1.45114666163845E-01
 cg2d: Sum(rhs),rhsMax =   1.55007118252115E-11  1.44740956611374E-01
 cg2d: Sum(rhs),rhsMax =   1.55510049282270E-11  1.44337919123384E-01
 cg2d: Sum(rhs),rhsMax =   1.56594737177329E-11  1.43908076167516E-01
 cg2d: Sum(rhs),rhsMax =   1.57691637525659E-11  1.43455058724940E-01
 cg2d: Sum(rhs),rhsMax =   1.58776325420718E-11  1.42982104452604E-01
 cg2d: Sum(rhs),rhsMax =   1.59885438222318E-11  1.42491036397418E-01
 cg2d: Sum(rhs),rhsMax =   1.61142210686194E-11  1.41981776094903E-01
 cg2d: Sum(rhs),rhsMax =   1.62392321811922E-11  1.41453000746654E-01
 cg2d: Sum(rhs),rhsMax =   1.62398983150069E-11  1.41917653449415E-01
 cg2d: Sum(rhs),rhsMax =   1.62589941510305E-11  1.42577191841953E-01
 cg2d: Sum(rhs),rhsMax =   1.62811986115230E-11  1.43231790419173E-01
 cg2d: Sum(rhs),rhsMax =   1.63483671045128E-11  1.43880184921044E-01
 cg2d: Sum(rhs),rhsMax =   1.62976299122874E-11  1.44521326092611E-01
 cg2d: Sum(rhs),rhsMax =   1.63722368995423E-11  1.45154356022431E-01
 cg2d: Sum(rhs),rhsMax =   1.64499525112660E-11  1.45778578359400E-01
 cg2d: Sum(rhs),rhsMax =   1.65260027884528E-11  1.46393430027085E-01
 cg2d: Sum(rhs),rhsMax =   1.66022751102446E-11  1.46998461360074E-01
 cg2d: Sum(rhs),rhsMax =   1.66684444025123E-11  1.47593329638586E-01
 cg2d: Sum(rhs),rhsMax =   1.66715530269812E-11  1.48177807992620E-01
 cg2d: Sum(rhs),rhsMax =   1.66027191994544E-11  1.48751808033505E-01
 cg2d: Sum(rhs),rhsMax =   1.65329971935080E-11  1.49315411034735E-01
 cg2d: Sum(rhs),rhsMax =   1.64648294997960E-11  1.49868899834512E-01
 cg2d: Sum(rhs),rhsMax =   1.64007696312751E-11  1.50412782596573E-01
 cg2d: Sum(rhs),rhsMax =   1.63580260448271E-11  1.50947800551494E-01
 cg2d: Sum(rhs),rhsMax =   1.63504765282596E-11  1.51474914758591E-01
 cg2d: Sum(rhs),rhsMax =   1.63045132950401E-11  1.51995271154685E-01
 cg2d: Sum(rhs),rhsMax =   1.62891922173003E-11  1.52510147668571E-01
 cg2d: Sum(rhs),rhsMax =   1.62814206561279E-11  1.53020890840268E-01
 cg2d: Sum(rhs),rhsMax =   1.62696522920669E-11  1.53528851268248E-01
 cg2d: Sum(rhs),rhsMax =   1.62452273855251E-11  1.54035326879322E-01
 cg2d: Sum(rhs),rhsMax =   1.62017066429598E-11  1.54541520643463E-01
 cg2d: Sum(rhs),rhsMax =   1.62343471998838E-11  1.55048515643333E-01
 cg2d: Sum(rhs),rhsMax =   1.62061475350583E-11  1.55557266367225E-01
 cg2d: Sum(rhs),rhsMax =   1.61879398774545E-11  1.56068601742805E-01
 cg2d: Sum(rhs),rhsMax =   1.61182178715080E-11  1.56583233516906E-01
 cg2d: Sum(rhs),rhsMax =   1.61617386140733E-11  1.57101763425759E-01
 cg2d: Sum(rhs),rhsMax =   1.62350133336986E-11  1.57624684037391E-01
 cg2d: Sum(rhs),rhsMax =   1.63118407670026E-11  1.58152370666817E-01
 cg2d: Sum(rhs),rhsMax =   1.64126490176386E-11  1.58685064664778E-01
 cg2d: Sum(rhs),rhsMax =   1.65017999265160E-11  1.59222850974089E-01
 cg2d: Sum(rhs),rhsMax =   1.65933933260476E-11  1.59765634615753E-01
 cg2d: Sum(rhs),rhsMax =   1.67155178587564E-11  1.60313121447329E-01
 cg2d: Sum(rhs),rhsMax =   1.68198788230711E-11  1.60864808131361E-01
 cg2d: Sum(rhs),rhsMax =   1.69237956981760E-11  1.61419984976884E-01
 cg2d: Sum(rhs),rhsMax =   1.70459202308848E-11  1.61977753510474E-01
 cg2d: Sum(rhs),rhsMax =   1.71851421981728E-11  1.62537058661952E-01
 cg2d: Sum(rhs),rhsMax =   1.72868386272285E-11  1.63096733631249E-01
 cg2d: Sum(rhs),rhsMax =   1.74111836059865E-11  1.63655554059327E-01
 cg2d: Sum(rhs),rhsMax =   1.74618097759094E-11  1.64212297171860E-01
 cg2d: Sum(rhs),rhsMax =   1.74318337542445E-11  1.64765801121574E-01
 cg2d: Sum(rhs),rhsMax =   1.75233161314736E-11  1.65315019781401E-01
 cg2d: Sum(rhs),rhsMax =   1.75673919855512E-11  1.65859068659864E-01
 cg2d: Sum(rhs),rhsMax =   1.76423320397134E-11  1.66397258333301E-01
 cg2d: Sum(rhs),rhsMax =   1.76958447895004E-11  1.66929112726424E-01
 cg2d: Sum(rhs),rhsMax =   1.77270420564923E-11  1.67454370637974E-01
 cg2d: Sum(rhs),rhsMax =   1.77475811824479E-11  1.67972970027419E-01
 cg2d: Sum(rhs),rhsMax =   1.77782233379276E-11  1.68485015698752E-01
 cg2d: Sum(rhs),rhsMax =   1.78436154740780E-11  1.68990732115105E-01
 cg2d: Sum(rhs),rhsMax =   1.79026793389880E-11  1.69490404157498E-01
 cg2d: Sum(rhs),rhsMax =   1.79389836318933E-11  1.69984309711605E-01
 cg2d: Sum(rhs),rhsMax =   1.79536385758183E-11  1.70472648999733E-01
 cg2d: Sum(rhs),rhsMax =   1.79918302478654E-11  1.70955476459915E-01
 cg2d: Sum(rhs),rhsMax =   1.80275794292584E-11  1.71432641495240E-01
 cg2d: Sum(rhs),rhsMax =   1.80584436293429E-11  1.71903744287715E-01
 cg2d: Sum(rhs),rhsMax =   1.80366832580603E-11  1.72368111826327E-01
 cg2d: Sum(rhs),rhsMax =   1.80366832580603E-11  1.72824797224164E-01
 cg2d: Sum(rhs),rhsMax =   1.80275794292584E-11  1.73272602448832E-01
 cg2d: Sum(rhs),rhsMax =   1.80273573846534E-11  1.73710121229334E-01
 cg2d: Sum(rhs),rhsMax =   1.80189196896663E-11  1.74135795835823E-01
 cg2d: Sum(rhs),rhsMax =   1.79989356752230E-11  1.74547979417105E-01
 cg2d: Sum(rhs),rhsMax =   1.80095938162594E-11  1.74944995203069E-01
 cg2d: Sum(rhs),rhsMax =   1.79678494305335E-11  1.75325185324605E-01
 cg2d: Sum(rhs),rhsMax =   1.79684045420458E-11  1.75686944978621E-01
 cg2d: Sum(rhs),rhsMax =   1.79702919211877E-11  1.76028741458537E-01
 cg2d: Sum(rhs),rhsMax =   1.79882775341866E-11  1.76349121251828E-01
 cg2d: Sum(rhs),rhsMax =   1.80144787975678E-11  1.76646711098046E-01
 cg2d: Sum(rhs),rhsMax =   1.80543358041518E-11  1.76920220017745E-01
 cg2d: Sum(rhs),rhsMax =   1.80784276437862E-11  1.77168448707582E-01
 cg2d: Sum(rhs),rhsMax =   1.80859771603537E-11  1.77390310618510E-01
 cg2d: Sum(rhs),rhsMax =   1.81519244080164E-11  1.77584866068619E-01
 cg2d: Sum(rhs),rhsMax =   1.81490378281524E-11  1.77751367592101E-01
 cg2d: Sum(rhs),rhsMax =   1.81776815821877E-11  1.77915409587539E-01
 cg2d: Sum(rhs),rhsMax =   1.81874515448044E-11  1.78346570730565E-01
 cg2d: Sum(rhs),rhsMax =   1.81553660993927E-11  1.78766794680538E-01
 cg2d: Sum(rhs),rhsMax =   1.81312742597584E-11  1.79173892753507E-01
 cg2d: Sum(rhs),rhsMax =   1.81271664345672E-11  1.79565722318274E-01
 cg2d: Sum(rhs),rhsMax =   1.81111792230126E-11  1.79940194333742E-01
 cg2d: Sum(rhs),rhsMax =   1.81165082935308E-11  1.80295390012739E-01
 cg2d: Sum(rhs),rhsMax =   1.81148429589939E-11  1.80629850801488E-01
 cg2d: Sum(rhs),rhsMax =   1.80796488891133E-11  1.80942762214266E-01
 cg2d: Sum(rhs),rhsMax =   1.81044068625624E-11  1.81233733360250E-01
 cg2d: Sum(rhs),rhsMax =   1.81108461561053E-11  1.81502493352114E-01
 cg2d: Sum(rhs),rhsMax =   1.81104020668954E-11  1.81748834097111E-01
 cg2d: Sum(rhs),rhsMax =   1.80826464912798E-11  1.81972472606506E-01
 cg2d: Sum(rhs),rhsMax =   1.80495618451459E-11  1.82173129642809E-01
 cg2d: Sum(rhs),rhsMax =   1.80544468264543E-11  1.82350344865404E-01
 cg2d: Sum(rhs),rhsMax =   1.80742087962926E-11  1.82503941244244E-01
 cg2d: Sum(rhs),rhsMax =   1.80542247818494E-11  1.82633863049777E-01
 cg2d: Sum(rhs),rhsMax =   1.80402359717391E-11  1.82739821091835E-01
 cg2d: Sum(rhs),rhsMax =   1.80652159897932E-11  1.82821267176760E-01
 cg2d: Sum(rhs),rhsMax =   1.80455650422573E-11  1.82877162855239E-01
 cg2d: Sum(rhs),rhsMax =   1.80251369386042E-11  1.82906563191187E-01
 cg2d: Sum(rhs),rhsMax =   1.80174763997343E-11  1.82908622971029E-01
 cg2d: Sum(rhs),rhsMax =   1.80325754328692E-11  1.82882669584196E-01
 cg2d: Sum(rhs),rhsMax =   1.80803150229281E-11  1.82828330535760E-01
 cg2d: Sum(rhs),rhsMax =   1.81116233122225E-11  1.82745326241804E-01
 cg2d: Sum(rhs),rhsMax =   1.81467063598006E-11  1.82633443286001E-01
 cg2d: Sum(rhs),rhsMax =   1.81684667310833E-11  1.82492370559744E-01
 cg2d: Sum(rhs),rhsMax =   1.81592518799789E-11  1.82321654180503E-01
 cg2d: Sum(rhs),rhsMax =   1.82250881053392E-11  1.82120986127631E-01
 cg2d: Sum(rhs),rhsMax =   1.82464043874120E-11  1.81890549582526E-01
 cg2d: Sum(rhs),rhsMax =   1.82426296291283E-11  1.81630912201063E-01
 cg2d: Sum(rhs),rhsMax =   1.82595050191026E-11  1.81342505102225E-01
 cg2d: Sum(rhs),rhsMax =   1.82756032529596E-11  1.81025634687785E-01
 cg2d: Sum(rhs),rhsMax =   1.82843740148542E-11  1.80680590520595E-01
 cg2d: Sum(rhs),rhsMax =   1.83155712818461E-11  1.80307645489374E-01
 cg2d: Sum(rhs),rhsMax =   1.83132398134944E-11  1.79907040352377E-01
 cg2d: Sum(rhs),rhsMax =   1.83635329165099E-11  1.79478968055561E-01
 cg2d: Sum(rhs),rhsMax =   1.83971726741561E-11  1.79023733049062E-01
 cg2d: Sum(rhs),rhsMax =   1.84523507584800E-11  1.78541988175646E-01
 cg2d: Sum(rhs),rhsMax =   1.85116366679949E-11  1.78034524825311E-01
 cg2d: Sum(rhs),rhsMax =   1.85491622062273E-11  1.77502055683087E-01
 cg2d: Sum(rhs),rhsMax =   1.86191062567787E-11  1.76945302539759E-01
 cg2d: Sum(rhs),rhsMax =   1.86926030210088E-11  1.76365067835541E-01
 cg2d: Sum(rhs),rhsMax =   1.87603266255110E-11  1.75761931936074E-01
 cg2d: Sum(rhs),rhsMax =   1.88440374415677E-11  1.75136307947562E-01
 cg2d: Sum(rhs),rhsMax =   1.89193105626373E-11  1.74488594923587E-01
 cg2d: Sum(rhs),rhsMax =   1.89988025312005E-11  1.73819450391728E-01
 cg2d: Sum(rhs),rhsMax =   1.90736315630602E-11  1.73129536513748E-01
 cg2d: Sum(rhs),rhsMax =   1.91149318595762E-11  1.72617532705762E-01
 cg2d: Sum(rhs),rhsMax =   1.91415772121672E-11  1.72368775467637E-01
 cg2d: Sum(rhs),rhsMax =   1.85995663315452E-11  1.77612384964723E-01
 cg2d: Sum(rhs),rhsMax =   1.81040737956550E-11  1.82479155461976E-01
 cg2d: Sum(rhs),rhsMax =   1.76909598081920E-11  1.86795742880652E-01
 cg2d: Sum(rhs),rhsMax =   1.73532299641010E-11  1.90477355883138E-01
 cg2d: Sum(rhs),rhsMax =   1.70566893942237E-11  1.93519040735994E-01
 cg2d: Sum(rhs),rhsMax =   1.68823843793575E-11  1.95983041671008E-01
 cg2d: Sum(rhs),rhsMax =   1.67360569847119E-11  1.97908937814354E-01
 cg2d: Sum(rhs),rhsMax =   1.66040514670840E-11  1.99198138833417E-01
 cg2d: Sum(rhs),rhsMax =   1.65394364870508E-11  1.99839373467455E-01
 cg2d: Sum(rhs),rhsMax =   1.64928071200166E-11  1.99858276897854E-01
 cg2d: Sum(rhs),rhsMax =   1.65140123797869E-11  1.99234122170756E-01
 cg2d: Sum(rhs),rhsMax =   1.66892055730727E-11  1.97995296395088E-01
 cg2d: Sum(rhs),rhsMax =   1.69776415148704E-11  1.96115277694062E-01
 cg2d: Sum(rhs),rhsMax =   1.72464265091321E-11  1.93660135071915E-01
 cg2d: Sum(rhs),rhsMax =   1.75927050705127E-11  1.90579683737006E-01
 cg2d: Sum(rhs),rhsMax =   1.79506409736518E-11  1.86934495339158E-01
 cg2d: Sum(rhs),rhsMax =   1.83156823041486E-11  1.82754902030234E-01
 cg2d: Sum(rhs),rhsMax =   1.86755055864296E-11  1.78033045847306E-01
 cg2d: Sum(rhs),rhsMax =   1.91540117100431E-11  1.72758378303386E-01
 cg2d: Sum(rhs),rhsMax =   1.97231120324659E-11  1.67357645276401E-01
 cg2d: Sum(rhs),rhsMax =   1.97153404712935E-11  1.66882688324268E-01
 cg2d: Sum(rhs),rhsMax =   1.97222238540462E-11  1.66144883863390E-01
 cg2d: Sum(rhs),rhsMax =   1.97791782952095E-11  1.65022053698443E-01
 cg2d: Sum(rhs),rhsMax =   1.98714378285558E-11  1.63622135576664E-01
 cg2d: Sum(rhs),rhsMax =   1.99422700575269E-11  1.62347984655676E-01
 cg2d: Sum(rhs),rhsMax =   1.99373850762186E-11  1.61879318216643E-01
 cg2d: Sum(rhs),rhsMax =   1.93988158869729E-11  1.65696961673488E-01
 cg2d: Sum(rhs),rhsMax =   1.81580306346518E-11  1.75866981525041E-01
 cg2d: Sum(rhs),rhsMax =   1.72269976062012E-11  1.85642698734244E-01
 cg2d: Sum(rhs),rhsMax =   1.64754876408324E-11  1.94998094133616E-01
 cg2d: Sum(rhs),rhsMax =   1.57609481021836E-11  2.03906295903392E-01
 cg2d: Sum(rhs),rhsMax =   1.51636481149353E-11  2.12221333784446E-01
 cg2d: Sum(rhs),rhsMax =   1.46515022336757E-11  2.20020764490101E-01
 cg2d: Sum(rhs),rhsMax =   1.41950895482523E-11  2.27452183277558E-01
 cg2d: Sum(rhs),rhsMax =   1.37767575125736E-11  2.34141031732511E-01
 cg2d: Sum(rhs),rhsMax =   1.34461330958402E-11  2.40121313857730E-01
 cg2d: Sum(rhs),rhsMax =   1.31894495325469E-11  2.45400710021829E-01
 cg2d: Sum(rhs),rhsMax =   1.31044064488606E-11  2.49812892957153E-01
 cg2d: Sum(rhs),rhsMax =   1.30370159112658E-11  2.53242841233687E-01
 cg2d: Sum(rhs),rhsMax =   1.29579680319125E-11  2.56103792564503E-01
 cg2d: Sum(rhs),rhsMax =   1.27418076090180E-11  2.58595997112776E-01
 cg2d: Sum(rhs),rhsMax =   1.25832677611015E-11  2.60025590030959E-01
 cg2d: Sum(rhs),rhsMax =   1.24691368341701E-11  2.60724995520242E-01
 cg2d: Sum(rhs),rhsMax =   1.23895338433044E-11  2.60562974462597E-01
 cg2d: Sum(rhs),rhsMax =   1.23808741037124E-11  2.59722662440714E-01
 cg2d: Sum(rhs),rhsMax =   1.23900889548167E-11  2.58134019010363E-01
 cg2d: Sum(rhs),rhsMax =   1.24164012405004E-11  2.55819817849958E-01
 cg2d: Sum(rhs),rhsMax =   1.24866783579591E-11  2.52799003350162E-01
 cg2d: Sum(rhs),rhsMax =   1.26367805108885E-11  2.49079792581132E-01
 cg2d: Sum(rhs),rhsMax =   1.28506094654313E-11  2.44670401446937E-01
 cg2d: Sum(rhs),rhsMax =   1.30472299630924E-11  2.39588772507376E-01
 cg2d: Sum(rhs),rhsMax =   1.33089095299965E-11  2.34328694718279E-01
 cg2d: Sum(rhs),rhsMax =   1.36064493005961E-11  2.28040548801652E-01
 cg2d: Sum(rhs),rhsMax =   1.39408484756132E-11  2.21290924549476E-01
 cg2d: Sum(rhs),rhsMax =   1.43377532069167E-11  2.13830468887179E-01
 cg2d: Sum(rhs),rhsMax =   1.48120404830365E-11  2.05865732136075E-01
 cg2d: Sum(rhs),rhsMax =   1.53379531298015E-11  1.97390014606698E-01
 cg2d: Sum(rhs),rhsMax =   1.60049751229963E-11  1.88543181644143E-01
 cg2d: Sum(rhs),rhsMax =   1.67628133596054E-11  1.79368350822771E-01
 cg2d: Sum(rhs),rhsMax =   1.76147985087027E-11  1.69930019801398E-01
 cg2d: Sum(rhs),rhsMax =   1.76810788232729E-11  1.68745948141951E-01
 cg2d: Sum(rhs),rhsMax =   1.74269487729362E-11  1.70823090860689E-01
 cg2d: Sum(rhs),rhsMax =   1.67319491595208E-11  1.77561225833002E-01
 cg2d: Sum(rhs),rhsMax =   1.57729385108496E-11  1.88071564571047E-01
 cg2d: Sum(rhs),rhsMax =   1.49309453689739E-11  1.98271332801892E-01
 cg2d: Sum(rhs),rhsMax =   1.42216238785409E-11  2.07761254476998E-01
 cg2d: Sum(rhs),rhsMax =   1.35634836695431E-11  2.17187487573777E-01
 cg2d: Sum(rhs),rhsMax =   1.30291333277910E-11  2.25592037887785E-01
 cg2d: Sum(rhs),rhsMax =   1.25622845459361E-11  2.33558398194358E-01
 cg2d: Sum(rhs),rhsMax =   1.22059029550314E-11  2.40996530438558E-01
 cg2d: Sum(rhs),rhsMax =   1.18487442080095E-11  2.47841198882609E-01
 cg2d: Sum(rhs),rhsMax =   1.14428466702066E-11  2.54066662328274E-01
 cg2d: Sum(rhs),rhsMax =   1.10899067706782E-11  2.59797056544340E-01
 cg2d: Sum(rhs),rhsMax =   1.07814868144374E-11  2.64730744616991E-01
 cg2d: Sum(rhs),rhsMax =   1.05370157044149E-11  2.68981754507842E-01
 cg2d: Sum(rhs),rhsMax =   1.03081987390397E-11  2.72459866720114E-01
 cg2d: Sum(rhs),rhsMax =   1.01085806392121E-11  2.75140138617203E-01
 cg2d: Sum(rhs),rhsMax =   9.97452120898856E-12  2.77095123719095E-01
 cg2d: Sum(rhs),rhsMax =   9.84645698309805E-12  2.78304195862393E-01
 cg2d: Sum(rhs),rhsMax =   9.75336478248323E-12  2.78855560991688E-01
 cg2d: Sum(rhs),rhsMax =   9.69202496037269E-12  2.78443304363331E-01
 cg2d: Sum(rhs),rhsMax =   9.66288160597628E-12  2.77473894458143E-01
 cg2d: Sum(rhs),rhsMax =   9.67487201464223E-12  2.75615602331123E-01
 cg2d: Sum(rhs),rhsMax =   9.69463398448056E-12  2.72924304737605E-01
 cg2d: Sum(rhs),rhsMax =   9.81942305244843E-12  2.68964632036598E-01
 cg2d: Sum(rhs),rhsMax =   9.92900206497893E-12  2.64771692907755E-01
 cg2d: Sum(rhs),rhsMax =   1.00750519038684E-11  2.60102225771364E-01
 cg2d: Sum(rhs),rhsMax =   1.02540198554379E-11  2.54558371288473E-01
 cg2d: Sum(rhs),rhsMax =   1.04490860408646E-11  2.48471994436320E-01
 cg2d: Sum(rhs),rhsMax =   1.06865627458319E-11  2.41607179771553E-01
 cg2d: Sum(rhs),rhsMax =   1.09336983911135E-11  2.34370917068841E-01
 cg2d: Sum(rhs),rhsMax =   1.12332365631573E-11  2.26754495775243E-01
 cg2d: Sum(rhs),rhsMax =   1.15853993065684E-11  2.18479677272212E-01
 cg2d: Sum(rhs),rhsMax =   1.19838583501064E-11  2.09801492705656E-01
 cg2d: Sum(rhs),rhsMax =   1.24502630427514E-11  2.00644013312564E-01
 cg2d: Sum(rhs),rhsMax =   1.25195409594880E-11  1.99272128730450E-01
 cg2d: Sum(rhs),rhsMax =   1.24873444917739E-11  2.00193089011505E-01
 cg2d: Sum(rhs),rhsMax =   1.24810162205335E-11  2.00453252574110E-01
 cg2d: Sum(rhs),rhsMax =   1.24716903471267E-11  2.00199196588998E-01
 cg2d: Sum(rhs),rhsMax =   1.25076615731246E-11  1.99275560489599E-01
 cg2d: Sum(rhs),rhsMax =   1.25968124820020E-11  1.97818773035933E-01
 cg2d: Sum(rhs),rhsMax =   1.27577948205726E-11  1.95636052198729E-01
 cg2d: Sum(rhs),rhsMax =   1.27855503961882E-11  1.92993543032018E-01
 cg2d: Sum(rhs),rhsMax =   1.28560495582519E-11  1.89768267880617E-01
 cg2d: Sum(rhs),rhsMax =   1.22934995516744E-11  1.96411094142842E-01
 cg2d: Sum(rhs),rhsMax =   1.18074439114935E-11  2.03030031582462E-01
 cg2d: Sum(rhs),rhsMax =   1.13589138095449E-11  2.09222952172322E-01
 cg2d: Sum(rhs),rhsMax =   1.09835474049191E-11  2.14748383461712E-01
 cg2d: Sum(rhs),rhsMax =   1.06867847904368E-11  2.19759772730483E-01
 cg2d: Sum(rhs),rhsMax =   1.04034558745525E-11  2.24351100200064E-01
 cg2d: Sum(rhs),rhsMax =   1.01437747090927E-11  2.28262895725518E-01
 cg2d: Sum(rhs),rhsMax =   9.91251525306325E-12  2.31759006379038E-01
 cg2d: Sum(rhs),rhsMax =   9.72655289643853E-12  2.34556707665978E-01
 cg2d: Sum(rhs),rhsMax =   9.58799706296531E-12  2.36863911009441E-01
 cg2d: Sum(rhs),rhsMax =   9.47930622885451E-12  2.38586713871088E-01
 cg2d: Sum(rhs),rhsMax =   9.41480227112379E-12  2.39616105560821E-01
 cg2d: Sum(rhs),rhsMax =   9.37783184440377E-12  2.40099267031133E-01
 cg2d: Sum(rhs),rhsMax =   9.31554833272230E-12  2.41188587773654E-01
 cg2d: Sum(rhs),rhsMax =   9.33852994933204E-12  2.40082781483705E-01
 cg2d: Sum(rhs),rhsMax =   9.37216970697818E-12  2.38511145348678E-01
 cg2d: Sum(rhs),rhsMax =   9.42085298660800E-12  2.36472100463980E-01
 cg2d: Sum(rhs),rhsMax =   9.51017042893909E-12  2.33827335912431E-01
 cg2d: Sum(rhs),rhsMax =   9.61231094720461E-12  2.30667817006246E-01
 cg2d: Sum(rhs),rhsMax =   9.73110481083950E-12  2.27087520684303E-01
 cg2d: Sum(rhs),rhsMax =   9.90285631274901E-12  2.22351679706072E-01
 cg2d: Sum(rhs),rhsMax =   1.00393027224754E-11  2.17874011646146E-01
 cg2d: Sum(rhs),rhsMax =   1.02432506920991E-11  2.13038016833710E-01
 cg2d: Sum(rhs),rhsMax =   1.05021547014417E-11  2.07681858140544E-01
 cg2d: Sum(rhs),rhsMax =   1.07558406625685E-11  2.01892374536848E-01
 cg2d: Sum(rhs),rhsMax =   1.10529363439582E-11  1.95826797648452E-01
 cg2d: Sum(rhs),rhsMax =   1.14068754442087E-11  1.89514966894162E-01
 cg2d: Sum(rhs),rhsMax =   1.17731380200325E-11  1.82952903863763E-01
 cg2d: Sum(rhs),rhsMax =   1.21677112829843E-11  1.76220139234332E-01
 cg2d: Sum(rhs),rhsMax =   1.23723253864227E-11  1.72472502128441E-01
 cg2d: Sum(rhs),rhsMax =   1.23207000157777E-11  1.71898085262146E-01
 cg2d: Sum(rhs),rhsMax =   1.23152599229570E-11  1.70845332930718E-01
 cg2d: Sum(rhs),rhsMax =   1.23459020784367E-11  1.69301441399638E-01
 cg2d: Sum(rhs),rhsMax =   1.24471544182825E-11  1.67259492136118E-01
 cg2d: Sum(rhs),rhsMax =   1.25930377237182E-11  1.64744960849535E-01
 cg2d: Sum(rhs),rhsMax =   1.27484689471657E-11  1.61826258795437E-01
 cg2d: Sum(rhs),rhsMax =   1.29740662657696E-11  1.58337065618374E-01
 cg2d: Sum(rhs),rhsMax =   1.31722410756652E-11  1.55312393318929E-01
 cg2d: Sum(rhs),rhsMax =   1.27395871629687E-11  1.60105609533232E-01
 cg2d: Sum(rhs),rhsMax =   1.23088206294142E-11  1.64515654001828E-01
 cg2d: Sum(rhs),rhsMax =   1.19368959161648E-11  1.68616110754588E-01
 cg2d: Sum(rhs),rhsMax =   1.16302523167633E-11  1.72405397358715E-01
 cg2d: Sum(rhs),rhsMax =   1.13526965606070E-11  1.75813550658898E-01
 cg2d: Sum(rhs),rhsMax =   1.11306519556820E-11  1.78840659154365E-01
 cg2d: Sum(rhs),rhsMax =   1.09545705839764E-11  1.81506399971221E-01
 cg2d: Sum(rhs),rhsMax =   1.07901465540294E-11  1.83900846272476E-01
 cg2d: Sum(rhs),rhsMax =   1.06742392702586E-11  1.85814880570594E-01
 cg2d: Sum(rhs),rhsMax =   1.05657704807527E-11  1.87369127504853E-01
 cg2d: Sum(rhs),rhsMax =   1.03432817866178E-11  1.88544198636069E-01
 cg2d: Sum(rhs),rhsMax =   1.03356212477479E-11  1.89370754394615E-01
 cg2d: Sum(rhs),rhsMax =   1.03429487197104E-11  1.89639290239020E-01
 cg2d: Sum(rhs),rhsMax =   1.02275965474519E-11  1.89682791496430E-01
 cg2d: Sum(rhs),rhsMax =   1.02797770296092E-11  1.89328705736120E-01
 cg2d: Sum(rhs),rhsMax =   1.03521635708148E-11  1.88696091719244E-01
 cg2d: Sum(rhs),rhsMax =   1.04678488099808E-11  1.87629766981515E-01
 cg2d: Sum(rhs),rhsMax =   1.05451203324947E-11  1.86142907841227E-01
 cg2d: Sum(rhs),rhsMax =   1.05983000153742E-11  1.84334102920324E-01
 cg2d: Sum(rhs),rhsMax =   1.07301945106997E-11  1.81394732742307E-01
 cg2d: Sum(rhs),rhsMax =   1.08837383550053E-11  1.79048981433650E-01
 cg2d: Sum(rhs),rhsMax =   1.10461639835080E-11  1.76381873399045E-01
 cg2d: Sum(rhs),rhsMax =   1.12302389609908E-11  1.73237214382913E-01
 cg2d: Sum(rhs),rhsMax =   1.14995790667649E-11  1.69855161286303E-01
 cg2d: Sum(rhs),rhsMax =   1.18082210676107E-11  1.66239410778743E-01
 cg2d: Sum(rhs),rhsMax =   1.21443965994672E-11  1.62256311008054E-01
 cg2d: Sum(rhs),rhsMax =   1.25262022976358E-11  1.58182024186393E-01
 cg2d: Sum(rhs),rhsMax =   1.29108945756684E-11  1.53849092682532E-01
 cg2d: Sum(rhs),rhsMax =   1.33139055336073E-11  1.49325833573032E-01
 cg2d: Sum(rhs),rhsMax =   1.36460842625752E-11  1.46014813185612E-01
 cg2d: Sum(rhs),rhsMax =   1.36265443373418E-11  1.46849664718501E-01
 cg2d: Sum(rhs),rhsMax =   1.34986466449050E-11  1.47652333675418E-01
 cg2d: Sum(rhs),rhsMax =   1.34143807173359E-11  1.48423080368786E-01
 cg2d: Sum(rhs),rhsMax =   1.34026123532749E-11  1.49161933907922E-01
 cg2d: Sum(rhs),rhsMax =   1.33310029681866E-11  1.49868833321768E-01
 cg2d: Sum(rhs),rhsMax =   1.33240085631314E-11  1.50543951398984E-01
 cg2d: Sum(rhs),rhsMax =   1.33238975408290E-11  1.51186855485755E-01
 cg2d: Sum(rhs),rhsMax =   1.32556188248145E-11  1.51797325503110E-01
 cg2d: Sum(rhs),rhsMax =   1.32066579894285E-11  1.52375231640997E-01
 cg2d: Sum(rhs),rhsMax =   1.32216460002610E-11  1.52919934199911E-01
 cg2d: Sum(rhs),rhsMax =   1.31891164656395E-11  1.53431606503603E-01
 cg2d: Sum(rhs),rhsMax =   1.31997746066759E-11  1.53909947496494E-01
 cg2d: Sum(rhs),rhsMax =   1.31640254252829E-11  1.54355103710116E-01
 cg2d: Sum(rhs),rhsMax =   1.30850885682321E-11  1.54767653670486E-01
 cg2d: Sum(rhs),rhsMax =   1.30266908371368E-11  1.55147473888877E-01
 cg2d: Sum(rhs),rhsMax =   1.29993793507310E-11  1.55494753087202E-01
 cg2d: Sum(rhs),rhsMax =   1.29732891096523E-11  1.55810605686240E-01
 cg2d: Sum(rhs),rhsMax =   1.29656285707824E-11  1.56094837507874E-01
 cg2d: Sum(rhs),rhsMax =   1.29409816196357E-11  1.56347769082248E-01
 cg2d: Sum(rhs),rhsMax =   1.28638211194243E-11  1.56570013986765E-01
 cg2d: Sum(rhs),rhsMax =   1.28039800983970E-11  1.56762500123968E-01
 cg2d: Sum(rhs),rhsMax =   1.27037269592734E-11  1.56925658507730E-01
 cg2d: Sum(rhs),rhsMax =   1.26225696561733E-11  1.57060875969158E-01
 cg2d: Sum(rhs),rhsMax =   1.24826815550705E-11  1.57167383076596E-01
 cg2d: Sum(rhs),rhsMax =   1.23973054044768E-11  1.57245413713381E-01
 cg2d: Sum(rhs),rhsMax =   1.23058230272477E-11  1.57296138257988E-01
 cg2d: Sum(rhs),rhsMax =   1.22394316903751E-11  1.57320215047879E-01
 cg2d: Sum(rhs),rhsMax =   1.22200027874442E-11  1.57318351290674E-01
 cg2d: Sum(rhs),rhsMax =   1.21672671937745E-11  1.57290668911882E-01
 cg2d: Sum(rhs),rhsMax =   1.21019860799265E-11  1.57237056569244E-01
 cg2d: Sum(rhs),rhsMax =   1.20790044633168E-11  1.57157367847060E-01
 cg2d: Sum(rhs),rhsMax =   1.20650156532065E-11  1.57052426096081E-01
 cg2d: Sum(rhs),rhsMax =   1.20652376978114E-11  1.56922052081791E-01
 cg2d: Sum(rhs),rhsMax =   1.20665699654410E-11  1.56764723813425E-01
 cg2d: Sum(rhs),rhsMax =   1.20550236459849E-11  1.56580510215163E-01
 cg2d: Sum(rhs),rhsMax =   1.20474741294174E-11  1.56370273514797E-01
 cg2d: Sum(rhs),rhsMax =   1.20821130877857E-11  1.56135257219141E-01
 cg2d: Sum(rhs),rhsMax =   1.20983223439453E-11  1.55876769067133E-01
 cg2d: Sum(rhs),rhsMax =   1.21462839786091E-11  1.55594764619177E-01
 cg2d: Sum(rhs),rhsMax =   1.21438414879549E-11  1.55289375097401E-01
 cg2d: Sum(rhs),rhsMax =   1.21175292022713E-11  1.54961287551996E-01
 cg2d: Sum(rhs),rhsMax =   1.21090915072841E-11  1.54610822104906E-01
 cg2d: Sum(rhs),rhsMax =   1.20454757279731E-11  1.54239358764518E-01
 cg2d: Sum(rhs),rhsMax =   1.20722321028666E-11  1.53846347250396E-01
 cg2d: Sum(rhs),rhsMax =   1.21477272685411E-11  1.53431626953209E-01
 cg2d: Sum(rhs),rhsMax =   1.21362919713874E-11  1.52995482690891E-01
 cg2d: Sum(rhs),rhsMax =   1.20872201136990E-11  1.53109319186711E-01
 cg2d: Sum(rhs),rhsMax =   1.20145005055861E-11  1.53831034721132E-01
 cg2d: Sum(rhs),rhsMax =   1.18771659174399E-11  1.54546222993914E-01
 cg2d: Sum(rhs),rhsMax =   1.17843512725813E-11  1.55254863524621E-01
 cg2d: Sum(rhs),rhsMax =   1.17130749544003E-11  1.55956939965664E-01
 cg2d: Sum(rhs),rhsMax =   1.16450182829908E-11  1.56652102900057E-01
 cg2d: Sum(rhs),rhsMax =   1.15724096971803E-11  1.57339882300006E-01
 cg2d: Sum(rhs),rhsMax =   1.15156773006220E-11  1.58020254930940E-01
 cg2d: Sum(rhs),rhsMax =   1.14200870982017E-11  1.58693774823558E-01
 cg2d: Sum(rhs),rhsMax =   1.13609122109892E-11  1.59360780373397E-01
 cg2d: Sum(rhs),rhsMax =   1.12786446848645E-11  1.60020914499135E-01
 cg2d: Sum(rhs),rhsMax =   1.12672093877109E-11  1.60673341217544E-01
 cg2d: Sum(rhs),rhsMax =   1.12116982364796E-11  1.61317196828116E-01
 cg2d: Sum(rhs),rhsMax =   1.11932685342708E-11  1.61951934881788E-01
 cg2d: Sum(rhs),rhsMax =   1.11729514529202E-11  1.62577356700713E-01
 cg2d: Sum(rhs),rhsMax =   1.11367581823174E-11  1.63193485765441E-01
 cg2d: Sum(rhs),rhsMax =   1.10741416037285E-11  1.63800081680128E-01
 cg2d: Sum(rhs),rhsMax =   1.09992015495664E-11  1.64396631738403E-01
 cg2d: Sum(rhs),rhsMax =   1.09212638932377E-11  1.64982812247576E-01
 cg2d: Sum(rhs),rhsMax =   1.08348885419218E-11  1.65558331078961E-01
 cg2d: Sum(rhs),rhsMax =   1.07325259790514E-11  1.66122607586364E-01
 cg2d: Sum(rhs),rhsMax =   1.06412656464272E-11  1.66674556921730E-01
 cg2d: Sum(rhs),rhsMax =   1.05364605929026E-11  1.67212897303267E-01
 cg2d: Sum(rhs),rhsMax =   1.04498631969818E-11  1.67736249202052E-01
 cg2d: Sum(rhs),rhsMax =   1.03577146859379E-11  1.68243418337146E-01
 cg2d: Sum(rhs),rhsMax =   1.03177466570514E-11  1.68733461688791E-01
 cg2d: Sum(rhs),rhsMax =   1.02394759338154E-11  1.69205938156372E-01
 cg2d: Sum(rhs),rhsMax =   1.01463282220493E-11  1.69660844756092E-01
 cg2d: Sum(rhs),rhsMax =   1.00672803426960E-11  1.70098317134761E-01
 cg2d: Sum(rhs),rhsMax =   9.96036586542459E-12  1.70518350282283E-01
 cg2d: Sum(rhs),rhsMax =   9.87865345081218E-12  1.70920746622267E-01
 cg2d: Sum(rhs),rhsMax =   9.79216707719388E-12  1.71304890981236E-01
 cg2d: Sum(rhs),rhsMax =   9.73210401156166E-12  1.71669872950021E-01
 cg2d: Sum(rhs),rhsMax =   9.65227897609111E-12  1.72014776680194E-01
 cg2d: Sum(rhs),rhsMax =   9.59421431190322E-12  1.72338716355535E-01
 cg2d: Sum(rhs),rhsMax =   9.54702983335665E-12  1.72640960712668E-01
 cg2d: Sum(rhs),rhsMax =   9.48774392384166E-12  1.72921018623963E-01
 cg2d: Sum(rhs),rhsMax =   9.43889411075816E-12  1.73178659836714E-01
 cg2d: Sum(rhs),rhsMax =   9.39981426029135E-12  1.73413630968893E-01
 cg2d: Sum(rhs),rhsMax =   9.35973520910238E-12  1.73625693008981E-01
 cg2d: Sum(rhs),rhsMax =   9.30899801687701E-12  1.73814568993851E-01
 cg2d: Sum(rhs),rhsMax =   9.24438303684383E-12  1.73979895200391E-01
 cg2d: Sum(rhs),rhsMax =   9.22806275838184E-12  1.74121106697391E-01
 cg2d: Sum(rhs),rhsMax =   9.20385989644501E-12  1.74237643369792E-01
 cg2d: Sum(rhs),rhsMax =   9.13680242575765E-12  1.74329245965741E-01
 cg2d: Sum(rhs),rhsMax =   9.11803965664149E-12  1.74396088463709E-01
 cg2d: Sum(rhs),rhsMax =   9.13447095740594E-12  1.74438667680631E-01
 cg2d: Sum(rhs),rhsMax =   9.14823772291129E-12  1.74457441186592E-01
 cg2d: Sum(rhs),rhsMax =   9.18032316832296E-12  1.74452725000886E-01
 cg2d: Sum(rhs),rhsMax =   9.30977517299425E-12  1.74424746656911E-01
 cg2d: Sum(rhs),rhsMax =   9.39459621207561E-12  1.74373660469793E-01
 cg2d: Sum(rhs),rhsMax =   9.54702983335665E-12  1.74299522692348E-01
 cg2d: Sum(rhs),rhsMax =   9.55091561394283E-12  1.74202394156219E-01
 cg2d: Sum(rhs),rhsMax =   9.56779100391714E-12  1.74082375304876E-01
 cg2d: Sum(rhs),rhsMax =   9.55024948012806E-12  1.73939460822754E-01
 cg2d: Sum(rhs),rhsMax =   9.55679979597335E-12  1.73773482898246E-01
 cg2d: Sum(rhs),rhsMax =   9.53648271462271E-12  1.73584098500815E-01
 cg2d: Sum(rhs),rhsMax =   9.52504741746907E-12  1.73370820114774E-01
 cg2d: Sum(rhs),rhsMax =   9.49140765982293E-12  1.73133382210628E-01
 cg2d: Sum(rhs),rhsMax =   9.49884615408791E-12  1.72871585199281E-01
 cg2d: Sum(rhs),rhsMax =   9.51749790090162E-12  1.72585001440024E-01
 cg2d: Sum(rhs),rhsMax =   9.52227185990751E-12  1.72273102076944E-01
 cg2d: Sum(rhs),rhsMax =   9.52893319805526E-12  1.71935357704257E-01
 cg2d: Sum(rhs),rhsMax =   9.50484135842089E-12  1.72239421343787E-01
 cg2d: Sum(rhs),rhsMax =   9.45887812520141E-12  1.72576981685436E-01
 cg2d: Sum(rhs),rhsMax =   9.43334299563503E-12  1.72900413310069E-01
 cg2d: Sum(rhs),rhsMax =   9.39559541279777E-12  1.73209940026838E-01
 cg2d: Sum(rhs),rhsMax =   9.36017929831223E-12  1.73505882726286E-01
 cg2d: Sum(rhs),rhsMax =   9.33519928025817E-12  1.73788637661278E-01
 cg2d: Sum(rhs),rhsMax =   9.31521526581491E-12  1.74058650593774E-01
 cg2d: Sum(rhs),rhsMax =   9.33797483781973E-12  1.74316388963249E-01
 cg2d: Sum(rhs),rhsMax =   9.32443011691930E-12  1.74562314378954E-01
 cg2d: Sum(rhs),rhsMax =   9.29700760821106E-12  1.74796857597663E-01
 cg2d: Sum(rhs),rhsMax =   9.26481114049693E-12  1.75020397797459E-01
 cg2d: Sum(rhs),rhsMax =   9.23860987711578E-12  1.75233247499194E-01
 cg2d: Sum(rhs),rhsMax =   9.22661946844983E-12  1.75435644013318E-01
 cg2d: Sum(rhs),rhsMax =   9.21041021229030E-12  1.75627747856470E-01
 cg2d: Sum(rhs),rhsMax =   9.23972010014040E-12  1.75809648195847E-01
 cg2d: Sum(rhs),rhsMax =   9.27813381679243E-12  1.75981375007782E-01
 cg2d: Sum(rhs),rhsMax =   9.24771370591770E-12  1.76142917234877E-01
 cg2d: Sum(rhs),rhsMax =   9.22462106700550E-12  1.76294245767966E-01
 cg2d: Sum(rhs),rhsMax =   9.20774567703120E-12  1.76435339582495E-01
 cg2d: Sum(rhs),rhsMax =   9.19853082592681E-12  1.76566212889333E-01
 cg2d: Sum(rhs),rhsMax =   9.18110032444019E-12  1.76686940815322E-01
(PID.TID 0000.0001)      cg2d_init_res =   8.61736789619575E-02
(PID.TID 0000.0001)      cg2d_iters(min,last) =      -1      29
(PID.TID 0000.0001)      cg2d_last_res =   8.43604995419774E-14
(PID.TID 0000.0001) // =======================================================
(PID.TID 0000.0001) // Begin MONITOR dynamic field statistics
(PID.TID 0000.0001) // =======================================================
(PID.TID 0000.0001) %MON time_tsnumber                =                  5760
(PID.TID 0000.0001) %MON time_secondsf                =   8.6400000000000E+04
(PID.TID 0000.0001) %MON dynstat_eta_max              =   1.9293058628523E-02
(PID.TID 0000.0001) %MON dynstat_eta_min              =  -1.8985482802517E-02
(PID.TID 0000.0001) %MON dynstat_eta_mean             =  -1.8699002133233E-15
(PID.TID 0000.0001) %MON dynstat_eta_sd               =   9.3224928128435E-03
(PID.TID 0000.0001) %MON dynstat_eta_del2             =   2.1146333859343E-04
(PID.TID 0000.0001) %MON dynstat_uvel_max             =   1.3709034381142E+00
(PID.TID 0000.0001) %MON dynstat_uvel_min             =  -6.4857874051006E-01
(PID.TID 0000.0001) %MON dynstat_uvel_mean            =   1.3371889924889E-04
(PID.TID 0000.0001) %MON dynstat_uvel_sd              =   2.3565877168002E-01
(PID.TID 0000.0001) %MON dynstat_uvel_del2            =   8.6480297144698E-04
(PID.TID 0000.0001) %MON dynstat_vvel_max             =   0.0000000000000E+00
(PID.TID 0000.0001) %MON dynstat_vvel_min             =   0.0000000000000E+00
(PID.TID 0000.0001) %MON dynstat_vvel_mean            =   0.0000000000000E+00
(PID.TID 0000.0001) %MON dynstat_vvel_sd              =   0.0000000000000E+00
(PID.TID 0000.0001) %MON dynstat_vvel_del2            =   0.0000000000000E+00
(PID.TID 0000.0001) %MON dynstat_wvel_max             =   3.4909577743491E-02
(PID.TID 0000.0001) %MON dynstat_wvel_min             =  -2.9522384143851E-02
(PID.TID 0000.0001) %MON dynstat_wvel_mean            =   2.2276837330627E-20
(PID.TID 0000.0001) %MON dynstat_wvel_sd              =   4.4165886842702E-03
(PID.TID 0000.0001) %MON dynstat_wvel_del2            =   8.5586648861393E-05
(PID.TID 0000.0001) %MON dynstat_theta_max            =   1.5000000000240E+01
(PID.TID 0000.0001) %MON dynstat_theta_min            =   9.9999999999946E+00
(PID.TID 0000.0001) %MON dynstat_theta_mean           =   1.2716688051593E+01
(PID.TID 0000.0001) %MON dynstat_theta_sd             =   2.2916153455010E+00
(PID.TID 0000.0001) %MON dynstat_theta_del2           =   2.0745606595641E-03
(PID.TID 0000.0001) %MON dynstat_salt_max             =   3.5000000000000E+01
(PID.TID 0000.0001) %MON dynstat_salt_min             =   3.5000000000000E+01
(PID.TID 0000.0001) %MON dynstat_salt_mean            =   3.5000000000000E+01
(PID.TID 0000.0001) %MON dynstat_salt_sd              =   1.0658141036402E-13
(PID.TID 0000.0001) %MON dynstat_salt_del2            =   0.0000000000000E+00
(PID.TID 0000.0001) %MON dynstat_sst_max              =   1.5000000000003E+01
(PID.TID 0000.0001) %MON dynstat_sst_min              =   1.4954748425897E+01
(PID.TID 0000.0001) %MON dynstat_sst_mean             =   1.4997639596066E+01
(PID.TID 0000.0001) %MON dynstat_sst_sd               =   6.7653295882860E-03
(PID.TID 0000.0001) %MON dynstat_sst_del2             =   1.8663320438999E-04
(PID.TID 0000.0001) %MON dynstat_sss_max              =   3.5000000000000E+01
(PID.TID 0000.0001) %MON dynstat_sss_min              =   3.5000000000000E+01
(PID.TID 0000.0001) %MON dynstat_sss_mean             =   3.5000000000000E+01
(PID.TID 0000.0001) %MON dynstat_sss_sd               =   4.2632564145606E-14
(PID.TID 0000.0001) %MON dynstat_sss_del2             =   0.0000000000000E+00
(PID.TID 0000.0001) %MON forcing_qnet_max             =   0.0000000000000E+00
(PID.TID 0000.0001) %MON forcing_qnet_min             =   0.0000000000000E+00
(PID.TID 0000.0001) %MON forcing_qnet_mean            =   0.0000000000000E+00
(PID.TID 0000.0001) %MON forcing_qnet_sd              =   0.0000000000000E+00
(PID.TID 0000.0001) %MON forcing_qnet_del2            =   0.0000000000000E+00
(PID.TID 0000.0001) %MON forcing_qsw_max              =   0.0000000000000E+00
(PID.TID 0000.0001) %MON forcing_qsw_min              =   0.0000000000000E+00
(PID.TID 0000.0001) %MON forcing_qsw_mean             =   0.0000000000000E+00
(PID.TID 0000.0001) %MON forcing_qsw_sd               =   0.0000000000000E+00
(PID.TID 0000.0001) %MON forcing_qsw_del2             =   0.0000000000000E+00
(PID.TID 0000.0001) %MON forcing_empmr_max            =   0.0000000000000E+00
(PID.TID 0000.0001) %MON forcing_empmr_min            =   0.0000000000000E+00
(PID.TID 0000.0001) %MON forcing_empmr_mean           =   0.0000000000000E+00
(PID.TID 0000.0001) %MON forcing_empmr_sd             =   0.0000000000000E+00
(PID.TID 0000.0001) %MON forcing_empmr_del2           =   0.0000000000000E+00
(PID.TID 0000.0001) %MON forcing_fu_max               =   0.0000000000000E+00
(PID.TID 0000.0001) %MON forcing_fu_min               =   0.0000000000000E+00
(PID.TID 0000.0001) %MON forcing_fu_mean              =   0.0000000000000E+00
(PID.TID 0000.0001) %MON forcing_fu_sd                =   0.0000000000000E+00
(PID.TID 0000.0001) %MON forcing_fu_del2              =   0.0000000000000E+00
(PID.TID 0000.0001) %MON forcing_fv_max               =   0.0000000000000E+00
(PID.TID 0000.0001) %MON forcing_fv_min               =   0.0000000000000E+00
(PID.TID 0000.0001) %MON forcing_fv_mean              =   0.0000000000000E+00
(PID.TID 0000.0001) %MON forcing_fv_sd                =   0.0000000000000E+00
(PID.TID 0000.0001) %MON forcing_fv_del2              =   0.0000000000000E+00
(PID.TID 0000.0001) %MON advcfl_uvel_max              =   8.3454060500281E-02
(PID.TID 0000.0001) %MON advcfl_vvel_max              =   0.0000000000000E+00
(PID.TID 0000.0001) %MON advcfl_wvel_max              =   3.2789153046083E-01
(PID.TID 0000.0001) %MON advcfl_W_hf_max              =   3.3360802483307E-01
(PID.TID 0000.0001) %MON pe_b_mean                    =   2.4397058681233E-06
(PID.TID 0000.0001) %MON ke_max                       =   8.5393447754234E-01
(PID.TID 0000.0001) %MON ke_mean                      =   2.8074906019041E-02
(PID.TID 0000.0001) %MON ke_vol                       =   8.5338127039305E+10
(PID.TID 0000.0001) %MON vort_r_min                   =   0.0000000000000E+00
(PID.TID 0000.0001) %MON vort_r_max                   =   0.0000000000000E+00
(PID.TID 0000.0001) %MON vort_a_mean                  =   0.0000000000000E+00
(PID.TID 0000.0001) %MON vort_a_sd                    =   0.0000000000000E+00
(PID.TID 0000.0001) %MON vort_p_mean                  =   0.0000000000000E+00
(PID.TID 0000.0001) %MON vort_p_sd                    =   0.0000000000000E+00
(PID.TID 0000.0001) %MON surfExpan_theta_mean         =   2.1699521819174E-09
(PID.TID 0000.0001) %MON surfExpan_salt_mean          =   1.2425426488550E-18
(PID.TID 0000.0001) // =======================================================
(PID.TID 0000.0001) // End MONITOR dynamic field statistics
(PID.TID 0000.0001) // =======================================================
(PID.TID 0000.0001) // =======================================================
(PID.TID 0000.0001) // Begin OBCS MONITOR field statistics
(PID.TID 0000.0001) // =======================================================
(PID.TID 0000.0001) %MON obc_E_uVel_max               =   0.0000000000000E+00
(PID.TID 0000.0001) %MON obc_E_uVel_min               =   0.0000000000000E+00
(PID.TID 0000.0001) %MON obc_E_uVel_mean              =   0.0000000000000E+00
(PID.TID 0000.0001) %MON obc_E_uVel_sd                =   0.0000000000000E+00
(PID.TID 0000.0001) %MON obc_E_uVel_Int               =   0.0000000000000E+00
(PID.TID 0000.0001) %MON obc_W_uVel_max               =   0.0000000000000E+00
(PID.TID 0000.0001) %MON obc_W_uVel_min               =   0.0000000000000E+00
(PID.TID 0000.0001) %MON obc_W_uVel_mean              =   0.0000000000000E+00
(PID.TID 0000.0001) %MON obc_W_uVel_sd                =   0.0000000000000E+00
(PID.TID 0000.0001) %MON obc_W_uVel_Int               =   0.0000000000000E+00
(PID.TID 0000.0001) // =======================================================
(PID.TID 0000.0001) // End OBCS MONITOR field statistics
(PID.TID 0000.0001) // =======================================================
(PID.TID 0000.0001) %CHECKPOINT      5760 0000005760
 cg2d: Sum(rhs),rhsMax =   9.16688946972499E-12  1.76797681008849E-01
 cg2d: Sum(rhs),rhsMax =   9.15312270421964E-12  1.76898688739215E-01
 cg2d: Sum(rhs),rhsMax =   9.10982400625926E-12  1.76990323541582E-01
 cg2d: Sum(rhs),rhsMax =   9.11182240770358E-12  1.77073046208964E-01
 cg2d: Sum(rhs),rhsMax =   9.10593822567307E-12  1.77147405859260E-01
 cg2d: Sum(rhs),rhsMax =   9.11137831849373E-12  1.77214017794953E-01
 cg2d: Sum(rhs),rhsMax =   9.10227448969181E-12  1.77273533813657E-01
 cg2d: Sum(rhs),rhsMax =   9.11803965664149E-12  1.77326607428343E-01
 cg2d: Sum(rhs),rhsMax =   9.10915787244448E-12  1.77373857054991E-01
 cg2d: Sum(rhs),rhsMax =   9.11182240770358E-12  1.77415830584229E-01
 cg2d: Sum(rhs),rhsMax =   9.13180642214684E-12  1.77452974842072E-01
 cg2d: Sum(rhs),rhsMax =   9.12581121781386E-12  1.77485613227468E-01
 cg2d: Sum(rhs),rhsMax =   9.10072017745733E-12  1.77513934246448E-01
 cg2d: Sum(rhs),rhsMax =   9.11049014007403E-12  1.77537992707929E-01
 cg2d: Sum(rhs),rhsMax =   9.12292463794984E-12  1.77557724011482E-01
 cg2d: Sum(rhs),rhsMax =   9.11892783506119E-12  1.77572970332793E-01
 cg2d: Sum(rhs),rhsMax =   9.10160835587703E-12  1.77583515796531E-01
 cg2d: Sum(rhs),rhsMax =   9.12692144083849E-12  1.77589126213634E-01
 cg2d: Sum(rhs),rhsMax =   9.15723052941075E-12  1.77589587985444E-01
 cg2d: Sum(rhs),rhsMax =   9.17843578918109E-12  1.77584740623212E-01
 cg2d: Sum(rhs),rhsMax =   9.24804677282509E-12  1.77574498131439E-01
 cg2d: Sum(rhs),rhsMax =   9.27691257146535E-12  1.77558856174175E-01
 cg2d: Sum(rhs),rhsMax =   9.32365296080206E-12  1.77537884182196E-01
 cg2d: Sum(rhs),rhsMax =   9.30644450392037E-12  1.77511703911686E-01
 cg2d: Sum(rhs),rhsMax =   9.32076638093804E-12  1.77480457946857E-01
 cg2d: Sum(rhs),rhsMax =   9.35118649181277E-12  1.77444272869889E-01
 cg2d: Sum(rhs),rhsMax =   9.39825994805688E-12  1.77403222127845E-01
 cg2d: Sum(rhs),rhsMax =   9.40914013369820E-12  1.77357293075210E-01
 cg2d: Sum(rhs),rhsMax =   9.45865608059648E-12  1.77306361527721E-01
 cg2d: Sum(rhs),rhsMax =   9.50528544763074E-12  1.77250175789311E-01
 cg2d: Sum(rhs),rhsMax =   9.54969436861575E-12  1.77188350842521E-01
 cg2d: Sum(rhs),rhsMax =   9.58078061330525E-12  1.77120372428633E-01
 cg2d: Sum(rhs),rhsMax =   9.63540358611681E-12  1.77045610121328E-01
 cg2d: Sum(rhs),rhsMax =   9.69979652154507E-12  1.76963338108073E-01
 cg2d: Sum(rhs),rhsMax =   9.78728209588553E-12  1.76872762067433E-01
 cg2d: Sum(rhs),rhsMax =   9.78728209588553E-12  1.76773050141384E-01
 cg2d: Sum(rhs),rhsMax =   9.84257120251186E-12  1.76663365542712E-01
 cg2d: Sum(rhs),rhsMax =   9.86499770760929E-12  1.76542897940205E-01
 cg2d: Sum(rhs),rhsMax =   9.85622694571475E-12  1.76410890647977E-01
 cg2d: Sum(rhs),rhsMax =   9.81215109163713E-12  1.76266661015903E-01
 cg2d: Sum(rhs),rhsMax =   9.88098491916389E-12  1.76109612361243E-01
 cg2d: Sum(rhs),rhsMax =   9.93827242723455E-12  1.75939237194132E-01
 cg2d: Sum(rhs),rhsMax =   9.94404558696260E-12  1.75755113085382E-01
 cg2d: Sum(rhs),rhsMax =   9.97069093955361E-12  1.75556893914463E-01
 cg2d: Sum(rhs),rhsMax =   1.00229824440135E-11  1.75344300052024E-01
 cg2d: Sum(rhs),rhsMax =   1.00439656591789E-11  1.75117111055790E-01
 cg2d: Sum(rhs),rhsMax =   1.00679464765108E-11  1.74875163693302E-01
 cg2d: Sum(rhs),rhsMax =   1.00937036506821E-11  1.74618356769945E-01
 cg2d: Sum(rhs),rhsMax =   1.01403330177163E-11  1.74379375136890E-01
 cg2d: Sum(rhs),rhsMax =   1.01649799688630E-11  1.74585617870321E-01
 cg2d: Sum(rhs),rhsMax =   1.02158281833908E-11  1.74788100406862E-01
 cg2d: Sum(rhs),rhsMax =   1.02555741676724E-11  1.74985777402510E-01
 cg2d: Sum(rhs),rhsMax =   1.02923225497875E-11  1.75177339072333E-01
 cg2d: Sum(rhs),rhsMax =   1.03277386642731E-11  1.75361285486318E-01
 cg2d: Sum(rhs),rhsMax =   1.03642650017832E-11  1.75535984157775E-01
 cg2d: Sum(rhs),rhsMax =   1.04002362277811E-11  1.75699730065353E-01
 cg2d: Sum(rhs),rhsMax =   1.04448671933710E-11  1.75850806561735E-01
 cg2d: Sum(rhs),rhsMax =   1.05322417454090E-11  1.75987603135567E-01
 cg2d: Sum(rhs),rhsMax =   1.05717656850857E-11  1.76108730450459E-01
 cg2d: Sum(rhs),rhsMax =   1.06551434342350E-11  1.76212977888425E-01
 cg2d: Sum(rhs),rhsMax =   1.07170938790091E-11  1.76299033400583E-01
 cg2d: Sum(rhs),rhsMax =   1.07605035992719E-11  1.76365816266661E-01
 cg2d: Sum(rhs),rhsMax =   1.08258957354224E-11  1.76412997076758E-01
 cg2d: Sum(rhs),rhsMax =   1.08829611988881E-11  1.76441016102431E-01
 cg2d: Sum(rhs),rhsMax =   1.09159348227195E-11  1.76450507910773E-01
 cg2d: Sum(rhs),rhsMax =   1.09021680572141E-11  1.76441768198508E-01
 cg2d: Sum(rhs),rhsMax =   1.08908437823629E-11  1.76414712610447E-01
 cg2d: Sum(rhs),rhsMax =   1.08951736521590E-11  1.76369167717230E-01
 cg2d: Sum(rhs),rhsMax =   1.09185993579786E-11  1.76305042884293E-01
 cg2d: Sum(rhs),rhsMax =   1.09808828696600E-11  1.76222506403292E-01
 cg2d: Sum(rhs),rhsMax =   1.10516040763287E-11  1.76122056470108E-01
 cg2d: Sum(rhs),rhsMax =   1.11141096326151E-11  1.76004260670807E-01
 cg2d: Sum(rhs),rhsMax =   1.11485265463784E-11  1.75869532492945E-01
 cg2d: Sum(rhs),rhsMax =   1.12335696300647E-11  1.75718299798687E-01
 cg2d: Sum(rhs),rhsMax =   1.13079545727146E-11  1.75551179044276E-01
 cg2d: Sum(rhs),rhsMax =   1.13852260952285E-11  1.75368834384958E-01
 cg2d: Sum(rhs),rhsMax =   1.14540599227553E-11  1.75171782075008E-01
 cg2d: Sum(rhs),rhsMax =   1.14800391415315E-11  1.74960244341239E-01
 cg2d: Sum(rhs),rhsMax =   1.14460663169780E-11  1.74734048581382E-01
 cg2d: Sum(rhs),rhsMax =   1.13999920614560E-11  1.74492771322448E-01
 cg2d: Sum(rhs),rhsMax =   1.13705711513035E-11  1.74235976987812E-01
 cg2d: Sum(rhs),rhsMax =   1.13428155756878E-11  1.73963512064987E-01
 cg2d: Sum(rhs),rhsMax =   1.13606901663843E-11  1.73675525700729E-01
 cg2d: Sum(rhs),rhsMax =   1.13764553333340E-11  1.73372428916645E-01
 cg2d: Sum(rhs),rhsMax =   1.14650511306991E-11  1.73054631496782E-01
 cg2d: Sum(rhs),rhsMax =   1.13982157046166E-11  1.72722544042525E-01
 cg2d: Sum(rhs),rhsMax =   1.13414833080583E-11  1.72376386235242E-01
 cg2d: Sum(rhs),rhsMax =   1.12814202424261E-11  1.72016149174372E-01
 cg2d: Sum(rhs),rhsMax =   1.12551079567424E-11  1.71641754782681E-01
 cg2d: Sum(rhs),rhsMax =   1.12346798530893E-11  1.71253338855888E-01
 cg2d: Sum(rhs),rhsMax =   1.12808651309138E-11  1.70851141685844E-01
 cg2d: Sum(rhs),rhsMax =   1.13401510404287E-11  1.70435431891823E-01
 cg2d: Sum(rhs),rhsMax =   1.13731246642601E-11  1.70006298030667E-01
 cg2d: Sum(rhs),rhsMax =   1.13885567643024E-11  1.69563402724840E-01
 cg2d: Sum(rhs),rhsMax =   1.13618003894089E-11  1.69106099349581E-01
 cg2d: Sum(rhs),rhsMax =   1.14305231946332E-11  1.68633287668867E-01
 cg2d: Sum(rhs),rhsMax =   1.15234488617943E-11  1.68143524010483E-01
 cg2d: Sum(rhs),rhsMax =   1.16096021685053E-11  1.67635254378629E-01
 cg2d: Sum(rhs),rhsMax =   1.16686660334153E-11  1.67107054429083E-01
 cg2d: Sum(rhs),rhsMax =   1.17401643962012E-11  1.66557771655955E-01
 cg2d: Sum(rhs),rhsMax =   1.17991172388088E-11  1.65986546606008E-01
 cg2d: Sum(rhs),rhsMax =   1.18541843008302E-11  1.65392667966370E-01
 cg2d: Sum(rhs),rhsMax =   1.19293463995973E-11  1.64775915239498E-01
 cg2d: Sum(rhs),rhsMax =   1.19780851903784E-11  1.64136560244523E-01
 cg2d: Sum(rhs),rhsMax =   1.20463639063928E-11  1.63475241071211E-01
 cg2d: Sum(rhs),rhsMax =   1.21508358930100E-11  1.62793010072838E-01
 cg2d: Sum(rhs),rhsMax =   1.22726273588114E-11  1.62090949681702E-01
 cg2d: Sum(rhs),rhsMax =   1.24374954779682E-11  1.61369996703203E-01
 cg2d: Sum(rhs),rhsMax =   1.24570354032016E-11  1.60630985196427E-01
 cg2d: Sum(rhs),rhsMax =   1.24806831536262E-11  1.59874609851781E-01
 cg2d: Sum(rhs),rhsMax =   1.24694699010774E-11  1.59101389906269E-01
 cg2d: Sum(rhs),rhsMax =   1.25763843783488E-11  1.58311681439723E-01
 cg2d: Sum(rhs),rhsMax =   1.27057253607177E-11  1.57505930248818E-01
 cg2d: Sum(rhs),rhsMax =   1.27934329796631E-11  1.56684431710300E-01
 cg2d: Sum(rhs),rhsMax =   1.28663746323809E-11  1.55847208605529E-01
 cg2d: Sum(rhs),rhsMax =   1.29392052627963E-11  1.54993837078378E-01
 cg2d: Sum(rhs),rhsMax =   1.30243593687851E-11  1.54123573696403E-01
 cg2d: Sum(rhs),rhsMax =   1.30472299630924E-11  1.54030010247630E-01
 cg2d: Sum(rhs),rhsMax =   1.29570798534928E-11  1.55227435931815E-01
 cg2d: Sum(rhs),rhsMax =   1.29377619728643E-11  1.56385109787659E-01
 cg2d: Sum(rhs),rhsMax =   1.29133370663226E-11  1.57501216133411E-01
 cg2d: Sum(rhs),rhsMax =   1.28927979403670E-11  1.58561122978514E-01
 cg2d: Sum(rhs),rhsMax =   1.28955734979286E-11  1.59585095035948E-01
 cg2d: Sum(rhs),rhsMax =   1.29108945756684E-11  1.60553207643621E-01
 cg2d: Sum(rhs),rhsMax =   1.28657084985662E-11  1.61508276611904E-01
 cg2d: Sum(rhs),rhsMax =   1.27760024781765E-11  1.62406946886397E-01
 cg2d: Sum(rhs),rhsMax =   1.26871846362064E-11  1.63766872104410E-01
 cg2d: Sum(rhs),rhsMax =   1.23834276166690E-11  1.66578548543890E-01
 cg2d: Sum(rhs),rhsMax =   1.20866650021867E-11  1.69270899902912E-01
 cg2d: Sum(rhs),rhsMax =   1.18278720151466E-11  1.71837438107353E-01
 cg2d: Sum(rhs),rhsMax =   1.16059384325240E-11  1.74280789324553E-01
 cg2d: Sum(rhs),rhsMax =   1.13904441434443E-11  1.76610271281735E-01
 cg2d: Sum(rhs),rhsMax =   1.12094777904304E-11  1.79865118891862E-01
 cg2d: Sum(rhs),rhsMax =   1.09615649890316E-11  1.84399571965823E-01
 cg2d: Sum(rhs),rhsMax =   1.07552855510562E-11  1.88541761970991E-01
 cg2d: Sum(rhs),rhsMax =   1.05782049786285E-11  1.92168702242510E-01
 cg2d: Sum(rhs),rhsMax =   1.04151132163111E-11  1.95204530856803E-01
 cg2d: Sum(rhs),rhsMax =   1.02869934792693E-11  1.97967648177953E-01
 cg2d: Sum(rhs),rhsMax =   1.01844088717939E-11  1.99817683986964E-01
 cg2d: Sum(rhs),rhsMax =   1.01028074794840E-11  2.01226054146462E-01
 cg2d: Sum(rhs),rhsMax =   1.00930375168673E-11  2.02173580509132E-01
 cg2d: Sum(rhs),rhsMax =   1.01125774421007E-11  2.02399339664706E-01
 cg2d: Sum(rhs),rhsMax =   1.01564312515734E-11  2.02201843951176E-01
 cg2d: Sum(rhs),rhsMax =   1.02464703388705E-11  2.01585374777444E-01
 cg2d: Sum(rhs),rhsMax =   1.03371755599824E-11  2.00383038468727E-01
 cg2d: Sum(rhs),rhsMax =   1.04570796466419E-11  1.98687906303764E-01
 cg2d: Sum(rhs),rhsMax =   1.04940500733619E-11  1.97485728060501E-01
 cg2d: Sum(rhs),rhsMax =   1.05175868014840E-11  1.97989231658253E-01
 cg2d: Sum(rhs),rhsMax =   1.05621067447714E-11  1.98342499621099E-01
 cg2d: Sum(rhs),rhsMax =   1.05877528966403E-11  1.98650542536360E-01
 cg2d: Sum(rhs),rhsMax =   1.05943032124856E-11  1.98869027390450E-01
 cg2d: Sum(rhs),rhsMax =   1.06136210931140E-11  1.99012203898132E-01
 cg2d: Sum(rhs),rhsMax =   1.06300523938785E-11  1.99075184305130E-01
 cg2d: Sum(rhs),rhsMax =   1.06877839911590E-11  1.99060242058498E-01
 cg2d: Sum(rhs),rhsMax =   1.07501785251429E-11  1.98954977071983E-01
 cg2d: Sum(rhs),rhsMax =   1.08087983008431E-11  1.98766343008754E-01
 cg2d: Sum(rhs),rhsMax =   1.08697495448951E-11  1.98495443407357E-01
 cg2d: Sum(rhs),rhsMax =   1.09015019233993E-11  1.98125619892364E-01
 cg2d: Sum(rhs),rhsMax =   1.09378062163046E-11  1.97700635222882E-01
 cg2d: Sum(rhs),rhsMax =   1.10047526646895E-11  1.97175523716599E-01
 cg2d: Sum(rhs),rhsMax =   1.10549347454025E-11  1.96516909960546E-01
 cg2d: Sum(rhs),rhsMax =   1.11394227175765E-11  1.95785778445010E-01
 cg2d: Sum(rhs),rhsMax =   1.12130305041092E-11  1.94865013709062E-01
 cg2d: Sum(rhs),rhsMax =   1.12906350935305E-11  1.93894171497209E-01
 cg2d: Sum(rhs),rhsMax =   1.13545839397489E-11  1.92789571127736E-01
 cg2d: Sum(rhs),rhsMax =   1.14911413717778E-11  1.91610466864154E-01
 cg2d: Sum(rhs),rhsMax =   1.16382459225406E-11  1.90308850954062E-01
 cg2d: Sum(rhs),rhsMax =   1.17765797114089E-11  1.88860301247362E-01
 cg2d: Sum(rhs),rhsMax =   1.19153575894870E-11  1.87352842939610E-01
 cg2d: Sum(rhs),rhsMax =   1.19284582211776E-11  1.88361660484233E-01
 cg2d: Sum(rhs),rhsMax =   1.14492859637494E-11  1.93429564383135E-01
 cg2d: Sum(rhs),rhsMax =   1.11738396313399E-11  1.98371756140817E-01
 cg2d: Sum(rhs),rhsMax =   1.09364739486750E-11  2.03182337727766E-01
 cg2d: Sum(rhs),rhsMax =   1.07280850869529E-11  2.07885500207703E-01
 cg2d: Sum(rhs),rhsMax =   1.05366826375075E-11  2.12435720847180E-01
 cg2d: Sum(rhs),rhsMax =   1.02114983135948E-11  2.16845435684151E-01
 cg2d: Sum(rhs),rhsMax =   1.00220942655938E-11  2.21112413481029E-01
 cg2d: Sum(rhs),rhsMax =   9.87010473352257E-12  2.25240651671096E-01
 cg2d: Sum(rhs),rhsMax =   9.71578373309967E-12  2.29212240853842E-01
 cg2d: Sum(rhs),rhsMax =   9.55002743552313E-12  2.33018980176344E-01
 cg2d: Sum(rhs),rhsMax =   9.39737176963718E-12  2.36673203057107E-01
 cg2d: Sum(rhs),rhsMax =   9.24615939368323E-12  2.40139941937277E-01
 cg2d: Sum(rhs),rhsMax =   9.06597019678657E-12  2.43444872180785E-01
 cg2d: Sum(rhs),rhsMax =   9.01201335778978E-12  2.46599866343239E-01
 cg2d: Sum(rhs),rhsMax =   8.99552654587410E-12  2.49588905083080E-01
 cg2d: Sum(rhs),rhsMax =   8.98708885088695E-12  2.52389300536738E-01
 cg2d: Sum(rhs),rhsMax =   8.96677176953631E-12  2.54969469772452E-01
 cg2d: Sum(rhs),rhsMax =   8.94845308962999E-12  2.57429971284822E-01
 cg2d: Sum(rhs),rhsMax =   8.93823903780344E-12  2.59725151887222E-01
 cg2d: Sum(rhs),rhsMax =   8.79718520252482E-12  2.61826542179790E-01
 cg2d: Sum(rhs),rhsMax =   8.80162609462332E-12  2.63700685298884E-01
 cg2d: Sum(rhs),rhsMax =   8.82677264613108E-12  2.65441749551241E-01
 cg2d: Sum(rhs),rhsMax =   8.87784290526383E-12  2.66987448124115E-01
 cg2d: Sum(rhs),rhsMax =   8.91003937297796E-12  2.68349238335310E-01
 cg2d: Sum(rhs),rhsMax =   8.95988838678363E-12  2.69498796255087E-01
 cg2d: Sum(rhs),rhsMax =   9.01800856212276E-12  2.70483653391928E-01
 cg2d: Sum(rhs),rhsMax =   9.09095021484063E-12  2.71261810692607E-01
 cg2d: Sum(rhs),rhsMax =   9.16727804778361E-12  2.71854661807680E-01
 cg2d: Sum(rhs),rhsMax =   9.24227361309704E-12  2.72250677198045E-01
 cg2d: Sum(rhs),rhsMax =   9.31882349064495E-12  2.72461236188011E-01
 cg2d: Sum(rhs),rhsMax =   9.40952871175682E-12  2.72467997231749E-01
 cg2d: Sum(rhs),rhsMax =   9.49040845910076E-12  2.72265186901575E-01
 cg2d: Sum(rhs),rhsMax =   9.57828261149984E-12  2.71865163101459E-01
 cg2d: Sum(rhs),rhsMax =   9.67764757220380E-12  2.71297475357411E-01
 cg2d: Sum(rhs),rhsMax =   9.80004966066872E-12  2.70530625175983E-01
 cg2d: Sum(rhs),rhsMax =   9.90851845017460E-12  2.69636806897100E-01
 cg2d: Sum(rhs),rhsMax =   1.00536801106443E-11  2.68487673159785E-01
 cg2d: Sum(rhs),rhsMax =   1.01741393088162E-11  2.67290172216967E-01
 cg2d: Sum(rhs),rhsMax =   1.03039798915461E-11  2.65808173840835E-01
 cg2d: Sum(rhs),rhsMax =   1.04436459480439E-11  2.64137718490007E-01
 cg2d: Sum(rhs),rhsMax =   1.05906394765043E-11  2.62340834484582E-01
 cg2d: Sum(rhs),rhsMax =   1.07432396312390E-11  2.60339600464608E-01
 cg2d: Sum(rhs),rhsMax =   1.08875131132891E-11  2.57855924194747E-01
 cg2d: Sum(rhs),rhsMax =   1.10502162975479E-11  2.55366640311436E-01
 cg2d: Sum(rhs),rhsMax =   1.12342357638795E-11  2.52698714811750E-01
 cg2d: Sum(rhs),rhsMax =   1.14084852675944E-11  2.49995958546421E-01
 cg2d: Sum(rhs),rhsMax =   1.15908949105403E-11  2.47132949218988E-01
 cg2d: Sum(rhs),rhsMax =   1.17916787445438E-11  2.44211905564921E-01
 cg2d: Sum(rhs),rhsMax =   1.19780851903784E-11  2.41085583543733E-01
 cg2d: Sum(rhs),rhsMax =   1.22108989586422E-11  2.37985383893230E-01
 cg2d: Sum(rhs),rhsMax =   1.24539267787327E-11  2.34756010490024E-01
 cg2d: Sum(rhs),rhsMax =   1.27129418103777E-11  2.30831232671253E-01
 cg2d: Sum(rhs),rhsMax =   1.29734001319548E-11  2.27469774186606E-01
 cg2d: Sum(rhs),rhsMax =   1.32329702751122E-11  2.24013596851337E-01
 cg2d: Sum(rhs),rhsMax =   1.35117472765955E-11  2.20407321566675E-01
 cg2d: Sum(rhs),rhsMax =   1.38178357644847E-11  2.16793373128602E-01
 cg2d: Sum(rhs),rhsMax =   1.40967237882705E-11  2.13644396282549E-01
 cg2d: Sum(rhs),rhsMax =   1.38785649639317E-11  2.17777242472130E-01
 cg2d: Sum(rhs),rhsMax =   1.37343469930329E-11  2.21749059228082E-01
 cg2d: Sum(rhs),rhsMax =   1.35412792090506E-11  2.25617876405896E-01
 cg2d: Sum(rhs),rhsMax =   1.34251498806748E-11  2.29285090325485E-01
 cg2d: Sum(rhs),rhsMax =   1.33436595106673E-11  2.32766724430615E-01
 cg2d: Sum(rhs),rhsMax =   1.32613919845426E-11  2.36061965998039E-01
 cg2d: Sum(rhs),rhsMax =   1.31398225633461E-11  2.39184533205902E-01
 cg2d: Sum(rhs),rhsMax =   1.30622179739248E-11  2.42116244686561E-01
 cg2d: Sum(rhs),rhsMax =   1.30123689601191E-11  2.44870099659672E-01
 cg2d: Sum(rhs),rhsMax =   1.29792843139853E-11  2.47405629817945E-01
 cg2d: Sum(rhs),rhsMax =   1.29465327347589E-11  2.49773683930752E-01
 cg2d: Sum(rhs),rhsMax =   1.29483090915983E-11  2.51965715581457E-01
 cg2d: Sum(rhs),rhsMax =   1.29636301693381E-11  2.53958684063199E-01
 cg2d: Sum(rhs),rhsMax =   1.29743993326770E-11  2.55796867447332E-01
 cg2d: Sum(rhs),rhsMax =   1.30195854097792E-11  2.57444355986389E-01
 cg2d: Sum(rhs),rhsMax =   1.30530031228204E-11  2.58947678914377E-01
 cg2d: Sum(rhs),rhsMax =   1.29847244068060E-11  2.60266997847844E-01
 cg2d: Sum(rhs),rhsMax =   1.28738131266459E-11  2.61385812065135E-01
 cg2d: Sum(rhs),rhsMax =   1.28057564552364E-11  2.62298655253533E-01
 cg2d: Sum(rhs),rhsMax =   1.27515775716347E-11  2.63101018379980E-01
 cg2d: Sum(rhs),rhsMax =   1.27070576283472E-11  2.63709102679692E-01
 cg2d: Sum(rhs),rhsMax =   1.26854082793670E-11  2.64172462727077E-01
 cg2d: Sum(rhs),rhsMax =   1.26449961612707E-11  2.64506764068932E-01
 cg2d: Sum(rhs),rhsMax =   1.25717214416454E-11  2.64617224215271E-01
 cg2d: Sum(rhs),rhsMax =   1.25959243035823E-11  2.64565473669774E-01
 cg2d: Sum(rhs),rhsMax =   1.26821886325956E-11  2.64278222027127E-01
 cg2d: Sum(rhs),rhsMax =   1.27595711774120E-11  2.63884392346030E-01
 cg2d: Sum(rhs),rhsMax =   1.28759225503927E-11  2.63292972732304E-01
 cg2d: Sum(rhs),rhsMax =   1.30067068226936E-11  2.62076844107835E-01
 cg2d: Sum(rhs),rhsMax =   1.31396005187412E-11  2.61055395940143E-01
 cg2d: Sum(rhs),rhsMax =   1.32774902183996E-11  2.59953184048620E-01
 cg2d: Sum(rhs),rhsMax =   1.34283695274462E-11  2.58629435748906E-01
 cg2d: Sum(rhs),rhsMax =   1.34761091175051E-11  2.57136881152521E-01
 cg2d: Sum(rhs),rhsMax =   1.35363942277422E-11  2.55460941228914E-01
 cg2d: Sum(rhs),rhsMax =   1.36368694114708E-11  2.53657889635954E-01
 cg2d: Sum(rhs),rhsMax =   1.37589939441796E-11  2.51759159893168E-01
 cg2d: Sum(rhs),rhsMax =   1.39146472122320E-11  2.49329792700521E-01
 cg2d: Sum(rhs),rhsMax =   1.40496503320264E-11  2.47165371459519E-01
 cg2d: Sum(rhs),rhsMax =   1.41480160920082E-11  2.44960494479688E-01
 cg2d: Sum(rhs),rhsMax =   1.42068579123134E-11  2.42601449390662E-01
 cg2d: Sum(rhs),rhsMax =   1.44197986884365E-11  2.40116088044203E-01
 cg2d: Sum(rhs),rhsMax =   1.46227474573379E-11  2.37576903017730E-01
 cg2d: Sum(rhs),rhsMax =   1.48401291255595E-11  2.34885502529942E-01
 cg2d: Sum(rhs),rhsMax =   1.50768286744096E-11  2.31693174065589E-01
 cg2d: Sum(rhs),rhsMax =   1.53052015505750E-11  2.28794178945822E-01
 cg2d: Sum(rhs),rhsMax =   1.55462309692211E-11  2.25823190123652E-01
 cg2d: Sum(rhs),rhsMax =   1.57983626181135E-11  2.22734111440367E-01
 cg2d: Sum(rhs),rhsMax =   1.60785829095289E-11  2.19534968774744E-01
 cg2d: Sum(rhs),rhsMax =   1.63743463232890E-11  2.16081711894420E-01
 cg2d: Sum(rhs),rhsMax =   1.66736624507280E-11  2.12678819048821E-01
 cg2d: Sum(rhs),rhsMax =   1.70025105106220E-11  2.09196435620126E-01
 cg2d: Sum(rhs),rhsMax =   1.73610015252734E-11  2.05640343522450E-01
 cg2d: Sum(rhs),rhsMax =   1.77495795838922E-11  2.01907703062281E-01
 cg2d: Sum(rhs),rhsMax =   1.81213932748392E-11  1.98204307355417E-01
 cg2d: Sum(rhs),rhsMax =   1.85544912767455E-11  1.94354126102900E-01
 cg2d: Sum(rhs),rhsMax =   1.89155358043536E-11  1.91264218902704E-01
 cg2d: Sum(rhs),rhsMax =   1.87121429462422E-11  1.93726184835632E-01
 cg2d: Sum(rhs),rhsMax =   1.85420567788697E-11  1.96042908017698E-01
 cg2d: Sum(rhs),rhsMax =   1.83774107043178E-11  1.98198349409233E-01
 cg2d: Sum(rhs),rhsMax =   1.82365234024928E-11  2.00227233686135E-01
 cg2d: Sum(rhs),rhsMax =   1.80946368999457E-11  2.02336871119759E-01
 cg2d: Sum(rhs),rhsMax =   1.75632841603601E-11  2.09168859644068E-01
 cg2d: Sum(rhs),rhsMax =   1.70785607878088E-11  2.15480184654457E-01
 cg2d: Sum(rhs),rhsMax =   1.66712199600738E-11  2.21178636922956E-01
 cg2d: Sum(rhs),rhsMax =   1.63189461943603E-11  2.26309642387518E-01
 cg2d: Sum(rhs),rhsMax =   1.60447211072778E-11  2.30791619074771E-01
 cg2d: Sum(rhs),rhsMax =   1.58559831930916E-11  2.34623271660250E-01
 cg2d: Sum(rhs),rhsMax =   1.57256430100006E-11  2.37785418842882E-01
 cg2d: Sum(rhs),rhsMax =   1.56481494428817E-11  2.40250113642612E-01
 cg2d: Sum(rhs),rhsMax =   1.55778723254230E-11  2.42112479131511E-01
 cg2d: Sum(rhs),rhsMax =   1.55735424556269E-11  2.43375313808691E-01
 cg2d: Sum(rhs),rhsMax =   1.56371582349379E-11  2.43888811918466E-01
 cg2d: Sum(rhs),rhsMax =   1.57615032136960E-11  2.43742493775465E-01
 cg2d: Sum(rhs),rhsMax =   1.59038338054529E-11  2.42916551212989E-01
 cg2d: Sum(rhs),rhsMax =   1.61065605297495E-11  2.41430730789145E-01
 cg2d: Sum(rhs),rhsMax =   1.63183910828479E-11  2.39337858809944E-01
 cg2d: Sum(rhs),rhsMax =   1.66037184001766E-11  2.36521383315698E-01
 cg2d: Sum(rhs),rhsMax =   1.69190217391701E-11  2.33165027105311E-01
 cg2d: Sum(rhs),rhsMax =   1.73067116193693E-11  2.29148348406144E-01
 cg2d: Sum(rhs),rhsMax =   1.76472170210218E-11  2.24582325364932E-01
 cg2d: Sum(rhs),rhsMax =   1.79816161960389E-11  2.19463662699554E-01
 cg2d: Sum(rhs),rhsMax =   1.84190440677412E-11  2.13832054991291E-01
 cg2d: Sum(rhs),rhsMax =   1.89390725324756E-11  2.08054157749332E-01
 cg2d: Sum(rhs),rhsMax =   1.91364701862540E-11  2.06285925598345E-01
 cg2d: Sum(rhs),rhsMax =   1.92719173952582E-11  2.05033540244799E-01
 cg2d: Sum(rhs),rhsMax =   1.94475546777539E-11  2.03649605014263E-01
 cg2d: Sum(rhs),rhsMax =   1.96282989861629E-11  2.02207072583970E-01
 cg2d: Sum(rhs),rhsMax =   1.98006055995847E-11  2.00619571596809E-01
 cg2d: Sum(rhs),rhsMax =   1.99921190713326E-11  1.98926523193170E-01
 cg2d: Sum(rhs),rhsMax =   2.02143857208625E-11  1.97120475691505E-01
 cg2d: Sum(rhs),rhsMax =   2.04416483740033E-11  1.95262127030327E-01
 cg2d: Sum(rhs),rhsMax =   2.06883399300750E-11  1.93347244931674E-01
 cg2d: Sum(rhs),rhsMax =   2.09389172667329E-11  1.91379871847491E-01
 cg2d: Sum(rhs),rhsMax =   2.11940465177918E-11  1.89380897817610E-01
 cg2d: Sum(rhs),rhsMax =   2.14586126645600E-11  1.87319507860535E-01
 cg2d: Sum(rhs),rhsMax =   2.17448281603083E-11  1.85175031261598E-01
 cg2d: Sum(rhs),rhsMax =   2.20413687301857E-11  1.82951181738686E-01
 cg2d: Sum(rhs),rhsMax =   2.23648877195615E-11  1.80691879672517E-01
 cg2d: Sum(rhs),rhsMax =   2.26925145341283E-11  1.78139386935840E-01
 cg2d: Sum(rhs),rhsMax =   2.27120544593618E-11  1.78276110815792E-01
 cg2d: Sum(rhs),rhsMax =   2.21477280959448E-11  1.83245019479450E-01
 cg2d: Sum(rhs),rhsMax =   2.13621342837200E-11  1.90065011283784E-01
 cg2d: Sum(rhs),rhsMax =   2.06884509523775E-11  1.96395837644436E-01
 cg2d: Sum(rhs),rhsMax =   2.00799377125804E-11  2.02335203539369E-01
 cg2d: Sum(rhs),rhsMax =   1.95491400845071E-11  2.07695904339922E-01
 cg2d: Sum(rhs),rhsMax =   1.90811810796276E-11  2.12550304525411E-01
 cg2d: Sum(rhs),rhsMax =   1.87106996563102E-11  2.16847523855342E-01
 cg2d: Sum(rhs),rhsMax =   1.84052773022358E-11  2.20562399317220E-01
 cg2d: Sum(rhs),rhsMax =   1.81590298353740E-11  2.23709399322371E-01
 cg2d: Sum(rhs),rhsMax =   1.79590786686390E-11  2.26318058957715E-01
 cg2d: Sum(rhs),rhsMax =   1.78278503071283E-11  2.28342452352615E-01
 cg2d: Sum(rhs),rhsMax =   1.76956227448954E-11  2.29766840561366E-01
 cg2d: Sum(rhs),rhsMax =   1.76146874864003E-11  2.30604296583417E-01
 cg2d: Sum(rhs),rhsMax =   1.75583991790518E-11  2.30861528916590E-01
 cg2d: Sum(rhs),rhsMax =   1.75596204243789E-11  2.30531673744568E-01
 cg2d: Sum(rhs),rhsMax =   1.75662817625266E-11  2.29600482968814E-01
 cg2d: Sum(rhs),rhsMax =   1.76572090282434E-11  2.28112552172042E-01
 cg2d: Sum(rhs),rhsMax =   1.77741155127364E-11  2.25986748499832E-01
 cg2d: Sum(rhs),rhsMax =   1.79622983154104E-11  2.23358794687456E-01
 cg2d: Sum(rhs),rhsMax =   1.81820114519837E-11  2.20259670446828E-01
 cg2d: Sum(rhs),rhsMax =   1.85261805896175E-11  2.16617712999011E-01
 cg2d: Sum(rhs),rhsMax =   1.89013249496384E-11  2.12482148940396E-01
 cg2d: Sum(rhs),rhsMax =   1.93201010745270E-11  2.07929156033212E-01
 cg2d: Sum(rhs),rhsMax =   1.98151495212073E-11  2.02796771835884E-01
 cg2d: Sum(rhs),rhsMax =   2.03704830781248E-11  1.97224960629467E-01
 cg2d: Sum(rhs),rhsMax =   2.09828820985081E-11  1.91452186731645E-01
 cg2d: Sum(rhs),rhsMax =   2.09608996826205E-11  1.91655692298382E-01
 cg2d: Sum(rhs),rhsMax =   2.09078310220434E-11  1.92022704967443E-01
 cg2d: Sum(rhs),rhsMax =   2.08386641276093E-11  1.92371789653613E-01
 cg2d: Sum(rhs),rhsMax =   2.07986960987228E-11  1.92700383889830E-01
 cg2d: Sum(rhs),rhsMax =   2.07149852826660E-11  1.93006141854231E-01
 cg2d: Sum(rhs),rhsMax =   2.06277217529305E-11  1.93287396091096E-01
 cg2d: Sum(rhs),rhsMax =   2.05757633153780E-11  1.93543341915132E-01
 cg2d: Sum(rhs),rhsMax =   2.05472305836452E-11  1.93773663575481E-01
 cg2d: Sum(rhs),rhsMax =   2.04714023510633E-11  1.93978295519496E-01
 cg2d: Sum(rhs),rhsMax =   2.04087857724744E-11  1.94157206438449E-01
 cg2d: Sum(rhs),rhsMax =   2.03425054579043E-11  1.94310416804532E-01
 cg2d: Sum(rhs),rhsMax =   2.02918792879814E-11  1.94438079721711E-01
 cg2d: Sum(rhs),rhsMax =   2.02302619101147E-11  1.94540410208885E-01
 cg2d: Sum(rhs),rhsMax =   2.01805239186115E-11  1.94618012880984E-01
 cg2d: Sum(rhs),rhsMax =   2.01502148300392E-11  1.94671637492662E-01
 cg2d: Sum(rhs),rhsMax =   2.01283434364541E-11  1.94701911860298E-01
 cg2d: Sum(rhs),rhsMax =   2.00919281212464E-11  1.94709031113153E-01
 cg2d: Sum(rhs),rhsMax =   2.00715000175933E-11  1.94693538023149E-01
 cg2d: Sum(rhs),rhsMax =   2.00872651845430E-11  1.94656574274055E-01
 cg2d: Sum(rhs),rhsMax =   2.00658378801677E-11  1.94599707429784E-01
 cg2d: Sum(rhs),rhsMax =   2.00608418765569E-11  1.94524524336997E-01
 cg2d: Sum(rhs),rhsMax =   2.00089944613069E-11  1.94432249223368E-01
 cg2d: Sum(rhs),rhsMax =   2.00015559670419E-11  1.94324045267680E-01
 cg2d: Sum(rhs),rhsMax =   1.99770200381977E-11  1.94200970950768E-01
 cg2d: Sum(rhs),rhsMax =   2.00301997210772E-11  1.94063727062774E-01
 cg2d: Sum(rhs),rhsMax =   2.00158778440596E-11  1.93912737773972E-01
 cg2d: Sum(rhs),rhsMax =   2.00039984576961E-11  1.93748396791979E-01
 cg2d: Sum(rhs),rhsMax =   2.00053307253256E-11  1.93571093526585E-01
 cg2d: Sum(rhs),rhsMax =   2.00192085131334E-11  1.93381164490141E-01
 cg2d: Sum(rhs),rhsMax =   2.00135463757078E-11  1.93716112293207E-01
 cg2d: Sum(rhs),rhsMax =   1.99307237380708E-11  1.94394363235688E-01
 cg2d: Sum(rhs),rhsMax =   1.99261718236698E-11  1.94653162426053E-01
 cg2d: Sum(rhs),rhsMax =   1.99700256331425E-11  1.94450481047451E-01
 cg2d: Sum(rhs),rhsMax =   2.00406358175087E-11  1.93786512036696E-01
 cg2d: Sum(rhs),rhsMax =   2.01528793652983E-11  1.92684219066490E-01
 cg2d: Sum(rhs),rhsMax =   2.02304839547196E-11  1.91658761755920E-01
 cg2d: Sum(rhs),rhsMax =   2.02622363332239E-11  1.91338669529045E-01
 cg2d: Sum(rhs),rhsMax =   2.03373984319910E-11  1.90994214978911E-01
 cg2d: Sum(rhs),rhsMax =   2.04045669249808E-11  1.90624084888252E-01
 cg2d: Sum(rhs),rhsMax =   2.04759542654642E-11  1.90227383688138E-01
 cg2d: Sum(rhs),rhsMax =   2.05054861979193E-11  1.89803177965411E-01
 cg2d: Sum(rhs),rhsMax =   2.05906403039080E-11  1.89351290365851E-01
 cg2d: Sum(rhs),rhsMax =   2.06683559156318E-11  1.88872152614013E-01
 cg2d: Sum(rhs),rhsMax =   2.07501793525466E-11  1.88366096242381E-01
 cg2d: Sum(rhs),rhsMax =   2.08386641276093E-11  1.87833246210061E-01
 cg2d: Sum(rhs),rhsMax =   2.09264827688571E-11  1.87274028149493E-01
 cg2d: Sum(rhs),rhsMax =   2.10221839935798E-11  1.86689057135459E-01
 cg2d: Sum(rhs),rhsMax =   2.10796935462554E-11  1.86079305898746E-01
 cg2d: Sum(rhs),rhsMax =   2.11528572435782E-11  1.85446269824292E-01
 cg2d: Sum(rhs),rhsMax =   2.12366790819374E-11  1.84791656080330E-01
 cg2d: Sum(rhs),rhsMax =   2.12952988576376E-11  1.84116857863751E-01
 cg2d: Sum(rhs),rhsMax =   2.13876694132864E-11  1.83422586860739E-01
 cg2d: Sum(rhs),rhsMax =   2.14990247826563E-11  1.82709608818554E-01
 cg2d: Sum(rhs),rhsMax =   2.16335838132409E-11  1.81978655696235E-01
 cg2d: Sum(rhs),rhsMax =   2.17486029185920E-11  1.81230213554998E-01
 cg2d: Sum(rhs),rhsMax =   2.18680629160417E-11  1.80464326725759E-01
 cg2d: Sum(rhs),rhsMax =   2.19452234162532E-11  1.79680430235748E-01
 cg2d: Sum(rhs),rhsMax =   2.20201634704154E-11  1.78877835972474E-01
 cg2d: Sum(rhs),rhsMax =   2.20690132834989E-11  1.78055642417825E-01
 cg2d: Sum(rhs),rhsMax =   2.21085372231755E-11  1.77355686816015E-01
 cg2d: Sum(rhs),rhsMax =   2.20916618332012E-11  1.76964436205136E-01
 cg2d: Sum(rhs),rhsMax =   2.20907736547815E-11  1.76563868768515E-01
 cg2d: Sum(rhs),rhsMax =   2.20934381900406E-11  1.76154848806145E-01
 cg2d: Sum(rhs),rhsMax =   2.20912177439914E-11  1.75738449607620E-01
 cg2d: Sum(rhs),rhsMax =   2.20961027252997E-11  1.75315882679747E-01
 cg2d: Sum(rhs),rhsMax =   2.20792273353254E-11  1.74888417420056E-01
 cg2d: Sum(rhs),rhsMax =   2.21209717210513E-11  1.74457295716069E-01
 cg2d: Sum(rhs),rhsMax =   2.21371809772108E-11  1.74023647174024E-01
 cg2d: Sum(rhs),rhsMax =   2.21755946938629E-11  1.73588411452648E-01
 cg2d: Sum(rhs),rhsMax =   2.22214469047799E-11  1.73152274192316E-01
 cg2d: Sum(rhs),rhsMax =   2.22551976847285E-11  1.72715622152720E-01
 cg2d: Sum(rhs),rhsMax =   2.22948326467076E-11  1.72278521468954E-01
 cg2d: Sum(rhs),rhsMax =   2.23014939848554E-11  1.71840720647671E-01
 cg2d: Sum(rhs),rhsMax =   2.22857288179057E-11  1.71401677401731E-01
 cg2d: Sum(rhs),rhsMax =   2.23188134640395E-11  1.70960606039229E-01
 cg2d: Sum(rhs),rhsMax =   2.23270291144217E-11  1.70516540206669E-01
 cg2d: Sum(rhs),rhsMax =   2.23409069022296E-11  1.70068404562312E-01
 cg2d: Sum(rhs),rhsMax =   2.23208118654838E-11  1.69615088531893E-01
 cg2d: Sum(rhs),rhsMax =   2.23332463633596E-11  1.69155515669630E-01
 cg2d: Sum(rhs),rhsMax =   2.23447926828158E-11  1.68688703208740E-01
 cg2d: Sum(rhs),rhsMax =   2.23772111951348E-11  1.68213807949343E-01
 cg2d: Sum(rhs),rhsMax =   2.24180674024410E-11  1.67730156443642E-01
 cg2d: Sum(rhs),rhsMax =   2.24762430889314E-11  1.67237259212604E-01
 cg2d: Sum(rhs),rhsMax =   2.25077734228307E-11  1.66734810205259E-01
 cg2d: Sum(rhs),rhsMax =   2.25779395179870E-11  1.66222673730461E-01
 cg2d: Sum(rhs),rhsMax =   2.26183516360834E-11  1.65700861645023E-01
 cg2d: Sum(rhs),rhsMax =   2.26689778060063E-11  1.65169503818621E-01
 cg2d: Sum(rhs),rhsMax =   2.27386998119528E-11  1.64628815037143E-01
 cg2d: Sum(rhs),rhsMax =   2.27897700710855E-11  1.64079061716848E-01
 cg2d: Sum(rhs),rhsMax =   2.28499441590202E-11  1.63520532066829E-01
 cg2d: Sum(rhs),rhsMax =   2.29039009980170E-11  1.62953513426722E-01
 cg2d: Sum(rhs),rhsMax =   2.29649632643714E-11  1.62378280067451E-01
 cg2d: Sum(rhs),rhsMax =   2.30208074825100E-11  1.61795093491996E-01
 cg2d: Sum(rhs),rhsMax =   2.31041852316594E-11  1.61204215205467E-01
 cg2d: Sum(rhs),rhsMax =   2.31767938174698E-11  1.60605929425453E-01
 cg2d: Sum(rhs),rhsMax =   2.32325270133060E-11  1.60000570989669E-01
 cg2d: Sum(rhs),rhsMax =   2.32981411940614E-11  1.59388552576889E-01
 cg2d: Sum(rhs),rhsMax =   2.33770780511122E-11  1.58770385789302E-01
 cg2d: Sum(rhs),rhsMax =   2.34621211347985E-11  1.58146692560930E-01
 cg2d: Sum(rhs),rhsMax =   2.35158559291904E-11  1.57518206026949E-01
 cg2d: Sum(rhs),rhsMax =   2.35750308164029E-11  1.56885762321559E-01
 cg2d: Sum(rhs),rhsMax =   2.36866082303777E-11  1.56250285837955E-01
 cg2d: Sum(rhs),rhsMax =   2.37898589716679E-11  1.55612770010390E-01
 cg2d: Sum(rhs),rhsMax =   2.38409292308006E-11  1.54974254228486E-01
 cg2d: Sum(rhs),rhsMax =   2.39306352511903E-11  1.54335796188318E-01
 cg2d: Sum(rhs),rhsMax =   2.40194530931603E-11  1.53698438891506E-01
 cg2d: Sum(rhs),rhsMax =   2.41215936114259E-11  1.53063173025877E-01
 cg2d: Sum(rhs),rhsMax =   2.41836550785024E-11  1.52728148912207E-01
 cg2d: Sum(rhs),rhsMax =   2.41685560453675E-11  1.52648675447753E-01
 cg2d: Sum(rhs),rhsMax =   2.41628939079419E-11  1.52570152131416E-01
 cg2d: Sum(rhs),rhsMax =   2.41645592424788E-11  1.52493128276686E-01
 cg2d: Sum(rhs),rhsMax =   2.41716646698364E-11  1.52418000273454E-01
 cg2d: Sum(rhs),rhsMax =   2.41651143539912E-11  1.52344930099548E-01
 cg2d: Sum(rhs),rhsMax =   2.40749642443916E-11  1.52912625539936E-01
 cg2d: Sum(rhs),rhsMax =   2.39904762722176E-11  1.53507749212574E-01
 cg2d: Sum(rhs),rhsMax =   2.38906672223038E-11  1.54049816312167E-01
 cg2d: Sum(rhs),rhsMax =   2.38877806424398E-11  1.54602867035526E-01
 cg2d: Sum(rhs),rhsMax =   2.37665442881507E-11  1.55089016849717E-01
 cg2d: Sum(rhs),rhsMax =   2.36857200519580E-11  1.55506098623176E-01
 cg2d: Sum(rhs),rhsMax =   2.35926833624944E-11  1.55855529314218E-01
 cg2d: Sum(rhs),rhsMax =   2.35128583270239E-11  1.56113876958144E-01
 cg2d: Sum(rhs),rhsMax =   2.34228192397268E-11  1.56273753649019E-01
 cg2d: Sum(rhs),rhsMax =   2.34197106152578E-11  1.56298475614289E-01
 cg2d: Sum(rhs),rhsMax =   2.34113839425731E-11  1.56230194840687E-01
 cg2d: Sum(rhs),rhsMax =   2.30772068121610E-11  1.58565583385876E-01
 cg2d: Sum(rhs),rhsMax =   2.26552110405009E-11  1.61553580503920E-01
 cg2d: Sum(rhs),rhsMax =   2.22535323501916E-11  1.64482143768846E-01
(PID.TID 0000.0001)      cg2d_init_res =   9.21024887805592E-02
(PID.TID 0000.0001)      cg2d_iters(min,last) =      -1      30
(PID.TID 0000.0001)      cg2d_last_res =   3.91660400361652E-14
(PID.TID 0000.0001) // =======================================================
(PID.TID 0000.0001) // Begin MONITOR dynamic field statistics
(PID.TID 0000.0001) // =======================================================
(PID.TID 0000.0001) %MON time_tsnumber                =                  6240
(PID.TID 0000.0001) %MON time_secondsf                =   9.3600000000000E+04
(PID.TID 0000.0001) %MON dynstat_eta_max              =   1.5493964532451E-02
(PID.TID 0000.0001) %MON dynstat_eta_min              =  -2.2339802673457E-02
(PID.TID 0000.0001) %MON dynstat_eta_mean             =  -4.2319009239505E-15
(PID.TID 0000.0001) %MON dynstat_eta_sd               =   7.9514556960009E-03
(PID.TID 0000.0001) %MON dynstat_eta_del2             =   2.1651658779668E-04
(PID.TID 0000.0001) %MON dynstat_uvel_max             =   1.6295070690517E+00
(PID.TID 0000.0001) %MON dynstat_uvel_min             =  -6.3380283048873E-01
(PID.TID 0000.0001) %MON dynstat_uvel_mean            =  -4.6087230010048E-04
(PID.TID 0000.0001) %MON dynstat_uvel_sd              =   2.4172708971169E-01
(PID.TID 0000.0001) %MON dynstat_uvel_del2            =   9.0463224169941E-04
(PID.TID 0000.0001) %MON dynstat_vvel_max             =   0.0000000000000E+00
(PID.TID 0000.0001) %MON dynstat_vvel_min             =   0.0000000000000E+00
(PID.TID 0000.0001) %MON dynstat_vvel_mean            =   0.0000000000000E+00
(PID.TID 0000.0001) %MON dynstat_vvel_sd              =   0.0000000000000E+00
(PID.TID 0000.0001) %MON dynstat_vvel_del2            =   0.0000000000000E+00
(PID.TID 0000.0001) %MON dynstat_wvel_max             =   3.7518341360724E-02
(PID.TID 0000.0001) %MON dynstat_wvel_min             =  -2.5689993134483E-02
(PID.TID 0000.0001) %MON dynstat_wvel_mean            =  -7.1901952749665E-20
(PID.TID 0000.0001) %MON dynstat_wvel_sd              =   4.4253467470644E-03
(PID.TID 0000.0001) %MON dynstat_wvel_del2            =   8.7180138760315E-05
(PID.TID 0000.0001) %MON dynstat_theta_max            =   1.5000000000011E+01
(PID.TID 0000.0001) %MON dynstat_theta_min            =   9.9999999999940E+00
(PID.TID 0000.0001) %MON dynstat_theta_mean           =   1.2699447039481E+01
(PID.TID 0000.0001) %MON dynstat_theta_sd             =   2.2761526620293E+00
(PID.TID 0000.0001) %MON dynstat_theta_del2           =   2.1314326145303E-03
(PID.TID 0000.0001) %MON dynstat_salt_max             =   3.5000000000000E+01
(PID.TID 0000.0001) %MON dynstat_salt_min             =   3.5000000000000E+01
(PID.TID 0000.0001) %MON dynstat_salt_mean            =   3.5000000000000E+01
(PID.TID 0000.0001) %MON dynstat_salt_sd              =   1.0658141036402E-13
(PID.TID 0000.0001) %MON dynstat_salt_del2            =   0.0000000000000E+00
(PID.TID 0000.0001) %MON dynstat_sst_max              =   1.5000000000003E+01
(PID.TID 0000.0001) %MON dynstat_sst_min              =   1.4959031800334E+01
(PID.TID 0000.0001) %MON dynstat_sst_mean             =   1.4997465136163E+01
(PID.TID 0000.0001) %MON dynstat_sst_sd               =   6.8084989050118E-03
(PID.TID 0000.0001) %MON dynstat_sst_del2             =   1.6778914037331E-04
(PID.TID 0000.0001) %MON dynstat_sss_max              =   3.5000000000000E+01
(PID.TID 0000.0001) %MON dynstat_sss_min              =   3.5000000000000E+01
(PID.TID 0000.0001) %MON dynstat_sss_mean             =   3.5000000000000E+01
(PID.TID 0000.0001) %MON dynstat_sss_sd               =   4.2632564145606E-14
(PID.TID 0000.0001) %MON dynstat_sss_del2             =   0.0000000000000E+00
(PID.TID 0000.0001) %MON forcing_qnet_max             =   0.0000000000000E+00
(PID.TID 0000.0001) %MON forcing_qnet_min             =   0.0000000000000E+00
(PID.TID 0000.0001) %MON forcing_qnet_mean            =   0.0000000000000E+00
(PID.TID 0000.0001) %MON forcing_qnet_sd              =   0.0000000000000E+00
(PID.TID 0000.0001) %MON forcing_qnet_del2            =   0.0000000000000E+00
(PID.TID 0000.0001) %MON forcing_qsw_max              =   0.0000000000000E+00
(PID.TID 0000.0001) %MON forcing_qsw_min              =   0.0000000000000E+00
(PID.TID 0000.0001) %MON forcing_qsw_mean             =   0.0000000000000E+00
(PID.TID 0000.0001) %MON forcing_qsw_sd               =   0.0000000000000E+00
(PID.TID 0000.0001) %MON forcing_qsw_del2             =   0.0000000000000E+00
(PID.TID 0000.0001) %MON forcing_empmr_max            =   0.0000000000000E+00
(PID.TID 0000.0001) %MON forcing_empmr_min            =   0.0000000000000E+00
(PID.TID 0000.0001) %MON forcing_empmr_mean           =   0.0000000000000E+00
(PID.TID 0000.0001) %MON forcing_empmr_sd             =   0.0000000000000E+00
(PID.TID 0000.0001) %MON forcing_empmr_del2           =   0.0000000000000E+00
(PID.TID 0000.0001) %MON forcing_fu_max               =   0.0000000000000E+00
(PID.TID 0000.0001) %MON forcing_fu_min               =   0.0000000000000E+00
(PID.TID 0000.0001) %MON forcing_fu_mean              =   0.0000000000000E+00
(PID.TID 0000.0001) %MON forcing_fu_sd                =   0.0000000000000E+00
(PID.TID 0000.0001) %MON forcing_fu_del2              =   0.0000000000000E+00
(PID.TID 0000.0001) %MON forcing_fv_max               =   0.0000000000000E+00
(PID.TID 0000.0001) %MON forcing_fv_min               =   0.0000000000000E+00
(PID.TID 0000.0001) %MON forcing_fv_mean              =   0.0000000000000E+00
(PID.TID 0000.0001) %MON forcing_fv_sd                =   0.0000000000000E+00
(PID.TID 0000.0001) %MON forcing_fv_del2              =   0.0000000000000E+00
(PID.TID 0000.0001) %MON advcfl_uvel_max              =   7.3868640986398E-02
(PID.TID 0000.0001) %MON advcfl_vvel_max              =   0.0000000000000E+00
(PID.TID 0000.0001) %MON advcfl_wvel_max              =   2.9171337759039E-01
(PID.TID 0000.0001) %MON advcfl_W_hf_max              =   2.9543998533671E-01
(PID.TID 0000.0001) %MON pe_b_mean                    =   1.7748703865166E-06
(PID.TID 0000.0001) %MON ke_max                       =   1.0950416171675E+00
(PID.TID 0000.0001) %MON ke_mean                      =   2.9539502542177E-02
(PID.TID 0000.0001) %MON ke_vol                       =   8.5338127039305E+10
(PID.TID 0000.0001) %MON vort_r_min                   =   0.0000000000000E+00
(PID.TID 0000.0001) %MON vort_r_max                   =   0.0000000000000E+00
(PID.TID 0000.0001) %MON vort_a_mean                  =   0.0000000000000E+00
(PID.TID 0000.0001) %MON vort_a_sd                    =   0.0000000000000E+00
(PID.TID 0000.0001) %MON vort_p_mean                  =   0.0000000000000E+00
(PID.TID 0000.0001) %MON vort_p_sd                    =   0.0000000000000E+00
(PID.TID 0000.0001) %MON surfExpan_theta_mean         =   2.1929831670746E-09
(PID.TID 0000.0001) %MON surfExpan_salt_mean          =  -1.2783897016694E-18
(PID.TID 0000.0001) // =======================================================
(PID.TID 0000.0001) // End MONITOR dynamic field statistics
(PID.TID 0000.0001) // =======================================================
(PID.TID 0000.0001) // =======================================================
(PID.TID 0000.0001) // Begin OBCS MONITOR field statistics
(PID.TID 0000.0001) // =======================================================
(PID.TID 0000.0001) %MON obc_E_uVel_max               =   0.0000000000000E+00
(PID.TID 0000.0001) %MON obc_E_uVel_min               =   0.0000000000000E+00
(PID.TID 0000.0001) %MON obc_E_uVel_mean              =   0.0000000000000E+00
(PID.TID 0000.0001) %MON obc_E_uVel_sd                =   0.0000000000000E+00
(PID.TID 0000.0001) %MON obc_E_uVel_Int               =   0.0000000000000E+00
(PID.TID 0000.0001) %MON obc_W_uVel_max               =   0.0000000000000E+00
(PID.TID 0000.0001) %MON obc_W_uVel_min               =   0.0000000000000E+00
(PID.TID 0000.0001) %MON obc_W_uVel_mean              =   0.0000000000000E+00
(PID.TID 0000.0001) %MON obc_W_uVel_sd                =   0.0000000000000E+00
(PID.TID 0000.0001) %MON obc_W_uVel_Int               =   0.0000000000000E+00
(PID.TID 0000.0001) // =======================================================
(PID.TID 0000.0001) // End OBCS MONITOR field statistics
(PID.TID 0000.0001) // =======================================================
 cg2d: Sum(rhs),rhsMax =   2.18763895887264E-11  1.67345019458460E-01
 cg2d: Sum(rhs),rhsMax =   2.15075734999459E-11  1.70150825940624E-01
 cg2d: Sum(rhs),rhsMax =   2.11604067601456E-11  1.72883970992553E-01
 cg2d: Sum(rhs),rhsMax =   2.08459915995718E-11  1.75545728644847E-01
 cg2d: Sum(rhs),rhsMax =   2.05150341159310E-11  1.78201293252677E-01
 cg2d: Sum(rhs),rhsMax =   2.01877403682715E-11  1.80773801821738E-01
 cg2d: Sum(rhs),rhsMax =   1.99235072884107E-11  1.83154492006484E-01
 cg2d: Sum(rhs),rhsMax =   1.96799243568080E-11  1.85464081580391E-01
 cg2d: Sum(rhs),rhsMax =   1.94398941388840E-11  1.87822191828439E-01
 cg2d: Sum(rhs),rhsMax =   1.92359461692604E-11  1.89892725105679E-01
 cg2d: Sum(rhs),rhsMax =   1.90374382924574E-11  1.92025921130197E-01
 cg2d: Sum(rhs),rhsMax =   1.88501436682031E-11  1.93941929001910E-01
 cg2d: Sum(rhs),rhsMax =   1.86350934683333E-11  1.96219679498978E-01
 cg2d: Sum(rhs),rhsMax =   1.84937620772985E-11  1.97825690541944E-01
 cg2d: Sum(rhs),rhsMax =   1.83381088092460E-11  1.99402527369896E-01
 cg2d: Sum(rhs),rhsMax =   1.81590298353740E-11  2.00964407192483E-01
 cg2d: Sum(rhs),rhsMax =   1.80405690386465E-11  2.02407774562721E-01
 cg2d: Sum(rhs),rhsMax =   1.79444237247139E-11  2.03654344432275E-01
 cg2d: Sum(rhs),rhsMax =   1.78199677236535E-11  2.04840058150376E-01
 cg2d: Sum(rhs),rhsMax =   1.77183823169003E-11  2.06006238797085E-01
 cg2d: Sum(rhs),rhsMax =   1.76338943447263E-11  2.06915559213303E-01
 cg2d: Sum(rhs),rhsMax =   1.75482961495277E-11  2.07714202211857E-01
 cg2d: Sum(rhs),rhsMax =   1.74696923593842E-11  2.08406107384490E-01
 cg2d: Sum(rhs),rhsMax =   1.73843162087906E-11  2.08977993803372E-01
 cg2d: Sum(rhs),rhsMax =   1.73209224740845E-11  2.09424821456016E-01
 cg2d: Sum(rhs),rhsMax =   1.72697411926492E-11  2.09759078591150E-01
 cg2d: Sum(rhs),rhsMax =   1.72152292421401E-11  2.09997546583331E-01
 cg2d: Sum(rhs),rhsMax =   1.71646030722172E-11  2.10117175213388E-01
 cg2d: Sum(rhs),rhsMax =   1.71479497268479E-11  2.10099646847634E-01
 cg2d: Sum(rhs),rhsMax =   1.71438419016567E-11  2.09966577118504E-01
 cg2d: Sum(rhs),rhsMax =   1.71214153965593E-11  2.09727288784763E-01
 cg2d: Sum(rhs),rhsMax =   1.71327396714105E-11  2.09375201258862E-01
 cg2d: Sum(rhs),rhsMax =   1.71490599498725E-11  2.08868376235968E-01
 cg2d: Sum(rhs),rhsMax =   1.71684888528034E-11  2.08238536385804E-01
 cg2d: Sum(rhs),rhsMax =   1.71817005067965E-11  2.07531170293720E-01
 cg2d: Sum(rhs),rhsMax =   1.72157843536525E-11  2.06716545889035E-01
 cg2d: Sum(rhs),rhsMax =   1.72409864163114E-11  2.05783967685552E-01
 cg2d: Sum(rhs),rhsMax =   1.73220326971091E-11  2.04473445770794E-01
 cg2d: Sum(rhs),rhsMax =   1.73779879375502E-11  2.03234146304145E-01
 cg2d: Sum(rhs),rhsMax =   1.74480430104040E-11  2.01893022750404E-01
 cg2d: Sum(rhs),rhsMax =   1.75363057408617E-11  2.00440964835725E-01
 cg2d: Sum(rhs),rhsMax =   1.76446635080652E-11  1.98723052375000E-01
 cg2d: Sum(rhs),rhsMax =   1.77583503457868E-11  1.96816774465697E-01
 cg2d: Sum(rhs),rhsMax =   1.78463910316395E-11  1.95100704131770E-01
 cg2d: Sum(rhs),rhsMax =   1.79399828326154E-11  1.93458459595066E-01
 cg2d: Sum(rhs),rhsMax =   1.81044068625624E-11  1.91144328230220E-01
 cg2d: Sum(rhs),rhsMax =   1.83223436422963E-11  1.88475430663138E-01
 cg2d: Sum(rhs),rhsMax =   1.84807724679104E-11  1.86185259587946E-01
 cg2d: Sum(rhs),rhsMax =   1.86484161446288E-11  1.83756397320304E-01
 cg2d: Sum(rhs),rhsMax =   1.88182802673964E-11  1.81260656032805E-01
 cg2d: Sum(rhs),rhsMax =   1.89808169182015E-11  1.79016490224078E-01
 cg2d: Sum(rhs),rhsMax =   1.88882243179478E-11  1.79075738769084E-01
 cg2d: Sum(rhs),rhsMax =   1.85456094925485E-11  1.81861537934429E-01
 cg2d: Sum(rhs),rhsMax =   1.82075465815501E-11  1.84740678121384E-01
 cg2d: Sum(rhs),rhsMax =   1.78834724806620E-11  1.87270071223391E-01
 cg2d: Sum(rhs),rhsMax =   1.76068049029254E-11  1.89706722666190E-01
 cg2d: Sum(rhs),rhsMax =   1.73824288296487E-11  1.92099776658267E-01
 cg2d: Sum(rhs),rhsMax =   1.71574976448596E-11  1.94328354473240E-01
 cg2d: Sum(rhs),rhsMax =   1.69633196378527E-11  1.96470800169218E-01
 cg2d: Sum(rhs),rhsMax =   1.67814651064191E-11  1.98475349051902E-01
 cg2d: Sum(rhs),rhsMax =   1.65895075454614E-11  2.00324109015105E-01
 cg2d: Sum(rhs),rhsMax =   1.64085411924475E-11  2.02088158926212E-01
 cg2d: Sum(rhs),rhsMax =   1.62380109358651E-11  2.03664470143412E-01
 cg2d: Sum(rhs),rhsMax =   1.60899071843801E-11  2.05133081704660E-01
 cg2d: Sum(rhs),rhsMax =   1.59402491206606E-11  2.06480053328763E-01
 cg2d: Sum(rhs),rhsMax =   1.58125734728287E-11  2.07731197504659E-01
 cg2d: Sum(rhs),rhsMax =   1.57167612258036E-11  2.08858170123588E-01
 cg2d: Sum(rhs),rhsMax =   1.56371582349379E-11  2.09844636445852E-01
 cg2d: Sum(rhs),rhsMax =   1.55765400577934E-11  2.10692000245998E-01
 cg2d: Sum(rhs),rhsMax =   1.55283563785247E-11  2.11393856647058E-01
 cg2d: Sum(rhs),rhsMax =   1.55095936094085E-11  2.11981886652545E-01
 cg2d: Sum(rhs),rhsMax =   1.54913859518047E-11  2.12438441383172E-01
 cg2d: Sum(rhs),rhsMax =   1.54722901157811E-11  2.12743964041316E-01
 cg2d: Sum(rhs),rhsMax =   1.54677382013801E-11  2.12973936407496E-01
 cg2d: Sum(rhs),rhsMax =   1.54697366028245E-11  2.13094394587938E-01
 cg2d: Sum(rhs),rhsMax =   1.55571111548625E-11  2.13080736177401E-01
 cg2d: Sum(rhs),rhsMax =   1.56727963940284E-11  2.12945642527216E-01
 cg2d: Sum(rhs),rhsMax =   1.58099089375696E-11  2.12697235064310E-01
 cg2d: Sum(rhs),rhsMax =   1.58886237500155E-11  2.12642469519244E-01
 cg2d: Sum(rhs),rhsMax =   1.59878776884170E-11  2.11914162522172E-01
 cg2d: Sum(rhs),rhsMax =   1.60318425201922E-11  2.11187875543895E-01
 cg2d: Sum(rhs),rhsMax =   1.60275126503961E-11  2.10409215309233E-01
 cg2d: Sum(rhs),rhsMax =   1.59648960718073E-11  2.09574648538500E-01
 cg2d: Sum(rhs),rhsMax =   1.59249280429208E-11  2.08433322508508E-01
 cg2d: Sum(rhs),rhsMax =   1.58734136945782E-11  2.07507802703848E-01
 cg2d: Sum(rhs),rhsMax =   1.58245638814947E-11  2.06270681920213E-01
 cg2d: Sum(rhs),rhsMax =   1.58429935837034E-11  2.04998065995677E-01
 cg2d: Sum(rhs),rhsMax =   1.59828816848062E-11  2.03511577025027E-01
 cg2d: Sum(rhs),rhsMax =   1.60713664598688E-11  2.02059524857602E-01
 cg2d: Sum(rhs),rhsMax =   1.61692881306408E-11  2.00549971648676E-01
 cg2d: Sum(rhs),rhsMax =   1.62972968453801E-11  1.98857851762563E-01
 cg2d: Sum(rhs),rhsMax =   1.64852576034491E-11  1.96660766391348E-01
 cg2d: Sum(rhs),rhsMax =   1.66486824326739E-11  1.94806622858161E-01
 cg2d: Sum(rhs),rhsMax =   1.67690306085433E-11  1.93517604747108E-01
 cg2d: Sum(rhs),rhsMax =   1.69608771471985E-11  1.91356811900671E-01
 cg2d: Sum(rhs),rhsMax =   1.72438729961755E-11  1.88522079814333E-01
 cg2d: Sum(rhs),rhsMax =   1.74738001845753E-11  1.86217512887059E-01
 cg2d: Sum(rhs),rhsMax =   1.77019510161358E-11  1.83913512233009E-01
 cg2d: Sum(rhs),rhsMax =   1.79604109362685E-11  1.81432537043644E-01
 cg2d: Sum(rhs),rhsMax =   1.82238668600121E-11  1.78946019742307E-01
 cg2d: Sum(rhs),rhsMax =   1.85474968716903E-11  1.75813523284570E-01
 cg2d: Sum(rhs),rhsMax =   1.88488114005736E-11  1.73126407056392E-01
 cg2d: Sum(rhs),rhsMax =   1.91295868035013E-11  1.70532964058301E-01
 cg2d: Sum(rhs),rhsMax =   1.94446680978899E-11  1.67862464802651E-01
 cg2d: Sum(rhs),rhsMax =   1.97781790944873E-11  1.65096244788985E-01
 cg2d: Sum(rhs),rhsMax =   2.01274552580344E-11  1.62273087051735E-01
 cg2d: Sum(rhs),rhsMax =   2.04728456409953E-11  1.59518740912972E-01
 cg2d: Sum(rhs),rhsMax =   2.08437711535225E-11  1.56707601368770E-01
 cg2d: Sum(rhs),rhsMax =   2.12537765165166E-11  1.53842827270015E-01
 cg2d: Sum(rhs),rhsMax =   2.16284767873276E-11  1.50985419648932E-01
 cg2d: Sum(rhs),rhsMax =   2.19859686012569E-11  1.48089585051834E-01
 cg2d: Sum(rhs),rhsMax =   2.23471241511675E-11  1.45155165015413E-01
 cg2d: Sum(rhs),rhsMax =   2.27280416709164E-11  1.42230479809939E-01
 cg2d: Sum(rhs),rhsMax =   2.25197638314967E-11  1.43105160125400E-01
 cg2d: Sum(rhs),rhsMax =   2.23289164935636E-11  1.43936414695402E-01
 cg2d: Sum(rhs),rhsMax =   2.21223039886809E-11  1.44764890632928E-01
 cg2d: Sum(rhs),rhsMax =   2.19625428954373E-11  1.45487696923633E-01
 cg2d: Sum(rhs),rhsMax =   2.17944551295091E-11  1.46195165322343E-01
 cg2d: Sum(rhs),rhsMax =   2.16421325305305E-11  1.46805655771016E-01
 cg2d: Sum(rhs),rhsMax =   2.14481765681285E-11  1.47414440837972E-01
 cg2d: Sum(rhs),rhsMax =   2.13660200643062E-11  1.47801548723499E-01
 cg2d: Sum(rhs),rhsMax =   2.12379003272645E-11  1.48189461054321E-01
 cg2d: Sum(rhs),rhsMax =   2.11669570759909E-11  1.48551693311742E-01
 cg2d: Sum(rhs),rhsMax =   2.11383133219556E-11  1.48759979905314E-01
 cg2d: Sum(rhs),rhsMax =   2.11624051615900E-11  1.48945950371150E-01
 cg2d: Sum(rhs),rhsMax =   2.12151407552597E-11  1.49078825323286E-01
 cg2d: Sum(rhs),rhsMax =   2.12044826142233E-11  1.49249830578322E-01
 cg2d: Sum(rhs),rhsMax =   2.12184714243335E-11  1.49188457481279E-01
 cg2d: Sum(rhs),rhsMax =   2.12818651590396E-11  1.49118705414322E-01
 cg2d: Sum(rhs),rhsMax =   2.13149498051735E-11  1.48995605613367E-01
 cg2d: Sum(rhs),rhsMax =   2.13618012168126E-11  1.48815707412956E-01
 cg2d: Sum(rhs),rhsMax =   2.14621653782388E-11  1.48518768440329E-01
 cg2d: Sum(rhs),rhsMax =   2.15190087970996E-11  1.48238662452416E-01
 cg2d: Sum(rhs),rhsMax =   2.14351869587404E-11  1.48911626463622E-01
 cg2d: Sum(rhs),rhsMax =   2.13469242282827E-11  1.49671282029891E-01
 cg2d: Sum(rhs),rhsMax =   2.12372341934497E-11  1.50435080701402E-01
 cg2d: Sum(rhs),rhsMax =   2.11179962406050E-11  1.51202757886660E-01
 cg2d: Sum(rhs),rhsMax =   2.09475770063250E-11  1.51974045724156E-01
 cg2d: Sum(rhs),rhsMax =   2.07652783856815E-11  1.52748678203933E-01
 cg2d: Sum(rhs),rhsMax =   2.05956363075188E-11  1.53526359168092E-01
 cg2d: Sum(rhs),rhsMax =   2.04494199351757E-11  1.54306729585035E-01
 cg2d: Sum(rhs),rhsMax =   2.02754479872169E-11  1.55089325363895E-01
 cg2d: Sum(rhs),rhsMax =   2.01262340127073E-11  1.55873634281551E-01
 cg2d: Sum(rhs),rhsMax =   1.99834593317405E-11  1.56659139635273E-01
 cg2d: Sum(rhs),rhsMax =   1.98151495212073E-11  1.57445328339530E-01
 cg2d: Sum(rhs),rhsMax =   1.96209715142004E-11  1.58231830831458E-01
 cg2d: Sum(rhs),rhsMax =   1.94346760906683E-11  1.59018404493286E-01
 cg2d: Sum(rhs),rhsMax =   1.92296178980200E-11  1.59804722242322E-01
 cg2d: Sum(rhs),rhsMax =   1.90488735896110E-11  1.60590387495571E-01
 cg2d: Sum(rhs),rhsMax =   1.89219750978964E-11  1.61374924040689E-01
 cg2d: Sum(rhs),rhsMax =   1.88444815307776E-11  1.62157710898972E-01
 cg2d: Sum(rhs),rhsMax =   1.88020710112369E-11  1.62938072438307E-01
 cg2d: Sum(rhs),rhsMax =   1.87618809377454E-11  1.63715357088873E-01
 cg2d: Sum(rhs),rhsMax =   1.87121429462422E-11  1.64488989220536E-01
 cg2d: Sum(rhs),rhsMax =   1.86399784496416E-11  1.65258604667122E-01
 cg2d: Sum(rhs),rhsMax =   1.85522708306962E-11  1.66024074739984E-01
 cg2d: Sum(rhs),rhsMax =   1.84944282111132E-11  1.66785467682773E-01
 cg2d: Sum(rhs),rhsMax =   1.84441351080977E-11  1.67542858314778E-01
 cg2d: Sum(rhs),rhsMax =   1.83925097374527E-11  1.68296260700507E-01
 cg2d: Sum(rhs),rhsMax =   1.83352222293820E-11  1.69045594404820E-01
 cg2d: Sum(rhs),rhsMax =   1.82387438485421E-11  1.69790654814059E-01
 cg2d: Sum(rhs),rhsMax =   1.81670234411513E-11  1.70531212418310E-01
 cg2d: Sum(rhs),rhsMax =   1.81112902453151E-11  1.71267013807180E-01
 cg2d: Sum(rhs),rhsMax =   1.80383485925972E-11  1.71997836235959E-01
 cg2d: Sum(rhs),rhsMax =   1.79869452665571E-11  1.72723454874523E-01
 cg2d: Sum(rhs),rhsMax =   1.79277703793446E-11  1.73443580108723E-01
 cg2d: Sum(rhs),rhsMax =   1.78960180008403E-11  1.74157831166481E-01
 cg2d: Sum(rhs),rhsMax =   1.80017112327846E-11  1.74865784877480E-01
 cg2d: Sum(rhs),rhsMax =   1.79749548578911E-11  1.75566954060686E-01
 cg2d: Sum(rhs),rhsMax =   1.79771753039404E-11  1.76260804852696E-01
 cg2d: Sum(rhs),rhsMax =   1.78183023891165E-11  1.76946745271247E-01
 cg2d: Sum(rhs),rhsMax =   1.76685333030946E-11  1.77624186115429E-01
 cg2d: Sum(rhs),rhsMax =   1.77095005327033E-11  1.78292523103031E-01
 cg2d: Sum(rhs),rhsMax =   1.76371139914977E-11  1.78951155671875E-01
 cg2d: Sum(rhs),rhsMax =   1.75091052767584E-11  1.79599412025907E-01
 cg2d: Sum(rhs),rhsMax =   1.73960845728516E-11  1.80236691563399E-01
 cg2d: Sum(rhs),rhsMax =   1.72707403933714E-11  1.80862382709790E-01
 cg2d: Sum(rhs),rhsMax =   1.71943570492772E-11  1.81475826964187E-01
 cg2d: Sum(rhs),rhsMax =   1.71213043742569E-11  1.82076456587658E-01
 cg2d: Sum(rhs),rhsMax =   1.70758962525497E-11  1.82663916684747E-01
 cg2d: Sum(rhs),rhsMax =   1.70237157703923E-11  1.83237893854359E-01
 cg2d: Sum(rhs),rhsMax =   1.69650959946921E-11  1.83798116844580E-01
 cg2d: Sum(rhs),rhsMax =   1.68913771858570E-11  1.84344386435332E-01
 cg2d: Sum(rhs),rhsMax =   1.69543268313532E-11  1.84876332240404E-01
 cg2d: Sum(rhs),rhsMax =   1.70475855654217E-11  1.85393640539993E-01
 cg2d: Sum(rhs),rhsMax =   1.71251901548430E-11  1.85895929768699E-01
 cg2d: Sum(rhs),rhsMax =   1.71895830902713E-11  1.86382920497343E-01
 cg2d: Sum(rhs),rhsMax =   1.72308833867874E-11  1.86854156487002E-01
 cg2d: Sum(rhs),rhsMax =   1.71854752650802E-11  1.87309378856141E-01
 cg2d: Sum(rhs),rhsMax =   1.71310743368736E-11  1.87748256528817E-01
 cg2d: Sum(rhs),rhsMax =   1.70727876280807E-11  1.88170320637076E-01
 cg2d: Sum(rhs),rhsMax =   1.70602421079025E-11  1.88575397516875E-01
 cg2d: Sum(rhs),rhsMax =   1.70027325552269E-11  1.88963455728061E-01
 cg2d: Sum(rhs),rhsMax =   1.69669833738340E-11  1.89334542147461E-01
 cg2d: Sum(rhs),rhsMax =   1.69000369254491E-11  1.89688207365220E-01
 cg2d: Sum(rhs),rhsMax =   1.68163261093923E-11  1.90023736259128E-01
 cg2d: Sum(rhs),rhsMax =   1.67708069653827E-11  1.90340520531158E-01
 cg2d: Sum(rhs),rhsMax =   1.67308389364962E-11  1.90637939314963E-01
 cg2d: Sum(rhs),rhsMax =   1.66709979154689E-11  1.90915646757675E-01
 cg2d: Sum(rhs),rhsMax =   1.66944236212885E-11  1.91173550036920E-01
 cg2d: Sum(rhs),rhsMax =   1.66764380082896E-11  1.91411865911701E-01
 cg2d: Sum(rhs),rhsMax =   1.66312519311873E-11  1.91630584126766E-01
 cg2d: Sum(rhs),rhsMax =   1.65777391814004E-11  1.91829836072752E-01
 cg2d: Sum(rhs),rhsMax =   1.65355507064646E-11  1.92009779012884E-01
 cg2d: Sum(rhs),rhsMax =   1.65067959301268E-11  1.92170847522236E-01
 cg2d: Sum(rhs),rhsMax =   1.65133462459721E-11  1.92313255356440E-01
 cg2d: Sum(rhs),rhsMax =   1.65009117480963E-11  1.92437339990436E-01
 cg2d: Sum(rhs),rhsMax =   1.65082392200588E-11  1.92543442693588E-01
 cg2d: Sum(rhs),rhsMax =   1.65082392200588E-11  1.92631869034677E-01
 cg2d: Sum(rhs),rhsMax =   1.65319979927858E-11  1.92702841726959E-01
 cg2d: Sum(rhs),rhsMax =   1.65210067848420E-11  1.92756624871907E-01
 cg2d: Sum(rhs),rhsMax =   1.65309987920637E-11  1.92793173543592E-01
 cg2d: Sum(rhs),rhsMax =   1.65358837733720E-11  1.92812467108155E-01
 cg2d: Sum(rhs),rhsMax =   1.65398805762607E-11  1.92814750574643E-01
 cg2d: Sum(rhs),rhsMax =   1.65936153706525E-11  1.92799921161668E-01
 cg2d: Sum(rhs),rhsMax =   1.67112990112628E-11  1.92767867090915E-01
 cg2d: Sum(rhs),rhsMax =   1.68317582094346E-11  1.92718461059171E-01
 cg2d: Sum(rhs),rhsMax =   1.68529634692050E-11  1.92651549256064E-01
 cg2d: Sum(rhs),rhsMax =   1.68262070943115E-11  1.92566797510796E-01
 cg2d: Sum(rhs),rhsMax =   1.68168812209046E-11  1.92464201771191E-01
 cg2d: Sum(rhs),rhsMax =   1.68000058309303E-11  1.92343194112639E-01
 cg2d: Sum(rhs),rhsMax =   1.67897917791038E-11  1.92203681233339E-01
 cg2d: Sum(rhs),rhsMax =   1.67583724675069E-11  1.92045791010382E-01
 cg2d: Sum(rhs),rhsMax =   1.67179603494105E-11  1.91869529364570E-01
 cg2d: Sum(rhs),rhsMax =   1.67390545868784E-11  1.91674876980319E-01
 cg2d: Sum(rhs),rhsMax =   1.67678093632162E-11  1.91461914499086E-01
 cg2d: Sum(rhs),rhsMax =   1.68115521503864E-11  1.91231181529135E-01
 cg2d: Sum(rhs),rhsMax =   1.68399738598168E-11  1.90982746568214E-01
 cg2d: Sum(rhs),rhsMax =   1.68881575390856E-11  1.90716993342297E-01
 cg2d: Sum(rhs),rhsMax =   1.69900760127462E-11  1.90434648803879E-01
 cg2d: Sum(rhs),rhsMax =   1.70202740790160E-11  1.90136022004301E-01
 cg2d: Sum(rhs),rhsMax =   1.70388148035272E-11  1.89821176640856E-01
 cg2d: Sum(rhs),rhsMax =   1.70735647841980E-11  1.89490212870490E-01
 cg2d: Sum(rhs),rhsMax =   1.71063163634244E-11  1.89142777283849E-01
 cg2d: Sum(rhs),rhsMax =   1.71169745044608E-11  1.88778255823999E-01
 cg2d: Sum(rhs),rhsMax =   1.71638259161000E-11  1.88396600561524E-01
 cg2d: Sum(rhs),rhsMax =   1.72037939449865E-11  1.87997267413190E-01
 cg2d: Sum(rhs),rhsMax =   1.72631908768039E-11  1.87579556783942E-01
 cg2d: Sum(rhs),rhsMax =   1.73308034590036E-11  1.87143100690679E-01
 cg2d: Sum(rhs),rhsMax =   1.74049663570486E-11  1.86687718148583E-01
 cg2d: Sum(rhs),rhsMax =   1.74813497011428E-11  1.86212853320798E-01
 cg2d: Sum(rhs),rhsMax =   1.75847114647354E-11  1.85717882427597E-01
 cg2d: Sum(rhs),rhsMax =   1.76684222807921E-11  1.85202714658285E-01
 cg2d: Sum(rhs),rhsMax =   1.77002856815989E-11  1.84667353696103E-01
 cg2d: Sum(rhs),rhsMax =   1.77698966652429E-11  1.84111723335866E-01
 cg2d: Sum(rhs),rhsMax =   1.78524972582750E-11  1.83536111205397E-01
 cg2d: Sum(rhs),rhsMax =   1.79611880923858E-11  1.82972501861675E-01
 cg2d: Sum(rhs),rhsMax =   1.80366832580603E-11  1.82912346465930E-01
 cg2d: Sum(rhs),rhsMax =   1.80957471229704E-11  1.82850877509028E-01
 cg2d: Sum(rhs),rhsMax =   1.81366033302766E-11  1.82787344791843E-01
 cg2d: Sum(rhs),rhsMax =   1.81789028275148E-11  1.82720867531895E-01
 cg2d: Sum(rhs),rhsMax =   1.82311943319746E-11  1.82650475568807E-01
 cg2d: Sum(rhs),rhsMax =   1.82862613939960E-11  1.82575156278823E-01
 cg2d: Sum(rhs),rhsMax =   1.83599802028311E-11  1.82493903535156E-01
 cg2d: Sum(rhs),rhsMax =   1.84150472648525E-11  1.82405765500548E-01
 cg2d: Sum(rhs),rhsMax =   1.84756654419971E-11  1.82309888605945E-01
 cg2d: Sum(rhs),rhsMax =   1.84989801255142E-11  1.82205555604047E-01
 cg2d: Sum(rhs),rhsMax =   1.85185200507476E-11  1.82092216045357E-01
 cg2d: Sum(rhs),rhsMax =   1.85211845860067E-11  1.81969507918254E-01
 cg2d: Sum(rhs),rhsMax =   1.85083059989211E-11  1.81837269531905E-01
 cg2d: Sum(rhs),rhsMax =   1.85245152550806E-11  1.81695540996026E-01
 cg2d: Sum(rhs),rhsMax =   1.85411686004500E-11  1.81544554881298E-01
 cg2d: Sum(rhs),rhsMax =   1.86040072236437E-11  1.81384715905222E-01
 cg2d: Sum(rhs),rhsMax =   1.86726190065656E-11  1.81216569891391E-01
 cg2d: Sum(rhs),rhsMax =   1.87103665894028E-11  1.81040762887881E-01
 cg2d: Sum(rhs),rhsMax =   1.87783122385099E-11  1.80857992249273E-01
 cg2d: Sum(rhs),rhsMax =   1.88218329810752E-11  1.80668952657843E-01
 cg2d: Sum(rhs),rhsMax =   1.88684623481095E-11  1.80474281301184E-01
 cg2d: Sum(rhs),rhsMax =   1.88982163251694E-11  1.80274507347537E-01
 cg2d: Sum(rhs),rhsMax =   1.89226412317112E-11  1.80070010949103E-01
 cg2d: Sum(rhs),rhsMax =   1.89173121611930E-11  1.79860995891064E-01
 cg2d: Sum(rhs),rhsMax =   1.89337434619574E-11  1.79647477811793E-01
 cg2d: Sum(rhs),rhsMax =   1.89674942419060E-11  1.79429287334705E-01
 cg2d: Sum(rhs),rhsMax =   1.90061300031630E-11  1.79206085364919E-01
 cg2d: Sum(rhs),rhsMax =   1.90769622321341E-11  1.78977386763859E-01
 cg2d: Sum(rhs),rhsMax =   1.91127114135270E-11  1.78742588554291E-01
 cg2d: Sum(rhs),rhsMax =   1.91211491085141E-11  1.78500999266357E-01
 cg2d: Sum(rhs),rhsMax =   1.91018312278857E-11  1.78251866643858E-01
 cg2d: Sum(rhs),rhsMax =   1.90900628638246E-11  1.77994401687774E-01
 cg2d: Sum(rhs),rhsMax =   1.90969462465773E-11  1.77727798126445E-01
 cg2d: Sum(rhs),rhsMax =   1.91386906323032E-11  1.77451247896475E-01
 cg2d: Sum(rhs),rhsMax =   1.92410531951737E-11  1.77163954741374E-01
 cg2d: Sum(rhs),rhsMax =   1.93386417990382E-11  1.76865149009257E-01
 cg2d: Sum(rhs),rhsMax =   1.94217975035826E-11  1.76554106717278E-01
 cg2d: Sum(rhs),rhsMax =   1.95150562376512E-11  1.76230174911329E-01
 cg2d: Sum(rhs),rhsMax =   1.95834459759681E-11  1.75892803627499E-01
 cg2d: Sum(rhs),rhsMax =   1.96413996178535E-11  1.75541582840834E-01
 cg2d: Sum(rhs),rhsMax =   1.96820337805548E-11  1.75176281068142E-01
 cg2d: Sum(rhs),rhsMax =   1.96984650813192E-11  1.74796881041751E-01
 cg2d: Sum(rhs),rhsMax =   1.97630800613524E-11  1.74403607310273E-01
 cg2d: Sum(rhs),rhsMax =   1.98223659708674E-11  1.73996940976222E-01
 cg2d: Sum(rhs),rhsMax =   1.98783212113085E-11  1.73577618171972E-01
 cg2d: Sum(rhs),rhsMax =   1.99262828459723E-11  1.73146611122926E-01
 cg2d: Sum(rhs),rhsMax =   1.99900096475858E-11  1.72705093161149E-01
 cg2d: Sum(rhs),rhsMax =   2.00390815052742E-11  1.72254391021440E-01
 cg2d: Sum(rhs),rhsMax =   2.00959249241350E-11  1.71795928566103E-01
 cg2d: Sum(rhs),rhsMax =   2.01674232869209E-11  1.71331165715110E-01
 cg2d: Sum(rhs),rhsMax =   2.02795558124080E-11  1.70861535377580E-01
 cg2d: Sum(rhs),rhsMax =   2.03730365910815E-11  1.70388380414413E-01
 cg2d: Sum(rhs),rhsMax =   2.03956851407838E-11  1.70267137407344E-01
 cg2d: Sum(rhs),rhsMax =   2.04473105114289E-11  1.70201325696717E-01
 cg2d: Sum(rhs),rhsMax =   2.05010453058208E-11  1.70126342664655E-01
 cg2d: Sum(rhs),rhsMax =   2.05649941520392E-11  1.70041931923385E-01
 cg2d: Sum(rhs),rhsMax =   2.06689110271441E-11  1.69948496110726E-01
 cg2d: Sum(rhs),rhsMax =   2.07895922699208E-11  1.69846416654412E-01
 cg2d: Sum(rhs),rhsMax =   2.09073869328336E-11  1.69736331274871E-01
 cg2d: Sum(rhs),rhsMax =   2.10161887892468E-11  1.69619025885086E-01
 cg2d: Sum(rhs),rhsMax =   2.11263229132896E-11  1.69496038293572E-01
 cg2d: Sum(rhs),rhsMax =   2.11085593448956E-11  1.69368562307003E-01
 cg2d: Sum(rhs),rhsMax =   2.10820250146071E-11  1.69237606747024E-01
 cg2d: Sum(rhs),rhsMax =   2.10901296426869E-11  1.69104250786672E-01
 cg2d: Sum(rhs),rhsMax =   2.11216599765862E-11  1.68970153178726E-01
 cg2d: Sum(rhs),rhsMax =   2.11736184141387E-11  1.68835975706593E-01
 cg2d: Sum(rhs),rhsMax =   2.12374562380546E-11  1.68702077926960E-01
 cg2d: Sum(rhs),rhsMax =   2.13086215339331E-11  1.68568559549385E-01
 cg2d: Sum(rhs),rhsMax =   2.13838946550027E-11  1.68435530752296E-01
 cg2d: Sum(rhs),rhsMax =   2.14731565861825E-11  1.68302447770519E-01
 cg2d: Sum(rhs),rhsMax =   2.15464313058078E-11  1.68169885308502E-01
 cg2d: Sum(rhs),rhsMax =   2.16656692586525E-11  1.68037417786390E-01
 cg2d: Sum(rhs),rhsMax =   2.17235118782355E-11  1.67904466685538E-01
 cg2d: Sum(rhs),rhsMax =   2.17921236611573E-11  1.67769394348965E-01
 cg2d: Sum(rhs),rhsMax =   2.18665086038072E-11  1.67633881711772E-01
 cg2d: Sum(rhs),rhsMax =   2.19088081010455E-11  1.67497629236975E-01
 cg2d: Sum(rhs),rhsMax =   2.19555484903822E-11  1.67359443877533E-01
 cg2d: Sum(rhs),rhsMax =   2.19906315379603E-11  1.67219403833638E-01
 cg2d: Sum(rhs),rhsMax =   2.20061746603051E-11  1.67077181512119E-01
 cg2d: Sum(rhs),rhsMax =   2.20143903106873E-11  1.66932463897775E-01
 cg2d: Sum(rhs),rhsMax =   2.20270468531680E-11  1.66785696214166E-01
 cg2d: Sum(rhs),rhsMax =   2.20307105891493E-11  1.66636750529232E-01
 cg2d: Sum(rhs),rhsMax =   2.20750084878318E-11  1.66485667562156E-01
 cg2d: Sum(rhs),rhsMax =   2.21184182080947E-11  1.66332481008071E-01
 cg2d: Sum(rhs),rhsMax =   2.21267448807794E-11  1.66177086591726E-01
 cg2d: Sum(rhs),rhsMax =   2.21316298620877E-11  1.66019971975462E-01
 cg2d: Sum(rhs),rhsMax =   2.20851115173559E-11  1.65861520788038E-01
 cg2d: Sum(rhs),rhsMax =   2.20743423540171E-11  1.65702013159963E-01
 cg2d: Sum(rhs),rhsMax =   2.20859996957756E-11  1.65541679366128E-01
 cg2d: Sum(rhs),rhsMax =   2.21035412195647E-11  1.65380582754970E-01
 cg2d: Sum(rhs),rhsMax =   2.21411777800995E-11  1.65218950497177E-01
 cg2d: Sum(rhs),rhsMax =   2.21715978909742E-11  1.65056730417339E-01
 cg2d: Sum(rhs),rhsMax =   2.21694884672274E-11  1.64893632351308E-01
 cg2d: Sum(rhs),rhsMax =   2.21155316282307E-11  1.64729039470434E-01
 cg2d: Sum(rhs),rhsMax =   2.20934381900406E-11  1.64562239651879E-01
 cg2d: Sum(rhs),rhsMax =   2.20832241382141E-11  1.64392577051726E-01
 cg2d: Sum(rhs),rhsMax =   2.21018758850278E-11  1.64219136548172E-01
 cg2d: Sum(rhs),rhsMax =   2.21144214052060E-11  1.64041402943264E-01
 cg2d: Sum(rhs),rhsMax =   2.21490603635743E-11  1.63858458208306E-01
 cg2d: Sum(rhs),rhsMax =   2.21290763491311E-11  1.63669958050820E-01
 cg2d: Sum(rhs),rhsMax =   2.21318519066926E-11  1.63475275673027E-01
 cg2d: Sum(rhs),rhsMax =   2.21341833750444E-11  1.63274077201188E-01
 cg2d: Sum(rhs),rhsMax =   2.21679341549930E-11  1.63066277730562E-01
 cg2d: Sum(rhs),rhsMax =   2.22002416450096E-11  1.62852083856884E-01
 cg2d: Sum(rhs),rhsMax =   2.22342144695631E-11  1.62631939643833E-01
 cg2d: Sum(rhs),rhsMax =   2.22435403429699E-11  1.62406313310778E-01
 cg2d: Sum(rhs),rhsMax =   2.22738494315422E-11  1.62175651818319E-01
 cg2d: Sum(rhs),rhsMax =   2.23143725719410E-11  1.61940338580479E-01
 cg2d: Sum(rhs),rhsMax =   2.23985274772076E-11  1.61700741825672E-01
 cg2d: Sum(rhs),rhsMax =   2.24723573083452E-11  1.61457209174174E-01
 cg2d: Sum(rhs),rhsMax =   2.25357510430513E-11  1.61209936737109E-01
 cg2d: Sum(rhs),rhsMax =   2.25898189043505E-11  1.60959582424514E-01
 cg2d: Sum(rhs),rhsMax =   2.26667573599570E-11  1.60706874036713E-01
 cg2d: Sum(rhs),rhsMax =   2.27093899241027E-11  1.60452133197745E-01
 cg2d: Sum(rhs),rhsMax =   2.27604601832354E-11  1.60195549478281E-01
 cg2d: Sum(rhs),rhsMax =   2.27816654430057E-11  1.59937161348471E-01
 cg2d: Sum(rhs),rhsMax =   2.28365104604222E-11  1.59677033732247E-01
 cg2d: Sum(rhs),rhsMax =   2.28592700324270E-11  1.59415135222093E-01
 cg2d: Sum(rhs),rhsMax =   2.28830288051540E-11  1.59151344469116E-01
 cg2d: Sum(rhs),rhsMax =   2.29191110534543E-11  1.58885423232921E-01
 cg2d: Sum(rhs),rhsMax =   2.29333219081695E-11  1.58617032710692E-01
 cg2d: Sum(rhs),rhsMax =   2.29578578370138E-11  1.58345768102460E-01
 cg2d: Sum(rhs),rhsMax =   2.29732899370561E-11  1.58071197222540E-01
 cg2d: Sum(rhs),rhsMax =   2.29998242673446E-11  1.57792638393109E-01
 cg2d: Sum(rhs),rhsMax =   2.30244712184913E-11  1.57509497114988E-01
 cg2d: Sum(rhs),rhsMax =   2.30082619623317E-11  1.57221125548997E-01
 cg2d: Sum(rhs),rhsMax =   2.30143681889672E-11  1.56927057147558E-01
 cg2d: Sum(rhs),rhsMax =   2.30095942299613E-11  1.56626712151950E-01
 cg2d: Sum(rhs),rhsMax =   2.30235830400716E-11  1.56319600556126E-01
 cg2d: Sum(rhs),rhsMax =   2.30522267941069E-11  1.56005293642274E-01
 cg2d: Sum(rhs),rhsMax =   2.30790941913028E-11  1.55683427223509E-01
 cg2d: Sum(rhs),rhsMax =   2.31279440043863E-11  1.55353751425931E-01
 cg2d: Sum(rhs),rhsMax =   2.26069163389298E-11  1.58759713836035E-01
 cg2d: Sum(rhs),rhsMax =   2.17629247956097E-11  1.64908008117408E-01
 cg2d: Sum(rhs),rhsMax =   2.10477191231462E-11  1.70492247689522E-01
 cg2d: Sum(rhs),rhsMax =   2.04288808092201E-11  1.75538763647343E-01
 cg2d: Sum(rhs),rhsMax =   1.99184002624975E-11  1.79917181937403E-01
 cg2d: Sum(rhs),rhsMax =   1.94890770188749E-11  1.83750907480504E-01
 cg2d: Sum(rhs),rhsMax =   1.91668902971287E-11  1.86910860476432E-01
 cg2d: Sum(rhs),rhsMax =   1.89300797259762E-11  1.89401297264308E-01
 cg2d: Sum(rhs),rhsMax =   1.87810877960715E-11  1.91172116617601E-01
 cg2d: Sum(rhs),rhsMax =   1.86645143784858E-11  1.92386999164153E-01
 cg2d: Sum(rhs),rhsMax =   1.86463067208820E-11  1.92805579298329E-01
 cg2d: Sum(rhs),rhsMax =   1.86997084483664E-11  1.92341428869191E-01
 cg2d: Sum(rhs),rhsMax =   1.88000726097926E-11  1.91187135194772E-01
 cg2d: Sum(rhs),rhsMax =   1.89663840188814E-11  1.89316065062462E-01
 cg2d: Sum(rhs),rhsMax =   1.91864302223621E-11  1.86748992012538E-01
 cg2d: Sum(rhs),rhsMax =   1.94945171116956E-11  1.83514103192835E-01
 cg2d: Sum(rhs),rhsMax =   1.98575600407480E-11  1.79635554785202E-01
 cg2d: Sum(rhs),rhsMax =   2.03507211082865E-11  1.75141627605827E-01
 cg2d: Sum(rhs),rhsMax =   2.09596784372934E-11  1.70061741492401E-01
 cg2d: Sum(rhs),rhsMax =   2.16482387571659E-11  1.64430376338878E-01
 cg2d: Sum(rhs),rhsMax =   2.24409379967483E-11  1.58279966089638E-01
 cg2d: Sum(rhs),rhsMax =   2.34355868045100E-11  1.51639908531900E-01
 cg2d: Sum(rhs),rhsMax =   2.42544873074735E-11  1.46541087412155E-01
 cg2d: Sum(rhs),rhsMax =   2.43490783091715E-11  1.46123008683777E-01
 cg2d: Sum(rhs),rhsMax =   2.44408937533080E-11  1.45700452598249E-01
 cg2d: Sum(rhs),rhsMax =   2.45145015398407E-11  1.45274136132155E-01
 cg2d: Sum(rhs),rhsMax =   2.46250797530934E-11  1.44844761602321E-01
 cg2d: Sum(rhs),rhsMax =   2.46322962027534E-11  1.44412844777563E-01
 cg2d: Sum(rhs),rhsMax =   2.46382914070864E-11  1.43978622735369E-01
 cg2d: Sum(rhs),rhsMax =   2.46783704582754E-11  1.43541844422380E-01
 cg2d: Sum(rhs),rhsMax =   2.47050158108664E-11  1.43101835039445E-01
 cg2d: Sum(rhs),rhsMax =   2.43559616919242E-11  1.44930846336386E-01
 cg2d: Sum(rhs),rhsMax =   2.32119878873505E-11  1.52199544569739E-01
 cg2d: Sum(rhs),rhsMax =   2.21819229651032E-11  1.58887654175681E-01
 cg2d: Sum(rhs),rhsMax =   2.12940776123105E-11  1.65104418469348E-01
 cg2d: Sum(rhs),rhsMax =   2.05357952864915E-11  1.70659265617031E-01
 cg2d: Sum(rhs),rhsMax =   1.99196215078246E-11  1.75580010323601E-01
 cg2d: Sum(rhs),rhsMax =   1.94233518158171E-11  1.79618871300921E-01
 cg2d: Sum(rhs),rhsMax =   1.90562010615736E-11  1.82960081488785E-01
 cg2d: Sum(rhs),rhsMax =   1.86396453827342E-11  1.86857424505232E-01
 cg2d: Sum(rhs),rhsMax =   1.84163795324821E-11  1.88704896055241E-01
 cg2d: Sum(rhs),rhsMax =   1.82526216363499E-11  1.89364950457917E-01
 cg2d: Sum(rhs),rhsMax =   1.81656911735217E-11  1.89422758352353E-01
 cg2d: Sum(rhs),rhsMax =   1.81358261741593E-11  1.88809628518395E-01
 cg2d: Sum(rhs),rhsMax =   1.82092119160870E-11  1.87493911209864E-01
 cg2d: Sum(rhs),rhsMax =   1.84012804993472E-11  1.85517991816625E-01
 cg2d: Sum(rhs),rhsMax =   1.86241022603895E-11  1.82913983579525E-01
 cg2d: Sum(rhs),rhsMax =   1.89067650424590E-11  1.79720605759347E-01
 cg2d: Sum(rhs),rhsMax =   1.92458271541796E-11  1.75969959162911E-01
 cg2d: Sum(rhs),rhsMax =   1.96557214948712E-11  1.71698164340676E-01
 cg2d: Sum(rhs),rhsMax =   2.01804128963090E-11  1.66935936583332E-01
 cg2d: Sum(rhs),rhsMax =   2.08159045556044E-11  1.61750743831770E-01
 cg2d: Sum(rhs),rhsMax =   2.14164241896242E-11  1.56754841018457E-01
 cg2d: Sum(rhs),rhsMax =   2.21551665902098E-11  1.51190307336743E-01
 cg2d: Sum(rhs),rhsMax =   2.30280239321701E-11  1.45164423462396E-01
 cg2d: Sum(rhs),rhsMax =   2.40395481299061E-11  1.38762163976841E-01
 cg2d: Sum(rhs),rhsMax =   2.51395571027047E-11  1.32256090246932E-01
 cg2d: Sum(rhs),rhsMax =   2.49666953777705E-11  1.32721190460352E-01
 cg2d: Sum(rhs),rhsMax =   2.48187026485880E-11  1.33187785574841E-01
 cg2d: Sum(rhs),rhsMax =   2.46849207741207E-11  1.33655975542623E-01
 cg2d: Sum(rhs),rhsMax =   2.45259368369943E-11  1.34126189368274E-01
 cg2d: Sum(rhs),rhsMax =   2.43273179378889E-11  1.34599169224346E-01
 cg2d: Sum(rhs),rhsMax =   2.42391662297337E-11  1.35075846715938E-01
 cg2d: Sum(rhs),rhsMax =   2.41441311388257E-11  1.35557297930683E-01
 cg2d: Sum(rhs),rhsMax =   2.40484299141031E-11  1.36044621354429E-01
 cg2d: Sum(rhs),rhsMax =   2.39510633548434E-11  1.36538925566626E-01
 cg2d: Sum(rhs),rhsMax =   2.38749020553541E-11  1.37041254468110E-01
 cg2d: Sum(rhs),rhsMax =   2.37848629680570E-11  1.37552512947819E-01
 cg2d: Sum(rhs),rhsMax =   2.37073694009382E-11  1.38073371101165E-01
 cg2d: Sum(rhs),rhsMax =   2.34630093132182E-11  1.39164016858816E-01
 cg2d: Sum(rhs),rhsMax =   2.27355911874838E-11  1.43071557320795E-01
 cg2d: Sum(rhs),rhsMax =   2.21870299910165E-11  1.46032248026240E-01
 cg2d: Sum(rhs),rhsMax =   2.16240358952291E-11  1.49070567062548E-01
 cg2d: Sum(rhs),rhsMax =   2.11576312025841E-11  1.51586409283811E-01
 cg2d: Sum(rhs),rhsMax =   2.07611705604904E-11  1.53596886813091E-01
 cg2d: Sum(rhs),rhsMax =   2.04493089128732E-11  1.55105739956639E-01
 cg2d: Sum(rhs),rhsMax =   2.02747818534021E-11  1.56115400610961E-01
 cg2d: Sum(rhs),rhsMax =   2.01555439005574E-11  1.56590996489314E-01
 cg2d: Sum(rhs),rhsMax =   2.00481853340762E-11  1.56566687919221E-01
 cg2d: Sum(rhs),rhsMax =   2.00399696836939E-11  1.56037377797359E-01
 cg2d: Sum(rhs),rhsMax =   2.01445526926136E-11  1.55020847850461E-01
 cg2d: Sum(rhs),rhsMax =   2.02869943066730E-11  1.53535696834166E-01
 cg2d: Sum(rhs),rhsMax =   2.04966044137223E-11  1.51598994844025E-01
 cg2d: Sum(rhs),rhsMax =   2.07159844833882E-11  1.49230965363286E-01
 cg2d: Sum(rhs),rhsMax =   2.08393302614240E-11  1.47748221318427E-01
 cg2d: Sum(rhs),rhsMax =   2.06618055997865E-11  1.48409088696242E-01
 cg2d: Sum(rhs),rhsMax =   2.04746219978347E-11  1.49071376528488E-01
 cg2d: Sum(rhs),rhsMax =   2.03213001981339E-11  1.49734745212529E-01
 cg2d: Sum(rhs),rhsMax =   2.01119121356896E-11  1.50399011986980E-01
 cg2d: Sum(rhs),rhsMax =   1.99685823432105E-11  1.51064061060578E-01
 cg2d: Sum(rhs),rhsMax =   1.98068228485226E-11  1.51729802881322E-01
 cg2d: Sum(rhs),rhsMax =   1.96342941904959E-11  1.52396147566582E-01
 cg2d: Sum(rhs),rhsMax =   1.94766425209991E-11  1.53063194326973E-01
 cg2d: Sum(rhs),rhsMax =   1.93739468912213E-11  1.53731088650715E-01
 cg2d: Sum(rhs),rhsMax =   1.92822424693873E-11  1.54400075564472E-01
 cg2d: Sum(rhs),rhsMax =   1.91745508359986E-11  1.55070562759617E-01
 cg2d: Sum(rhs),rhsMax =   1.90434334967904E-11  1.55742968909950E-01
 cg2d: Sum(rhs),rhsMax =   1.89335214173525E-11  1.56417704922779E-01
 cg2d: Sum(rhs),rhsMax =   1.87907467363857E-11  1.57095038074274E-01
 cg2d: Sum(rhs),rhsMax =   1.86726190065656E-11  1.57775684907972E-01
 cg2d: Sum(rhs),rhsMax =   1.85157444931860E-11  1.58460287446756E-01
(PID.TID 0000.0001)      cg2d_init_res =   8.92506583677558E-02
(PID.TID 0000.0001)      cg2d_iters(min,last) =      -1      29
(PID.TID 0000.0001)      cg2d_last_res =   6.25229634004022E-14
(PID.TID 0000.0001) // =======================================================
(PID.TID 0000.0001) // Begin MONITOR dynamic field statistics
(PID.TID 0000.0001) // =======================================================
(PID.TID 0000.0001) %MON time_tsnumber                =                  6720
(PID.TID 0000.0001) %MON time_secondsf                =   1.0080000000000E+05
(PID.TID 0000.0001) %MON dynstat_eta_max              =   1.6211116633907E-02
(PID.TID 0000.0001) %MON dynstat_eta_min              =  -1.4894419102063E-02
(PID.TID 0000.0001) %MON dynstat_eta_mean             =  -3.3773748764332E-15
(PID.TID 0000.0001) %MON dynstat_eta_sd               =   7.5162135256666E-03
(PID.TID 0000.0001) %MON dynstat_eta_del2             =   1.7355560092664E-04
(PID.TID 0000.0001) %MON dynstat_uvel_max             =   1.3706906037609E+00
(PID.TID 0000.0001) %MON dynstat_uvel_min             =  -6.1324952454406E-01
(PID.TID 0000.0001) %MON dynstat_uvel_mean            =   3.5990632523761E-04
(PID.TID 0000.0001) %MON dynstat_uvel_sd              =   2.5284360540066E-01
(PID.TID 0000.0001) %MON dynstat_uvel_del2            =   8.9623163844697E-04
(PID.TID 0000.0001) %MON dynstat_vvel_max             =   0.0000000000000E+00
(PID.TID 0000.0001) %MON dynstat_vvel_min             =   0.0000000000000E+00
(PID.TID 0000.0001) %MON dynstat_vvel_mean            =   0.0000000000000E+00
(PID.TID 0000.0001) %MON dynstat_vvel_sd              =   0.0000000000000E+00
(PID.TID 0000.0001) %MON dynstat_vvel_del2            =   0.0000000000000E+00
(PID.TID 0000.0001) %MON dynstat_wvel_max             =   3.2680241800731E-02
(PID.TID 0000.0001) %MON dynstat_wvel_min             =  -2.7938458715018E-02
(PID.TID 0000.0001) %MON dynstat_wvel_mean            =   1.8393670723514E-20
(PID.TID 0000.0001) %MON dynstat_wvel_sd              =   4.0888320221293E-03
(PID.TID 0000.0001) %MON dynstat_wvel_del2            =   7.9703393270042E-05
(PID.TID 0000.0001) %MON dynstat_theta_max            =   1.5000000000002E+01
(PID.TID 0000.0001) %MON dynstat_theta_min            =   9.9999999999945E+00
(PID.TID 0000.0001) %MON dynstat_theta_mean           =   1.2682436162984E+01
(PID.TID 0000.0001) %MON dynstat_theta_sd             =   2.2648480890903E+00
(PID.TID 0000.0001) %MON dynstat_theta_del2           =   1.6614480034041E-03
(PID.TID 0000.0001) %MON dynstat_salt_max             =   3.5000000000000E+01
(PID.TID 0000.0001) %MON dynstat_salt_min             =   3.5000000000000E+01
(PID.TID 0000.0001) %MON dynstat_salt_mean            =   3.5000000000000E+01
(PID.TID 0000.0001) %MON dynstat_salt_sd              =   1.0658141036402E-13
(PID.TID 0000.0001) %MON dynstat_salt_del2            =   0.0000000000000E+00
(PID.TID 0000.0001) %MON dynstat_sst_max              =   1.5000000000002E+01
(PID.TID 0000.0001) %MON dynstat_sst_min              =   1.4966491339606E+01
(PID.TID 0000.0001) %MON dynstat_sst_mean             =   1.4997485738582E+01
(PID.TID 0000.0001) %MON dynstat_sst_sd               =   6.3988787312896E-03
(PID.TID 0000.0001) %MON dynstat_sst_del2             =   1.3174696557934E-04
(PID.TID 0000.0001) %MON dynstat_sss_max              =   3.5000000000000E+01
(PID.TID 0000.0001) %MON dynstat_sss_min              =   3.5000000000000E+01
(PID.TID 0000.0001) %MON dynstat_sss_mean             =   3.5000000000000E+01
(PID.TID 0000.0001) %MON dynstat_sss_sd               =   4.2632564145606E-14
(PID.TID 0000.0001) %MON dynstat_sss_del2             =   0.0000000000000E+00
(PID.TID 0000.0001) %MON forcing_qnet_max             =   0.0000000000000E+00
(PID.TID 0000.0001) %MON forcing_qnet_min             =   0.0000000000000E+00
(PID.TID 0000.0001) %MON forcing_qnet_mean            =   0.0000000000000E+00
(PID.TID 0000.0001) %MON forcing_qnet_sd              =   0.0000000000000E+00
(PID.TID 0000.0001) %MON forcing_qnet_del2            =   0.0000000000000E+00
(PID.TID 0000.0001) %MON forcing_qsw_max              =   0.0000000000000E+00
(PID.TID 0000.0001) %MON forcing_qsw_min              =   0.0000000000000E+00
(PID.TID 0000.0001) %MON forcing_qsw_mean             =   0.0000000000000E+00
(PID.TID 0000.0001) %MON forcing_qsw_sd               =   0.0000000000000E+00
(PID.TID 0000.0001) %MON forcing_qsw_del2             =   0.0000000000000E+00
(PID.TID 0000.0001) %MON forcing_empmr_max            =   0.0000000000000E+00
(PID.TID 0000.0001) %MON forcing_empmr_min            =   0.0000000000000E+00
(PID.TID 0000.0001) %MON forcing_empmr_mean           =   0.0000000000000E+00
(PID.TID 0000.0001) %MON forcing_empmr_sd             =   0.0000000000000E+00
(PID.TID 0000.0001) %MON forcing_empmr_del2           =   0.0000000000000E+00
(PID.TID 0000.0001) %MON forcing_fu_max               =   0.0000000000000E+00
(PID.TID 0000.0001) %MON forcing_fu_min               =   0.0000000000000E+00
(PID.TID 0000.0001) %MON forcing_fu_mean              =   0.0000000000000E+00
(PID.TID 0000.0001) %MON forcing_fu_sd                =   0.0000000000000E+00
(PID.TID 0000.0001) %MON forcing_fu_del2              =   0.0000000000000E+00
(PID.TID 0000.0001) %MON forcing_fv_max               =   0.0000000000000E+00
(PID.TID 0000.0001) %MON forcing_fv_min               =   0.0000000000000E+00
(PID.TID 0000.0001) %MON forcing_fv_mean              =   0.0000000000000E+00
(PID.TID 0000.0001) %MON forcing_fv_sd                =   0.0000000000000E+00
(PID.TID 0000.0001) %MON forcing_fv_del2              =   0.0000000000000E+00
(PID.TID 0000.0001) %MON advcfl_uvel_max              =   8.2163428560936E-02
(PID.TID 0000.0001) %MON advcfl_vvel_max              =   0.0000000000000E+00
(PID.TID 0000.0001) %MON advcfl_wvel_max              =   2.9063709137348E-01
(PID.TID 0000.0001) %MON advcfl_W_hf_max              =   2.9570408805640E-01
(PID.TID 0000.0001) %MON pe_b_mean                    =   1.5858845751014E-06
(PID.TID 0000.0001) %MON ke_max                       =   7.4903116955156E-01
(PID.TID 0000.0001) %MON ke_mean                      =   3.2318841214958E-02
(PID.TID 0000.0001) %MON ke_vol                       =   8.5338127039305E+10
(PID.TID 0000.0001) %MON vort_r_min                   =   0.0000000000000E+00
(PID.TID 0000.0001) %MON vort_r_max                   =   0.0000000000000E+00
(PID.TID 0000.0001) %MON vort_a_mean                  =   0.0000000000000E+00
(PID.TID 0000.0001) %MON vort_a_sd                    =   0.0000000000000E+00
(PID.TID 0000.0001) %MON vort_p_mean                  =   0.0000000000000E+00
(PID.TID 0000.0001) %MON vort_p_sd                    =   0.0000000000000E+00
(PID.TID 0000.0001) %MON surfExpan_theta_mean         =   2.0227210045665E-10
(PID.TID 0000.0001) %MON surfExpan_salt_mean          =   4.7159824027354E-19
(PID.TID 0000.0001) // =======================================================
(PID.TID 0000.0001) // End MONITOR dynamic field statistics
(PID.TID 0000.0001) // =======================================================
(PID.TID 0000.0001) // =======================================================
(PID.TID 0000.0001) // Begin OBCS MONITOR field statistics
(PID.TID 0000.0001) // =======================================================
(PID.TID 0000.0001) %MON obc_E_uVel_max               =   0.0000000000000E+00
(PID.TID 0000.0001) %MON obc_E_uVel_min               =   0.0000000000000E+00
(PID.TID 0000.0001) %MON obc_E_uVel_mean              =   0.0000000000000E+00
(PID.TID 0000.0001) %MON obc_E_uVel_sd                =   0.0000000000000E+00
(PID.TID 0000.0001) %MON obc_E_uVel_Int               =   0.0000000000000E+00
(PID.TID 0000.0001) %MON obc_W_uVel_max               =   0.0000000000000E+00
(PID.TID 0000.0001) %MON obc_W_uVel_min               =   0.0000000000000E+00
(PID.TID 0000.0001) %MON obc_W_uVel_mean              =   0.0000000000000E+00
(PID.TID 0000.0001) %MON obc_W_uVel_sd                =   0.0000000000000E+00
(PID.TID 0000.0001) %MON obc_W_uVel_Int               =   0.0000000000000E+00
(PID.TID 0000.0001) // =======================================================
(PID.TID 0000.0001) // End OBCS MONITOR field statistics
(PID.TID 0000.0001) // =======================================================
 cg2d: Sum(rhs),rhsMax =   1.83627557603927E-11  1.59149624769232E-01
 cg2d: Sum(rhs),rhsMax =   1.82132087189757E-11  1.59844463958337E-01
 cg2d: Sum(rhs),rhsMax =   1.80663262128178E-11  1.60545553950580E-01
 cg2d: Sum(rhs),rhsMax =   1.79045667181299E-11  1.61253239871995E-01
 cg2d: Sum(rhs),rhsMax =   1.77814429846990E-11  1.61967368991426E-01
 cg2d: Sum(rhs),rhsMax =   1.76174630439618E-11  1.62687370069218E-01
 cg2d: Sum(rhs),rhsMax =   1.74368297578553E-11  1.63412323169455E-01
 cg2d: Sum(rhs),rhsMax =   1.72679648358098E-11  1.64141178518090E-01
 cg2d: Sum(rhs),rhsMax =   1.70977676461348E-11  1.64872992021588E-01
 cg2d: Sum(rhs),rhsMax =   1.69544378536557E-11  1.65607083408635E-01
 cg2d: Sum(rhs),rhsMax =   1.68695057922719E-11  1.66343067376964E-01
 cg2d: Sum(rhs),rhsMax =   1.68234315367499E-11  1.67080643516785E-01
 cg2d: Sum(rhs),rhsMax =   1.67819091956289E-11  1.67819281057821E-01
 cg2d: Sum(rhs),rhsMax =   1.66855418370915E-11  1.68557982055545E-01
 cg2d: Sum(rhs),rhsMax =   1.66139324520032E-11  1.69295252017849E-01
 cg2d: Sum(rhs),rhsMax =   1.65534252971611E-11  1.70029247746001E-01
 cg2d: Sum(rhs),rhsMax =   1.64537272695497E-11  1.70758008350234E-01
 cg2d: Sum(rhs),rhsMax =   1.63646873829748E-11  1.71479751810673E-01
 cg2d: Sum(rhs),rhsMax =   1.62914126633495E-11  1.72193107905734E-01
 cg2d: Sum(rhs),rhsMax =   1.61857194314052E-11  1.72897397875139E-01
 cg2d: Sum(rhs),rhsMax =   1.61101132434283E-11  1.73592812164088E-01
 cg2d: Sum(rhs),rhsMax =   1.60335078547291E-11  1.74280213582151E-01
 cg2d: Sum(rhs),rhsMax =   1.59673385624615E-11  1.74960793050483E-01
 cg2d: Sum(rhs),rhsMax =   1.59153801249090E-11  1.75635605108389E-01
 cg2d: Sum(rhs),rhsMax =   1.58757451629299E-11  1.76305190747460E-01
 cg2d: Sum(rhs),rhsMax =   1.58496549218512E-11  1.76969533783495E-01
 cg2d: Sum(rhs),rhsMax =   1.58042468001440E-11  1.77628297174283E-01
 cg2d: Sum(rhs),rhsMax =   1.57597268568566E-11  1.78281081434468E-01
 cg2d: Sum(rhs),rhsMax =   1.56998858358293E-11  1.78927625077790E-01
 cg2d: Sum(rhs),rhsMax =   1.56933355199840E-11  1.79567929713397E-01
 cg2d: Sum(rhs),rhsMax =   1.56444857069005E-11  1.80202156088307E-01
 cg2d: Sum(rhs),rhsMax =   1.56091806147174E-11  1.80830523485362E-01
 cg2d: Sum(rhs),rhsMax =   1.55560009318378E-11  1.81453289108243E-01
 cg2d: Sum(rhs),rhsMax =   1.55176982374883E-11  1.82070627784357E-01
 cg2d: Sum(rhs),rhsMax =   1.54904977733850E-11  1.82682622635215E-01
 cg2d: Sum(rhs),rhsMax =   1.54706247812442E-11  1.83289304786736E-01
 cg2d: Sum(rhs),rhsMax =   1.54602997071152E-11  1.83890602060736E-01
 cg2d: Sum(rhs),rhsMax =   1.54564139265290E-11  1.84486284516283E-01
 cg2d: Sum(rhs),rhsMax =   1.54425361387212E-11  1.85075961273552E-01
 cg2d: Sum(rhs),rhsMax =   1.54164458976425E-11  1.85659164820578E-01
 cg2d: Sum(rhs),rhsMax =   1.54001256191805E-11  1.86235279524409E-01
 cg2d: Sum(rhs),rhsMax =   1.53606016795038E-11  1.86803564549650E-01
 cg2d: Sum(rhs),rhsMax =   1.52795553987062E-11  1.87363196189551E-01
 cg2d: Sum(rhs),rhsMax =   1.52086121474326E-11  1.87913325815701E-01
 cg2d: Sum(rhs),rhsMax =   1.51727519437372E-11  1.88453080235337E-01
 cg2d: Sum(rhs),rhsMax =   1.51032519823957E-11  1.88981675333120E-01
 cg2d: Sum(rhs),rhsMax =   1.50938150866864E-11  1.89498522953560E-01
 cg2d: Sum(rhs),rhsMax =   1.50889301053780E-11  1.90003298283788E-01
 cg2d: Sum(rhs),rhsMax =   1.51139101234321E-11  1.90495837048955E-01
 cg2d: Sum(rhs),rhsMax =   1.51563206429728E-11  1.90976064960762E-01
 cg2d: Sum(rhs),rhsMax =   1.52204915337961E-11  1.91444039424307E-01
 cg2d: Sum(rhs),rhsMax =   1.52464707525723E-11  1.91899807396956E-01
 cg2d: Sum(rhs),rhsMax =   1.52597934288679E-11  1.92343271293533E-01
 cg2d: Sum(rhs),rhsMax =   1.52065027236858E-11  1.92774246287019E-01
 cg2d: Sum(rhs),rhsMax =   1.51350043609000E-11  1.93192633571013E-01
 cg2d: Sum(rhs),rhsMax =   1.50779388974343E-11  1.93598800369998E-01
 cg2d: Sum(rhs),rhsMax =   1.48876466710135E-11  1.93993657015759E-01
 cg2d: Sum(rhs),rhsMax =   1.48151491075055E-11  1.94378388633727E-01
 cg2d: Sum(rhs),rhsMax =   1.48648870990087E-11  1.94754307572343E-01
 cg2d: Sum(rhs),rhsMax =   1.48980827674450E-11  1.95122508229672E-01
 cg2d: Sum(rhs),rhsMax =   1.49217305178695E-11  1.95483620219360E-01
 cg2d: Sum(rhs),rhsMax =   1.49659173942496E-11  1.95837733074058E-01
 cg2d: Sum(rhs),rhsMax =   1.49941170590751E-11  1.96184540518496E-01
 cg2d: Sum(rhs),rhsMax =   1.50377488239428E-11  1.96523504907860E-01
 cg2d: Sum(rhs),rhsMax =   1.50676138233052E-11  1.96854218504023E-01
 cg2d: Sum(rhs),rhsMax =   1.51015866478588E-11  1.97176358805225E-01
 cg2d: Sum(rhs),rhsMax =   1.51232359968390E-11  1.97489815131979E-01
 cg2d: Sum(rhs),rhsMax =   1.51424428551650E-11  1.97794532480077E-01
 cg2d: Sum(rhs),rhsMax =   1.51876289322672E-11  1.98090390052113E-01
 cg2d: Sum(rhs),rhsMax =   1.52117207719016E-11  1.98377272326413E-01
 cg2d: Sum(rhs),rhsMax =   1.52325929647645E-11  1.98655075425650E-01
 cg2d: Sum(rhs),rhsMax =   1.52603485403802E-11  1.98923544343403E-01
 cg2d: Sum(rhs),rhsMax =   1.52551304921644E-11  1.99182186927254E-01
 cg2d: Sum(rhs),rhsMax =   1.52666768116205E-11  1.99430558335023E-01
 cg2d: Sum(rhs),rhsMax =   1.52877710490884E-11  1.99668105522855E-01
 cg2d: Sum(rhs),rhsMax =   1.52865498037613E-11  1.99894398985373E-01
 cg2d: Sum(rhs),rhsMax =   1.53272949887651E-11  2.00109107565000E-01
 cg2d: Sum(rhs),rhsMax =   1.54346535552463E-11  2.00311795561042E-01
 cg2d: Sum(rhs),rhsMax =   1.54724011380836E-11  2.00502128751223E-01
 cg2d: Sum(rhs),rhsMax =   1.54248835926296E-11  2.00679953333959E-01
 cg2d: Sum(rhs),rhsMax =   1.53758117349412E-11  2.00845304183347E-01
 cg2d: Sum(rhs),rhsMax =   1.53689283521885E-11  2.00998307995608E-01
 cg2d: Sum(rhs),rhsMax =   1.53621559917383E-11  2.01139250942638E-01
 cg2d: Sum(rhs),rhsMax =   1.54096735371922E-11  2.01268585928935E-01
 cg2d: Sum(rhs),rhsMax =   1.54739554503180E-11  2.01386778857689E-01
 cg2d: Sum(rhs),rhsMax =   1.55181423266981E-11  2.01494141292988E-01
 cg2d: Sum(rhs),rhsMax =   1.55808699275894E-11  2.01590879574324E-01
 cg2d: Sum(rhs),rhsMax =   1.56399337924995E-11  2.01677060828765E-01
 cg2d: Sum(rhs),rhsMax =   1.57046597948352E-11  2.01752844433246E-01
 cg2d: Sum(rhs),rhsMax =   1.57465152028635E-11  2.01818373188032E-01
 cg2d: Sum(rhs),rhsMax =   1.58372204239754E-11  2.01873540520071E-01
 cg2d: Sum(rhs),rhsMax =   1.58080215584278E-11  2.01918045664541E-01
 cg2d: Sum(rhs),rhsMax =   1.58127955174336E-11  2.01951578745459E-01
 cg2d: Sum(rhs),rhsMax =   1.57968083058790E-11  2.01973896225401E-01
 cg2d: Sum(rhs),rhsMax =   1.58053570231687E-11  2.01984586127781E-01
 cg2d: Sum(rhs),rhsMax =   1.58064672461933E-11  2.01983192259360E-01
 cg2d: Sum(rhs),rhsMax =   1.57823754065589E-11  2.01969140641419E-01
 cg2d: Sum(rhs),rhsMax =   1.57780455367629E-11  2.01941964065001E-01
 cg2d: Sum(rhs),rhsMax =   1.57525104071965E-11  2.01901013857424E-01
 cg2d: Sum(rhs),rhsMax =   1.57426294222773E-11  2.01845529175930E-01
 cg2d: Sum(rhs),rhsMax =   1.57266422107227E-11  2.01774745472548E-01
 cg2d: Sum(rhs),rhsMax =   1.57283075452597E-11  2.01688001324764E-01
 cg2d: Sum(rhs),rhsMax =   1.57376334186665E-11  2.01584849523073E-01
 cg2d: Sum(rhs),rhsMax =   1.57500679165423E-11  2.01465023634416E-01
 cg2d: Sum(rhs),rhsMax =   1.57613921913935E-11  2.01328723177214E-01
 cg2d: Sum(rhs),rhsMax =   1.57872603878673E-11  2.01176475469859E-01
 cg2d: Sum(rhs),rhsMax =   1.58238977476799E-11  2.01008862441427E-01
 cg2d: Sum(rhs),rhsMax =   1.58871804600835E-11  2.00826333603310E-01
 cg2d: Sum(rhs),rhsMax =   1.59433577451296E-11  2.00628814023004E-01
 cg2d: Sum(rhs),rhsMax =   1.59765534135659E-11  2.00415947146821E-01
 cg2d: Sum(rhs),rhsMax =   1.60182977992918E-11  2.00187102817148E-01
 cg2d: Sum(rhs),rhsMax =   1.60720325936836E-11  1.99941804989984E-01
 cg2d: Sum(rhs),rhsMax =   1.61373137075316E-11  1.99679626988455E-01
 cg2d: Sum(rhs),rhsMax =   1.61932689479727E-11  1.99400766396752E-01
 cg2d: Sum(rhs),rhsMax =   1.62798663438934E-11  1.99105643283355E-01
 cg2d: Sum(rhs),rhsMax =   1.63259405994154E-11  1.98794445642504E-01
 cg2d: Sum(rhs),rhsMax =   1.63618008031108E-11  1.98467241256591E-01
 cg2d: Sum(rhs),rhsMax =   1.64207536457184E-11  1.98123694250543E-01
 cg2d: Sum(rhs),rhsMax =   1.65151226028115E-11  1.97763412516568E-01
 cg2d: Sum(rhs),rhsMax =   1.66140434743056E-11  1.97385837242554E-01
 cg2d: Sum(rhs),rhsMax =   1.67069691414667E-11  1.96990351437448E-01
 cg2d: Sum(rhs),rhsMax =   1.67743596790615E-11  1.96576634267856E-01
 cg2d: Sum(rhs),rhsMax =   1.68138836187381E-11  1.96144603593566E-01
 cg2d: Sum(rhs),rhsMax =   1.68086655705224E-11  1.95694312735563E-01
 cg2d: Sum(rhs),rhsMax =   1.68068892136830E-11  1.95225700680909E-01
 cg2d: Sum(rhs),rhsMax =   1.68020042323747E-11  1.94738441999805E-01
 cg2d: Sum(rhs),rhsMax =   1.68123293065037E-11  1.94232241872588E-01
 cg2d: Sum(rhs),rhsMax =   1.68425273727735E-11  1.93706884003824E-01
 cg2d: Sum(rhs),rhsMax =   1.68658420562906E-11  1.93162417443904E-01
 cg2d: Sum(rhs),rhsMax =   1.68854930038265E-11  1.92599123267982E-01
 cg2d: Sum(rhs),rhsMax =   1.69430025565021E-11  1.92017280292975E-01
 cg2d: Sum(rhs),rhsMax =   1.70334857330090E-11  1.91416931570207E-01
 cg2d: Sum(rhs),rhsMax =   1.71246350433307E-11  1.90797926494838E-01
 cg2d: Sum(rhs),rhsMax =   1.72850622703891E-11  1.90160120221768E-01
 cg2d: Sum(rhs),rhsMax =   1.71704872542477E-11  1.91163670323061E-01
 cg2d: Sum(rhs),rhsMax =   1.68917102527644E-11  1.93891300953555E-01
 cg2d: Sum(rhs),rhsMax =   1.66610059082473E-11  1.96139215977969E-01
 cg2d: Sum(rhs),rhsMax =   1.64601665630926E-11  1.98088207082979E-01
 cg2d: Sum(rhs),rhsMax =   1.63359326066370E-11  1.99500092221864E-01
 cg2d: Sum(rhs),rhsMax =   1.62350133336986E-11  2.00280643228197E-01
 cg2d: Sum(rhs),rhsMax =   1.61488600269877E-11  2.00709358496325E-01
 cg2d: Sum(rhs),rhsMax =   1.60953472772007E-11  2.00651693004214E-01
 cg2d: Sum(rhs),rhsMax =   1.61023416822559E-11  2.00147072881801E-01
 cg2d: Sum(rhs),rhsMax =   1.61325397485257E-11  1.99206505623245E-01
 cg2d: Sum(rhs),rhsMax =   1.62325708430444E-11  1.97949511352646E-01
 cg2d: Sum(rhs),rhsMax =   1.64429581062109E-11  1.96164294726421E-01
 cg2d: Sum(rhs),rhsMax =   1.66967550896402E-11  1.93978510746129E-01
 cg2d: Sum(rhs),rhsMax =   1.69867453436723E-11  1.91453198251624E-01
 cg2d: Sum(rhs),rhsMax =   1.72886149840679E-11  1.88530796466679E-01
 cg2d: Sum(rhs),rhsMax =   1.76338943447263E-11  1.85098989935164E-01
 cg2d: Sum(rhs),rhsMax =   1.79988246529206E-11  1.81124968892064E-01
 cg2d: Sum(rhs),rhsMax =   1.83648651841395E-11  1.77088821711926E-01
 cg2d: Sum(rhs),rhsMax =   1.84432469296780E-11  1.76127666277069E-01
 cg2d: Sum(rhs),rhsMax =   1.84310344764071E-11  1.75713408881541E-01
 cg2d: Sum(rhs),rhsMax =   1.84484649778938E-11  1.75293061801619E-01
 cg2d: Sum(rhs),rhsMax =   1.84350312792958E-11  1.74867430787067E-01
 cg2d: Sum(rhs),rhsMax =   1.84515736023627E-11  1.74437262086651E-01
 cg2d: Sum(rhs),rhsMax =   1.84821047355399E-11  1.74003235973338E-01
 cg2d: Sum(rhs),rhsMax =   1.85168547162107E-11  1.73565974159807E-01
 cg2d: Sum(rhs),rhsMax =   1.85940152164221E-11  1.73126054122264E-01
 cg2d: Sum(rhs),rhsMax =   1.86426429849007E-11  1.72684020019048E-01
 cg2d: Sum(rhs),rhsMax =   1.86679560698622E-11  1.72240380473200E-01
 cg2d: Sum(rhs),rhsMax =   1.87379001204135E-11  1.71795588334730E-01
 cg2d: Sum(rhs),rhsMax =   1.87789783723247E-11  1.71350005096829E-01
 cg2d: Sum(rhs),rhsMax =   1.88175031112792E-11  1.70903859960460E-01
 cg2d: Sum(rhs),rhsMax =   1.88805637790779E-11  1.70457217516532E-01
 cg2d: Sum(rhs),rhsMax =   1.89586124577090E-11  1.70009966765960E-01
 cg2d: Sum(rhs),rhsMax =   1.90656379572829E-11  1.69561837967372E-01
 cg2d: Sum(rhs),rhsMax =   1.91562321560923E-11  1.69112444908707E-01
 cg2d: Sum(rhs),rhsMax =   1.91805460403316E-11  1.68939344788527E-01
 cg2d: Sum(rhs),rhsMax =   1.91423543682845E-11  1.68764778767896E-01
 cg2d: Sum(rhs),rhsMax =   1.90938376221084E-11  1.68587107162173E-01
 cg2d: Sum(rhs),rhsMax =   1.90284454859579E-11  1.68406742937033E-01
 cg2d: Sum(rhs),rhsMax =   1.89673832196036E-11  1.68224404113087E-01
 cg2d: Sum(rhs),rhsMax =   1.89195326072422E-11  1.68040563320830E-01
 cg2d: Sum(rhs),rhsMax =   1.88905557862995E-11  1.67855490710584E-01
 cg2d: Sum(rhs),rhsMax =   1.88162818659521E-11  1.67669699881843E-01
 cg2d: Sum(rhs),rhsMax =   1.87628801384676E-11  1.67483952414778E-01
 cg2d: Sum(rhs),rhsMax =   1.87051485411871E-11  1.67299029944236E-01
 cg2d: Sum(rhs),rhsMax =   1.86687332259794E-11  1.67115823889623E-01
 cg2d: Sum(rhs),rhsMax =   1.86520798806100E-11  1.66934759456013E-01
 cg2d: Sum(rhs),rhsMax =   1.87050375188846E-11  1.66755690810102E-01
 cg2d: Sum(rhs),rhsMax =   1.87498905290795E-11  1.66577751139591E-01
 cg2d: Sum(rhs),rhsMax =   1.88362658803953E-11  1.66399504198291E-01
 cg2d: Sum(rhs),rhsMax =   1.88885573848552E-11  1.66219275004701E-01
 cg2d: Sum(rhs),rhsMax =   1.89315230159082E-11  1.66035509880105E-01
 cg2d: Sum(rhs),rhsMax =   1.89595006361287E-11  1.65847013870253E-01
 cg2d: Sum(rhs),rhsMax =   1.89650517512518E-11  1.65653027075998E-01
 cg2d: Sum(rhs),rhsMax =   1.89442905806914E-11  1.65453172759189E-01
 cg2d: Sum(rhs),rhsMax =   1.89095406000206E-11  1.65247362462308E-01
 cg2d: Sum(rhs),rhsMax =   1.89196436295447E-11  1.65035734283079E-01
 cg2d: Sum(rhs),rhsMax =   1.88729032402080E-11  1.64818617452470E-01
 cg2d: Sum(rhs),rhsMax =   1.88300486314574E-11  1.64596537166477E-01
 cg2d: Sum(rhs),rhsMax =   1.87970750076261E-11  1.64370255160533E-01
 cg2d: Sum(rhs),rhsMax =   1.87934112716448E-11  1.64140835237285E-01
 cg2d: Sum(rhs),rhsMax =   1.88083992824772E-11  1.63909670080055E-01
 cg2d: Sum(rhs),rhsMax =   1.89142035367240E-11  1.63678407519493E-01
 cg2d: Sum(rhs),rhsMax =   1.90037985348113E-11  1.63448727767252E-01
 cg2d: Sum(rhs),rhsMax =   1.90741866745725E-11  1.63222270655617E-01
 cg2d: Sum(rhs),rhsMax =   1.91655580294992E-11  1.63000298686527E-01
 cg2d: Sum(rhs),rhsMax =   1.92614812988268E-11  1.62783664792031E-01
 cg2d: Sum(rhs),rhsMax =   1.93483007393525E-11  1.62572845002588E-01
 cg2d: Sum(rhs),rhsMax =   1.93705051998450E-11  1.62368066881376E-01
 cg2d: Sum(rhs),rhsMax =   1.93315363716806E-11  1.62169238413352E-01
 cg2d: Sum(rhs),rhsMax =   1.92610372096169E-11  1.61976069116560E-01
 cg2d: Sum(rhs),rhsMax =   1.92078575267374E-11  1.61787983780237E-01
 cg2d: Sum(rhs),rhsMax =   1.91843207986153E-11  1.61604056460504E-01
 cg2d: Sum(rhs),rhsMax =   1.91295868035013E-11  1.61423037661790E-01
 cg2d: Sum(rhs),rhsMax =   1.91182625286501E-11  1.61243523646471E-01
 cg2d: Sum(rhs),rhsMax =   1.90820692580473E-11  1.61064336717787E-01
 cg2d: Sum(rhs),rhsMax =   1.90606419536721E-11  1.60884878104753E-01
 cg2d: Sum(rhs),rhsMax =   1.90286675305629E-11  1.60705198918813E-01
 cg2d: Sum(rhs),rhsMax =   1.89888105239788E-11  1.60525796875910E-01
 cg2d: Sum(rhs),rhsMax =   1.89818161189237E-11  1.60347183173911E-01
 cg2d: Sum(rhs),rhsMax =   1.89601667699435E-11  1.60169570240062E-01
 cg2d: Sum(rhs),rhsMax =   1.89518400972588E-11  1.59992800403128E-01
 cg2d: Sum(rhs),rhsMax =   1.89064319755516E-11  1.59816527728092E-01
 cg2d: Sum(rhs),rhsMax =   1.88757898200720E-11  1.59640491557197E-01
 cg2d: Sum(rhs),rhsMax =   1.88810078682877E-11  1.59464748697452E-01
 cg2d: Sum(rhs),rhsMax =   1.88870030726207E-11  1.59289727321290E-01
 cg2d: Sum(rhs),rhsMax =   1.88806748013803E-11  1.59116093472953E-01
 cg2d: Sum(rhs),rhsMax =   1.88897786301823E-11  1.58944585756615E-01
 cg2d: Sum(rhs),rhsMax =   1.88775661769114E-11  1.58775929811101E-01
 cg2d: Sum(rhs),rhsMax =   1.88860038718985E-11  1.58610737121587E-01
 cg2d: Sum(rhs),rhsMax =   1.89087634439034E-11  1.58449755919455E-01
 cg2d: Sum(rhs),rhsMax =   1.88743465301400E-11  1.58293701713818E-01
 cg2d: Sum(rhs),rhsMax =   1.89643856174371E-11  1.58143202844667E-01
 cg2d: Sum(rhs),rhsMax =   1.90618631989992E-11  1.57998793583609E-01
 cg2d: Sum(rhs),rhsMax =   1.90814031242326E-11  1.57860771281778E-01
 cg2d: Sum(rhs),rhsMax =   1.91238136437732E-11  1.58191450826933E-01
 cg2d: Sum(rhs),rhsMax =   1.91127114135270E-11  1.58586080905968E-01
 cg2d: Sum(rhs),rhsMax =   1.91251459114028E-11  1.58967446217030E-01
 cg2d: Sum(rhs),rhsMax =   1.91709981223198E-11  1.59335807614356E-01
 cg2d: Sum(rhs),rhsMax =   1.92177385116565E-11  1.59691355483620E-01
 cg2d: Sum(rhs),rhsMax =   1.92011961885896E-11  1.60034220964270E-01
 cg2d: Sum(rhs),rhsMax =   1.91586746467465E-11  1.60364342959590E-01
 cg2d: Sum(rhs),rhsMax =   1.90969462465773E-11  1.60681573975596E-01
 cg2d: Sum(rhs),rhsMax =   1.90681914702395E-11  1.60985848754498E-01
 cg2d: Sum(rhs),rhsMax =   1.90095716945393E-11  1.61277446130093E-01
 cg2d: Sum(rhs),rhsMax =   1.89932514160773E-11  1.61556953775041E-01
 cg2d: Sum(rhs),rhsMax =   1.89025461949655E-11  1.62531160219527E-01
 cg2d: Sum(rhs),rhsMax =   1.88797866229606E-11  1.63057780605975E-01
 cg2d: Sum(rhs),rhsMax =   1.89088744662058E-11  1.63104402191541E-01
 cg2d: Sum(rhs),rhsMax =   1.90272242406309E-11  1.62646270483786E-01
 cg2d: Sum(rhs),rhsMax =   1.89926963045650E-11  1.62795886908698E-01
 cg2d: Sum(rhs),rhsMax =   1.89280813245318E-11  1.63014163769429E-01
 cg2d: Sum(rhs),rhsMax =   1.88382642818397E-11  1.63222337553676E-01
 cg2d: Sum(rhs),rhsMax =   1.87945214946694E-11  1.63419581014556E-01
 cg2d: Sum(rhs),rhsMax =   1.87059256973043E-11  1.63604993917790E-01
 cg2d: Sum(rhs),rhsMax =   1.86154425207974E-11  1.63777907992405E-01
 cg2d: Sum(rhs),rhsMax =   1.85230719651486E-11  1.63938259032942E-01
 cg2d: Sum(rhs),rhsMax =   1.84759985089045E-11  1.64086480449045E-01
 cg2d: Sum(rhs),rhsMax =   1.85305104594136E-11  1.64223223510403E-01
 cg2d: Sum(rhs),rhsMax =   1.85578219458193E-11  1.64349165884365E-01
 cg2d: Sum(rhs),rhsMax =   1.85915727257679E-11  1.64464965269177E-01
 cg2d: Sum(rhs),rhsMax =   1.86308746208397E-11  1.64571226546967E-01
 cg2d: Sum(rhs),rhsMax =   1.86357596021480E-11  1.64668597454564E-01
 cg2d: Sum(rhs),rhsMax =   1.85926829487926E-11  1.64758066128469E-01
 cg2d: Sum(rhs),rhsMax =   1.86288762193954E-11  1.64840760353618E-01
 cg2d: Sum(rhs),rhsMax =   1.86877180397005E-11  1.64917350313249E-01
 cg2d: Sum(rhs),rhsMax =   1.87259097117476E-11  1.64988108593160E-01
 cg2d: Sum(rhs),rhsMax =   1.87747595248311E-11  1.65053021803716E-01
 cg2d: Sum(rhs),rhsMax =   1.88479232221539E-11  1.65111958197184E-01
 cg2d: Sum(rhs),rhsMax =   1.87923010486202E-11  1.65164755610243E-01
 cg2d: Sum(rhs),rhsMax =   1.88107307508290E-11  1.65211036092675E-01
 cg2d: Sum(rhs),rhsMax =   1.88035143011689E-11  1.65250132091686E-01
 cg2d: Sum(rhs),rhsMax =   1.87045934296748E-11  1.65281294262303E-01
 cg2d: Sum(rhs),rhsMax =   1.86894943965399E-11  1.65303749294827E-01
 cg2d: Sum(rhs),rhsMax =   1.86762827425468E-11  1.65316688989671E-01
 cg2d: Sum(rhs),rhsMax =   1.87365678527840E-11  1.65319184546883E-01
 cg2d: Sum(rhs),rhsMax =   1.88038473680763E-11  1.65310406323359E-01
 cg2d: Sum(rhs),rhsMax =   1.88296045422476E-11  1.65289901883665E-01
 cg2d: Sum(rhs),rhsMax =   1.89223081648038E-11  1.65258035853798E-01
 cg2d: Sum(rhs),rhsMax =   1.89888105239788E-11  1.65215292285794E-01
 cg2d: Sum(rhs),rhsMax =   1.90725213400356E-11  1.65162053997226E-01
 cg2d: Sum(rhs),rhsMax =   1.91465732157781E-11  1.65098545428938E-01
 cg2d: Sum(rhs),rhsMax =   1.91623383827277E-11  1.65025092489184E-01
 cg2d: Sum(rhs),rhsMax =   1.91546778438578E-11  1.64942691603258E-01
 cg2d: Sum(rhs),rhsMax =   1.91102689228728E-11  1.64852976427315E-01
 cg2d: Sum(rhs),rhsMax =   1.90818472134424E-11  1.64757703058238E-01
 cg2d: Sum(rhs),rhsMax =   1.89870341671394E-11  1.64658608733609E-01
 cg2d: Sum(rhs),rhsMax =   1.90397697608091E-11  1.64556994066715E-01
 cg2d: Sum(rhs),rhsMax =   1.91053839415645E-11  1.64453355910807E-01
 cg2d: Sum(rhs),rhsMax =   1.92177385116565E-11  1.64347929191308E-01
 cg2d: Sum(rhs),rhsMax =   1.92740268190050E-11  1.64240595211395E-01
 cg2d: Sum(rhs),rhsMax =   1.93304261486560E-11  1.64131133079980E-01
 cg2d: Sum(rhs),rhsMax =   1.94148030985275E-11  1.64019162969808E-01
 cg2d: Sum(rhs),rhsMax =   1.94544380605066E-11  1.63903982142642E-01
 cg2d: Sum(rhs),rhsMax =   1.95405913672175E-11  1.63785895082080E-01
 cg2d: Sum(rhs),rhsMax =   1.96012095443621E-11  1.63665550898562E-01
 cg2d: Sum(rhs),rhsMax =   1.96780369776661E-11  1.63542145791798E-01
 cg2d: Sum(rhs),rhsMax =   1.97613037045130E-11  1.63412920490534E-01
 cg2d: Sum(rhs),rhsMax =   1.98415728291934E-11  1.63274170214366E-01
 cg2d: Sum(rhs),rhsMax =   1.98722149846731E-11  1.63123037885879E-01
 cg2d: Sum(rhs),rhsMax =   1.99118499466522E-11  1.62958323303692E-01
 cg2d: Sum(rhs),rhsMax =   1.99352756524718E-11  1.62780023543080E-01
 cg2d: Sum(rhs),rhsMax =   1.99820160418085E-11  1.62588502363621E-01
 cg2d: Sum(rhs),rhsMax =   2.00005567663197E-11  1.62383892896639E-01
 cg2d: Sum(rhs),rhsMax =   1.99900096475858E-11  1.62165943242222E-01
 cg2d: Sum(rhs),rhsMax =   1.99744665252410E-11  1.61934124306735E-01
 cg2d: Sum(rhs),rhsMax =   1.99869010231168E-11  1.61688149474438E-01
 cg2d: Sum(rhs),rhsMax =   1.99839034209504E-11  1.61428474742687E-01
 cg2d: Sum(rhs),rhsMax =   1.99860128446971E-11  1.61156602162666E-01
 cg2d: Sum(rhs),rhsMax =   2.00371941261324E-11  1.60874806417942E-01
 cg2d: Sum(rhs),rhsMax =   2.01584304804214E-11  1.60585126898918E-01
 cg2d: Sum(rhs),rhsMax =   2.02579064634278E-11  1.60288829386306E-01
 cg2d: Sum(rhs),rhsMax =   2.03166372614305E-11  1.59986571883979E-01
 cg2d: Sum(rhs),rhsMax =   2.04440908646575E-11  1.59678672548201E-01
 cg2d: Sum(rhs),rhsMax =   2.05352401749792E-11  1.59365526800722E-01
 cg2d: Sum(rhs),rhsMax =   2.06329398011462E-11  1.59047843572990E-01
 cg2d: Sum(rhs),rhsMax =   2.07566186460895E-11  1.58726618237568E-01
 cg2d: Sum(rhs),rhsMax =   2.09170458731478E-11  1.58402753325734E-01
 cg2d: Sum(rhs),rhsMax =   2.10454986770969E-11  1.58076970957048E-01
 cg2d: Sum(rhs),rhsMax =   2.11121120585744E-11  1.57749338243976E-01
 cg2d: Sum(rhs),rhsMax =   2.12330153459561E-11  1.57419304829735E-01
 cg2d: Sum(rhs),rhsMax =   2.13580264585289E-11  1.57085928318485E-01
 cg2d: Sum(rhs),rhsMax =   2.14499529249679E-11  1.56748334471605E-01
 cg2d: Sum(rhs),rhsMax =   2.15635287403870E-11  1.56406891212357E-01
 cg2d: Sum(rhs),rhsMax =   2.16310303002842E-11  1.56229665213909E-01
 cg2d: Sum(rhs),rhsMax =   2.16662243701649E-11  1.56310606259970E-01
 cg2d: Sum(rhs),rhsMax =   2.16963114141322E-11  1.56394688935585E-01
 cg2d: Sum(rhs),rhsMax =   2.17158513393656E-11  1.56482774718339E-01
 cg2d: Sum(rhs),rhsMax =   2.17340589969695E-11  1.56576314717411E-01
 cg2d: Sum(rhs),rhsMax =   2.18592921541472E-11  1.56677056470767E-01
 cg2d: Sum(rhs),rhsMax =   2.19311235838404E-11  1.56786339928478E-01
 cg2d: Sum(rhs),rhsMax =   2.17587059481161E-11  1.57558390673607E-01
 cg2d: Sum(rhs),rhsMax =   2.14777085005835E-11  1.59254183579896E-01
 cg2d: Sum(rhs),rhsMax =   2.12849737835086E-11  1.60796468623216E-01
 cg2d: Sum(rhs),rhsMax =   2.11332062960423E-11  1.62202050116937E-01
 cg2d: Sum(rhs),rhsMax =   2.09955386409888E-11  1.63399043813556E-01
 cg2d: Sum(rhs),rhsMax =   2.08978390148218E-11  1.64481530769527E-01
 cg2d: Sum(rhs),rhsMax =   2.08240091836842E-11  1.65340427327691E-01
 cg2d: Sum(rhs),rhsMax =   2.07235339999556E-11  1.66009527478935E-01
 cg2d: Sum(rhs),rhsMax =   2.06564765292683E-11  1.66506359243213E-01
 cg2d: Sum(rhs),rhsMax =   2.05874206571366E-11  1.66810111189966E-01
 cg2d: Sum(rhs),rhsMax =   2.05273575915044E-11  1.66937394292564E-01
 cg2d: Sum(rhs),rhsMax =   2.05097050454128E-11  1.66881996072279E-01
 cg2d: Sum(rhs),rhsMax =   2.05000461050986E-11  1.66652619751443E-01
 cg2d: Sum(rhs),rhsMax =   2.05441219591762E-11  1.66215677203539E-01
 cg2d: Sum(rhs),rhsMax =   2.05966355082410E-11  1.65566942910889E-01
 cg2d: Sum(rhs),rhsMax =   2.06902273092169E-11  1.64705914310606E-01
 cg2d: Sum(rhs),rhsMax =   2.07504013971516E-11  1.63631825600901E-01
 cg2d: Sum(rhs),rhsMax =   2.08708605953234E-11  1.62310337000696E-01
 cg2d: Sum(rhs),rhsMax =   2.11609618716579E-11  1.60808460478212E-01
 cg2d: Sum(rhs),rhsMax =   2.14173123680439E-11  1.59121838020026E-01
 cg2d: Sum(rhs),rhsMax =   2.14206430371178E-11  1.59180832479219E-01
 cg2d: Sum(rhs),rhsMax =   2.14633866235658E-11  1.59235147477456E-01
 cg2d: Sum(rhs),rhsMax =   2.14839257495214E-11  1.59285495261932E-01
 cg2d: Sum(rhs),rhsMax =   2.15117923474395E-11  1.59332390473461E-01
 cg2d: Sum(rhs),rhsMax =   2.15303330719507E-11  1.59376271191363E-01
 cg2d: Sum(rhs),rhsMax =   2.15476525511349E-11  1.59417460856648E-01
 cg2d: Sum(rhs),rhsMax =   2.15648610080166E-11  1.59456101046438E-01
 cg2d: Sum(rhs),rhsMax =   2.16041629030883E-11  1.59492146332195E-01
 cg2d: Sum(rhs),rhsMax =   2.16520135154497E-11  1.59525378661497E-01
 cg2d: Sum(rhs),rhsMax =   2.17164064508779E-11  1.59555353641308E-01
 cg2d: Sum(rhs),rhsMax =   2.17320605955251E-11  1.59581601738172E-01
 cg2d: Sum(rhs),rhsMax =   2.17591500373260E-11  1.59603708919880E-01
 cg2d: Sum(rhs),rhsMax =   2.18006723784470E-11  1.59621338116115E-01
 cg2d: Sum(rhs),rhsMax =   2.18798312801027E-11  1.59634224483671E-01
 cg2d: Sum(rhs),rhsMax =   2.19577689364314E-11  1.59642263676733E-01
 cg2d: Sum(rhs),rhsMax =   2.20423679309079E-11  1.59645541743277E-01
 cg2d: Sum(rhs),rhsMax =   2.21299645275508E-11  1.59644313482414E-01
 cg2d: Sum(rhs),rhsMax =   2.22445395436921E-11  1.59638969849327E-01
 cg2d: Sum(rhs),rhsMax =   2.23470131288650E-11  1.59629971619747E-01
 cg2d: Sum(rhs),rhsMax =   2.23245866237676E-11  1.59617772198471E-01
 cg2d: Sum(rhs),rhsMax =   2.23873142246589E-11  1.59602791595298E-01
 cg2d: Sum(rhs),rhsMax =   2.24734675313698E-11  1.59585446268212E-01
 cg2d: Sum(rhs),rhsMax =   2.25409690912670E-11  1.59717250809539E-01
 cg2d: Sum(rhs),rhsMax =   2.22057927601327E-11  1.62373724394833E-01
 cg2d: Sum(rhs),rhsMax =   2.19286810931862E-11  1.64733658844281E-01
 cg2d: Sum(rhs),rhsMax =   2.17198481422542E-11  1.66847731724156E-01
 cg2d: Sum(rhs),rhsMax =   2.14677164933619E-11  1.68747344811455E-01
 cg2d: Sum(rhs),rhsMax =   2.12907469432366E-11  1.70423519033715E-01
 cg2d: Sum(rhs),rhsMax =   2.11292094931537E-11  1.71895431561490E-01
 cg2d: Sum(rhs),rhsMax =   2.09807726747613E-11  1.73168219901002E-01
 cg2d: Sum(rhs),rhsMax =   2.08623118780338E-11  1.74094173340147E-01
 cg2d: Sum(rhs),rhsMax =   2.07813766195386E-11  1.74823406256950E-01
 cg2d: Sum(rhs),rhsMax =   2.07321937395477E-11  1.75252199275907E-01
 cg2d: Sum(rhs),rhsMax =   2.06401562508063E-11  1.75536554217371E-01
 cg2d: Sum(rhs),rhsMax =   2.07081018999133E-11  1.75584034308352E-01
 cg2d: Sum(rhs),rhsMax =   2.07847072886125E-11  1.75368713729444E-01
 cg2d: Sum(rhs),rhsMax =   2.08522088485097E-11  1.74914861879930E-01
 cg2d: Sum(rhs),rhsMax =   2.09777750725948E-11  1.74217720686690E-01
 cg2d: Sum(rhs),rhsMax =   2.11255457571724E-11  1.73270999142476E-01
 cg2d: Sum(rhs),rhsMax =   2.12739825755648E-11  1.71996775988350E-01
 cg2d: Sum(rhs),rhsMax =   2.14690487609914E-11  1.70542161554022E-01
 cg2d: Sum(rhs),rhsMax =   2.17219575660010E-11  1.68899836042372E-01
 cg2d: Sum(rhs),rhsMax =   2.19946283408490E-11  1.67044763141588E-01
 cg2d: Sum(rhs),rhsMax =   2.22555307516359E-11  1.65146198314381E-01
 cg2d: Sum(rhs),rhsMax =   2.22324381127237E-11  1.65628395930494E-01
 cg2d: Sum(rhs),rhsMax =   2.21836993219426E-11  1.66105811792636E-01
 cg2d: Sum(rhs),rhsMax =   2.21317408843902E-11  1.66577473701880E-01
 cg2d: Sum(rhs),rhsMax =   2.20605755885117E-11  1.67042565646711E-01
 cg2d: Sum(rhs),rhsMax =   2.19899654041456E-11  1.67500423186248E-01
 cg2d: Sum(rhs),rhsMax =   2.19166906845203E-11  1.67950516374643E-01
 cg2d: Sum(rhs),rhsMax =   2.18620677117087E-11  1.68392424987834E-01
 cg2d: Sum(rhs),rhsMax =   2.17907913935278E-11  1.68825812634577E-01
 cg2d: Sum(rhs),rhsMax =   2.17457163387280E-11  1.69250406631691E-01
 cg2d: Sum(rhs),rhsMax =   2.17083018227981E-11  1.69665988920715E-01
 cg2d: Sum(rhs),rhsMax =   2.16600071212270E-11  1.70072400029427E-01
 cg2d: Sum(rhs),rhsMax =   2.16253681628586E-11  1.70469553971968E-01
 cg2d: Sum(rhs),rhsMax =   2.15778506174047E-11  1.70857458236449E-01
 cg2d: Sum(rhs),rhsMax =   2.15618634058501E-11  1.71236230788403E-01
 cg2d: Sum(rhs),rhsMax =   2.15822915095032E-11  1.71606106018810E-01
 cg2d: Sum(rhs),rhsMax =   2.16258122520685E-11  1.71967423768903E-01
 cg2d: Sum(rhs),rhsMax =   2.16151541110321E-11  1.72320599279987E-01
 cg2d: Sum(rhs),rhsMax =   2.16640039241156E-11  1.72666076104210E-01
 cg2d: Sum(rhs),rhsMax =   2.16509032924250E-11  1.73004267642109E-01
 cg2d: Sum(rhs),rhsMax =   2.15709672346520E-11  1.73335495276961E-01
 cg2d: Sum(rhs),rhsMax =   2.14805950804475E-11  1.73659931858557E-01
 cg2d: Sum(rhs),rhsMax =   2.14219753047473E-11  1.73977558631919E-01
 cg2d: Sum(rhs),rhsMax =   2.13167261620129E-11  1.74288141882540E-01
 cg2d: Sum(rhs),rhsMax =   2.12071471494824E-11  1.74591232999724E-01
 cg2d: Sum(rhs),rhsMax =   2.11195505528394E-11  1.74886192705249E-01
 cg2d: Sum(rhs),rhsMax =   2.11253237125675E-11  1.75172237203115E-01
 cg2d: Sum(rhs),rhsMax =   2.11065609434513E-11  1.75448501354540E-01
 cg2d: Sum(rhs),rhsMax =   2.11279882478266E-11  1.75714112047674E-01
 cg2d: Sum(rhs),rhsMax =   2.11353157197891E-11  1.75968263971591E-01
 cg2d: Sum(rhs),rhsMax =   2.11273221140118E-11  1.76210290145315E-01
 cg2d: Sum(rhs),rhsMax =   2.10937933786681E-11  1.76439720764012E-01
 cg2d: Sum(rhs),rhsMax =   2.10529371713619E-11  1.76656325948663E-01
 cg2d: Sum(rhs),rhsMax =   2.10443884540723E-11  1.76860140348866E-01
 cg2d: Sum(rhs),rhsMax =   2.10380601828319E-11  1.77051469728235E-01
 cg2d: Sum(rhs),rhsMax =   2.10842454606563E-11  1.77230881307524E-01
 cg2d: Sum(rhs),rhsMax =   2.11441975039861E-11  1.77399180703497E-01
 cg2d: Sum(rhs),rhsMax =   2.12031503465937E-11  1.77620562256482E-01
 cg2d: Sum(rhs),rhsMax =   2.12179163128212E-11  1.77890269340248E-01
 cg2d: Sum(rhs),rhsMax =   2.12750927985894E-11  1.78157668819310E-01
 cg2d: Sum(rhs),rhsMax =   2.12846407166012E-11  1.78423039616147E-01
 cg2d: Sum(rhs),rhsMax =   2.13538076110353E-11  1.78686468100844E-01
 cg2d: Sum(rhs),rhsMax =   2.14364082040674E-11  1.78947748299149E-01
 cg2d: Sum(rhs),rhsMax =   2.15243378676178E-11  1.79206369704727E-01
 cg2d: Sum(rhs),rhsMax =   2.15824025318057E-11  1.79461582905342E-01
 cg2d: Sum(rhs),rhsMax =   2.16132667318902E-11  1.79712485413858E-01
 cg2d: Sum(rhs),rhsMax =   2.16280326981177E-11  1.79958091142407E-01
 cg2d: Sum(rhs),rhsMax =   2.16051621038105E-11  1.80197386429880E-01
 cg2d: Sum(rhs),rhsMax =   2.15776285727998E-11  1.80429391132309E-01
 cg2d: Sum(rhs),rhsMax =   2.15335527187221E-11  1.80653195139493E-01
 cg2d: Sum(rhs),rhsMax =   2.14682716048742E-11  1.80868058095816E-01
 cg2d: Sum(rhs),rhsMax =   2.14059880931927E-11  1.81073492190069E-01
 cg2d: Sum(rhs),rhsMax =   2.13449258268383E-11  1.81269278060238E-01
 cg2d: Sum(rhs),rhsMax =   2.13138395821488E-11  1.81455448914094E-01
 cg2d: Sum(rhs),rhsMax =   2.12924122777736E-11  1.81632251186760E-01
 cg2d: Sum(rhs),rhsMax =   2.12759809770091E-11  1.81800090230641E-01
 cg2d: Sum(rhs),rhsMax =   2.12579953640102E-11  1.81959443056709E-01
 cg2d: Sum(rhs),rhsMax =   2.12775352892436E-11  1.82110817639673E-01
 cg2d: Sum(rhs),rhsMax =   2.12310169445118E-11  1.82254716389428E-01
 cg2d: Sum(rhs),rhsMax =   2.11548556450225E-11  1.82391582263269E-01
 cg2d: Sum(rhs),rhsMax =   2.10774731002061E-11  1.82521765071933E-01
 cg2d: Sum(rhs),rhsMax =   2.10161887892468E-11  1.82645455020056E-01
 cg2d: Sum(rhs),rhsMax =   2.09592343480836E-11  1.82762637797817E-01
 cg2d: Sum(rhs),rhsMax =   2.09083861335557E-11  1.82873087161776E-01
 cg2d: Sum(rhs),rhsMax =   2.08538741830466E-11  1.82976401583720E-01
 cg2d: Sum(rhs),rhsMax =   2.09278150364867E-11  1.83072063241430E-01
 cg2d: Sum(rhs),rhsMax =   2.09576800358491E-11  1.83159485994500E-01
 cg2d: Sum(rhs),rhsMax =   2.09853245891622E-11  1.83238051238878E-01
 cg2d: Sum(rhs),rhsMax =   2.09972039755257E-11  1.83307101064177E-01
 cg2d: Sum(rhs),rhsMax =   2.10065298489326E-11  1.83366015217092E-01
 cg2d: Sum(rhs),rhsMax =   2.09966488640134E-11  1.83414268087610E-01
 cg2d: Sum(rhs),rhsMax =   2.09973149978282E-11  1.83451418279848E-01
 cg2d: Sum(rhs),rhsMax =   2.10462758332142E-11  1.83477274441717E-01
 cg2d: Sum(rhs),rhsMax =   2.10806927469775E-11  1.83491713519199E-01
 cg2d: Sum(rhs),rhsMax =   2.11370920766285E-11  1.83494948959884E-01
 cg2d: Sum(rhs),rhsMax =   2.11448636378009E-11  1.83487517408325E-01
 cg2d: Sum(rhs),rhsMax =   2.11539674666028E-11  1.83470278858479E-01
 cg2d: Sum(rhs),rhsMax =   2.11540784889053E-11  1.83444361651556E-01
 cg2d: Sum(rhs),rhsMax =   2.11733963695337E-11  1.83411065077980E-01
 cg2d: Sum(rhs),rhsMax =   2.12928563669834E-11  1.83371787241882E-01
 cg2d: Sum(rhs),rhsMax =   2.13211670541114E-11  1.83327942995483E-01
 cg2d: Sum(rhs),rhsMax =   2.13209450095064E-11  1.83280858623575E-01
 cg2d: Sum(rhs),rhsMax =   2.13071782440011E-11  1.83231650117822E-01
 cg2d: Sum(rhs),rhsMax =   2.14376294493945E-11  1.83181149928364E-01
 cg2d: Sum(rhs),rhsMax =   2.14417372745856E-11  1.83129840200323E-01
 cg2d: Sum(rhs),rhsMax =   2.14571693746279E-11  1.83077814250445E-01
 cg2d: Sum(rhs),rhsMax =   2.15095719013902E-11  1.83024735371232E-01
 cg2d: Sum(rhs),rhsMax =   2.15731876807013E-11  1.82969830355185E-01
 cg2d: Sum(rhs),rhsMax =   2.16030526800637E-11  1.82911970655015E-01
 cg2d: Sum(rhs),rhsMax =   2.15589768259861E-11  1.82849897618828E-01
 cg2d: Sum(rhs),rhsMax =   2.17058593321440E-11  1.82782451251258E-01
 cg2d: Sum(rhs),rhsMax =   2.17539319891102E-11  1.82708772668004E-01
(PID.TID 0000.0001)      cg2d_init_res =   1.08968811852730E-01
(PID.TID 0000.0001)      cg2d_iters(min,last) =      -1      29
(PID.TID 0000.0001)      cg2d_last_res =   6.80632440889053E-14
(PID.TID 0000.0001) // =======================================================
(PID.TID 0000.0001) // Begin MONITOR dynamic field statistics
(PID.TID 0000.0001) // =======================================================
(PID.TID 0000.0001) %MON time_tsnumber                =                  7200
(PID.TID 0000.0001) %MON time_secondsf                =   1.0800000000000E+05
(PID.TID 0000.0001) %MON dynstat_eta_max              =   1.9449946854569E-02
(PID.TID 0000.0001) %MON dynstat_eta_min              =  -1.5888535912271E-02
(PID.TID 0000.0001) %MON dynstat_eta_mean             =  -4.6052438904527E-15
(PID.TID 0000.0001) %MON dynstat_eta_sd               =   7.2580000551627E-03
(PID.TID 0000.0001) %MON dynstat_eta_del2             =   2.1205164011448E-04
(PID.TID 0000.0001) %MON dynstat_uvel_max             =   1.5747210630659E+00
(PID.TID 0000.0001) %MON dynstat_uvel_min             =  -6.2725522443289E-01
(PID.TID 0000.0001) %MON dynstat_uvel_mean            =  -1.5904910111801E-04
(PID.TID 0000.0001) %MON dynstat_uvel_sd              =   2.5734327591622E-01
(PID.TID 0000.0001) %MON dynstat_uvel_del2            =   9.7371779364880E-04
(PID.TID 0000.0001) %MON dynstat_vvel_max             =   0.0000000000000E+00
(PID.TID 0000.0001) %MON dynstat_vvel_min             =   0.0000000000000E+00
(PID.TID 0000.0001) %MON dynstat_vvel_mean            =   0.0000000000000E+00
(PID.TID 0000.0001) %MON dynstat_vvel_sd              =   0.0000000000000E+00
(PID.TID 0000.0001) %MON dynstat_vvel_del2            =   0.0000000000000E+00
(PID.TID 0000.0001) %MON dynstat_wvel_max             =   3.0384175054379E-02
(PID.TID 0000.0001) %MON dynstat_wvel_min             =  -3.3408073602838E-02
(PID.TID 0000.0001) %MON dynstat_wvel_mean            =   4.6506126543151E-20
(PID.TID 0000.0001) %MON dynstat_wvel_sd              =   4.2410931381597E-03
(PID.TID 0000.0001) %MON dynstat_wvel_del2            =   9.6737493201276E-05
(PID.TID 0000.0001) %MON dynstat_theta_max            =   1.5000000000002E+01
(PID.TID 0000.0001) %MON dynstat_theta_min            =   9.9999999999946E+00
(PID.TID 0000.0001) %MON dynstat_theta_mean           =   1.2671289729169E+01
(PID.TID 0000.0001) %MON dynstat_theta_sd             =   2.2545124897233E+00
(PID.TID 0000.0001) %MON dynstat_theta_del2           =   2.3469171197971E-03
(PID.TID 0000.0001) %MON dynstat_salt_max             =   3.5000000000000E+01
(PID.TID 0000.0001) %MON dynstat_salt_min             =   3.5000000000000E+01
(PID.TID 0000.0001) %MON dynstat_salt_mean            =   3.5000000000000E+01
(PID.TID 0000.0001) %MON dynstat_salt_sd              =   1.0658141036402E-13
(PID.TID 0000.0001) %MON dynstat_salt_del2            =   0.0000000000000E+00
(PID.TID 0000.0001) %MON dynstat_sst_max              =   1.5000000000002E+01
(PID.TID 0000.0001) %MON dynstat_sst_min              =   1.4968292639930E+01
(PID.TID 0000.0001) %MON dynstat_sst_mean             =   1.4997378329160E+01
(PID.TID 0000.0001) %MON dynstat_sst_sd               =   6.3208988267634E-03
(PID.TID 0000.0001) %MON dynstat_sst_del2             =   1.1160167314223E-04
(PID.TID 0000.0001) %MON dynstat_sss_max              =   3.5000000000000E+01
(PID.TID 0000.0001) %MON dynstat_sss_min              =   3.5000000000000E+01
(PID.TID 0000.0001) %MON dynstat_sss_mean             =   3.5000000000000E+01
(PID.TID 0000.0001) %MON dynstat_sss_sd               =   4.2632564145606E-14
(PID.TID 0000.0001) %MON dynstat_sss_del2             =   0.0000000000000E+00
(PID.TID 0000.0001) %MON forcing_qnet_max             =   0.0000000000000E+00
(PID.TID 0000.0001) %MON forcing_qnet_min             =   0.0000000000000E+00
(PID.TID 0000.0001) %MON forcing_qnet_mean            =   0.0000000000000E+00
(PID.TID 0000.0001) %MON forcing_qnet_sd              =   0.0000000000000E+00
(PID.TID 0000.0001) %MON forcing_qnet_del2            =   0.0000000000000E+00
(PID.TID 0000.0001) %MON forcing_qsw_max              =   0.0000000000000E+00
(PID.TID 0000.0001) %MON forcing_qsw_min              =   0.0000000000000E+00
(PID.TID 0000.0001) %MON forcing_qsw_mean             =   0.0000000000000E+00
(PID.TID 0000.0001) %MON forcing_qsw_sd               =   0.0000000000000E+00
(PID.TID 0000.0001) %MON forcing_qsw_del2             =   0.0000000000000E+00
(PID.TID 0000.0001) %MON forcing_empmr_max            =   0.0000000000000E+00
(PID.TID 0000.0001) %MON forcing_empmr_min            =   0.0000000000000E+00
(PID.TID 0000.0001) %MON forcing_empmr_mean           =   0.0000000000000E+00
(PID.TID 0000.0001) %MON forcing_empmr_sd             =   0.0000000000000E+00
(PID.TID 0000.0001) %MON forcing_empmr_del2           =   0.0000000000000E+00
(PID.TID 0000.0001) %MON forcing_fu_max               =   0.0000000000000E+00
(PID.TID 0000.0001) %MON forcing_fu_min               =   0.0000000000000E+00
(PID.TID 0000.0001) %MON forcing_fu_mean              =   0.0000000000000E+00
(PID.TID 0000.0001) %MON forcing_fu_sd                =   0.0000000000000E+00
(PID.TID 0000.0001) %MON forcing_fu_del2              =   0.0000000000000E+00
(PID.TID 0000.0001) %MON forcing_fv_max               =   0.0000000000000E+00
(PID.TID 0000.0001) %MON forcing_fv_min               =   0.0000000000000E+00
(PID.TID 0000.0001) %MON forcing_fv_mean              =   0.0000000000000E+00
(PID.TID 0000.0001) %MON forcing_fv_sd                =   0.0000000000000E+00
(PID.TID 0000.0001) %MON forcing_fv_del2              =   0.0000000000000E+00
(PID.TID 0000.0001) %MON advcfl_uvel_max              =   8.6617410567478E-02
(PID.TID 0000.0001) %MON advcfl_vvel_max              =   0.0000000000000E+00
(PID.TID 0000.0001) %MON advcfl_wvel_max              =   2.0001339011117E-01
(PID.TID 0000.0001) %MON advcfl_W_hf_max              =   2.0350044394674E-01
(PID.TID 0000.0001) %MON pe_b_mean                    =   1.4787926749943E-06
(PID.TID 0000.0001) %MON ke_max                       =   9.1349013174405E-01
(PID.TID 0000.0001) %MON ke_mean                      =   3.3479330763351E-02
(PID.TID 0000.0001) %MON ke_vol                       =   8.5338127039305E+10
(PID.TID 0000.0001) %MON vort_r_min                   =   0.0000000000000E+00
(PID.TID 0000.0001) %MON vort_r_max                   =   0.0000000000000E+00
(PID.TID 0000.0001) %MON vort_a_mean                  =   0.0000000000000E+00
(PID.TID 0000.0001) %MON vort_a_sd                    =   0.0000000000000E+00
(PID.TID 0000.0001) %MON vort_p_mean                  =   0.0000000000000E+00
(PID.TID 0000.0001) %MON vort_p_sd                    =   0.0000000000000E+00
(PID.TID 0000.0001) %MON surfExpan_theta_mean         =   7.4358982542478E-10
(PID.TID 0000.0001) %MON surfExpan_salt_mean          =   3.5627082263113E-18
(PID.TID 0000.0001) // =======================================================
(PID.TID 0000.0001) // End MONITOR dynamic field statistics
(PID.TID 0000.0001) // =======================================================
(PID.TID 0000.0001) // =======================================================
(PID.TID 0000.0001) // Begin OBCS MONITOR field statistics
(PID.TID 0000.0001) // =======================================================
(PID.TID 0000.0001) %MON obc_E_uVel_max               =   0.0000000000000E+00
(PID.TID 0000.0001) %MON obc_E_uVel_min               =   0.0000000000000E+00
(PID.TID 0000.0001) %MON obc_E_uVel_mean              =   0.0000000000000E+00
(PID.TID 0000.0001) %MON obc_E_uVel_sd                =   0.0000000000000E+00
(PID.TID 0000.0001) %MON obc_E_uVel_Int               =   0.0000000000000E+00
(PID.TID 0000.0001) %MON obc_W_uVel_max               =   0.0000000000000E+00
(PID.TID 0000.0001) %MON obc_W_uVel_min               =   0.0000000000000E+00
(PID.TID 0000.0001) %MON obc_W_uVel_mean              =   0.0000000000000E+00
(PID.TID 0000.0001) %MON obc_W_uVel_sd                =   0.0000000000000E+00
(PID.TID 0000.0001) %MON obc_W_uVel_Int               =   0.0000000000000E+00
(PID.TID 0000.0001) // =======================================================
(PID.TID 0000.0001) // End OBCS MONITOR field statistics
(PID.TID 0000.0001) // =======================================================
(PID.TID 0000.0001) %CHECKPOINT      7200 0000007200
(PID.TID 0000.0001)   Seconds in section "ALL                    [THE_MODEL_MAIN]":
(PID.TID 0000.0001)           User time:   259.62000000000000
(PID.TID 0000.0001)         System time:  0.31000000000000000
(PID.TID 0000.0001)     Wall clock time:   259.96995806694031
(PID.TID 0000.0001)          No. starts:           1
(PID.TID 0000.0001)           No. stops:           1
(PID.TID 0000.0001)   Seconds in section "INITIALISE_FIXED       [THE_MODEL_MAIN]":
(PID.TID 0000.0001)           User time:   5.0000000000000003E-002
(PID.TID 0000.0001)         System time:   0.0000000000000000
(PID.TID 0000.0001)     Wall clock time:   5.4921865463256836E-002
(PID.TID 0000.0001)          No. starts:           1
(PID.TID 0000.0001)           No. stops:           1
(PID.TID 0000.0001)   Seconds in section "THE_MAIN_LOOP          [THE_MODEL_MAIN]":
(PID.TID 0000.0001)           User time:   259.56999999999999
(PID.TID 0000.0001)         System time:  0.31000000000000000
(PID.TID 0000.0001)     Wall clock time:   259.91497898101807
(PID.TID 0000.0001)          No. starts:           1
(PID.TID 0000.0001)           No. stops:           1
(PID.TID 0000.0001)   Seconds in section "INITIALISE_VARIA    [THE_MAIN_LOOP]":
(PID.TID 0000.0001)           User time:   9.9999999999999950E-003
(PID.TID 0000.0001)         System time:   0.0000000000000000
(PID.TID 0000.0001)     Wall clock time:   1.7136812210083008E-002
(PID.TID 0000.0001)          No. starts:           1
(PID.TID 0000.0001)           No. stops:           1
(PID.TID 0000.0001)   Seconds in section "MAIN LOOP           [THE_MAIN_LOOP]":
(PID.TID 0000.0001)           User time:   259.56000000000000
(PID.TID 0000.0001)         System time:  0.31000000000000000
(PID.TID 0000.0001)     Wall clock time:   259.89779806137085
(PID.TID 0000.0001)          No. starts:           1
(PID.TID 0000.0001)           No. stops:           1
(PID.TID 0000.0001)   Seconds in section "MAIN_DO_LOOP        [THE_MAIN_LOOP]":
(PID.TID 0000.0001)           User time:   259.48999999999234
(PID.TID 0000.0001)         System time:  0.31000000000000033
(PID.TID 0000.0001)     Wall clock time:   259.83360576629639
(PID.TID 0000.0001)          No. starts:        7200
(PID.TID 0000.0001)           No. stops:        7200
(PID.TID 0000.0001)   Seconds in section "FORWARD_STEP        [MAIN_DO_LOOP]":
(PID.TID 0000.0001)           User time:   259.39999999999242
(PID.TID 0000.0001)         System time:  0.31000000000000033
(PID.TID 0000.0001)     Wall clock time:   259.70247936248779
(PID.TID 0000.0001)          No. starts:        7200
(PID.TID 0000.0001)           No. stops:        7200
(PID.TID 0000.0001)   Seconds in section "LOAD_FIELDS_DRIVER  [FORWARD_STEP]":
(PID.TID 0000.0001)           User time:  0.21000000000003638
(PID.TID 0000.0001)         System time:   0.0000000000000000
(PID.TID 0000.0001)     Wall clock time:  0.19698953628540039
(PID.TID 0000.0001)          No. starts:        7200
(PID.TID 0000.0001)           No. stops:        7200
(PID.TID 0000.0001)   Seconds in section "EXTERNAL_FLDS_LOAD [LOAD_FLDS_DRIVER]":
(PID.TID 0000.0001)           User time:   9.9999999999909051E-003
(PID.TID 0000.0001)         System time:   0.0000000000000000
(PID.TID 0000.0001)     Wall clock time:   6.5777301788330078E-002
(PID.TID 0000.0001)          No. starts:        7200
(PID.TID 0000.0001)           No. stops:        7200
(PID.TID 0000.0001)   Seconds in section "DO_ATMOSPHERIC_PHYS [FORWARD_STEP]":
(PID.TID 0000.0001)           User time:   3.9999999999963620E-002
(PID.TID 0000.0001)         System time:   0.0000000000000000
(PID.TID 0000.0001)     Wall clock time:   6.5533638000488281E-002
(PID.TID 0000.0001)          No. starts:        7200
(PID.TID 0000.0001)           No. stops:        7200
(PID.TID 0000.0001)   Seconds in section "DO_OCEANIC_PHYS     [FORWARD_STEP]":
(PID.TID 0000.0001)           User time:   86.849999999985812
(PID.TID 0000.0001)         System time:   7.0000000000000007E-002
(PID.TID 0000.0001)     Wall clock time:   86.740235567092896
(PID.TID 0000.0001)          No. starts:        7200
(PID.TID 0000.0001)           No. stops:        7200
(PID.TID 0000.0001)   Seconds in section "DYNAMICS            [FORWARD_STEP]":
(PID.TID 0000.0001)           User time:   83.029999999987865
(PID.TID 0000.0001)         System time:   9.0000000000000080E-002
(PID.TID 0000.0001)     Wall clock time:   83.137191772460938
(PID.TID 0000.0001)          No. starts:        7200
(PID.TID 0000.0001)           No. stops:        7200
(PID.TID 0000.0001)   Seconds in section "SOLVE_FOR_PRESSURE  [FORWARD_STEP]":
(PID.TID 0000.0001)           User time:   2.7399999999985880
(PID.TID 0000.0001)         System time:   0.0000000000000000
(PID.TID 0000.0001)     Wall clock time:   2.8610253334045410
(PID.TID 0000.0001)          No. starts:        7200
(PID.TID 0000.0001)           No. stops:        7200
(PID.TID 0000.0001)   Seconds in section "MOM_CORRECTION_STEP [FORWARD_STEP]":
(PID.TID 0000.0001)           User time:   3.1299999999981196
(PID.TID 0000.0001)         System time:   0.0000000000000000
(PID.TID 0000.0001)     Wall clock time:   2.9251279830932617
(PID.TID 0000.0001)          No. starts:        7200
(PID.TID 0000.0001)           No. stops:        7200
(PID.TID 0000.0001)   Seconds in section "INTEGR_CONTINUITY   [FORWARD_STEP]":
(PID.TID 0000.0001)           User time:   1.5799999999993020
(PID.TID 0000.0001)         System time:   1.0000000000000009E-002
(PID.TID 0000.0001)     Wall clock time:   1.4586069583892822
(PID.TID 0000.0001)          No. starts:        7200
(PID.TID 0000.0001)           No. stops:        7200
(PID.TID 0000.0001)   Seconds in section "BLOCKING_EXCHANGES  [FORWARD_STEP]":
(PID.TID 0000.0001)           User time:   7.3999999999930992
(PID.TID 0000.0001)         System time:   2.0000000000000018E-002
(PID.TID 0000.0001)     Wall clock time:   7.7297568321228027
(PID.TID 0000.0001)          No. starts:       14400
(PID.TID 0000.0001)           No. stops:       14400
(PID.TID 0000.0001)   Seconds in section "THERMODYNAMICS      [FORWARD_STEP]":
(PID.TID 0000.0001)           User time:   72.719999999987294
(PID.TID 0000.0001)         System time:   8.9999999999999969E-002
(PID.TID 0000.0001)     Wall clock time:   73.098669528961182
(PID.TID 0000.0001)          No. starts:        7200
(PID.TID 0000.0001)           No. stops:        7200
(PID.TID 0000.0001)   Seconds in section "TRC_CORRECTION_STEP [FORWARD_STEP]":
(PID.TID 0000.0001)           User time:   6.9999999999936335E-002
(PID.TID 0000.0001)         System time:   0.0000000000000000
(PID.TID 0000.0001)     Wall clock time:   6.6154003143310547E-002
(PID.TID 0000.0001)          No. starts:        7200
(PID.TID 0000.0001)           No. stops:        7200
(PID.TID 0000.0001)   Seconds in section "MONITOR             [FORWARD_STEP]":
(PID.TID 0000.0001)           User time:  0.13000000000010914
(PID.TID 0000.0001)         System time:   0.0000000000000000
(PID.TID 0000.0001)     Wall clock time:  0.11009788513183594
(PID.TID 0000.0001)          No. starts:        7200
(PID.TID 0000.0001)           No. stops:        7200
(PID.TID 0000.0001)   Seconds in section "DO_THE_MODEL_IO     [FORWARD_STEP]":
(PID.TID 0000.0001)           User time:  0.21999999999997044
(PID.TID 0000.0001)         System time:   2.0000000000000018E-002
(PID.TID 0000.0001)     Wall clock time:  0.21296429634094238
(PID.TID 0000.0001)          No. starts:        7200
(PID.TID 0000.0001)           No. stops:        7200
(PID.TID 0000.0001)   Seconds in section "DO_WRITE_PICKUP     [FORWARD_STEP]":
(PID.TID 0000.0001)           User time:  0.12000000000000455
(PID.TID 0000.0001)         System time:   1.0000000000000009E-002
(PID.TID 0000.0001)     Wall clock time:  0.10302639007568359
(PID.TID 0000.0001)          No. starts:        7200
(PID.TID 0000.0001)           No. stops:        7200
(PID.TID 0000.0001) // ======================================================
(PID.TID 0000.0001) // Tile <-> Tile communication statistics
(PID.TID 0000.0001) // ======================================================
(PID.TID 0000.0001) // o Tile number: 000001
(PID.TID 0000.0001) //         No. X exchanges =              0
(PID.TID 0000.0001) //            Max. X spins =              0
(PID.TID 0000.0001) //            Min. X spins =     1000000000
(PID.TID 0000.0001) //          Total. X spins =              0
(PID.TID 0000.0001) //            Avg. X spins =       0.00E+00
(PID.TID 0000.0001) //         No. Y exchanges =              0
(PID.TID 0000.0001) //            Max. Y spins =              0
(PID.TID 0000.0001) //            Min. Y spins =     1000000000
(PID.TID 0000.0001) //          Total. Y spins =              0
(PID.TID 0000.0001) //            Avg. Y spins =       0.00E+00
(PID.TID 0000.0001) // o Thread number: 000001
(PID.TID 0000.0001) //            No. barriers =        1339644
(PID.TID 0000.0001) //      Max. barrier spins =              1
(PID.TID 0000.0001) //      Min. barrier spins =              1
(PID.TID 0000.0001) //     Total barrier spins =        1339644
(PID.TID 0000.0001) //      Avg. barrier spins =       1.00E+00
PROGRAM MAIN: Execution ended Normally
